158

Mg 40.50500 9.68300 29.26200
C  42.45300 11.14800 31.90800
C  38.46200 8.41500 31.56000
C  38.96100 8.34900 26.77200
C  43.17800 10.68100 27.07200
N  40.53400 9.71400 31.49200
C  41.26900 10.56900 32.36600
C  40.87700 10.35700 33.88300
C  39.64800 9.31400 33.69500
C  39.55100 9.03100 32.16200
C  39.67900 8.08800 34.65800
C  40.55000 11.64700 34.68100
C  41.12700 11.69600 36.08800
H  40.41200 12.48300 37.20000
N  38.90100 8.54100 29.16200
C  38.04000 8.19300 30.22300
C  36.97100 7.42700 29.74600
C  37.14600 7.37300 28.34400
C  38.36600 8.06900 28.01600
C  35.96400 6.79800 30.68300
C  36.26200 6.62400 27.36000
O  36.68300 6.30100 26.28300
C  34.78600 6.32900 27.75300
N  41.12800 9.28100 27.21800
C  40.17200 8.86600 26.38600
C  40.55800 9.04600 24.88700
C  41.90900 9.83400 25.02800
C  42.08600 9.94600 26.53500
C  40.60200 7.65100 24.16100
C  41.79800 11.23300 24.25800
C  41.42900 12.57000 24.98800
N  42.37900 10.71500 29.34800
C  43.37400 10.96300 28.42200
C  44.54500 11.62400 29.06400
C  44.13700 11.76200 30.39300
C  42.82400 11.17400 30.53300
C  45.84300 12.00900 28.45800
C  44.58000 12.21400 31.68100
O  45.63100 12.79800 32.06500
C  43.51000 11.85500 32.73700
C  44.12300 10.89200 33.68900
O  44.55100 9.78500 33.44300
O  44.31800 11.51300 34.88700
C  44.33100 10.57500 36.01000
H  37.78900 8.03600 32.33100
H  38.42900 7.93100 25.91500
H  43.87100 11.16500 26.38000
H  41.64900 9.90200 34.50300
H  38.67100 9.76900 33.86000
H  39.90100 7.28200 33.95900
H  38.75500 7.75900 35.13300
H  40.52400 8.16900 35.34200
H  39.50900 11.96700 34.67600
H  40.95200 12.49300 34.12300
H  42.07600 12.23300 36.09800
H  41.36500 10.69600 36.45100
H  34.96000 7.16300 30.46600
H  36.07700 6.94600 31.75700
H  35.92400 5.72500 30.49600
H  34.19700 6.06500 26.87400
H  34.32400 7.22200 28.17400
H  34.70400 5.53800 28.49800
H  39.76700 9.61700 24.40200
H  42.82400 9.36200 24.67200
H  41.58600 7.51400 23.71200
H  39.83500 7.77100 23.39600
H  40.32900 6.92900 24.93000
H  41.14900 11.13900 23.38800
H  42.74200 11.45800 23.76200
H  42.34000 13.14300 25.16500
H  40.92500 12.48000 25.95000
H  40.75800 13.19000 24.39400
H  45.84100 11.89500 27.37500
H  46.64400 11.36300 28.81800
H  45.93800 13.07000 28.69300
H  43.22300 12.75300 33.28300
H  43.45900 9.92200 36.06200
H  44.15900 11.17600 36.90300
H  45.23000 9.95900 36.02500
Mg -5.88400 25.33100 25.52800
C  -4.13200 26.88700 28.27900
C  -7.21100 23.21300 27.67700
C  -6.73800 23.53500 22.82100
C  -3.55600 27.22500 23.42400
N  -5.61300 25.03600 27.85800
C  -5.05900 25.91600 28.73600
C  -5.55600 25.73700 30.12200
C  -6.35000 24.39200 29.95100
C  -6.42100 24.18400 28.40800
C  -5.75800 23.25700 30.85400
C  -6.38500 26.92200 30.70000
C  -6.36400 27.10900 32.22100
H  -5.76200 25.99500 33.11000
N  -7.07700 23.74300 25.26500
C  -7.39300 22.86800 26.32600
C  -8.14600 21.81700 25.72800
C  -8.09900 21.86400 24.33800
C  -7.28500 23.05400 24.04800
C  -8.83700 20.76900 26.53700
C  -8.61000 20.99600 23.24700
O  -8.59100 21.26700 22.07600
C  -9.28100 19.68800 23.70400
N  -5.25500 25.40700 23.45300
C  -5.91000 24.61300 22.54100
C  -5.33000 24.88300 21.12600
C  -4.42000 26.15800 21.26100
C  -4.43000 26.29000 22.80500
C  -4.80800 23.69700 20.30600
C  -4.81900 27.36600 20.39100
C  -4.09200 27.53400 19.05500
N  -4.27000 26.89900 25.69200
C  -3.47300 27.55800 24.77900
C  -2.57600 28.45200 25.48300
C  -2.82100 28.22700 26.84000
C  -3.79800 27.31700 26.91700
C  -1.56600 29.42200 24.94400
C  -2.39000 28.54800 28.18600
O  -1.52900 29.36000 28.50400
C  -3.27100 27.64700 29.17300
C  -2.31700 26.75400 29.93600
O  -1.61000 25.85300 29.45600
O  -2.34000 27.09900 31.30400
C  -1.48500 26.33700 32.14100
H  -7.59700 22.58300 28.48000
H  -7.04200 22.94800 21.95100
H  -2.88300 27.70700 22.71300
H  -4.71800 25.56400 30.79700
H  -7.42100 24.54500 30.07700
H  -5.50800 22.42100 30.20100
H  -6.55000 23.07100 31.57900
H  -4.82100 23.54100 31.33400
H  -7.46500 26.78300 30.64200
H  -6.11000 27.85600 30.21000
H  -7.42100 27.14500 32.48400
H  -5.88900 28.07400 32.39600
H  -9.88200 20.87500 26.24400
H  -8.97600 21.01400 27.59000
H  -8.35500 19.80100 26.40000
H  -9.42600 19.12200 22.78400
H  -10.24400 19.92600 24.15600
H  -8.65400 19.23300 24.47100
H  -6.23700 25.10900 20.56600
H  -3.41000 25.81100 21.04400
H  -4.96700 22.74000 20.80300
H  -3.76200 23.70300 20.00200
H  -5.34500 23.71600 19.35800
H  -4.62800 28.32000 20.88300
H  -5.90000 27.42200 20.26400
H  -4.81500 27.67300 18.25100
H  -3.44000 26.67700 18.88400
H  -3.51700 28.43600 19.26500
H  -2.14200 30.22400 24.48200
H  -0.86100 28.83800 24.35200
H  -1.05000 29.85900 25.79900
H  -3.77700 28.34700 29.83700
H  -0.51700 26.43900 31.65000
H  -1.71800 25.27400 32.20200
H  -1.33900 26.78300 33.12500

