158

Mg 16.57900 -0.75500 27.83000
C  15.77400 1.30900 30.51000
C  18.68800 -2.55700 29.94200
C  17.99500 -2.34200 24.99200
C  15.28700 1.65000 25.61300
N  17.00600 -0.73700 29.98900
C  16.51900 0.15200 30.87100
C  16.89600 -0.17900 32.36200
C  17.81700 -1.47800 32.12400
C  17.98200 -1.53400 30.56100
C  19.24400 -1.39900 32.79100
C  15.72900 -0.49100 33.36900
C  15.67700 0.19700 34.71600
H  17.00600 0.55200 35.50500
N  18.06600 -2.31200 27.52000
C  18.70400 -2.98600 28.56000
C  19.59400 -3.93000 27.90700
C  19.34100 -3.95500 26.49200
C  18.38600 -2.85400 26.23500
C  20.51800 -4.80600 28.66300
C  19.95900 -4.83300 25.42800
O  19.73800 -4.72300 24.21700
C  21.00500 -5.83100 25.76600
N  16.68600 -0.37100 25.58700
C  17.29000 -1.19700 24.69200
C  17.16200 -0.56700 23.22700
C  16.13900 0.55700 23.55600
C  16.00300 0.62100 25.03100
C  18.50700 0.06500 22.68200
C  14.69500 0.35900 22.87500
C  14.19700 1.59500 21.97300
N  15.63000 1.06700 27.98600
C  15.18600 1.92300 27.01200
C  14.35200 2.89200 27.68600
C  14.63600 2.74500 29.06600
C  15.41500 1.59000 29.14700
C  13.58100 3.98000 27.08800
C  14.40300 3.37500 30.35900
O  13.73400 4.37200 30.64300
C  15.17400 2.40000 31.40200
C  16.09100 3.12600 32.26800
O  17.23000 3.39800 32.01100
O  15.58400 3.55200 33.49700
C  16.48300 4.41900 34.28600
H  19.18000 -3.32200 30.54600
H  18.33700 -2.76400 24.04500
H  14.70300 2.41100 25.09000
H  17.62300 0.57200 32.67000
H  17.31600 -2.35000 32.54400
H  20.06400 -1.28700 32.08200
H  19.29700 -2.28300 33.42500
H  19.31200 -0.50800 33.41500
H  15.72800 -1.55100 33.62200
H  14.74700 -0.36800 32.91100
H  14.99300 -0.35400 35.36200
H  15.12900 1.12400 34.55000
H  21.49400 -4.95400 28.20000
H  20.06100 -5.78800 28.78400
H  20.60800 -4.34700 29.64700
H  20.47200 -6.63200 26.27900
H  21.75700 -5.24000 26.28700
H  21.41700 -6.29000 24.86700
H  16.71400 -1.30800 22.56500
H  16.64500 1.45800 23.21100
H  19.21500 0.08500 23.51000
H  18.51300 1.07300 22.26800
H  18.93500 -0.64400 21.97300
H  13.91200 0.23100 23.62300
H  14.63100 -0.52600 22.24200
H  13.31200 2.06100 22.40700
H  13.87000 1.40100 20.95200
H  14.99000 2.33800 21.89700
H  14.21800 4.49400 26.36900
H  13.39600 4.74200 27.84600
H  12.73400 3.49900 26.59900
H  14.30300 2.04700 31.95400
H  16.47600 5.31500 33.66600
H  17.44300 3.94400 34.48600
H  15.99600 4.62800 35.23900
Mg 56.18300 24.74700 44.62400
C  53.88900 26.93600 43.23500
C  54.69400 22.15600 43.01000
C  59.09500 22.91900 45.07300
C  57.98400 27.72700 45.68300
N  54.58800 24.57600 43.07100
C  53.80900 25.64600 42.67800
C  52.70100 25.17200 41.72000
C  52.83100 23.58700 41.89600
C  54.09400 23.38900 42.69000
C  51.56000 22.76000 42.35100
C  53.09100 25.62200 40.19700
C  51.93500 26.06500 39.19100
H  51.72500 25.21800 37.94500
N  56.68400 22.76600 44.31500
C  55.86600 21.77100 43.76400
C  56.55100 20.55000 43.83300
C  57.79600 20.69100 44.46600
C  57.93600 22.20700 44.62500
C  55.88700 19.28800 43.35100
C  58.79900 19.58900 44.91700
O  58.64600 18.43800 44.60100
C  59.80800 19.86700 45.91000
N  58.16400 25.21400 45.41700
C  59.22000 24.25600 45.45700
C  60.41200 24.90900 46.15300
C  60.09600 26.45700 46.06400
C  58.65700 26.45000 45.78100
C  60.77700 24.41000 47.57800
C  60.88500 27.32700 44.98900
C  61.41100 28.69400 45.42800
N  55.93700 26.85700 44.72100
C  56.69100 27.90500 45.16600
C  55.95500 29.14000 45.10600
C  54.81500 28.78900 44.37500
C  54.90700 27.42500 44.11500
C  56.28500 30.50900 45.70700
C  53.51100 29.22100 43.91600
O  52.94000 30.28500 43.97700
C  52.83000 28.02400 43.09600
C  52.77800 28.69600 41.76800
O  53.74800 29.07600 41.17400
O  51.48700 28.85700 41.46000
C  51.11600 29.36500 40.14000
H  54.26100 21.29700 42.49200
H  60.03300 22.42300 45.33100
H  58.48600 28.61800 46.06600
H  51.69200 25.50800 41.95900
H  52.87000 23.14800 40.89900
H  51.58400 21.78400 41.86800
H  50.60600 23.28100 42.27200
H  51.71500 22.50300 43.39800
H  53.56800 24.82100 39.63300
H  53.90300 26.34800 40.15600
H  52.23700 27.04900 38.83300
H  51.00600 26.21100 39.74200
H  56.33000 18.77800 42.49500
H  54.87200 19.46400 42.99500
H  55.79600 18.58400 44.17800
H  60.72700 20.13600 45.38900
H  60.00600 18.99900 46.54000
H  59.45100 20.63100 46.60100
H  61.30300 24.85000 45.52800
H  60.28800 27.05100 46.95700
H  60.46200 25.08000 48.37800
H  61.84200 24.19300 47.50000
H  60.29100 23.44000 47.68600
H  60.25300 27.45700 44.11000
H  61.81100 26.85400 44.66000
H  62.49800 28.75400 45.37500
H  61.28100 28.86700 46.49700
H  60.99900 29.50900 44.83200
H  56.78400 31.12100 44.95600
H  56.95300 30.46400 46.56600
H  55.49300 31.19700 46.00500
H  51.90000 27.65400 43.52700
H  50.51000 30.23600 40.39000
H  50.53700 28.62400 39.58900
H  51.89600 29.71600 39.46400

