158

Mg 44.45800 4.02700 46.45800
C  42.46400 6.83800 46.50300
C  41.52400 2.01200 46.45100
C  46.36100 1.36100 45.98900
C  47.23500 6.13300 46.05400
N  42.27400 4.38000 46.23200
C  41.77100 5.66200 46.22300
C  40.19800 5.53400 46.21200
C  39.92200 4.00200 46.49700
C  41.28900 3.39400 46.31600
C  39.17900 3.68000 47.90400
C  39.45000 6.03800 44.86200
C  39.85400 5.43400 43.47800
H  39.84400 6.33100 42.26100
N  44.03600 1.92100 46.10100
C  42.75600 1.35000 46.21100
C  42.97100 -0.11000 46.21900
C  44.37700 -0.30100 45.89700
C  44.98900 1.03500 46.02400
C  41.95700 -1.15900 46.52700
C  45.05000 -1.60100 45.56000
O  44.29600 -2.60400 45.62300
C  46.51400 -1.78100 45.34500
N  46.46000 3.81300 45.83300
C  47.02400 2.58100 45.86500
C  48.55800 2.71100 45.86200
C  48.83300 4.29000 45.87000
C  47.43000 4.82100 45.87000
C  49.28800 1.91000 47.03200
C  49.64800 4.83800 44.62200
C  50.89300 3.99800 44.35800
N  44.83700 6.05900 46.35000
C  46.01800 6.79500 46.19900
C  45.68400 8.23200 46.39200
C  44.28700 8.26200 46.49400
C  43.82300 6.93600 46.44000
C  46.74900 9.34000 46.37500
C  43.12800 9.15000 46.59200
O  43.13200 10.36100 46.53100
C  41.87500 8.24700 46.61000
C  41.18500 8.48600 47.87800
O  41.41800 7.88900 48.93000
O  40.42700 9.57900 47.79800
C  39.72600 10.16200 48.97300
H  40.72600 1.29000 46.63700
H  47.07900 0.53900 45.97100
H  48.08200 6.82200 46.08600
H  39.77000 6.16300 46.99200
H  39.30900 3.58000 45.70100
H  39.00300 4.65800 48.35300
H  39.85700 2.95600 48.35600
H  38.22600 3.16200 47.79300
H  39.50900 7.11400 44.70000
H  38.41000 5.78900 45.06900
H  39.09100 4.68000 43.28600
H  40.84300 4.97600 43.46800
H  41.45500 -1.46700 45.61000
H  41.25000 -0.72500 47.23300
H  42.44000 -2.05800 46.91100
H  47.17900 -1.52700 46.17000
H  46.68500 -1.03500 44.56900
H  46.70900 -2.79500 44.99700
H  48.90800 2.25000 44.93800
H  49.29900 4.61500 46.80000
H  48.52200 1.59000 47.73900
H  49.90500 2.56900 47.64200
H  49.83700 1.05900 46.62900
H  49.86300 5.87800 44.86500
H  49.00700 4.89400 43.74200
H  51.04200 3.25500 45.14100
H  51.75200 4.66200 44.45000
H  51.00700 3.62900 43.33900
H  47.66600 9.04500 46.88500
H  46.31900 10.15900 46.95100
H  47.08500 9.58900 45.36800
H  41.20500 8.47600 45.78200
H  38.67600 10.10800 48.68600
H  40.02400 11.19300 49.16400
H  39.85300 9.59700 49.89600
Mg 48.45800 15.56800 28.74900
C  46.35000 15.30800 31.70300
C  50.38300 17.63300 30.72100
C  49.94900 16.48200 25.90000
C  45.89200 14.05900 26.97600
N  48.32600 16.39100 31.05000
C  47.51400 15.99400 32.05200
C  48.08300 16.48400 33.48100
C  49.35200 17.28000 33.07700
C  49.34300 17.16000 31.53400
C  49.51100 18.76900 33.48400
C  48.22700 15.31100 34.56100
C  49.01500 15.65400 35.74800
H  48.61400 16.80700 36.77200
N  50.03600 16.74600 28.36400
C  50.71700 17.53400 29.31500
C  51.79300 18.22900 28.59300
C  51.67500 17.95300 27.22500
C  50.57200 16.99800 27.08600
C  52.82800 19.07800 29.30900
C  52.50200 18.41700 26.03100
O  52.33900 17.99700 24.88400
C  53.69500 19.38800 26.30600
N  48.09000 15.13600 26.71800
C  48.77300 15.72300 25.66400
C  48.12200 15.44700 24.28500
C  47.05600 14.33300 24.76600
C  46.95500 14.53300 26.27400
C  47.60700 16.72100 23.68700
C  47.54300 12.90400 24.35000
C  48.04100 11.91800 25.40400
N  46.52700 14.89500 29.15800
C  45.67100 14.10600 28.39100
C  44.50900 13.63000 29.13600
C  44.82400 14.03700 30.41700
C  45.98800 14.83400 30.40500
C  43.38300 12.84300 28.60300
C  44.29200 13.93100 31.75800
O  43.36000 13.34300 32.28400
C  45.18300 14.82700 32.60000
C  44.31100 15.83100 33.35800
O  43.44300 16.46400 32.79900
O  44.53600 15.77800 34.69500
C  43.58100 16.60000 35.42500
H  50.98600 18.29200 31.34900
H  50.34500 16.91200 24.97700
H  45.13800 13.54100 26.38000
H  47.31000 17.12400 33.90800
H  50.27000 16.85500 33.48200
H  48.86100 18.88800 34.35100
H  49.28400 19.50400 32.71200
H  50.57000 18.87800 33.71500
H  48.58400 14.39100 34.09900
H  47.22600 15.09500 34.93500
H  50.06000 15.77300 35.46000
H  48.95500 14.83400 36.46400
H  52.81200 20.14300 29.07700
H  53.77800 18.59300 29.08400
H  52.73700 18.87400 30.37600
H  53.46900 20.35300 26.76000
H  54.16800 19.42500 25.32500
H  54.28400 18.69900 26.91000
H  48.95900 15.09300 23.68200
H  46.10700 14.58200 24.29300
H  46.67000 17.14000 24.05300
H  47.45400 16.34100 22.67600
H  48.31500 17.55000 23.67700
H  48.35300 12.79000 23.62900
H  46.70700 12.25800 24.08200
H  48.70900 11.28700 24.81800
H  47.30200 11.24700 25.84200
H  48.44300 12.35800 26.31600
H  42.40300 13.25300 28.84700
H  43.64600 11.84600 28.95800
H  43.43000 12.88400 27.51500
H  45.49300 14.22700 33.45500
H  43.83500 16.35000 36.45500
H  42.56000 16.24000 35.29600
H  43.63700 17.67100 35.22700

