158

Mg 41.58400 7.30900 29.32800
C  43.16100 9.13500 31.97200
C  38.95300 6.68500 31.45300
C  40.14500 5.47200 26.95600
C  44.33600 7.93000 27.40700
N  41.19700 7.83500 31.45800
C  41.92800 8.58900 32.33900
C  41.28500 8.58900 33.77000
C  40.01300 7.64300 33.59000
C  40.08500 7.34600 32.03700
C  40.02900 6.32200 34.34100
C  40.94800 10.02500 34.12500
C  39.90800 10.22200 35.33600
H  40.27500 11.01000 36.60900
N  39.78400 6.25400 29.23600
C  38.85600 6.15600 30.15400
C  37.71400 5.41600 29.59600
C  37.98700 5.11800 28.21500
C  39.37100 5.58800 28.11700
C  36.49600 5.03400 30.51200
C  37.19400 4.38200 27.13900
O  37.63700 4.07100 26.04400
C  35.79100 3.98300 27.46000
N  42.08500 6.87700 27.50200
C  41.38400 5.98200 26.70800
C  42.16800 5.59800 25.39800
C  43.34600 6.67000 25.48200
C  43.24700 7.21300 26.89900
C  42.55900 4.07200 25.42300
C  43.25000 7.72600 24.40700
C  42.14300 8.78600 24.53100
N  43.46300 8.29800 29.63600
C  44.42800 8.42100 28.69700
C  45.48700 9.21100 29.28800
C  45.02600 9.51900 30.62600
C  43.74600 8.97600 30.71700
C  46.74000 9.62700 28.64200
C  45.35600 10.23300 31.88800
O  46.34200 10.98200 32.10600
C  44.15300 9.88100 32.86000
C  44.74400 9.06800 34.01600
O  45.38200 8.07000 33.87400
O  44.32100 9.54100 35.20900
C  44.44000 8.56200 36.33300
H  38.22100 6.49300 32.24100
H  39.74800 4.84500 26.15400
H  45.15500 7.94700 26.68400
H  41.91800 8.17800 34.55800
H  39.02800 8.06700 33.78700
H  39.12500 6.22400 34.94200
H  40.78000 6.27200 35.12900
H  40.10600 5.49400 33.63600
H  40.49600 10.46500 33.23600
H  41.85700 10.54400 34.42600
H  39.67900 9.21300 35.67800
H  38.98300 10.66700 34.97100
H  35.58200 5.28100 29.97300
H  36.49500 5.38800 31.54300
H  36.41400 3.94900 30.57700
H  35.93900 3.19400 28.19700
H  35.08600 3.67000 26.69000
H  35.33400 4.80900 28.00500
H  41.50000 5.70900 24.54300
H  44.30900 6.23300 25.22000
H  42.19900 3.52500 26.29500
H  43.63800 3.95500 25.52400
H  42.20600 3.54100 24.53900
H  42.95200 7.20900 23.49400
H  44.25100 8.12500 24.24400
H  41.58000 8.94000 23.61100
H  42.65700 9.71200 24.78900
H  41.37200 8.51300 25.25100
H  47.18600 8.69300 28.29900
H  47.45300 10.00600 29.37400
H  46.57600 10.35900 27.85100
H  43.71000 10.72700 33.38500
H  45.48400 8.60500 36.64200
H  44.15200 7.54700 36.05800
H  43.76500 8.91500 37.11200
Mg -4.29600 24.69100 26.59200
C  -3.21000 26.77500 29.13900
C  -5.65200 22.59800 28.91300
C  -5.51000 22.80100 24.15200
C  -3.17200 27.03200 24.26300
N  -4.40900 24.75800 28.81100
C  -3.93300 25.66700 29.66600
C  -4.37400 25.25200 31.12500
C  -4.87200 23.78400 31.08300
C  -5.08100 23.69500 29.52300
C  -3.77300 22.76800 31.54800
C  -5.52100 26.22600 31.64100
C  -5.57400 26.58800 33.10500
H  -4.95200 25.54000 34.00700
N  -5.35600 22.89700 26.58000
C  -5.78200 22.19900 27.57400
C  -6.49600 20.95800 27.14300
C  -6.46700 21.01600 25.70800
C  -5.78300 22.27100 25.42900
C  -7.18000 20.03000 28.14000
C  -6.97600 20.02100 24.66900
O  -6.79200 20.06200 23.43400
C  -7.84600 18.88100 25.24600
N  -4.19200 24.89200 24.46300
C  -4.73400 23.90700 23.72200
C  -4.71400 24.25400 22.19400
C  -4.10700 25.72000 22.16200
C  -3.88600 25.94600 23.66000
C  -3.98800 23.21900 21.32500
C  -5.02800 26.78700 21.63000
C  -4.92700 26.95000 20.09500
N  -3.38400 26.51200 26.61500
C  -2.94200 27.36900 25.59500
C  -2.20700 28.47600 26.13600
C  -2.25000 28.28400 27.56000
C  -3.01900 27.12100 27.79000
C  -1.47400 29.44500 25.41300
C  -1.81000 28.73200 28.86600
O  -1.06400 29.65300 29.16200
C  -2.49600 27.81300 29.91800
C  -1.40200 27.42700 30.82000
O  -0.61700 26.50500 30.60900
O  -1.60600 27.90000 32.08800
C  -0.84100 27.24300 33.14300
H  -5.90100 21.87700 29.69400
H  -5.99100 22.28700 23.31700
H  -2.81200 27.83900 23.62200
H  -3.53600 25.37400 31.81100
H  -5.83400 23.59800 31.56100
H  -3.74400 21.95100 30.82600
H  -4.06000 22.30000 32.48900
H  -2.74500 23.12800 31.49600
H  -6.54500 25.92900 31.41300
H  -5.46700 27.14000 31.04900
H  -6.57700 26.63200 33.52900
H  -5.05100 27.54200 33.16400
H  -6.83500 20.11100 29.17100
H  -6.98400 18.99100 27.87500
H  -8.23600 20.27600 28.02700
H  -8.13300 18.29500 24.37300
H  -8.76600 19.38200 25.54900
H  -7.42100 18.27300 26.04500
H  -5.75000 24.33600 21.86500
H  -3.19400 25.63500 21.57300
H  -4.73100 22.73700 20.68900
H  -3.40700 22.57800 21.98800
H  -3.25000 23.66900 20.66100
H  -4.82200 27.71700 22.16000
H  -6.05800 26.55400 21.90000
H  -4.29100 26.18800 19.64500
H  -4.51400 27.92500 19.83500
H  -5.90100 26.87700 19.61300
H  -1.02700 29.10400 24.48000
H  -0.70600 29.87900 26.05300
H  -2.05900 30.32800 25.15200
H  -3.22500 28.30300 30.56400
H  0.19800 27.56700 33.19600
H  -0.86600 26.15400 33.18900
H  -1.34600 27.55300 34.05700

