158

Mg 16.54600 51.31300 24.72500
C  18.20600 50.30100 27.69500
C  14.06900 52.54100 26.68000
C  14.93400 52.19400 21.81500
C  19.06400 49.98100 23.00400
N  16.17000 51.46200 26.95800
C  17.03400 51.03800 27.97000
C  16.52300 51.43900 29.34900
C  15.06400 51.82900 28.91600
C  15.05600 51.93900 27.43300
C  13.83500 50.92700 29.44300
C  17.33200 52.58500 29.99900
C  17.42400 52.60000 31.55300
H  16.31100 51.84900 32.23300
N  14.79300 52.32000 24.27200
C  13.90100 52.73800 25.21400
C  12.80400 53.32100 24.59400
C  13.03100 53.25600 23.17500
C  14.26200 52.61300 23.00700
C  11.60500 53.92800 25.29400
C  12.26600 53.81700 21.99100
O  12.70100 53.78000 20.90300
C  10.97700 54.47300 22.14700
N  16.87300 51.02200 22.73100
C  16.12300 51.45300 21.71800
C  16.73900 51.07300 20.36300
C  18.17000 50.65700 20.69200
C  18.02100 50.53800 22.23200
C  16.08600 50.04800 19.41000
C  19.29700 51.63100 20.31200
C  20.35500 51.05100 19.31900
N  18.22000 50.22000 25.18200
C  19.21000 49.76500 24.34700
C  20.27700 49.11400 25.02500
C  19.91000 49.34000 26.35500
C  18.66400 49.96600 26.39700
C  21.61100 48.61400 24.57500
C  20.32200 49.16200 27.75600
O  21.33600 48.59100 28.18500
C  19.16100 49.69800 28.67200
C  18.61100 48.56800 29.46600
O  18.15200 47.48200 29.10200
O  18.74300 48.95400 30.77000
C  18.42400 47.91700 31.83900
H  13.29400 52.95600 27.32800
H  14.51100 52.43500 20.83700
H  19.92400 49.59800 22.45000
H  16.54600 50.59600 30.03900
H  14.92300 52.83200 29.32000
H  13.30700 51.56500 30.15200
H  14.26500 50.16400 30.09100
H  13.33200 50.51500 28.56900
H  16.96000 53.57100 29.71900
H  18.36700 52.68100 29.67300
H  17.42700 53.63900 31.88400
H  18.38800 52.22500 31.89700
H  10.76600 53.23500 25.22700
H  11.37600 54.90100 24.86000
H  11.91300 54.16600 26.31200
H  10.36000 53.93800 22.86900
H  10.32500 54.34000 21.28400
H  11.04900 55.54800 22.31000
H  16.71800 51.96700 19.73900
H  18.38900 49.66000 20.31000
H  15.01600 50.04300 19.61900
H  16.44900 49.02900 19.54400
H  16.10000 50.40300 18.37900
H  19.85800 51.83800 21.22300
H  18.95000 52.58200 19.90700
H  21.32700 50.94500 19.80100
H  20.38100 51.67000 18.42200
H  19.95000 50.07500 19.04900
H  22.25100 49.42200 24.22000
H  21.50300 47.96200 23.70900
H  22.02900 47.93500 25.31800
H  19.51800 50.48000 29.34200
H  19.15400 47.10800 31.80700
H  17.40500 47.54900 31.72000
H  18.59800 48.43200 32.78400
Mg -5.82500 25.36000 26.51600
C  -3.90400 26.95700 28.89800
C  -6.73500 22.99600 28.95400
C  -7.42200 23.57200 24.13500
C  -4.21300 27.20800 23.96000
N  -5.35500 25.02700 28.66600
C  -4.77700 26.00500 29.44700
C  -5.02200 25.68300 30.91100
C  -5.45100 24.18900 30.90900
C  -5.89200 24.03800 29.40000
C  -4.32400 23.24900 31.24800
C  -5.92400 26.78600 31.55800
C  -5.50200 27.15300 33.01700
H  -5.09800 25.99300 33.95500
N  -6.96200 23.59000 26.60800
C  -7.24600 22.77100 27.63700
C  -7.91100 21.49200 27.24800
C  -8.19200 21.74000 25.88700
C  -7.51600 22.99800 25.47500
C  -8.38400 20.41100 28.18200
C  -9.00700 20.89000 24.88400
O  -9.15200 21.19200 23.73100
C  -9.53800 19.56900 25.38800
N  -5.67600 25.34800 24.36500
C  -6.65300 24.63900 23.64100
C  -6.64000 24.97200 22.20400
C  -5.50700 26.06400 22.08800
C  -5.20400 26.33100 23.55300
C  -6.32900 23.73000 21.24800
C  -5.95600 27.33100 21.36200
C  -5.63500 27.33100 19.84900
N  -4.34100 26.81500 26.41600
C  -3.79800 27.43200 25.34500
C  -2.76400 28.36700 25.79900
C  -2.74900 28.27400 27.16000
C  -3.71700 27.19300 27.48600
C  -2.05700 29.32600 24.84400
C  -2.15400 28.67700 28.45000
O  -1.25200 29.46800 28.78400
C  -2.84600 27.75200 29.62200
C  -1.66000 26.95900 30.20900
O  -0.89700 26.34300 29.48800
O  -1.67800 26.94300 31.58200
C  -0.82600 25.93500 32.18700
H  -7.09800 22.32300 29.73400
H  -7.94900 23.06300 23.32500
H  -3.71800 27.79300 23.18200
H  -4.04800 25.77900 31.39100
H  -6.25200 24.21200 31.64800
H  -3.59700 23.65400 31.95200
H  -3.80800 23.04300 30.31100
H  -4.65600 22.35900 31.78200
H  -6.92000 26.37300 31.72000
H  -5.98200 27.72900 31.01400
H  -6.33500 27.62600 33.53700
H  -4.56900 27.70900 32.92800
H  -8.28500 20.77900 29.20300
H  -7.83100 19.50700 27.92900
H  -9.43400 20.19700 27.98200
H  -9.91800 18.93900 24.58400
H  -10.42500 19.80200 25.97700
H  -8.75100 19.00400 25.88700
H  -7.65600 25.31800 22.01700
H  -4.66500 25.57000 21.60500
H  -6.35400 22.78300 21.78800
H  -5.44600 23.71700 20.61000
H  -7.13000 23.55200 20.53100
H  -5.57000 28.21900 21.86300
H  -7.03700 27.44900 21.42900
H  -6.60200 27.51300 19.38000
H  -5.09200 26.47500 19.44800
H  -5.02600 28.21400 19.65700
H  -2.83400 29.66600 24.16000
H  -1.36200 28.67500 24.31400
H  -1.59700 30.19700 25.31100
H  -3.24400 28.38000 30.41900
H  0.19600 26.30400 32.09600
H  -0.96900 25.02000 31.61200
H  -0.99200 25.75200 33.24800

