158

Mg 40.72000 41.38000 27.83700
C  39.60100 44.12300 29.99600
C  41.32800 39.56100 30.53900
C  41.58000 39.17700 25.73300
C  40.39700 43.93200 25.26500
N  40.49600 41.83600 29.98200
C  39.90400 42.88400 30.63000
C  39.90300 42.61700 32.19900
C  40.55900 41.18800 32.38100
C  40.80200 40.77600 30.86800
C  41.71100 41.13800 33.43000
C  38.49700 42.84100 32.90700
C  38.09700 42.09100 34.21900
H  37.65500 42.83300 35.45900
N  41.29200 39.53800 28.03000
C  41.67300 38.94100 29.27300
C  42.23600 37.59900 29.00800
C  42.35000 37.52200 27.59100
C  41.70100 38.76000 27.07900
C  42.66400 36.63200 30.08700
C  42.97600 36.38500 26.82800
O  43.02900 36.42200 25.63000
C  43.56700 35.22100 27.52400
N  40.93700 41.51600 25.80800
C  41.23500 40.42400 25.12100
C  41.09800 40.65600 23.67600
C  40.54500 42.15000 23.47300
C  40.53600 42.56000 24.94700
C  42.57400 40.46100 23.10900
C  39.11200 42.13100 22.87900
C  38.12100 41.20300 23.48100
N  40.36500 43.61700 27.64000
C  40.23900 44.44900 26.53800
C  39.83800 45.76500 26.91200
C  39.50800 45.67700 28.26200
C  39.81900 44.35400 28.63600
C  39.69700 46.89900 26.03900
C  38.96000 46.44300 29.40900
O  38.50600 47.58200 29.49700
C  38.99300 45.39100 30.60200
C  39.76400 46.03600 31.73100
O  40.97800 46.29700 31.75400
O  38.80800 46.38400 32.68900
C  39.34200 47.00700 33.95700
H  41.47600 38.93800 31.42300
H  41.88000 38.50000 24.93100
H  40.27600 44.59300 24.40500
H  40.65900 43.35900 32.45400
H  39.77100 40.50500 32.69900
H  42.72400 40.93500 33.08200
H  41.55600 40.58300 34.35500
H  41.89000 42.16700 33.74100
H  37.72800 42.63100 32.16400
H  38.34800 43.87800 33.20700
H  39.01700 41.69100 34.64400
H  37.39200 41.32600 33.89200
H  42.58700 37.19700 31.01600
H  43.69000 36.27900 29.98300
H  41.99000 35.78400 30.20800
H  44.42100 35.51200 28.13500
H  44.04000 34.60500 26.75900
H  42.81300 34.64000 28.05500
H  40.45700 39.88600 23.24600
H  41.10700 42.64400 22.68100
H  42.85200 41.41600 22.66400
H  42.49400 39.67000 22.36300
H  43.30200 40.13000 23.85000
H  39.15300 41.87300 21.82100
H  38.70600 43.14000 22.95700
H  38.55300 40.77900 24.38800
H  37.57400 40.57800 22.77400
H  37.35100 41.84000 23.91600
H  38.70300 47.01600 25.60800
H  40.34700 46.94900 25.16500
H  39.81800 47.81400 26.61800
H  37.99200 45.11700 30.93800
H  39.34700 46.30100 34.78800
H  38.63900 47.77700 34.27600
H  40.36000 47.39000 33.88400
Mg -8.87800 40.22600 42.47400
C  -7.92900 36.99300 41.57500
C  -6.27100 41.47400 40.57500
C  -10.09700 43.22700 42.98600
C  -11.70000 38.90200 44.06200
N  -7.31800 39.26900 41.09300
C  -7.04800 37.96700 40.99600
C  -5.77300 37.68000 40.12500
C  -5.25400 39.14400 39.77600
C  -6.35100 40.05600 40.50300
C  -3.81100 39.47800 40.13300
C  -6.01100 36.81500 38.92800
C  -4.86100 35.80000 38.63600
H  -3.92000 36.11800 37.40400
N  -8.16800 42.13000 41.89900
C  -7.04700 42.45400 41.14700
C  -6.91800 43.92800 41.07800
C  -8.14800 44.45700 41.61900
C  -8.90200 43.27000 42.22200
C  -5.83500 44.62600 40.30100
C  -8.59600 45.94000 41.65600
O  -7.94200 46.79300 41.02600
C  -9.81400 46.40800 42.23100
N  -10.79300 41.02900 43.19200
C  -10.95800 42.31500 43.51800
C  -12.31300 42.59100 44.24200
C  -12.62000 41.13400 44.77900
C  -11.63700 40.29700 43.91200
C  -12.15300 43.64400 45.39100
C  -14.17200 40.74900 44.59100
C  -14.85200 40.24800 45.89100
N  -9.74400 38.35800 42.85200
C  -10.87100 37.94900 43.44800
C  -10.96200 36.55200 43.52400
C  -9.84000 36.08600 42.76600
C  -9.14100 37.22100 42.33600
C  -12.15000 35.75400 44.06700
C  -9.01400 34.90200 42.33500
O  -9.19400 33.73800 42.60800
C  -7.81300 35.44800 41.51300
C  -6.53900 34.94500 42.11800
O  -6.17400 35.26000 43.24000
O  -5.92000 34.17100 41.18100
C  -4.58000 33.62700 41.50900
H  -5.34200 41.59200 40.01500
H  -10.45500 44.21700 43.27600
H  -12.64000 38.62700 44.54300
H  -5.01900 37.30400 40.81600
H  -5.28000 39.38200 38.71200
H  -3.27600 38.53200 40.21800
H  -3.82900 39.95100 41.11500
H  -3.38800 40.02800 39.29300
H  -6.16800 37.41200 38.03000
H  -6.97600 36.31900 39.03600
H  -5.25500 34.81900 38.36800
H  -4.24400 35.71500 39.53000
H  -5.38600 45.26200 41.06300
H  -6.25500 45.17100 39.45600
H  -5.07200 43.87100 40.10900
H  -9.82700 47.48300 42.04900
H  -9.70500 46.30000 43.31000
H  -10.57700 46.04900 41.54100
H  -13.16500 42.91900 43.64800
H  -12.27400 41.00600 45.80400
H  -12.16200 43.26900 46.41500
H  -13.02000 44.25400 45.13800
H  -11.20900 44.16500 45.23300
H  -14.31300 40.03600 43.77900
H  -14.80800 41.59100 44.31700
H  -15.24300 39.26400 45.62900
H  -15.58600 40.92500 46.32700
H  -14.16400 40.06200 46.71500
H  -12.76200 36.39400 44.70300
H  -11.78000 34.91900 44.66100
H  -12.86100 35.40800 43.31600
H  -8.03600 35.11500 40.50000
H  -4.46800 33.03400 42.41600
H  -3.86800 34.44900 41.58100
H  -4.32100 33.08600 40.59800

