158

Mg 48.09100 16.81100 27.86400
C  46.09700 16.68600 30.79300
C  50.47100 18.40400 29.54000
C  49.79100 17.25200 24.86200
C  45.50400 15.31800 26.08700
N  48.28100 17.43200 29.94000
C  47.34300 17.36900 30.96100
C  47.98100 17.82600 32.24100
C  49.27500 18.64500 31.77900
C  49.39300 18.07800 30.35500
C  49.19300 20.16800 31.81000
C  48.19300 16.62900 33.24000
C  48.08100 16.92800 34.79400
H  47.48900 18.22600 35.26700
N  49.96000 17.68200 27.28700
C  50.81500 18.14500 28.20600
C  52.09000 18.33300 27.59800
C  51.86100 18.25100 26.18000
C  50.46300 17.74400 26.03600
C  53.31000 18.62100 28.40200
C  52.74800 18.56400 25.03800
O  52.31600 18.63400 23.87900
C  54.20100 18.96300 25.27600
N  47.64500 16.41000 25.69100
C  48.48600 16.77700 24.70800
C  47.66400 16.62000 23.35400
C  46.47500 15.71100 23.82000
C  46.50700 15.79600 25.26000
C  47.18500 17.92500 22.71400
C  46.57700 14.17000 23.38400
C  45.59200 13.73100 22.26100
N  46.21100 15.93400 28.30300
C  45.29500 15.33000 27.47900
C  44.01400 15.16400 28.17100
C  44.28900 15.64600 29.48600
C  45.61300 16.14700 29.52800
C  42.70700 14.57600 27.68900
C  43.75400 15.83500 30.82300
O  42.59100 15.65700 31.18200
C  44.94300 16.43800 31.74300
C  44.48200 17.62600 32.55700
O  44.80900 18.80900 32.31700
O  43.72400 17.13400 33.54400
C  42.94100 18.14000 34.26800
H  51.19600 19.01000 30.08800
H  50.23400 17.66300 23.95300
H  44.62400 14.96000 25.54900
H  47.35900 18.61700 32.65900
H  50.13900 18.28400 32.33700
H  48.77200 20.47900 30.85400
H  50.21300 20.51400 31.97300
H  48.60200 20.50700 32.66100
H  49.22200 16.30800 33.07400
H  47.58200 15.80500 32.87300
H  49.07200 16.83000 35.23900
H  47.46100 16.13700 35.21600
H  53.26700 18.21900 29.41400
H  53.41700 19.70000 28.51500
H  54.26000 18.25400 28.01400
H  54.31800 19.85300 25.89400
H  54.65400 19.09300 24.29300
H  54.67900 18.07300 25.68500
H  48.30600 16.12100 22.62700
H  45.51900 16.14300 23.52500
H  46.12100 18.13100 22.83300
H  47.21900 17.78900 21.63300
H  47.88500 18.72700 22.95000
H  46.30200 13.46200 24.16500
H  47.62700 14.02700 23.12700
H  46.24000 13.14900 21.60600
H  45.17200 14.57800 21.71700
H  44.72900 13.22600 22.69400
H  42.65500 14.72700 26.61100
H  41.95600 15.16200 28.22000
H  42.53300 13.52600 27.92400
H  45.21400 15.58600 32.36600
H  42.02100 17.60300 34.49700
H  42.64200 19.00800 33.68000
H  43.44000 18.46600 35.18100
Mg 30.61100 58.59900 40.22000
C  27.90700 56.70300 38.78600
C  32.80500 56.01500 39.22400
C  33.25700 60.66300 41.00100
C  28.36700 61.32200 40.45300
N  30.25300 56.62900 39.17300
C  29.12700 56.05100 38.69900
C  29.37900 54.63800 38.15500
C  30.77900 54.36900 38.79800
C  31.38200 55.74300 39.08200
C  30.68000 53.52500 40.15800
C  29.38700 54.61500 36.61300
C  28.49700 53.59700 35.89000
H  27.60200 54.10700 34.71600
N  32.70100 58.37400 40.18200
C  33.37500 57.27000 39.65600
C  34.81400 57.49600 39.67900
C  34.97400 58.79500 40.21600
C  33.65100 59.36900 40.48800
C  35.89000 56.49900 39.17600
C  36.31500 59.53000 40.33900
O  37.32000 59.06000 39.79600
C  36.52700 60.76700 41.03700
N  30.78800 60.67100 40.76000
C  31.96700 61.25100 41.12800
C  31.72800 62.80700 41.41700
C  30.18300 62.98400 41.15600
C  29.73600 61.55000 40.71400
C  32.11200 63.26300 42.79700
C  29.78000 64.10800 40.09400
C  28.71400 65.07400 40.55700
N  28.44600 58.88700 39.88700
C  27.72900 60.06800 40.00000
C  26.37200 59.84500 39.55200
C  26.41100 58.52000 39.10900
C  27.69000 57.98300 39.37000
C  25.20800 60.76200 39.50000
C  25.56900 57.41500 38.58000
O  24.39200 57.34400 38.30300
C  26.55500 56.26800 38.39300
C  26.07600 55.04000 39.09700
O  26.42800 54.58200 40.14000
O  25.31500 54.37300 38.23500
C  24.89500 53.00000 38.59500
H  33.43000 55.15700 38.97100
H  33.94800 61.45100 41.31000
H  27.71700 62.17300 40.67000
H  28.63400 53.88200 38.39800
H  31.41400 53.88200 38.05900
H  29.63100 53.43200 40.44100
H  31.38000 53.85700 40.92500
H  30.94900 52.48500 39.97200
H  30.37100 54.53800 36.15000
H  29.15800 55.64200 36.32800
H  27.77200 53.24700 36.62400
H  29.19600 52.78200 35.70500
H  36.69100 57.00400 38.63700
H  35.39000 55.71800 38.60400
H  36.30900 55.93000 40.00600
H  36.03500 61.54700 40.45700
H  37.61000 60.87000 40.97200
H  36.17100 60.73800 42.06700
H  32.37500 63.28100 40.67900
H  29.59300 63.18800 42.05000
H  31.58000 62.58100 43.46100
H  31.75500 64.28700 42.90300
H  33.19000 63.16600 42.92400
H  29.45600 63.55300 39.21400
H  30.67700 64.62600 39.75500
H  28.07800 65.33200 39.71000
H  29.29900 65.89100 40.97700
H  27.96600 64.69500 41.25400
H  25.10000 61.21300 40.48600
H  24.29900 60.19700 39.29900
H  25.32000 61.57900 38.78700
H  26.48700 55.96700 37.34700
H  23.83800 53.08800 38.84500
H  25.28000 52.44800 39.45300
H  24.97500 52.44300 37.66200

