158

Mg 1.56400 -0.69600 43.79500
C  4.96800 -0.57600 42.95200
C  1.12400 2.02800 41.78100
C  -1.72000 -1.58000 43.65800
C  2.19700 -3.83400 45.32700
N  2.91700 0.56400 42.46700
C  4.24000 0.39700 42.29400
C  4.80000 1.50500 41.39000
C  3.53500 2.36600 41.10900
C  2.46500 1.62200 41.79800
C  3.54000 3.89500 41.35800
C  5.45000 0.87300 40.14800
C  6.80700 1.54000 39.77900
H  6.86100 2.20400 38.43400
N  -0.13500 0.23700 43.05000
C  -0.10000 1.35400 42.23200
C  -1.41400 1.62600 41.86400
C  -2.25400 0.65000 42.44100
C  -1.38400 -0.32200 43.05100
C  -1.73200 2.89900 41.14200
C  -3.81900 0.73000 42.39200
O  -4.43900 1.72600 41.98800
C  -4.68200 -0.29900 42.86900
N  0.42700 -2.45400 44.47000
C  -0.90000 -2.58200 44.22700
C  -1.44700 -3.98000 44.54600
C  -0.13900 -4.72400 45.06900
C  0.89300 -3.59500 44.91500
C  -2.54900 -3.83600 45.57400
C  0.30500 -6.01400 44.28300
C  0.65700 -7.32900 45.11600
N  3.23300 -1.91600 44.24700
C  3.30900 -3.10900 44.93600
C  4.74300 -3.41800 45.12300
C  5.42000 -2.44300 44.38300
C  4.43600 -1.58000 43.80400
C  5.32000 -4.69800 45.79800
C  6.73600 -2.06500 43.89600
O  7.81100 -2.62600 44.01400
C  6.50200 -0.82200 42.98400
C  7.23200 0.17000 43.65500
O  6.89300 0.65700 44.71800
O  8.28600 0.50400 42.83600
C  8.89100 1.81300 43.18900
H  0.92700 2.99600 41.31800
H  -2.71900 -1.99000 43.49500
H  2.34100 -4.76100 45.88600
H  5.45200 2.05100 42.07100
H  3.22900 2.45600 40.06600
H  4.47300 4.45300 41.43800
H  3.14100 4.08600 42.35500
H  2.96800 4.41400 40.58800
H  4.82900 1.00700 39.26200
H  5.64000 -0.18700 40.31700
H  7.54700 0.74100 39.74900
H  7.05200 2.35000 40.46600
H  -1.74800 2.55700 40.10700
H  -0.98600 3.68100 41.28400
H  -2.65900 3.39000 41.43700
H  -5.74100 -0.13000 42.67500
H  -4.49700 -0.40500 43.93800
H  -4.41100 -1.23500 42.38100
H  -1.82100 -4.38300 43.60500
H  -0.31200 -4.89200 46.13200
H  -2.40300 -4.55500 46.38100
H  -3.44700 -4.14600 45.03900
H  -2.62100 -2.78800 45.86300
H  1.18500 -5.90300 43.64900
H  -0.48200 -6.25500 43.56800
H  0.78600 -7.04400 46.16100
H  1.50800 -7.82700 44.65100
H  -0.19700 -7.98200 44.94100
H  5.75100 -4.44700 46.76700
H  6.11600 -5.13200 45.19300
H  4.50200 -5.38600 46.01000
H  6.98200 -1.12600 42.05400
H  8.21000 2.54800 43.61800
H  9.16900 2.18100 42.20200
H  9.85300 1.75900 43.69800
Mg 0.93700 7.75300 25.86200
C  1.69100 9.45000 28.84100
C  0.75900 4.86500 27.65600
C  0.69000 6.24600 22.91900
C  1.61700 10.91200 24.12100
N  1.21600 7.22300 28.06300
C  1.42500 8.01400 29.06800
C  1.26000 7.28300 30.44600
C  1.31600 5.75600 29.97000
C  1.11200 5.93400 28.48300
C  2.58400 4.93100 30.21600
C  -0.05600 7.69100 31.12400
C  -0.08500 7.89200 32.63500
H  1.15000 7.70100 33.42200
N  0.75500 5.91900 25.38800
C  0.58000 4.83800 26.27100
C  0.31600 3.60500 25.52400
C  0.40000 3.95300 24.16300
C  0.61700 5.46500 24.11000
C  -0.06200 2.28200 26.08000
C  0.32800 3.06700 22.93300
O  0.38700 3.41700 21.76500
C  0.34400 1.57300 23.02000
N  1.20000 8.51200 23.81500
C  0.99600 7.60900 22.75600
C  1.04600 8.35200 21.41200
C  0.93700 9.85900 21.85800
C  1.33800 9.81100 23.34800
C  2.36600 8.13000 20.59600
C  -0.43500 10.62500 21.70100
C  -0.53000 11.41100 20.41000
N  1.51400 9.80200 26.34700
C  1.76400 10.91900 25.50900
C  1.96500 12.06200 26.46100
C  1.99500 11.53600 27.71900
C  1.76700 10.18200 27.64200
C  2.02600 13.51500 26.07200
C  2.21700 11.91200 29.11400
O  2.71600 12.92500 29.56900
C  1.88100 10.56000 29.91100
C  3.15200 10.47800 30.77100
O  4.17000 9.93400 30.45900
O  2.90300 11.17800 31.89500
C  4.02700 11.40700 32.83900
H  0.55000 3.93200 28.18300
H  0.61400 5.70700 21.97200
H  1.57700 11.88100 23.62100
H  2.20700 7.40700 30.97100
H  0.51300 5.15700 30.40000
H  3.18900 4.80300 29.31900
H  2.30000 3.97600 30.65800
H  3.22400 5.40000 30.96300
H  -0.72300 6.86400 30.87900
H  -0.42000 8.63600 30.72100
H  -0.98300 7.33100 32.89200
H  -0.46900 8.88100 32.88600
H  -1.03100 1.93000 25.72500
H  -0.29700 2.39900 27.13800
H  0.59800 1.42000 25.98600
H  1.04800 1.15300 23.73800
H  0.50200 1.14600 22.03000
H  -0.62300 1.16000 23.30700
H  0.27300 8.09400 20.68800
H  1.52500 10.67600 21.44000
H  3.04200 7.55100 21.22400
H  2.77900 9.11900 20.39800
H  2.02000 7.72200 19.64600
H  -0.70200 11.11300 22.63800
H  -1.27300 9.97900 21.43600
H  -1.14700 12.30300 20.51500
H  -0.98900 10.93700 19.54200
H  0.45800 11.77100 20.12400
H  0.97500 13.79600 26.14500
H  2.41900 13.71400 25.07500
H  2.63200 14.09200 26.77100
H  1.04400 10.78300 30.57200
H  4.84600 12.06500 32.54700
H  4.62900 10.51500 33.01300
H  3.53000 11.83400 33.71000

