158

Mg 40.32600 7.36900 29.43500
C  41.95700 9.33000 31.89300
C  38.15400 6.20700 31.73100
C  38.79300 5.93100 26.86900
C  42.96100 8.30500 27.22100
N  40.07000 7.80300 31.55700
C  40.91800 8.54600 32.42900
C  40.42900 8.50100 33.91400
C  39.29700 7.38200 33.84200
C  39.14500 7.09200 32.27300
C  39.67800 6.14000 34.64100
C  39.97300 9.86800 34.53500
C  39.07700 9.78300 35.84300
H  39.45300 10.75100 36.98700
N  38.71300 6.23300 29.25800
C  37.89200 5.91100 30.33400
C  36.78700 5.15800 29.89000
C  36.91500 5.09000 28.46500
C  38.19200 5.71400 28.12700
C  35.62200 4.65300 30.74700
C  35.96300 4.52400 27.47400
O  36.25500 4.39900 26.29800
C  34.57700 4.04200 27.88900
N  40.95700 6.98300 27.36300
C  40.02400 6.51900 26.49900
C  40.53800 6.45700 25.04600
C  41.92700 7.07300 25.12000
C  41.97800 7.53700 26.63600
C  40.45900 4.99400 24.45500
C  42.28700 8.29200 24.14900
C  41.45400 9.62200 24.43200
N  42.09200 8.50300 29.50100
C  43.06800 8.77500 28.51500
C  43.98800 9.77100 29.01800
C  43.58300 9.97700 30.30100
C  42.43400 9.22300 30.55200
C  45.04000 10.42400 28.17000
C  43.88600 10.78000 31.47900
O  44.80400 11.57700 31.63100
C  42.91700 10.35100 32.57900
C  43.74100 9.62500 33.61300
O  44.33900 8.50600 33.54100
O  43.76200 10.44300 34.75900
C  44.26800 9.84600 36.00800
H  37.51200 5.68200 32.44100
H  38.25900 5.60900 25.97300
H  43.74600 8.70400 26.57600
H  41.30400 8.23200 34.50600
H  38.33800 7.78700 34.16600
H  39.23600 6.18600 35.63600
H  40.76200 6.16600 34.75600
H  39.31700 5.13800 34.41100
H  39.48900 10.31300 33.66600
H  40.83800 10.45100 34.85100
H  38.74100 8.80100 36.17400
H  38.18600 10.26600 35.44000
H  35.63800 4.86300 31.81600
H  35.64600 3.57000 30.63000
H  34.70100 5.13200 30.41300
H  34.04500 3.52800 27.08800
H  34.14000 5.00500 28.15200
H  34.72800 3.33600 28.70600
H  39.75200 7.04500 24.57200
H  42.76900 6.38300 25.06900
H  41.47500 4.67900 24.21800
H  39.79600 5.04300 23.59000
H  40.10300 4.30600 25.22100
H  41.98900 8.02100 23.13600
H  43.34100 8.57200 24.14400
H  40.82000 9.55400 25.31600
H  40.85300 9.68600 23.52500
H  42.02100 10.54400 24.56000
H  45.84700 9.69700 28.08500
H  45.29700 11.26000 28.82000
H  44.67000 10.75700 27.20100
H  42.39000 11.21200 32.99000
H  45.00300 9.07300 35.78400
H  43.58200 9.30900 36.66300
H  44.82500 10.59200 36.57500
Mg 6.91600 56.55600 41.62700
C  5.95400 53.11700 41.49400
C  10.02600 55.66200 40.46000
C  7.37700 59.67200 41.10400
C  3.46600 57.31700 42.65800
N  7.85700 54.54800 41.09900
C  7.23000 53.30300 41.01000
C  8.28700 52.30100 40.42300
C  9.66400 53.06400 40.64900
C  9.17100 54.54400 40.77600
C  10.57300 52.68900 41.93600
C  7.84200 51.86700 38.98800
C  8.57900 50.71700 38.38100
H  8.59400 50.65400 36.87300
N  8.55800 57.56900 41.00800
C  9.72900 57.04200 40.50700
C  10.55700 58.15500 40.21700
C  9.81500 59.38100 40.34100
C  8.51200 58.90100 40.83200
C  11.95700 57.91500 39.78700
C  10.30000 60.73300 39.98800
O  11.42800 60.85700 39.44500
C  9.49800 62.00600 40.10600
N  5.48300 58.22500 41.68000
C  6.09900 59.44800 41.52600
C  5.20100 60.56100 42.10100
C  3.87400 59.83300 42.44900
C  4.31700 58.35900 42.26300
C  5.78600 61.35200 43.25000
C  2.71300 60.27900 41.57500
C  1.48200 60.95600 42.32800
N  5.07600 55.54300 41.92100
C  3.81800 55.96000 42.39000
C  3.04100 54.78100 42.76400
C  3.84500 53.70400 42.41500
C  5.01500 54.20900 41.85000
C  1.75700 54.71000 43.43700
C  3.92100 52.25000 42.52900
O  3.18500 51.42500 43.02400
C  5.29200 51.83800 41.89200
C  5.05700 50.85600 40.79500
O  4.35900 51.11000 39.81500
O  5.66100 49.66900 41.05300
C  5.50300 48.81700 39.87300
H  11.06800 55.40700 40.25900
H  7.55600 60.71000 40.81600
H  2.50300 57.71800 42.98000
H  8.35700 51.42200 41.06400
H  10.22600 52.92500 39.72500
H  10.01800 51.86000 42.37400
H  10.54700 53.48800 42.67600
H  11.59500 52.61600 41.56500
H  7.88400 52.71700 38.30600
H  6.83900 51.44700 39.06400
H  8.25300 49.78600 38.84400
H  9.58500 50.98500 38.70400
H  12.39700 57.22500 40.50800
H  12.64700 58.75600 39.85900
H  11.85800 57.52600 38.77400
H  9.14700 62.14200 41.12900
H  8.65500 62.08100 39.41900
H  10.19100 62.78300 39.78200
H  5.01800 61.28100 41.30300
H  3.56400 59.99000 43.48300
H  6.71400 60.82600 43.47500
H  5.29500 61.20900 44.21300
H  5.84500 62.42000 43.03900
H  2.31200 59.47700 40.95400
H  3.02400 61.12300 40.96000
H  0.49700 60.91500 41.86400
H  1.88200 61.96500 42.43200
H  1.38700 60.56400 43.34100
H  0.94100 55.09500 42.82500
H  1.86100 55.34500 44.31700
H  1.58500 53.70800 43.83100
H  5.77200 51.30400 42.71100
H  4.45500 48.55500 39.73000
H  6.06300 47.93600 40.18800
H  5.89400 49.28700 38.97000

