158

Mg 17.47100 -2.98100 27.80800
C  16.30800 -0.96200 30.36800
C  19.39300 -4.64800 29.95400
C  18.72300 -4.77500 25.16800
C  16.01200 -0.67900 25.53500
N  17.86600 -2.74400 29.89100
C  17.18900 -1.98400 30.75300
C  17.67800 -2.21800 32.21700
C  18.83000 -3.24700 32.04500
C  18.78100 -3.54700 30.51800
C  20.21800 -2.81100 32.51200
C  16.51000 -2.71100 33.17400
C  16.52100 -2.12600 34.55100
H  17.84800 -1.50200 35.12500
N  18.68300 -4.59900 27.59700
C  19.33200 -5.16700 28.59500
C  20.04500 -6.32500 28.11500
C  19.83700 -6.34900 26.74600
C  18.96200 -5.27000 26.44400
C  20.72700 -7.26400 29.07600
C  20.39900 -7.35600 25.73900
O  20.22600 -7.26600 24.50500
C  21.22400 -8.46200 26.20000
N  17.43600 -2.72500 25.66900
C  18.08400 -3.54900 24.84000
C  18.12700 -2.97200 23.39500
C  16.97600 -1.92800 23.52300
C  16.83600 -1.71600 25.02900
C  19.51000 -2.37700 23.02200
C  15.59400 -2.30600 22.80700
C  14.40400 -2.66600 23.70200
N  16.22400 -1.25400 27.89600
C  15.77000 -0.36100 26.86100
C  15.07500 0.68700 27.47000
C  15.20900 0.45900 28.82400
C  15.95500 -0.66900 29.02500
C  14.38700 1.79000 26.81100
C  14.78700 0.95100 30.12200
O  14.02000 1.94100 30.30700
C  15.58200 0.02800 31.13100
C  16.32900 0.97400 31.97900
O  17.45600 1.35700 31.76000
O  15.43700 1.33600 32.90200
C  15.98200 2.09300 34.01800
H  19.94900 -5.23300 30.69000
H  19.23300 -5.18100 24.29100
H  15.38400 -0.05500 24.89700
H  18.02100 -1.28000 32.65300
H  18.61200 -4.18200 32.56100
H  21.05600 -2.84100 31.81500
H  20.49800 -3.44000 33.35700
H  20.24500 -1.77800 32.85900
H  16.44500 -3.79700 33.25200
H  15.56400 -2.48000 32.68400
H  16.32200 -2.98200 35.19500
H  15.76400 -1.34300 34.58500
H  21.75500 -7.44400 28.76200
H  20.19400 -8.20500 28.94600
H  20.86300 -6.97800 30.11900
H  20.60800 -8.90000 26.98600
H  22.18000 -8.10900 26.58800
H  21.39200 -9.08500 25.32100
H  17.79600 -3.73600 22.69100
H  17.28800 -0.94700 23.16400
H  20.23700 -2.20100 23.81500
H  19.44500 -1.36000 22.63600
H  19.94700 -3.06200 22.29600
H  15.78800 -3.20000 22.21400
H  15.34100 -1.44600 22.18700
H  14.01700 -1.81600 24.26300
H  14.75900 -3.41100 24.41300
H  13.52300 -3.06200 23.19700
H  14.75600 2.76800 27.12000
H  13.34900 1.74800 27.14000
H  14.44500 1.66900 25.72900
H  14.90100 -0.55700 31.75000
H  17.00400 1.86200 34.31700
H  15.57200 1.95300 35.01900
H  15.77300 3.13600 33.78300
Mg 34.49000 49.41000 25.47400
C  34.65800 47.63800 28.58000
C  33.17200 52.07800 27.18400
C  34.01000 50.74200 22.52100
C  34.98400 46.31900 23.83800
N  33.94200 49.75600 27.58800
C  34.23700 48.93400 28.71600
C  34.04300 49.65800 30.03400
C  33.38200 51.01500 29.58000
C  33.50600 50.97100 28.05800
C  31.95200 51.29600 30.10500
C  35.24200 49.79300 31.02600
C  35.05300 49.42600 32.53700
H  33.55500 49.58600 33.11700
N  33.75300 51.20100 24.95000
C  33.21900 52.16200 25.77700
C  32.71500 53.25000 24.96600
C  33.12200 52.96200 23.60500
C  33.68700 51.59200 23.67000
C  31.69000 54.20700 25.55200
C  32.83200 53.76500 22.32400
O  33.25300 53.43100 21.22300
C  31.89400 54.96800 22.44600
N  34.40200 48.60000 23.40600
C  34.24300 49.39400 22.35500
C  34.44800 48.73400 20.94600
C  34.79300 47.28700 21.47400
C  34.74300 47.38200 23.01500
C  33.28500 48.72500 19.92800
C  36.22800 46.93900 21.05900
C  37.47400 47.55900 21.78600
N  34.86300 47.37600 26.02900
C  35.01700 46.20600 25.26900
C  35.22000 45.08800 26.12300
C  35.07400 45.55400 27.41200
C  34.86900 46.95800 27.30400
C  35.60500 43.66800 25.65700
C  35.17000 45.21500 28.81700
O  35.35900 44.15100 29.40400
C  34.81000 46.51000 29.58700
C  33.51700 46.16100 30.33300
O  32.42700 46.15400 29.79000
O  33.75200 45.74500 31.62500
C  32.52800 45.61700 32.44500
H  32.78100 52.94600 27.71800
H  33.84600 51.30800 21.60100
H  35.18800 45.31200 23.46700
H  33.28300 49.00500 30.46300
H  33.97400 51.79400 30.06100
H  31.47100 50.36600 30.40600
H  31.26400 51.75700 29.39700
H  31.95200 51.86600 31.03400
H  35.55800 50.83600 31.03200
H  36.00100 49.15600 30.57200
H  35.64900 50.14100 33.10400
H  35.47100 48.47800 32.87500
H  30.82400 54.47800 24.94900
H  32.13400 55.13200 25.92100
H  31.24200 53.79300 26.45500
H  32.26700 55.60600 23.24700
H  30.89100 54.55700 22.56500
H  32.01600 55.52200 21.51600
H  35.30000 49.15600 20.41300
H  34.10000 46.46800 21.28000
H  32.36500 49.05800 20.40700
H  33.25900 47.73100 19.48100
H  33.51700 49.31400 19.04100
H  36.42500 47.14600 20.00700
H  36.18200 45.85800 21.18500
H  37.27500 48.61200 21.98600
H  38.32100 47.51600 21.10200
H  37.69500 47.02600 22.71100
H  36.45300 43.30500 26.23800
H  35.87200 43.61900 24.60100
H  34.80300 42.97400 25.90900
H  35.51900 46.62900 30.40600
H  32.24200 44.56500 32.46900
H  31.70000 46.25300 32.13300
H  32.77100 45.87500 33.47600

