158

Mg 45.47800 2.92500 47.42500
C  43.73700 5.87800 46.89800
C  42.65200 1.05900 47.05900
C  47.37000 -0.02500 46.87700
C  48.41800 4.77200 46.94100
N  43.46800 3.43700 46.93000
C  42.93600 4.71500 46.84400
C  41.39300 4.68100 46.65000
C  41.11700 3.17100 46.92100
C  42.44400 2.50400 47.04000
C  40.21800 3.02800 48.29100
C  40.97900 5.23600 45.27000
C  41.45100 4.42300 44.09600
H  42.07500 5.22100 42.92400
N  45.08100 0.82100 47.18600
C  43.82600 0.29100 47.02300
C  43.86700 -1.16800 46.80800
C  45.24100 -1.49700 46.97500
C  45.99800 -0.20800 47.01600
C  42.71100 -2.07900 46.52400
C  45.87000 -2.91700 46.93800
O  45.15500 -3.94100 46.84100
C  47.28200 -3.15800 47.21200
N  47.49400 2.46600 46.83700
C  48.03700 1.18500 46.81600
C  49.55200 1.17100 46.78200
C  49.88500 2.70300 46.69700
C  48.56200 3.34400 46.89800
C  50.16500 0.35700 48.02500
C  50.61500 3.19500 45.41400
C  51.88000 3.91100 45.65500
N  46.01200 4.91900 47.19100
C  47.22600 5.52200 46.94600
C  47.06000 6.91600 46.85000
C  45.71700 7.07600 47.00000
C  45.08900 5.83500 47.01600
C  48.21300 7.96500 46.73800
C  44.69100 8.14100 47.13300
O  44.71600 9.37200 47.18400
C  43.35600 7.38100 46.95100
C  42.39400 7.71400 48.09600
O  42.33000 7.23900 49.27500
O  41.45000 8.64700 47.66800
C  40.41400 8.91800 48.64000
H  41.70700 0.51200 47.04700
H  48.04400 -0.86700 46.70700
H  49.38700 5.27400 46.89200
H  41.09900 5.28400 47.50900
H  40.55600 2.80500 46.06100
H  39.66300 3.95600 48.43000
H  40.77600 2.77600 49.19300
H  39.43200 2.28100 48.18400
H  41.19000 6.30400 45.22200
H  39.89500 5.20700 45.16100
H  40.61500 3.80800 43.76500
H  42.21700 3.70200 44.38400
H  41.98000 -1.55700 45.90700
H  42.29600 -2.13700 47.53000
H  43.02200 -3.06600 46.18200
H  47.50400 -2.45300 48.01300
H  47.83200 -2.89600 46.30800
H  47.48200 -4.20700 47.43200
H  49.83600 0.70400 45.83900
H  50.55500 2.96300 47.51700
H  50.32400 -0.68700 47.75900
H  49.34300 0.35600 48.74200
H  51.12900 0.73300 48.36900
H  50.00100 3.97600 44.96500
H  50.71800 2.41800 44.65600
H  52.74600 3.25200 45.58500
H  51.92000 4.41300 46.62200
H  51.99400 4.71700 44.93100
H  47.86800 8.99800 46.68700
H  48.80100 7.70400 45.85800
H  48.91200 7.91000 47.57300
H  42.94600 7.69300 45.99000
H  40.73800 9.41700 49.55300
H  39.76600 8.08000 48.89800
H  39.65400 9.64300 48.34900
Mg 30.26300 58.24000 40.98000
C  27.50000 56.24000 39.93500
C  32.25900 55.63600 39.97700
C  32.98100 60.34300 41.05300
C  28.06500 60.96400 41.14600
N  29.90000 56.13800 40.09900
C  28.72400 55.51200 39.72500
C  28.89600 54.07000 39.23100
C  30.43300 53.86500 39.57800
C  30.92400 55.25300 39.83500
C  30.64300 52.97600 40.78200
C  28.57800 54.01800 37.62000
C  27.56100 52.96600 36.99500
H  26.65800 53.56200 35.96100
N  32.32200 58.03000 40.75700
C  32.87300 56.88800 40.24300
C  34.21600 57.14700 39.99200
C  34.57000 58.36200 40.58300
C  33.25900 58.97900 40.82300
C  35.18700 56.29300 39.25600
C  35.93200 58.90600 40.82900
O  36.90300 58.22000 40.52700
C  36.17300 60.31800 41.46100
N  30.48100 60.37300 41.08000
C  31.70700 61.01800 41.14900
C  31.49700 62.50100 41.37800
C  29.98200 62.65100 41.61000
C  29.46700 61.26400 41.26200
C  32.42700 63.04600 42.49300
C  29.32400 63.79700 40.86600
C  28.14600 64.50500 41.65500
N  28.14600 58.63100 40.69300
C  27.40900 59.74000 40.93500
C  26.00000 59.41000 40.71000
C  25.98100 58.06700 40.31100
C  27.29900 57.61100 40.34400
C  24.77700 60.38600 40.89500
C  25.19500 56.96700 39.79000
O  24.11600 56.96500 39.31000
C  26.19800 55.74000 39.50300
C  25.83400 54.56000 40.37300
O  26.14000 54.45200 41.54200
O  25.07400 53.67000 39.65500
C  24.44700 52.54500 40.34200
H  33.01800 54.92100 39.65200
H  33.90400 60.90700 40.90000
H  27.32900 61.76100 41.27100
H  28.18100 53.49400 39.81800
H  31.03400 53.51500 38.73800
H  29.92100 53.22600 41.55900
H  31.64700 53.19300 41.14700
H  30.50300 51.90800 40.61400
H  29.55700 53.91400 37.15200
H  28.10900 54.94500 37.29200
H  26.98400 52.36800 37.70000
H  28.12300 52.20300 36.45600
H  35.55600 56.92000 38.44400
H  34.73000 55.42700 38.77700
H  35.96600 55.94300 39.93300
H  36.03800 61.12800 40.74500
H  37.18400 60.27700 41.86600
H  35.65900 60.59100 42.38300
H  31.65700 62.96900 40.40700
H  29.77600 62.77100 42.67400
H  33.22800 62.36400 42.77600
H  31.84000 63.24100 43.39100
H  32.85300 63.99500 42.16600
H  29.01500 63.39700 39.90000
H  29.99400 64.62900 40.65100
H  28.24300 65.59000 41.60700
H  28.13800 64.23700 42.71100
H  27.19200 64.14800 41.26700
H  23.83800 59.93700 40.57100
H  24.86500 61.27900 40.27600
H  24.73200 60.70100 41.93800
H  26.23100 55.49000 38.44200
H  25.34400 52.02800 40.68100
H  23.86900 51.88300 39.69800
H  23.91400 52.84900 41.24300

