158

Mg 25.85300 0.66100 28.83900
C  27.75900 0.50100 31.74700
C  22.97400 1.06800 30.81200
C  24.08000 0.82100 26.03500
C  28.65000 -0.36600 27.06600
N  25.46300 0.52300 31.00300
C  26.38900 0.58400 32.04800
C  25.72300 0.92700 33.39600
C  24.17000 0.82000 33.09100
C  24.18100 0.76200 31.49500
C  23.43300 -0.35900 33.74500
C  26.11300 2.20300 34.04300
C  26.55500 2.17800 35.52600
H  26.05600 3.31200 36.45600
N  23.84100 0.85500 28.41600
C  22.84000 1.12100 29.36000
C  21.59500 1.30800 28.64800
C  21.84700 1.33400 27.27100
C  23.23500 0.99500 27.21300
C  20.25000 1.34800 29.38300
C  20.87400 1.65200 26.15900
O  21.08300 1.37200 24.95600
C  19.62400 2.38500 26.47400
N  26.26400 0.10100 26.85900
C  25.39600 0.44300 25.86300
C  26.10100 0.25500 24.48100
C  27.57300 0.11800 24.87800
C  27.48600 -0.05000 26.36600
C  25.55400 -0.81700 23.41900
C  28.42700 1.29400 24.34000
C  29.07600 0.95200 23.02800
N  27.79300 0.12000 29.25000
C  28.83900 -0.25500 28.42400
C  30.05600 -0.44900 29.11000
C  29.65200 -0.09300 30.47000
C  28.28700 0.24300 30.47900
C  31.35000 -0.95400 28.59100
C  30.13400 0.05100 31.80900
O  31.26600 -0.18700 32.32600
C  28.92700 0.52600 32.70200
C  28.82600 -0.49500 33.81600
O  28.54100 -1.68600 33.65300
O  29.20900 0.08800 35.04400
C  29.16200 -0.92200 36.16100
H  22.16400 1.36300 31.48300
H  23.61600 0.95100 25.05500
H  29.62000 -0.49900 26.58200
H  25.89200 0.05700 34.03200
H  23.65200 1.70400 33.46200
H  24.13300 -1.17200 33.93700
H  22.67700 -0.71100 33.04300
H  22.89300 -0.03600 34.63500
H  25.24100 2.85400 33.97300
H  26.90500 2.61000 33.41400
H  27.61500 2.42300 35.47200
H  26.39900 1.26200 36.09600
H  19.98600 2.39400 29.53600
H  20.27500 0.75300 30.29600
H  19.49000 0.93400 28.71900
H  19.84500 3.19900 27.16400
H  18.80800 1.72700 26.77300
H  19.24500 2.92000 25.60300
H  26.08000 1.15900 23.87300
H  27.87900 -0.79000 24.36000
H  24.66500 -1.20500 23.91500
H  26.13800 -1.68300 23.10800
H  25.14500 -0.44500 22.47900
H  29.29000 1.46100 24.98600
H  27.92900 2.23100 24.09100
H  29.12400 1.88700 22.47000
H  28.55600 0.22600 22.40300
H  30.12100 0.73000 23.24300
H  31.83500 -0.24300 27.92200
H  31.19000 -1.89100 28.05700
H  32.03400 -1.13900 29.42000
H  29.04200 1.51900 33.13600
H  28.19000 -1.14900 36.59900
H  29.83500 -0.57900 36.94600
H  29.61700 -1.84100 35.79100
Mg 26.72700 50.31600 26.42400
C  24.85200 51.69100 29.06800
C  29.19800 49.41500 28.79000
C  28.53300 49.01800 23.96700
C  24.43000 51.69300 24.29500
N  26.99400 50.57000 28.64600
C  26.04700 51.04500 29.51400
C  26.54700 50.90300 31.02500
C  27.97600 50.29500 30.86400
C  28.07700 50.07900 29.33100
C  29.14600 50.97900 31.54100
C  25.51900 50.19100 31.78800
C  25.62100 50.09700 33.28600
H  26.47100 51.06700 34.12600
N  28.63100 49.42700 26.37400
C  29.39700 49.13100 27.41000
C  30.57500 48.34600 26.99600
C  30.44400 48.16900 25.56300
C  29.15900 48.81400 25.25400
C  31.83900 48.01600 27.87000
C  31.31900 47.54300 24.53100
O  31.10700 47.57800 23.35900
C  32.53600 46.85900 24.92700
N  26.55200 50.39200 24.44200
C  27.36000 49.68100 23.59100
C  26.77700 49.76200 22.13700
C  25.32100 50.32100 22.28600
C  25.42700 50.86500 23.74600
C  27.73400 50.61000 21.24100
C  24.22300 49.31200 22.21200
C  22.90200 49.75200 21.78900
N  24.92100 51.46700 26.56500
C  24.15200 52.01400 25.62200
C  23.10600 52.82200 26.15800
C  23.35000 52.77300 27.56300
C  24.46400 51.88300 27.73100
C  22.21500 53.68600 25.37000
C  22.83200 53.18500 28.83700
O  21.87800 53.93100 29.04500
C  23.80100 52.48900 29.90000
C  24.42600 53.55600 30.72500
O  25.51900 54.05100 30.49700
O  23.63400 53.78600 31.82800
C  24.30100 54.52100 32.92000
H  29.88800 49.10000 29.57600
H  29.03700 48.47900 23.16300
H  23.64700 51.98300 23.59000
H  26.59200 51.92500 31.40200
H  27.90400 49.28900 31.27700
H  28.76400 51.84500 32.08300
H  29.79500 51.26200 30.71200
H  29.55700 50.16700 32.14100
H  25.45400 49.22600 31.28600
H  24.66500 50.85300 31.64500
H  26.08200 49.18400 33.66400
H  24.61200 50.15900 33.69500
H  31.92200 46.97500 28.18100
H  31.91400 48.65900 28.74700
H  32.66700 48.33800 27.23900
H  32.48700 46.30300 25.86400
H  33.27800 47.64700 24.80800
H  32.60200 46.15600 24.09700
H  26.72900 48.73800 21.76800
H  25.22200 51.17100 21.61100
H  28.07300 50.09900 20.34000
H  28.70000 50.80800 21.70500
H  27.22400 51.53000 20.95600
H  24.00300 48.85200 23.17500
H  24.55300 48.46500 21.61200
H  22.69900 50.81500 21.66000
H  22.25800 49.43800 22.61000
H  22.54300 49.42200 20.81400
H  22.65400 54.09100 24.45900
H  21.88900 54.43200 26.09500
H  21.35000 53.06600 25.13600
H  23.18100 51.96200 30.62600
H  23.56500 55.05900 33.51700
H  25.11600 55.20300 32.68000
H  24.64200 53.68400 33.52900

