158

Mg 8.47700 4.33700 28.12400
C  10.02900 2.72200 30.96200
C  6.82200 6.18300 30.36700
C  6.90800 5.77200 25.53900
C  9.82700 1.85900 26.10800
N  8.49900 4.34100 30.38500
C  9.21500 3.72000 31.35600
C  9.06300 4.28300 32.76200
C  7.82900 5.23200 32.47500
C  7.68500 5.29100 30.94400
C  6.50200 4.85600 33.23600
C  10.38800 4.87400 33.35600
C  10.48800 5.94300 34.42900
H  11.11100 5.46400 35.72500
N  7.04900 5.81600 27.96800
C  6.50000 6.45600 29.04600
C  5.53600 7.43800 28.54500
C  5.57600 7.34700 27.09900
C  6.61600 6.30200 26.84200
C  4.58100 8.28300 29.35900
C  4.74800 8.07300 26.04600
O  5.08200 8.00800 24.93800
C  3.59100 8.97400 26.36100
N  8.41300 3.89100 26.10800
C  7.72900 4.63300 25.17100
C  7.97000 4.10500 23.80100
C  9.05900 2.97400 23.97800
C  9.04400 2.88600 25.48800
C  6.62400 3.68800 23.10100
C  10.43500 3.33500 23.38600
C  11.53300 4.13000 24.14100
N  9.70400 2.64500 28.40600
C  10.16300 1.75000 27.49100
C  10.92400 0.70600 28.12100
C  10.91600 1.12400 29.47000
C  10.16200 2.27500 29.61000
C  11.58400 -0.40500 27.44500
C  11.59900 0.78400 30.71900
O  12.37700 -0.14300 30.91500
C  10.91600 1.79100 31.79000
C  10.05400 0.93300 32.75500
O  9.15500 0.20500 32.42100
O  10.58400 1.03900 33.98200
C  9.84400 0.30200 35.07700
H  6.17600 6.74900 31.04200
H  6.50700 6.33600 24.69400
H  10.23100 1.10500 25.42900
H  8.72400 3.46000 33.39000
H  8.11100 6.19600 32.89700
H  5.70000 4.69000 32.51700
H  6.27400 5.65600 33.94000
H  6.47500 3.89900 33.75600
H  11.04400 5.11200 32.51900
H  10.67400 3.95600 33.86900
H  9.54100 6.35500 34.77800
H  11.05200 6.78900 34.03500
H  4.85500 9.32700 29.20800
H  4.58500 8.01300 30.41500
H  3.52700 8.22800 29.08600
H  3.10600 9.16500 25.40400
H  3.84100 9.79200 27.03600
H  2.82500 8.36400 26.84100
H  8.26500 4.82200 23.03400
H  8.70700 2.01100 23.60800
H  6.40000 4.32800 22.24700
H  5.77600 3.82100 23.77200
H  6.54500 2.64000 22.81300
H  10.14200 4.06000 22.62700
H  11.00500 2.61800 22.79400
H  11.05100 4.38300 25.08500
H  11.79100 5.09700 23.71000
H  12.41700 3.50100 24.24500
H  12.08200 0.05100 26.58900
H  10.94800 -1.24200 27.15800
H  12.38500 -0.68800 28.12800
H  11.64300 2.30800 32.41600
H  8.96900 -0.23600 34.71500
H  9.33600 0.95400 35.78800
H  10.55400 -0.31900 35.62400
Mg 36.30100 49.63400 24.47800
C  36.35900 47.99400 27.57300
C  34.88900 52.32500 26.01500
C  35.84200 50.93000 21.39600
C  37.41300 46.65000 22.96600
N  35.54300 49.97000 26.57900
C  35.82200 49.22900 27.68800
C  35.15400 49.93700 28.89400
C  34.71100 51.38600 28.37100
C  35.13200 51.21200 26.88700
C  33.24500 52.01100 28.71200
C  36.05100 49.89500 30.20100
C  35.39000 49.11300 31.25400
H  35.10300 49.83800 32.59800
N  35.55400 51.44200 23.80700
C  35.06500 52.44100 24.65300
C  34.76000 53.58200 23.76500
C  34.96300 53.21800 22.40200
C  35.44900 51.79800 22.47800
C  34.11200 54.85300 24.29900
C  34.84400 54.08300 21.13900
O  35.11300 53.73100 19.98400
C  34.63000 55.55100 21.34500
N  36.66300 48.86100 22.45200
C  36.34800 49.60500 21.37000
C  36.51500 48.76000 20.12900
C  37.18400 47.44800 20.64300
C  37.09200 47.62000 22.10400
C  35.15900 48.54700 19.39200
C  38.61500 47.20300 20.18800
C  38.63100 46.33900 18.91000
N  36.78500 47.66100 25.05300
C  37.23400 46.64400 24.37500
C  37.59300 45.52600 25.27300
C  37.35500 46.11100 26.55300
C  36.77900 47.39300 26.33500
C  38.29100 44.21300 24.87300
C  37.44500 45.79600 27.96300
O  37.72500 44.74800 28.50700
C  36.56400 46.88000 28.61100
C  35.31400 46.30100 29.05000
O  34.41900 45.99500 28.27000
O  35.41700 45.94700 30.35600
C  34.33400 45.14000 30.90700
H  34.47500 53.15200 26.59500
H  35.69700 51.38000 20.41200
H  37.81800 45.75500 22.48800
H  34.26600 49.32600 29.05600
H  35.39700 52.18300 28.65600
H  33.45200 52.84000 29.38900
H  32.76800 51.23500 29.31000
H  32.55800 52.21000 27.88900
H  36.28800 50.86200 30.64400
H  36.99700 49.49700 29.83400
H  36.13000 48.34100 31.46400
H  34.52000 48.54200 30.93000
H  34.10000 54.89000 25.38800
H  33.14100 54.90400 23.80700
H  34.71200 55.71900 24.01800
H  33.61400 55.73100 21.69800
H  34.77000 56.05300 20.38700
H  35.40300 55.92600 22.01500
H  37.25000 49.19700 19.45300
H  36.55400 46.57300 20.48800
H  34.45300 49.33500 19.65200
H  34.65700 47.58000 19.43300
H  35.29000 48.76100 18.33100
H  39.08300 46.57100 20.94200
H  39.22100 48.06200 19.89800
H  37.71800 46.26700 18.32000
H  38.74100 45.35600 19.36800
H  39.56900 46.43800 18.36300
H  39.21300 44.29400 24.29600
H  37.62600 43.48900 24.40300
H  38.74500 43.94300 25.82700
H  37.04100 47.39200 29.44700
H  34.35500 44.13600 30.48200
H  33.31800 45.53100 30.85800
H  34.54800 45.08700 31.97500

