158

Mg 24.15500 1.38400 29.65500
C  26.45300 1.19400 32.29900
C  21.63100 1.09700 31.85800
C  22.13400 1.23100 26.95400
C  26.90300 0.99300 27.42900
N  24.06500 1.31700 31.84900
C  25.13300 1.30300 32.77500
C  24.62000 1.43700 34.18100
C  23.07800 1.25600 34.03900
C  22.90400 1.19100 32.48100
C  22.45700 0.09200 34.87600
C  25.06800 2.80200 34.84500
C  25.95400 2.71800 36.21300
H  25.45500 3.43000 37.45100
N  22.15300 1.16000 29.45100
C  21.22500 1.12600 30.50200
C  19.92600 1.10600 29.90200
C  20.11500 1.06000 28.49400
C  21.45700 1.19700 28.25200
C  18.64000 1.19100 30.71300
C  19.05700 0.92100 27.40300
O  19.28400 0.97600 26.17600
C  17.67100 0.62500 27.89100
N  24.43100 1.12100 27.45100
C  23.42600 1.19100 26.59700
C  23.93900 1.12500 25.15700
C  25.47800 0.93500 25.28600
C  25.65900 1.06700 26.82500
C  23.26100 0.02900 24.23600
C  26.32800 1.99700 24.49000
C  25.94400 3.47800 24.70400
N  26.23200 1.05900 29.77700
C  27.15600 0.83000 28.80600
C  28.45400 0.68400 29.43000
C  28.23700 0.75100 30.82500
C  26.86000 1.07900 30.95400
C  29.68700 0.31400 28.59100
C  28.93200 0.69800 32.06400
O  30.13200 0.53600 32.36800
C  27.75200 1.02900 33.12500
C  27.81600 -0.07200 34.17900
O  27.32300 -1.23000 34.09300
O  28.53700 0.39300 35.23500
C  28.66100 -0.55000 36.34000
H  20.83100 0.99000 32.59300
H  21.42800 1.26500 26.12200
H  27.74300 0.82200 26.75400
H  25.04800 0.61700 34.75800
H  22.54600 2.17700 34.27700
H  21.57600 0.36700 35.45500
H  23.15600 -0.16700 35.67000
H  22.38100 -0.79100 34.24000
H  24.23200 3.49100 34.97000
H  25.71600 3.25000 34.09200
H  26.85600 3.29700 36.01300
H  26.21100 1.67800 36.41200
H  18.05200 2.04100 30.36800
H  18.84000 1.09300 31.78000
H  18.01500 0.31200 30.55100
H  17.56400 -0.39000 28.27500
H  17.00200 0.45900 27.04600
H  17.23900 1.30800 28.62200
H  23.57100 1.99900 24.61900
H  25.86100 -0.06100 25.06400
H  22.86000 -0.77200 24.85600
H  24.14100 -0.38400 23.74200
H  22.57500 0.51200 23.54000
H  26.07300 1.76100 23.45600
H  27.38400 1.85900 24.72200
H  26.90500 3.78800 25.11300
H  25.17000 3.72800 25.43000
H  25.72000 4.00900 23.77800
H  29.82400 0.90700 27.68700
H  29.51900 -0.73700 28.35700
H  30.55300 0.44700 29.24000
H  27.96800 1.97600 33.61900
H  29.40300 -1.31800 36.12100
H  27.76900 -1.13700 36.55800
H  28.85400 -0.08100 37.30500
Mg -12.39100 16.16000 43.15000
C  -9.39400 14.62100 42.14300
C  -11.31000 18.96000 41.60800
C  -15.54000 17.46200 43.53200
C  -13.55300 13.04600 44.10800
N  -10.55600 16.65100 41.92500
C  -9.38900 15.95800 41.76200
C  -8.26400 16.82200 41.23700
C  -8.91000 18.22800 41.37900
C  -10.35600 18.00000 41.63900
C  -8.23300 19.22500 42.30400
C  -7.92800 16.42500 39.73200
C  -6.47000 16.35400 39.51600
H  -5.98800 16.91000 38.19300
N  -13.35100 18.06100 42.65500
C  -12.68500 19.03800 41.98600
C  -13.54500 20.18200 41.86000
C  -14.85400 19.79600 42.42000
C  -14.63000 18.38400 42.89300
C  -13.17600 21.38200 41.03900
C  -16.09800 20.69100 42.37900
O  -16.03000 21.79500 41.91700
C  -17.44700 20.17100 42.86400
N  -14.29200 15.26700 43.54200
C  -15.36400 16.09200 43.79200
C  -16.55800 15.28500 44.46600
C  -15.96700 13.83100 44.60800
C  -14.51300 14.02300 43.99600
C  -17.14900 15.86300 45.77400
C  -16.90400 12.77900 43.88000
C  -16.43700 12.05900 42.63900
N  -11.54100 14.28300 43.43800
C  -12.15500 13.07100 43.79400
C  -11.23600 11.94000 43.58100
C  -10.10000 12.54600 43.03900
C  -10.40400 13.91500 42.87200
C  -11.48200 10.49800 44.00600
C  -8.76800 12.34600 42.56000
O  -8.07100 11.31500 42.61600
C  -8.24600 13.65600 41.96700
C  -7.01200 14.09800 42.67400
O  -6.90100 14.59700 43.81300
O  -5.92900 13.81700 41.83900
C  -4.62300 14.47900 42.08200
H  -10.82500 19.85300 41.20900
H  -16.55300 17.84900 43.65500
H  -13.98600 12.06100 44.29600
H  -7.37300 16.71500 41.85600
H  -8.96800 18.77200 40.43700
H  -7.19600 18.89000 42.31900
H  -8.57400 19.22200 43.33900
H  -8.19900 20.22300 41.86700
H  -8.30900 17.08000 38.94900
H  -8.34800 15.43100 39.57700
H  -6.12900 15.32000 39.58200
H  -5.87800 16.99000 40.17300
H  -12.09200 21.46100 40.95100
H  -13.60200 22.19300 41.62900
H  -13.75600 21.43600 40.11700
H  -17.40900 19.79000 43.88500
H  -17.71100 19.39400 42.14600
H  -18.24200 20.91400 42.93300
H  -17.35700 15.34800 43.72800
H  -15.76800 13.41600 45.59600
H  -16.48000 15.76000 46.62800
H  -18.05400 15.27000 45.90600
H  -17.52200 16.88500 45.70900
H  -17.90900 13.13700 43.66000
H  -17.21100 11.94800 44.51500
H  -15.58000 12.63000 42.28000
H  -17.21500 11.98300 41.87900
H  -16.06000 11.05100 42.81200
H  -10.90700 9.86900 43.32800
H  -12.53900 10.27800 44.15900
H  -10.93700 10.30500 44.93000
H  -7.90600 13.51100 40.94200
H  -4.50700 15.15700 41.23600
H  -3.81600 13.75600 42.19600
H  -4.58200 15.20700 42.89200

