158

Mg 29.85200 58.40600 42.05300
C  27.05500 56.82100 40.47300
C  31.80500 56.01800 40.65400
C  32.49100 60.39300 42.40000
C  27.66500 61.11900 42.72500
N  29.46100 56.76500 40.39000
C  28.25500 56.21800 39.98100
C  28.44900 54.95400 39.16000
C  30.01800 54.58100 39.42000
C  30.48000 55.84700 40.20800
C  30.21900 53.26800 40.31200
C  28.23000 55.08000 37.60900
C  27.41000 53.97400 37.01800
H  26.51100 54.37400 35.83800
N  31.93200 58.09500 41.81900
C  32.50700 57.03900 41.22600
C  34.02700 57.27100 41.17700
C  34.27400 58.59600 41.67600
C  32.90600 59.06800 42.12100
C  35.06600 56.41500 40.58600
C  35.57600 59.27900 41.75700
O  36.56400 58.73000 41.34400
C  35.68500 60.73600 42.14100
N  30.04300 60.39900 42.51000
C  31.31100 61.03900 42.73400
C  31.12800 62.54600 43.00300
C  29.58800 62.63100 43.31200
C  29.05000 61.31600 42.74900
C  32.11400 63.09100 44.06400
C  28.82300 63.87900 42.72700
C  27.90200 64.70600 43.69000
N  27.74800 58.88200 41.86900
C  27.00100 59.96000 42.25300
C  25.51600 59.66300 42.09900
C  25.51700 58.47100 41.38200
C  26.87700 58.06600 41.20500
C  24.51500 60.59000 42.53400
C  24.63700 57.59200 40.68900
O  23.43800 57.60000 40.48600
C  25.63100 56.39700 40.10000
C  25.19600 55.04600 40.60500
O  25.54700 54.58900 41.69300
O  24.48100 54.34800 39.65000
C  24.09800 53.02500 40.12500
H  32.41500 55.17200 40.33000
H  33.30800 61.09700 42.57300
H  27.04700 61.92800 43.12100
H  27.88900 54.15100 39.63900
H  30.55900 54.47900 38.47900
H  29.29500 52.69300 40.26200
H  30.52200 53.42200 41.34700
H  31.07100 52.69900 39.93900
H  29.11600 55.18800 36.98400
H  27.62800 55.98900 37.60200
H  26.72700 53.64300 37.80200
H  28.10400 53.18300 36.73400
H  35.94400 56.36200 41.22900
H  35.42000 56.88600 39.66900
H  34.77500 55.39400 40.34000
H  34.90300 61.26500 41.59800
H  36.67700 61.12700 41.91500
H  35.59900 60.81100 43.22500
H  31.27900 63.14100 42.10200
H  29.60500 62.76900 44.39300
H  32.92200 62.36700 44.16800
H  31.60100 63.15100 45.02400
H  32.51900 64.06800 43.79800
H  28.31100 63.54500 41.82500
H  29.64200 64.45600 42.29800
H  28.12700 65.77000 43.75500
H  28.04100 64.25900 44.67500
H  26.88600 64.51700 43.34000
H  24.91700 61.13900 43.38600
H  23.56400 60.07500 42.66800
H  24.39300 61.30600 41.72200
H  25.48300 56.26800 39.02700
H  23.36100 53.09700 40.92500
H  24.95600 52.41000 40.39700
H  23.60700 52.47600 39.32100
Mg 16.56700 51.82000 26.40800
C  18.47500 50.83000 29.20200
C  14.08400 52.75000 28.46900
C  14.85900 52.82100 23.65900
C  19.21300 50.86600 24.34800
N  16.33900 51.85000 28.55100
C  17.22000 51.40000 29.53700
C  16.65500 51.58100 30.93500
C  15.15000 51.89000 30.61000
C  15.19400 52.17800 29.10800
C  14.05500 50.82300 30.99500
C  17.40600 52.65500 31.78600
C  17.80800 52.21000 33.15600
H  16.80700 52.70100 34.20100
N  14.78000 52.75700 26.15200
C  13.84300 53.01400 27.12800
C  12.72300 53.73100 26.54200
C  12.91000 53.74600 25.14100
C  14.19800 53.02900 24.95400
C  11.54600 54.30300 27.39400
C  12.07200 54.36700 24.02600
O  12.39100 54.37300 22.87900
C  10.68200 54.95200 24.31800
N  16.89000 51.68500 24.29100
C  16.05700 52.24700 23.36900
C  16.68800 52.29300 21.95500
C  18.08200 51.65900 22.20900
C  18.12600 51.47800 23.69500
C  15.84400 51.67300 20.85400
C  19.33100 52.50600 21.75200
C  20.29300 51.90500 20.72900
N  18.39000 50.82500 26.65600
C  19.38200 50.54700 25.72500
C  20.55100 49.92000 26.39100
C  20.24300 50.07800 27.76400
C  18.90900 50.58900 27.86200
C  21.85100 49.44200 25.81900
C  20.72000 49.88000 29.11300
O  21.84000 49.52300 29.49400
C  19.56400 50.20000 30.13000
C  19.14100 48.94000 30.83800
O  18.65400 47.95600 30.31100
O  19.21700 49.14900 32.16700
C  18.73800 48.05500 33.08600
H  13.32800 53.08200 29.18400
H  14.37300 53.07200 22.71400
H  20.10900 50.60100 23.78400
H  16.74000 50.60500 31.41200
H  14.85300 52.79700 31.13800
H  13.47000 51.12400 31.86500
H  14.59200 49.87700 31.05500
H  13.36600 50.67900 30.16200
H  16.90200 53.62100 31.79600
H  18.37200 52.83200 31.31300
H  18.77900 52.63500 33.41100
H  17.90800 51.12700 33.22800
H  10.62500 53.87600 26.99700
H  11.55200 55.38700 27.28600
H  11.57900 53.99300 28.43800
H  10.20500 55.09100 23.34800
H  10.89200 55.76800 25.00900
H  10.07600 54.11300 24.66100
H  16.83600 53.35300 21.75300
H  18.15300 50.67400 21.74700
H  16.19200 50.73600 20.41800
H  15.73400 52.50800 20.16200
H  14.92000 51.35200 21.33600
H  19.86100 52.92900 22.60500
H  18.96400 53.40500 21.25600
H  21.18100 52.53600 20.75900
H  19.81500 51.99900 19.75400
H  20.44400 50.83400 20.86900
H  21.72600 48.51600 25.25800
H  22.59800 49.36900 26.61000
H  22.07100 50.15300 25.02200
H  20.07200 50.83300 30.85600
H  17.68700 48.29900 33.24000
H  19.23300 48.06600 34.05700
H  18.88300 47.06200 32.66200

