158

Mg 35.97700 49.01200 25.67100
C  36.16000 47.06000 28.66800
C  34.77600 51.67800 27.53500
C  35.05700 50.49600 22.84800
C  36.67800 46.10600 23.89900
N  35.36700 49.26300 27.85000
C  35.70900 48.43000 28.91500
C  35.37100 49.14600 30.20400
C  34.79500 50.50700 29.79500
C  35.03500 50.49500 28.28600
C  33.24800 50.66200 30.07000
C  36.57200 49.31700 31.12800
C  36.38500 48.69800 32.55700
H  36.36100 49.71600 33.66900
N  35.19800 50.83900 25.26200
C  34.85500 51.85500 26.14700
C  34.34400 53.03700 25.38100
C  34.53200 52.71800 23.99500
C  34.91500 51.29300 24.02300
C  33.78800 54.31700 26.01400
C  34.35700 53.59900 22.71600
O  34.63300 53.27000 21.54100
C  33.77300 54.90300 22.87800
N  35.98300 48.44100 23.60500
C  35.47600 49.15700 22.60500
C  35.64900 48.54400 21.27600
C  36.48100 47.25800 21.63200
C  36.40200 47.19700 23.09600
C  34.34000 48.23800 20.54300
C  37.91600 47.14100 21.12700
C  38.26000 45.96600 20.24900
N  36.30800 46.99300 26.12900
C  36.62900 45.94100 25.31200
C  36.91500 44.78000 26.11400
C  36.66800 45.12800 27.44400
C  36.30400 46.53800 27.39700
C  37.34300 43.48100 25.65200
C  36.63100 44.65300 28.81200
O  36.78900 43.51600 29.27600
C  36.37900 46.00400 29.72600
C  35.17700 45.81800 30.71300
O  33.94300 45.87200 30.41100
O  35.68300 45.61400 31.92000
C  34.78800 45.24700 33.01100
H  34.62700 52.63400 28.04100
H  34.83700 50.98300 21.89500
H  37.12700 45.23600 23.41500
H  34.53100 48.58500 30.61200
H  35.21700 51.42500 30.20500
H  32.69200 50.48500 29.14900
H  33.03400 51.61500 30.55400
H  32.92800 49.85900 30.73400
H  36.73900 50.38600 31.26100
H  37.48000 48.92300 30.67200
H  37.12800 47.92000 32.73300
H  35.52100 48.03300 32.55900
H  32.91100 54.61800 25.44000
H  34.43400 55.19100 25.92800
H  33.55500 54.16600 27.06800
H  33.75600 55.52000 21.98000
H  34.49700 55.42200 23.50600
H  32.74600 54.81000 23.23200
H  36.17300 49.32200 20.72100
H  36.01800 46.34000 21.26900
H  33.49700 48.84500 20.87100
H  34.03600 47.21700 20.77400
H  34.51100 48.26400 19.46700
H  38.53500 47.18900 22.02200
H  38.15500 48.00600 20.50900
H  38.80500 46.29300 19.36300
H  37.37200 45.49000 19.83200
H  38.89000 45.29200 20.83000
H  37.65000 43.50100 24.60700
H  36.55700 42.72700 25.69900
H  38.26700 43.15000 26.12500
H  37.23700 46.18900 30.37200
H  34.46600 46.14100 33.54500
H  35.28000 44.50700 33.64200
H  33.89500 44.73500 32.65200
Mg 16.72500 52.60800 25.30700
C  18.49300 51.47100 28.10600
C  14.20800 53.72400 27.32100
C  15.25000 53.87500 22.58300
C  19.27300 51.27900 23.31300
N  16.45300 52.57500 27.43000
C  17.28800 52.15300 28.39400
C  16.87800 52.58500 29.78400
C  15.30900 52.82700 29.45800
C  15.29500 53.09800 27.98300
C  14.38200 51.65400 29.79200
C  17.71100 53.79400 30.25200
C  17.71400 53.97300 31.73900
H  16.75900 53.15300 32.56500
N  14.98300 53.63800 24.93900
C  14.05300 53.98900 25.91200
C  12.95900 54.68600 25.22200
C  13.32000 54.77600 23.88600
C  14.56100 54.14200 23.79300
C  11.74100 55.17700 25.94800
C  12.59100 55.40200 22.65200
O  13.06900 55.51100 21.53800
C  11.27500 56.01100 22.82100
N  17.19200 52.44500 23.20400
C  16.44700 53.18600 22.29500
C  17.24000 53.33900 20.97200
C  18.63700 52.73600 21.27500
C  18.33100 52.00100 22.62700
C  16.53200 52.52800 19.87600
C  19.82800 53.70800 21.46100
C  21.14800 53.33300 20.69500
N  18.50200 51.42300 25.57900
C  19.43000 50.96100 24.67600
C  20.53500 50.28200 25.41400
C  20.12600 50.44900 26.76600
C  18.88300 51.10000 26.77100
C  21.85800 49.67200 24.80500
C  20.58500 50.15600 28.10900
O  21.68100 49.69300 28.42000
C  19.61800 50.94300 28.98100
C  19.14300 50.00600 30.02200
O  18.38800 49.04200 29.90300
O  19.72300 50.33900 31.22000
C  19.39300 49.41700 32.32900
H  13.42000 54.05800 28.00000
H  14.79500 54.33100 21.70100
H  20.12800 50.93000 22.73100
H  16.96400 51.75800 30.48900
H  14.92500 53.68100 30.01600
H  13.70900 51.44200 28.96100
H  13.82800 51.91300 30.69400
H  14.88500 50.72400 30.05700
H  17.20100 54.64200 29.79500
H  18.70100 53.63600 29.82600
H  17.36900 54.99600 31.89100
H  18.75400 53.84200 32.03700
H  10.87400 54.63200 25.57600
H  11.61200 56.25800 25.88700
H  11.59500 54.96300 27.00600
H  11.36000 56.73100 23.63400
H  10.54700 55.29300 23.19700
H  10.86800 56.55700 21.97000
H  17.35400 54.40100 20.75400
H  18.98600 51.98800 20.56400
H  15.50800 52.20900 20.07200
H  17.03000 51.56800 19.74200
H  16.61400 53.05500 18.92600
H  20.00300 53.89500 22.52100
H  19.62700 54.67700 21.00400
H  21.41700 54.22300 20.12600
H  21.10600 52.64900 19.84800
H  22.02300 53.03700 21.27300
H  22.61400 49.59000 25.58600
H  22.27000 50.20300 23.94700
H  21.60100 48.66400 24.47800
H  20.18900 51.69800 29.52200
H  20.13400 48.73000 32.73700
H  18.45700 48.87300 32.20200
H  19.23800 50.00000 33.23700

