158

Mg -0.11200 7.18900 26.39300
C  0.67200 9.38300 29.14500
C  -0.70500 4.66400 28.61400
C  -1.04100 5.45200 23.83900
C  0.68200 9.99200 24.29300
N  0.01300 7.01000 28.59200
C  0.33400 8.01200 29.52400
C  0.29400 7.46300 30.99300
C  -0.15000 6.00100 30.83600
C  -0.35800 5.86300 29.24800
C  0.88100 5.03700 31.46400
C  -0.67200 8.14800 32.01300
C  -0.13100 8.63100 33.39300
H  -0.72300 8.17400 34.72700
N  -0.67300 5.31100 26.25200
C  -0.91300 4.33400 27.26400
C  -1.24700 3.10000 26.71700
C  -1.31900 3.28700 25.33500
C  -1.03700 4.73600 25.08300
C  -1.29700 1.89000 27.54400
C  -1.46000 2.29600 24.29000
O  -1.57200 2.60600 23.12800
C  -1.43700 0.81200 24.62300
N  -0.14300 7.70000 24.35500
C  -0.53000 6.72100 23.43100
C  -0.55900 7.26900 21.96600
C  -0.05400 8.69800 22.18500
C  0.16100 8.83000 23.73900
C  0.45300 6.41200 20.97600
C  -0.96300 9.90800 21.60600
C  -2.15500 10.26900 22.54800
N  0.70100 9.17200 26.62200
C  0.97500 10.16000 25.69500
C  1.53300 11.36500 26.32900
C  1.43500 11.06300 27.69500
C  0.90000 9.74900 27.79800
C  1.85400 12.66500 25.62300
C  1.55800 11.62300 29.00200
O  1.94000 12.76000 29.33300
C  1.04200 10.58200 30.01600
C  2.06100 10.39200 31.06400
O  3.10900 9.75900 30.93200
O  1.74400 11.09900 32.22600
C  2.80100 11.17200 33.23900
H  -0.80300 3.94900 29.43300
H  -1.29800 4.84500 22.96800
H  0.81400 10.82100 23.59400
H  1.30600 7.58600 31.37800
H  -1.11900 5.73900 31.26200
H  1.56400 5.52900 32.15700
H  1.55800 4.57400 30.74600
H  0.27000 4.28000 31.95600
H  -1.50200 7.47000 32.21300
H  -1.11600 9.02200 31.53500
H  -0.24000 9.70600 33.53100
H  0.93400 8.42300 33.29400
H  -0.89000 2.06400 28.54000
H  -0.68300 1.12600 27.06700
H  -2.26200 1.39700 27.66700
H  -2.21000 0.59400 25.36000
H  -0.37900 0.66900 24.84300
H  -1.75400 0.24300 23.74800
H  -1.58000 7.17600 21.59500
H  0.95200 8.71800 21.76800
H  0.28500 6.71000 19.94100
H  0.19800 5.35400 21.04000
H  1.49300 6.62500 21.22000
H  -1.40000 9.49100 20.69900
H  -0.35400 10.73000 21.23000
H  -3.04100 9.95800 21.99400
H  -2.25700 11.34300 22.70200
H  -2.22200 9.75400 23.50700
H  2.81200 13.04000 25.98300
H  1.03400 13.37700 25.72600
H  1.95700 12.44100 24.56200
H  0.06000 10.86200 30.39700
H  2.80700 12.11500 33.78600
H  3.77600 11.07100 32.76300
H  2.66500 10.31400 33.89700
Mg 24.20700 -4.70600 45.63700
C  26.00800 -2.04500 44.43500
C  21.37000 -3.71400 43.82500
C  22.76600 -7.56300 46.45200
C  27.14100 -5.73400 47.37700
N  23.89900 -3.28200 44.01500
C  24.77500 -2.25200 43.79400
C  24.16500 -1.33600 42.72100
C  22.65200 -1.64700 42.88900
C  22.61500 -2.94000 43.63800
C  21.99200 -0.54300 43.70200
C  24.62400 -1.77100 41.32300
C  25.60100 -0.91500 40.46200
H  26.66300 -1.61900 39.59400
N  22.30800 -5.46900 45.24200
C  21.24000 -4.87200 44.57700
C  20.10300 -5.76700 44.74700
C  20.47400 -6.95100 45.45000
C  21.91200 -6.69000 45.71900
C  18.79000 -5.43100 44.10200
C  19.61700 -8.20900 45.68900
O  18.39100 -8.24000 45.40400
C  20.05800 -9.46800 46.41500
N  24.82600 -6.33400 46.73000
C  24.01800 -7.38200 46.95800
C  24.62600 -8.54200 47.84600
C  25.92600 -7.84000 48.32900
C  26.01200 -6.55100 47.40900
C  23.74900 -9.09800 48.99700
C  27.17900 -8.72900 48.19600
C  27.99300 -8.88800 49.48900
N  26.19800 -4.07400 45.92500
C  27.25600 -4.52600 46.70300
C  28.42600 -3.65700 46.52300
C  27.96700 -2.68400 45.61300
C  26.62300 -2.93800 45.36500
C  29.78500 -3.88100 47.22000
C  28.35800 -1.46300 44.96400
O  29.39800 -0.81400 44.98900
C  27.09900 -1.00200 44.07400
C  26.66900 0.33400 44.55600
O  26.28500 0.59900 45.67400
O  26.93100 1.25800 43.62200
C  26.88100 2.66900 43.97900
H  20.44800 -3.31400 43.39900
H  22.43400 -8.56800 46.71900
H  27.98700 -6.16900 47.91200
H  24.36600 -0.29100 42.95300
H  22.14600 -1.85300 41.94600
H  22.61700 -0.18400 44.52000
H  20.99600 -0.78300 44.07400
H  21.95200 0.43400 43.22100
H  23.72400 -1.95300 40.73600
H  25.14600 -2.70500 41.52900
H  26.04000 -0.13300 41.08200
H  24.89700 -0.39100 39.81600
H  18.36300 -6.24600 43.51800
H  18.80200 -4.60900 43.38600
H  18.16200 -5.05200 44.90900
H  20.32000 -9.11700 47.41300
H  20.93300 -9.77600 45.84300
H  19.20200 -10.13700 46.32600
H  24.94200 -9.30300 47.13200
H  25.83600 -7.49300 49.35900
H  23.58600 -10.14600 48.74300
H  22.80000 -8.56900 49.07900
H  24.24400 -9.00600 49.96400
H  27.91900 -8.33200 47.50200
H  26.89200 -9.76800 48.03500
H  29.06400 -9.01400 49.32900
H  27.64500 -9.73500 50.08000
H  27.91500 -7.95800 50.05400
H  30.01900 -4.91600 46.97200
H  29.72400 -3.78300 48.30400
H  30.46400 -3.15200 46.77800
H  27.28300 -1.05900 43.00100
H  27.77700 3.00400 44.50200
H  25.99700 2.85500 44.59000
H  26.73500 3.21000 43.04400

