158

Mg 52.38900 24.06100 44.19600
C  49.35600 25.99100 43.88400
C  50.49500 21.21700 44.06100
C  55.29500 22.39200 43.76700
C  54.19800 27.15900 43.99300
N  50.13500 23.66400 43.86300
C  49.10100 24.55100 43.91600
C  47.71300 23.86000 43.85100
C  48.16700 22.41900 44.30000
C  49.69000 22.40900 43.99700
C  47.97800 22.04400 45.79100
C  47.04400 23.97500 42.43800
C  47.96800 23.58800 41.22400
H  47.40900 23.79600 39.83600
N  52.75000 22.06900 43.89600
C  51.88500 21.07100 43.98100
C  52.61600 19.79300 43.78600
C  53.99100 20.13300 43.66500
C  54.09600 21.56400 43.83900
C  52.00300 18.43600 43.87400
C  55.11500 19.06000 43.44200
O  54.82400 17.84900 43.30500
C  56.54400 19.35900 43.38300
N  54.45700 24.67800 43.78400
C  55.46800 23.80700 43.76300
C  56.85700 24.47500 43.88900
C  56.48600 26.04600 43.72200
C  54.95500 25.95500 43.83200
C  57.66100 24.02900 45.16100
C  57.04900 26.64900 42.39900
C  58.02600 27.84800 42.59400
N  51.93900 26.13000 44.12900
C  52.81300 27.24800 44.13000
C  51.96900 28.42100 44.24000
C  50.63900 27.96900 44.05800
C  50.64400 26.57000 44.02600
C  52.36800 29.83300 44.23700
C  49.23900 28.50100 43.92600
O  48.77700 29.55500 43.72200
C  48.44000 27.16700 43.73400
C  47.80400 27.23400 42.42800
O  48.35400 27.24200 41.34600
O  46.39700 27.54900 42.63100
C  45.76000 28.13400 41.46800
H  49.92900 20.29400 44.20000
H  56.24900 21.86100 43.79000
H  54.74200 28.06700 44.26400
H  47.07500 24.39000 44.55900
H  47.71100 21.69700 43.62200
H  47.40600 22.88300 46.18600
H  48.97900 21.96900 46.21600
H  47.50800 21.06500 45.88500
H  46.46300 24.88900 42.32100
H  46.34900 23.13600 42.39600
H  47.95700 22.51500 41.41700
H  48.90000 24.10700 41.44600
H  52.43000 17.73800 43.15300
H  50.92600 18.51100 43.72400
H  52.25700 18.04100 44.85800
H  57.22900 18.51100 43.36800
H  56.82100 20.02100 44.20300
H  56.80700 19.92100 42.48700
H  57.44500 24.00000 43.10400
H  56.89900 26.54600 44.59800
H  57.01500 23.58800 45.92000
H  58.13700 24.92000 45.56900
H  58.46200 23.32800 44.92700
H  56.26100 26.94100 41.70500
H  57.65000 25.96800 41.79700
H  59.02400 27.46900 42.37300
H  57.82600 28.38300 43.52200
H  57.92800 28.63800 41.84900
H  53.31700 29.98200 44.75200
H  51.70600 30.50700 44.77900
H  52.40600 30.16100 43.19800
H  47.61200 27.23400 44.44000
H  46.26300 29.04600 41.14800
H  44.74800 28.33800 41.81800
H  45.85700 27.52400 40.57000
Mg 40.41000 41.62400 27.57900
C  39.95400 44.06100 30.02000
C  41.10800 39.35000 29.97900
C  41.47500 39.37300 25.16500
C  40.43100 44.08700 25.19100
N  40.65200 41.80400 29.77100
C  40.27300 42.84100 30.58800
C  40.05400 42.42100 32.07800
C  40.67000 40.98300 32.07100
C  40.83000 40.66600 30.50300
C  41.92100 40.81500 33.01400
C  38.60600 42.52600 32.61200
C  38.44300 41.70700 33.85800
H  37.84800 42.36800 35.09900
N  41.16000 39.64500 27.54500
C  41.27800 38.83800 28.63300
C  41.60700 37.51000 28.33600
C  41.80000 37.43900 26.88200
C  41.44100 38.88600 26.45400
C  41.79600 36.44200 29.37800
C  42.14000 36.34700 25.95500
O  42.20300 36.50000 24.74100
C  42.35800 34.98200 26.39000
N  41.15900 41.78300 25.43900
C  41.33700 40.72700 24.64700
C  41.37500 41.08100 23.21400
C  40.80300 42.56700 23.22200
C  40.79700 42.82600 24.74400
C  42.66600 40.80300 22.43400
C  39.48100 42.59600 22.34200
C  38.09500 42.11900 22.97900
N  40.21400 43.67300 27.52600
C  40.19600 44.59100 26.47400
C  39.84600 45.90700 26.96100
C  39.77400 45.78000 28.36900
C  40.02700 44.40000 28.63000
C  39.87100 47.13400 26.09600
C  39.47400 46.46200 29.54100
O  39.24100 47.67400 29.76800
C  39.49400 45.42500 30.72400
C  40.48200 46.05600 31.70100
O  41.63500 46.37100 31.54900
O  39.90700 46.26400 32.89700
C  40.70500 46.61800 34.02900
H  41.23900 38.62900 30.78900
H  41.73800 38.67000 24.37200
H  40.20700 44.92500 24.52700
H  40.64500 43.13400 32.65400
H  39.99100 40.17500 32.34300
H  41.90500 39.94500 33.67100
H  42.06500 41.71800 33.60700
H  42.80300 40.77600 32.37400
H  37.90700 42.32900 31.79900
H  38.43500 43.57300 32.86200
H  39.34900 41.21000 34.20600
H  37.67600 40.97600 33.59900
H  42.84600 36.20600 29.54800
H  41.24800 35.55700 29.05400
H  41.40400 36.74200 30.35000
H  43.08100 34.91900 27.20300
H  42.76700 34.41600 25.55400
H  41.44000 34.44300 26.62400
H  40.60500 40.43800 22.78800
H  41.61600 43.21600 22.89500
H  43.37100 40.24800 23.05200
H  43.11900 41.77100 22.22000
H  42.42800 40.24600 21.52800
H  39.51400 42.02200 21.41600
H  39.32300 43.60700 21.96600
H  38.33400 42.10800 24.04300
H  37.88600 41.06100 22.81800
H  37.31000 42.83500 22.73600
H  38.85700 47.40200 25.79800
H  40.47200 47.04200 25.19100
H  40.30200 48.05800 26.48200
H  38.54000 45.36700 31.24800
H  41.51300 45.90000 34.16400
H  40.19500 46.65500 34.99200
H  41.19200 47.58300 33.88700

