158

Mg 47.46200 16.19200 29.11700
C  45.76500 16.01700 32.24400
C  49.89300 18.09200 30.58300
C  48.83700 16.79900 26.08800
C  44.57800 14.88500 27.61900
N  47.68500 17.09600 31.13500
C  46.98600 16.70500 32.27400
C  47.76700 17.08400 33.46400
C  48.87000 17.94100 32.99100
C  48.85700 17.66000 31.48700
C  48.84300 19.44600 33.31600
C  48.32000 15.77400 34.25200
C  48.38700 15.81500 35.86000
H  47.74200 17.00700 36.68100
N  49.17800 17.22500 28.43700
C  50.09500 17.89100 29.22500
C  51.11300 18.47000 28.43200
C  50.86600 18.05200 27.10900
C  49.56300 17.36400 27.14900
C  52.25900 19.27400 28.91200
C  51.71000 18.13700 25.91200
O  51.33700 17.72100 24.77800
C  53.12200 18.83600 25.98500
N  46.76100 15.91500 27.19200
C  47.59200 16.15600 26.06300
C  46.90000 15.69800 24.78400
C  45.62200 14.94400 25.30700
C  45.62500 15.32100 26.75700
C  46.57700 16.84100 23.73000
C  45.57800 13.40000 25.03100
C  44.86100 13.01500 23.71700
N  45.54100 15.50600 29.74400
C  44.44900 15.02500 29.00800
C  43.33700 14.65300 29.92300
C  43.90300 14.94500 31.19700
C  45.16200 15.48800 31.02000
C  42.04400 13.93000 29.59600
C  43.66200 14.72400 32.64500
O  42.67600 14.23900 33.27400
C  44.89700 15.50700 33.34600
C  44.22400 16.62800 34.00300
O  43.78700 17.61400 33.40500
O  44.06200 16.41300 35.38300
C  43.17100 17.33300 36.15800
H  50.78200 18.47600 31.08800
H  49.10500 16.90700 25.03500
H  43.77000 14.39800 27.06900
H  47.28300 17.74000 34.18800
H  49.87800 17.67900 33.30900
H  48.50000 19.49500 34.34900
H  48.17800 20.01200 32.66400
H  49.88200 19.77000 33.26000
H  49.30400 15.50100 33.87000
H  47.68300 14.92400 34.00900
H  49.44800 15.82300 36.11000
H  47.80400 14.96400 36.21200
H  53.17000 18.67700 28.95800
H  52.18300 19.51800 29.97200
H  52.28500 20.21100 28.35600
H  52.88500 19.89600 26.07600
H  53.59700 18.64500 25.02200
H  53.79600 18.39500 26.72000
H  47.50000 14.97300 24.23400
H  44.75900 15.36900 24.79400
H  45.52000 16.71800 23.49300
H  47.08200 16.75500 22.76800
H  46.75000 17.83300 24.14800
H  45.07000 12.83600 25.81300
H  46.61700 13.09700 24.89800
H  44.80000 13.95700 23.17300
H  43.86900 12.59400 23.88300
H  45.45100 12.41100 23.02700
H  41.77900 13.97200 28.53900
H  41.30300 14.54000 30.11300
H  42.05500 12.90300 29.96000
H  45.36200 14.93500 34.14900
H  43.10200 18.34600 35.76200
H  43.48200 17.37600 37.20200
H  42.11900 17.06400 36.25800
Mg 0.84100 43.00300 24.82400
C  2.98200 42.39400 27.65700
C  -1.89300 42.24200 26.92300
C  -1.26800 42.90500 22.21200
C  3.57400 43.21500 22.88500
N  0.67400 42.40500 27.05300
C  1.61500 42.40000 28.02200
C  0.93600 42.25500 29.43700
C  -0.56500 42.04100 29.09400
C  -0.62900 42.28000 27.55400
C  -1.05200 40.57800 29.45500
C  1.28400 43.46400 30.39400
C  1.82700 43.07200 31.84300
H  0.84600 43.03800 33.01600
N  -1.33500 42.81400 24.65200
C  -2.18500 42.35900 25.59100
C  -3.47900 42.01600 24.95000
C  -3.36800 42.36700 23.59100
C  -1.96300 42.71600 23.44700
C  -4.58400 41.39400 25.71900
C  -4.44200 42.22200 22.50300
O  -4.23800 42.46900 21.32200
C  -5.87700 41.82600 22.86700
N  1.09200 43.07700 22.83700
C  0.13100 43.08200 21.92900
C  0.75100 43.11600 20.49400
C  2.19300 43.58800 20.79900
C  2.31700 43.28600 22.27400
C  0.63300 41.87700 19.57200
C  2.56000 44.99200 20.36600
C  2.85100 45.10400 18.90900
N  2.82800 42.82800 25.14500
C  3.84800 42.97200 24.26700
C  5.20300 42.80000 24.90000
C  4.87600 42.57100 26.27600
C  3.48700 42.62400 26.34800
C  6.45100 42.77900 24.19400
C  5.52800 42.27800 27.58500
O  6.69900 42.28100 27.94900
C  4.25000 42.15200 28.57200
C  4.25200 40.98500 29.39300
O  3.85000 39.93500 28.96000
O  4.57100 41.23200 30.73400
C  4.36800 40.00500 31.58500
H  -2.79200 42.19900 27.54100
H  -1.87000 42.71000 21.32100
H  4.41500 43.38100 22.20900
H  1.37800 41.35000 29.85400
H  -1.21800 42.74100 29.61500
H  -1.36000 39.97800 28.59900
H  -1.98000 40.66000 30.02000
H  -0.26100 40.06300 30.00100
H  0.35900 44.01600 30.55900
H  1.86900 44.19600 29.83700
H  2.44200 43.91600 32.15400
H  2.42200 42.15900 31.80700
H  -4.25400 41.05800 26.70200
H  -5.07800 40.50800 25.32200
H  -5.36600 42.12800 25.91500
H  -5.86000 40.78200 23.18000
H  -6.48800 41.94300 21.97200
H  -6.32900 42.50800 23.58700
H  0.32900 43.98300 19.98600
H  2.83800 42.93300 20.21300
H  -0.39500 41.61600 19.31700
H  1.04600 41.01800 20.09900
H  1.20900 42.08800 18.67100
H  3.45600 45.17000 20.96000
H  1.75300 45.67800 20.62500
H  3.86800 45.33600 18.59300
H  2.18200 45.91200 18.61100
H  2.48300 44.30500 18.26500
H  7.28800 43.20600 24.74600
H  6.37300 43.36900 23.28100
H  6.66600 41.75600 23.88500
H  4.30800 43.02700 29.22000
H  4.53100 40.39000 32.59200
H  5.10100 39.25400 31.29100
H  3.31100 39.75800 31.48500

