158

Mg 34.96500 2.87600 29.31000
C  32.79200 4.30700 31.74700
C  37.28800 2.54400 31.70500
C  37.06400 1.72600 26.90200
C  32.54600 3.49400 26.84500
N  35.08300 3.76900 31.48000
C  34.01300 4.06500 32.31300
C  34.46700 3.93500 33.79900
C  36.00000 3.53600 33.63800
C  36.12700 3.25000 32.14700
C  36.98600 4.63300 33.99200
C  33.58900 2.94300 34.65500
C  33.24900 3.47100 36.08500
H  33.89500 4.69800 36.78100
N  37.02000 2.34200 29.27800
C  37.79000 2.27900 30.38700
C  39.12000 1.79800 30.02300
C  39.00800 1.57900 28.64000
C  37.66900 1.84500 28.20000
C  40.29900 1.66500 31.04200
C  40.16100 1.11900 27.70600
O  40.04300 0.99400 26.49800
C  41.49600 0.68200 28.25300
N  34.84600 2.78100 27.19800
C  35.86500 2.24300 26.43800
C  35.40800 2.05200 24.98500
C  33.89900 2.52400 24.97800
C  33.71100 2.86900 26.44100
C  36.31300 2.73100 23.95200
C  32.96200 1.47200 24.33400
C  31.86700 0.81000 25.16800
N  33.04500 3.71400 29.24000
C  32.19400 3.89700 28.17900
C  30.95300 4.50200 28.68200
C  31.14200 4.57800 30.06000
C  32.46700 4.18400 30.36400
C  29.69400 4.79200 27.95200
C  30.48000 4.86000 31.32600
O  29.35200 5.19800 31.63600
C  31.55000 4.67200 32.43500
C  31.68800 5.86900 33.27200
O  32.14200 6.89900 32.78100
O  31.05400 5.69000 34.49800
C  30.85600 7.01600 35.19200
H  37.97800 2.22400 32.48900
H  37.71200 1.20900 26.19100
H  31.71800 3.63000 26.14600
H  34.53800 4.92300 34.25500
H  36.20900 2.65400 34.24300
H  36.59600 5.03000 34.93000
H  37.06100 5.30500 33.13800
H  37.96700 4.16400 34.06500
H  34.03300 1.97400 34.88200
H  32.73000 2.70700 34.02700
H  33.48600 2.67400 36.78900
H  32.17800 3.63800 36.19400
H  40.02300 2.10900 31.99800
H  41.07100 2.34200 30.67800
H  40.56200 0.62200 31.21800
H  42.16100 1.52500 28.44500
H  41.91600 0.06500 27.45900
H  41.35800 -0.04600 29.05100
H  35.49000 0.97300 24.85600
H  33.78600 3.28900 24.21000
H  36.57400 3.75200 24.22900
H  35.93600 2.64400 22.93300
H  37.25400 2.19600 24.07300
H  33.62500 0.69100 23.96100
H  32.49200 2.07800 23.56000
H  32.10500 -0.25100 25.23700
H  30.88800 0.79700 24.69000
H  31.70600 1.19200 26.17600
H  29.02500 5.31900 28.63200
H  29.20400 3.89900 27.56300
H  29.93200 5.49500 27.15300
H  31.27200 3.86700 33.11600
H  31.66200 7.35500 35.84300
H  29.93600 6.98800 35.77500
H  30.67700 7.88300 34.55600
Mg 54.10700 25.80100 44.54700
C  51.51400 28.10000 43.77900
C  52.28700 23.30000 43.13500
C  56.90500 23.98900 44.67100
C  55.97700 28.66500 45.58900
N  52.23500 25.76900 43.55800
C  51.34200 26.82800 43.25400
C  50.21000 26.27100 42.35400
C  50.23900 24.76300 42.77500
C  51.68100 24.56400 43.18000
C  49.35300 24.32100 44.04300
C  50.50800 26.58100 40.81800
C  49.36700 27.07000 39.94100
H  49.06400 26.19200 38.80000
N  54.51900 23.82000 44.11200
C  53.55100 22.93500 43.55100
C  54.19800 21.62100 43.47100
C  55.61600 21.79500 43.84800
C  55.76500 23.24600 44.19200
C  53.43100 20.29800 43.15000
C  56.62000 20.61200 44.08200
O  56.32700 19.46800 43.69500
C  57.95400 20.91000 44.66200
N  56.18500 26.27800 44.84100
C  57.08800 25.31600 44.98700
C  58.33900 25.79200 45.59000
C  58.14500 27.34000 45.63500
C  56.68200 27.47600 45.42100
C  58.66200 25.04100 46.90800
C  58.97300 28.18600 44.59200
C  59.42400 29.55100 45.25600
N  53.79700 27.91400 44.80500
C  54.61300 28.94800 45.29900
C  53.87900 30.18600 45.40700
C  52.68200 29.95200 44.74400
C  52.66400 28.53100 44.43000
C  54.40100 31.48700 45.89500
C  51.47400 30.52800 44.30700
O  51.05000 31.68100 44.33700
C  50.67100 29.34500 43.73100
C  50.18700 29.77300 42.37900
O  50.92100 29.92200 41.41100
O  48.86400 29.75000 42.43400
C  48.23700 30.34000 41.22800
H  51.66300 22.53300 42.67100
H  57.81100 23.40800 44.85500
H  56.58400 29.47700 45.99500
H  49.19100 26.60200 42.55500
H  49.88500 24.10800 41.97800
H  48.45400 24.91000 44.22500
H  49.89100 23.99400 44.93300
H  48.89600 23.36400 43.79300
H  50.96400 25.65900 40.45900
H  51.23300 27.39500 40.81500
H  49.61700 28.08900 39.64400
H  48.46800 27.13100 40.55300
H  53.78600 20.06300 42.14600
H  52.34400 20.33500 43.08000
H  53.84800 19.62900 43.90300
H  58.51800 19.99300 44.83100
H  57.90500 21.37900 45.64600
H  58.51100 21.53000 43.96000
H  59.08800 25.54200 44.83800
H  58.36700 27.65700 46.65400
H  57.79600 24.85100 47.54200
H  59.43600 25.53300 47.49700
H  58.94000 24.01300 46.67800
H  58.40800 28.55700 43.73700
H  59.80800 27.52400 44.36000
H  60.51200 29.52200 45.20000
H  59.05600 29.58700 46.28100
H  59.13500 30.44200 44.69800
H  54.83000 32.11300 45.11300
H  55.17000 31.37400 46.66000
H  53.56300 32.01400 46.35000
H  49.82700 29.22800 44.41100
H  47.91800 29.53800 40.56300
H  48.95800 30.89300 40.62400
H  47.40800 31.02500 41.40500

