158

Mg 26.83700 49.23300 26.60400
C  24.83100 50.57500 29.22300
C  29.17800 48.38300 28.97000
C  28.81700 48.49800 24.00900
C  24.46800 50.33000 24.36400
N  26.91100 49.47100 28.89900
C  25.93900 49.95500 29.72100
C  26.26000 49.57500 31.19800
C  27.67500 48.94600 31.05800
C  27.94000 48.85900 29.54200
C  28.90200 49.65900 31.76500
C  25.22000 48.59800 31.77000
C  24.70400 48.78800 33.17200
H  25.47400 49.64200 34.12800
N  28.75400 48.63000 26.54000
C  29.55600 48.25600 27.59600
C  30.83400 47.75100 27.13400
C  30.73200 47.81500 25.72700
C  29.39500 48.35400 25.37600
C  31.97900 47.19400 28.01200
C  31.74200 47.51900 24.71300
O  31.67000 47.74400 23.52500
C  33.04300 46.84200 25.09700
N  26.60200 49.33600 24.47900
C  27.53600 48.87400 23.62800
C  27.02400 48.91800 22.20200
C  25.47900 49.28800 22.42600
C  25.50600 49.67300 23.84000
C  27.74000 49.97200 21.31000
C  24.44500 48.25500 22.04600
C  23.16900 48.80800 21.41200
N  25.13600 50.45700 26.70800
C  24.30800 50.82600 25.67900
C  23.19000 51.56800 26.18800
C  23.34600 51.48800 27.61600
C  24.55700 50.85400 27.85000
C  21.95000 52.15000 25.38200
C  22.75600 51.87900 28.88700
O  21.66500 52.38200 29.21400
C  23.73500 51.23100 29.98500
C  24.22600 52.25100 30.95800
O  25.04800 53.09300 30.78400
O  23.38500 52.28700 32.05200
C  23.66800 53.26400 33.11200
H  29.88200 47.97500 29.69900
H  29.40900 47.99800 23.24000
H  23.55600 50.44000 23.77300
H  26.25600 50.48500 31.79800
H  27.52000 47.96600 31.51000
H  29.29800 49.12300 32.62800
H  28.53900 50.60800 32.15900
H  29.65000 49.92800 31.01900
H  25.40700 47.53500 31.61900
H  24.34300 48.72600 31.13600
H  24.30700 47.84900 33.55800
H  23.78600 49.37500 33.15500
H  32.26000 46.22900 27.59200
H  31.60600 47.11300 29.03400
H  32.81400 47.88600 27.90400
H  33.56200 47.57800 25.71100
H  33.64400 46.72800 24.19500
H  32.81400 45.85900 25.50800
H  27.19200 47.92900 21.77600
H  25.24100 50.22000 21.91300
H  27.06700 50.76500 20.98500
H  28.20300 49.41900 20.49300
H  28.55800 50.45300 21.84600
H  24.26400 47.62800 22.91900
H  24.97100 47.59500 21.35500
H  22.28500 48.76500 22.04800
H  22.94500 48.20500 20.53200
H  23.30300 49.84600 21.10600
H  22.27800 52.64400 24.46700
H  21.35100 52.79100 26.02900
H  21.24400 51.41400 24.99800
H  23.20600 50.59800 30.69800
H  22.65100 53.54500 33.38800
H  24.28300 54.10300 32.78500
H  24.09100 52.78800 33.99700
Mg 9.92400 46.89000 25.71100
C  7.18400 47.16200 28.13900
C  12.03100 48.12400 27.89400
C  12.14600 46.92700 23.17900
C  7.36700 46.42600 23.30700
N  9.64900 47.42500 27.86500
C  8.49000 47.41800 28.67200
C  8.89000 47.88800 30.10000
C  10.42600 48.29600 30.01000
C  10.71700 48.00500 28.51300
C  10.79900 49.77200 30.40500
C  8.60300 46.84900 31.33400
C  9.28400 46.88300 32.69500
H  8.38500 46.57600 33.88600
N  11.77300 47.32400 25.62700
C  12.52900 47.78600 26.64500
C  13.85300 47.83700 26.32600
C  13.97100 47.41800 24.95100
C  12.58300 47.26000 24.42700
C  15.00800 48.27200 27.20500
C  15.21000 47.13800 24.03800
O  15.07600 46.78600 22.87700
C  16.58500 47.15900 24.56400
N  9.75500 46.65500 23.52200
C  10.82200 46.69300 22.73900
C  10.48800 46.31800 21.24500
C  8.92100 46.22000 21.38800
C  8.65700 46.41200 22.84200
C  11.12400 47.26900 20.13900
C  8.38000 44.78200 20.83400
C  7.01800 44.91100 20.00000
N  7.71100 46.83100 25.72800
C  6.91800 46.58600 24.60900
C  5.54800 46.53900 25.08300
C  5.58800 46.78300 26.51400
C  6.92700 46.87000 26.79600
C  4.36700 46.44700 24.17700
C  4.77000 46.91700 27.72700
O  3.57300 46.75200 27.92100
C  5.78000 47.30300 28.75800
C  5.64600 46.34600 29.87300
O  5.88300 45.15300 29.80600
O  5.19500 47.00600 30.98900
C  4.72200 46.15800 32.07000
H  12.65200 48.47500 28.72100
H  12.90300 46.92500 22.39200
H  6.58400 46.46000 22.54700
H  8.30200 48.78900 30.27800
H  11.01200 47.56300 30.56500
H  9.90700 50.35900 30.62900
H  11.16900 50.33600 29.54800
H  11.41500 49.87300 31.29800
H  8.83000 45.85500 30.94800
H  7.52300 46.96100 31.43200
H  9.85900 47.78800 32.89400
H  9.95600 46.02600 32.73100
H  14.60500 48.77800 28.08100
H  15.53500 49.05500 26.65900
H  15.61400 47.49200 27.66800
H  16.55100 48.00200 25.25400
H  17.26300 47.41900 23.75100
H  16.87100 46.17700 24.94200
H  11.04700 45.38300 21.22100
H  8.53800 47.05500 20.80100
H  10.33000 47.94500 19.82300
H  11.38100 46.57400 19.33900
H  11.99100 47.81700 20.50900
H  8.23300 44.09200 21.66600
H  9.05400 44.31200 20.11800
H  6.94600 44.27100 19.12000
H  6.83900 45.92800 19.65200
H  6.25300 44.67900 20.74200
H  4.68600 45.89500 23.29300
H  3.88000 47.38100 23.89700
H  3.65700 45.86400 24.76400
H  5.67500 48.26600 29.25800
H  4.13800 46.78100 32.74800
H  5.43500 45.59100 32.66700
H  4.02700 45.48700 31.56500

