158

Mg 41.38900 40.83400 27.38600
C  40.65200 43.32100 29.75700
C  42.41300 38.84900 29.95000
C  42.46500 38.62000 25.11500
C  40.59600 43.18200 24.91000
N  41.51700 41.09100 29.56100
C  41.15100 42.08800 30.30800
C  41.04900 41.69900 31.83300
C  41.82600 40.32400 31.86900
C  41.93400 40.05700 30.33400
C  43.19400 40.14300 32.70500
C  39.56600 41.63500 32.43600
C  39.22800 42.65000 33.54500
H  38.54000 42.04400 34.80800
N  42.21200 38.90900 27.49000
C  42.58000 38.26300 28.62900
C  43.17800 36.99200 28.34400
C  43.19700 36.92100 26.93900
C  42.63900 38.17400 26.45100
C  43.87600 36.19100 29.39700
C  43.78500 35.85500 26.06100
O  43.69700 35.87000 24.81100
C  44.48600 34.66400 26.65700
N  41.67800 40.97200 25.32700
C  42.08500 39.88800 24.58200
C  41.79300 40.18300 23.07200
C  41.01400 41.49700 23.05900
C  41.08700 41.90300 24.53400
C  43.16400 40.16900 22.17000
C  39.61700 41.33700 22.50200
C  38.52800 40.74300 23.43500
N  40.73700 42.84600 27.27800
C  40.40800 43.68400 26.18200
C  39.89900 44.93500 26.64200
C  40.05000 44.85100 28.03900
C  40.48900 43.56300 28.35600
C  39.49000 46.02500 25.73500
C  39.82100 45.60400 29.31500
O  39.53300 46.83500 29.56100
C  40.09500 44.52600 30.45400
C  41.07600 45.10800 31.42000
O  42.25900 45.27700 31.20800
O  40.37900 45.61100 32.48300
C  41.21200 46.43200 33.36000
H  42.71800 38.24900 30.81000
H  42.85300 38.01700 24.29100
H  40.32000 43.82600 24.07200
H  41.61400 42.43400 32.40600
H  41.30600 39.44800 32.25800
H  43.43200 41.14500 33.06400
H  44.05200 39.75200 32.15700
H  43.14800 39.52500 33.60200
H  39.39500 40.69100 32.95200
H  38.80900 41.73800 31.65900
H  38.55800 43.34300 33.03600
H  40.13400 43.19800 33.80600
H  44.90300 36.05500 29.05900
H  43.28400 35.28200 29.50200
H  43.84100 36.65900 30.38100
H  43.95900 34.28400 27.53100
H  45.52000 34.96300 26.82700
H  44.47500 33.95400 25.83000
H  41.11800 39.42300 22.68000
H  41.62400 42.23100 22.53400
H  43.29200 41.15300 21.71900
H  43.01500 39.39500 21.41700
H  44.09100 39.89500 22.67300
H  39.52100 40.77400 21.57400
H  39.25300 42.29700 22.13500
H  37.92400 40.03300 22.87000
H  37.85400 41.52500 23.78300
H  38.95900 40.20700 24.28000
H  39.05700 45.57100 24.84400
H  40.38200 46.60300 25.49000
H  38.79100 46.59500 26.34800
H  39.12500 44.33200 30.91000
H  41.87500 45.80600 33.95800
H  40.65400 47.05300 34.06100
H  41.78600 47.19300 32.83200
Mg 0.20400 44.03100 25.67000
C  1.93300 43.74200 28.77500
C  -2.67100 43.28200 27.58000
C  -1.31400 43.58400 22.86600
C  3.28600 44.30800 24.08800
N  -0.29900 43.75000 27.97600
C  0.57100 43.69100 29.04300
C  -0.16100 43.56900 30.34400
C  -1.66200 43.27200 29.94100
C  -1.55700 43.49400 28.37700
C  -2.26600 41.92100 30.32800
C  0.01800 44.93500 31.19600
C  0.33000 44.62500 32.70000
H  -0.33900 43.46800 33.42800
N  -1.77800 43.72800 25.26800
C  -2.78600 43.37100 26.16000
C  -3.96500 43.21100 25.42400
C  -3.70000 43.46500 24.06500
C  -2.17000 43.54200 23.96500
C  -5.30100 42.90900 26.04000
C  -4.55600 43.51100 22.78000
O  -4.12200 43.74000 21.67400
C  -6.07300 43.55100 22.91400
N  0.94600 43.91100 23.82400
C  0.03600 43.89000 22.78600
C  0.76000 43.67100 21.42800
C  2.21300 44.13400 21.83600
C  2.17300 44.27900 23.34000
C  0.69800 42.19900 21.00700
C  2.73900 45.35800 21.09900
C  2.86500 46.72900 21.75000
N  2.27300 44.02400 26.24400
C  3.35200 44.21300 25.48300
C  4.51900 44.29900 26.38500
C  4.02200 43.95100 27.68500
C  2.61000 43.91300 27.53700
C  5.92900 44.66300 25.98600
C  4.36600 43.85200 29.10800
O  5.44800 43.83900 29.67100
C  3.01400 43.64800 29.80900
C  3.08300 42.53100 30.77100
O  2.71300 41.35000 30.62500
O  3.51200 43.01400 31.97000
C  3.63500 42.10900 33.12800
H  -3.54700 42.98000 28.15700
H  -1.67900 43.48700 21.84200
H  4.22200 44.38800 23.53000
H  0.24500 42.68300 30.83300
H  -2.27900 44.07700 30.34000
H  -2.16300 41.19600 29.52100
H  -3.29600 42.07000 30.65200
H  -1.75500 41.59400 31.23400
H  -0.87500 45.55700 31.25900
H  0.82000 45.60500 30.88800
H  0.11600 45.53400 33.26200
H  1.39500 44.46100 32.86100
H  -6.10200 43.63700 25.91400
H  -5.15400 42.59600 27.07400
H  -5.67100 42.01600 25.53700
H  -6.55600 42.58200 23.04100
H  -6.39300 43.91900 21.93900
H  -6.34700 44.27700 23.68000
H  0.36800 44.30500 20.63200
H  2.85700 43.29000 21.58700
H  0.42600 41.61600 21.88700
H  1.55200 41.87000 20.41500
H  -0.24800 42.04100 20.48800
H  2.09400 45.57000 20.24700
H  3.68700 45.04400 20.66200
H  2.34400 46.64000 22.70300
H  2.29300 47.42200 21.13300
H  3.91500 47.01100 21.82900
H  6.42400 44.51300 26.94500
H  6.10900 45.71500 25.76500
H  6.23600 44.00500 25.17200
H  3.03200 44.52000 30.46300
H  4.68400 41.81300 33.12200
H  2.91300 41.29900 33.22700
H  3.51200 42.71000 34.02900

