158

Mg 40.33000 9.57400 29.85500
C  42.33600 10.83400 32.39300
C  38.39700 8.26500 32.21200
C  38.47300 8.34100 27.37800
C  42.68500 10.76800 27.57200
N  40.44600 9.40300 32.02500
C  41.21400 10.10000 32.89500
C  40.90500 9.87400 34.40700
C  39.63400 8.91400 34.23000
C  39.46600 8.87400 32.70200
C  39.71800 7.54200 34.85900
C  40.58500 11.24400 35.14500
C  40.12700 11.06100 36.60500
H  40.93100 11.68800 37.74300
N  38.60200 8.51200 29.77800
C  37.95700 8.03200 30.85100
C  36.79600 7.25500 30.42700
C  36.74400 7.29600 29.03600
C  37.98100 8.06800 28.64200
C  35.78800 6.61300 31.34400
C  35.73700 6.82200 28.05900
O  35.88300 7.04800 26.85500
C  34.50400 6.11200 28.53700
N  40.57300 9.57900 27.76000
C  39.63000 9.00400 26.99700
C  39.81200 9.44600 25.52400
C  41.29700 10.17000 25.53900
C  41.54400 10.14500 27.05100
C  39.74200 8.22800 24.56400
C  41.45000 11.54800 24.82700
C  40.61600 12.74400 25.29300
N  42.16900 10.42200 29.93000
C  42.99500 10.85200 28.92600
C  44.20200 11.54900 29.52900
C  43.88600 11.61700 30.88400
C  42.71600 10.90100 31.05900
C  45.37200 12.09200 28.79000
C  44.36000 12.06700 32.19000
O  45.41200 12.64100 32.44800
C  43.39700 11.50100 33.21700
C  44.09500 10.53400 34.06100
O  44.34600 9.38100 33.80200
O  44.37800 11.03900 35.31200
C  45.22800 10.26800 36.19500
H  37.67600 7.77500 32.87000
H  37.79300 8.28000 26.52600
H  43.29500 11.19400 26.77300
H  41.66600 9.30200 34.93700
H  38.76800 9.29000 34.77500
H  40.74300 7.40500 35.20600
H  39.38600 6.80600 34.12700
H  39.20700 7.55400 35.82200
H  39.77800 11.68700 34.56200
H  41.48100 11.86600 35.16200
H  40.18300 10.01500 36.90900
H  39.11800 11.45600 36.72200
H  35.92700 6.80700 32.40700
H  36.03800 5.56300 31.19100
H  34.77000 6.74700 30.97900
H  33.93400 5.69700 27.70600
H  33.89900 6.89500 28.99500
H  34.67600 5.35000 29.29600
H  39.12400 10.25400 25.27500
H  41.97700 9.45100 25.08200
H  40.05900 7.28900 25.01700
H  40.26700 8.47200 23.64000
H  38.67900 8.12300 24.35100
H  41.10000 11.41600 23.80300
H  42.50900 11.75400 24.67100
H  41.22700 13.47400 25.82300
H  39.89300 12.31500 25.98600
H  40.12600 13.30300 24.49600
H  45.73300 11.25000 28.20000
H  46.23000 12.39400 29.39000
H  45.06900 12.90400 28.12800
H  42.98600 12.33800 33.78000
H  44.79500 9.27800 36.33700
H  45.19300 10.79100 37.15100
H  46.30400 10.14900 36.07100
Mg 49.53000 35.18900 27.86500
C  47.14800 34.03000 30.32100
C  49.90700 37.99000 29.74300
C  51.29700 36.31000 25.34300
C  48.70600 32.30900 25.93600
N  48.63000 35.89200 29.94200
C  47.87200 35.20300 30.80400
C  48.00700 35.83700 32.18000
C  48.46900 37.35400 31.87500
C  49.09400 37.04100 30.44600
C  47.41200 38.50100 31.85500
C  49.12400 35.13200 33.07600
C  48.92400 35.17400 34.55400
H  48.10100 36.36500 35.20900
N  50.38700 36.90500 27.56200
C  50.52200 37.92500 28.43800
C  51.39300 38.95200 27.92100
C  51.83900 38.52300 26.64000
C  51.16700 37.21800 26.42200
C  51.47600 40.27400 28.66000
C  52.90900 39.17300 25.75900
O  53.30500 38.77700 24.62800
C  53.65900 40.31600 26.41700
N  49.87000 34.35800 25.83600
C  50.79300 35.05900 25.09900
C  51.29900 34.13800 23.96500
C  50.58700 32.74900 24.20400
C  49.63200 33.12200 25.31800
C  51.18800 34.83300 22.56600
C  51.60000 31.61900 24.65900
C  51.29700 30.27300 24.04700
N  48.22200 33.51400 28.00100
C  48.00600 32.43900 27.16600
C  47.08900 31.47500 27.82600
C  46.70700 32.04300 29.03500
C  47.39900 33.29300 29.09500
C  46.74600 30.09900 27.26100
C  45.82300 31.94200 30.24500
O  45.02200 31.03300 30.53500
C  46.03900 33.18000 31.17200
C  46.40300 32.80400 32.54800
O  47.30100 32.05400 32.84700
O  45.56900 33.42100 33.39200
C  45.61600 33.20400 34.80700
H  50.20500 38.83100 30.37300
H  52.13800 36.57500 24.69900
H  48.54600 31.44300 25.29000
H  47.03700 35.78500 32.67500
H  49.28900 37.73300 32.48500
H  47.30900 38.68300 30.78600
H  47.63900 39.38400 32.45300
H  46.50000 38.07900 32.27700
H  50.02700 35.59800 32.68100
H  49.04100 34.06800 32.85500
H  49.81700 35.19900 35.17800
H  48.52000 34.18300 34.75900
H  51.68300 41.09300 27.97100
H  52.15800 40.27900 29.51000
H  50.56200 40.61100 29.14900
H  53.15000 41.23400 26.12400
H  54.57500 40.33800 25.82700
H  53.79400 40.10700 27.47800
H  52.35800 34.13600 24.21900
H  49.91000 32.38700 23.43000
H  52.18800 34.94400 22.14500
H  50.68900 35.80000 22.62100
H  50.74700 34.22700 21.77500
H  51.74700 31.50800 25.73400
H  52.54600 31.93000 24.21700
H  51.26200 29.56400 24.87400
H  52.11200 30.01000 23.37300
H  50.36800 30.29300 23.47600
H  47.16500 29.87200 26.28100
H  45.66300 29.98300 27.22100
H  47.21900 29.46100 28.00800
H  45.13100 33.78200 31.21200
H  46.62800 33.51700 35.06600
H  45.44900 32.13700 34.95600
H  44.90000 33.80300 35.36900

