158

Mg 54.06200 24.59400 44.20300
C  51.64900 26.95500 43.41000
C  51.86000 22.17300 43.16200
C  56.66500 22.28700 44.10400
C  56.32400 27.16600 44.67000
N  52.08100 24.57700 43.28900
C  51.24400 25.61400 43.11400
C  49.91900 25.21900 42.48000
C  49.88600 23.75000 42.96200
C  51.40600 23.45800 43.16400
C  49.13600 23.48400 44.32400
C  49.90600 25.38700 40.93600
C  48.56100 25.64600 40.28300
H  48.36500 25.39900 38.83600
N  54.22900 22.47500 43.74500
C  53.18500 21.68000 43.29100
C  53.66500 20.35900 42.97200
C  55.08700 20.35300 43.12800
C  55.42600 21.70200 43.72900
C  52.77200 19.22000 42.41200
C  56.06100 19.23600 42.80800
O  55.67100 18.21800 42.23700
C  57.52400 19.34500 43.04500
N  56.19500 24.70100 44.49100
C  57.02700 23.61800 44.43800
C  58.47400 24.13700 44.75400
C  58.34600 25.68800 44.73400
C  56.85700 25.86800 44.67500
C  59.01000 23.46100 46.02700
C  59.17500 26.50600 43.71700
C  58.83500 26.49100 42.26400
N  54.07100 26.65400 44.15300
C  54.98300 27.56800 44.35300
C  54.41200 28.94100 44.34100
C  53.07100 28.70200 44.02800
C  52.91800 27.32700 43.82700
C  55.06100 30.24200 44.59600
C  51.80000 29.34900 43.76100
O  51.52700 30.52400 43.94600
C  50.83300 28.24100 43.22300
C  50.69300 28.64900 41.85000
O  51.54000 28.52900 40.99500
O  49.51100 29.23700 41.71100
C  49.10800 29.60700 40.31900
H  51.07300 21.46300 42.89900
H  57.48100 21.56800 44.20400
H  57.00200 27.98200 44.93000
H  49.03500 25.75800 42.82000
H  49.54600 23.05700 42.19200
H  48.23100 22.90400 44.14000
H  48.91100 24.44000 44.79600
H  49.77600 22.86500 44.95200
H  50.19100 24.43500 40.48900
H  50.58700 26.06900 40.42600
H  48.36300 26.70300 40.46000
H  47.79600 25.10200 40.83700
H  52.92500 19.01700 41.35200
H  51.73400 19.54900 42.45500
H  53.01600 18.25400 42.85400
H  57.99800 20.20600 42.57400
H  57.95400 18.43800 42.62200
H  57.71500 19.28700 44.11700
H  59.18900 23.87600 43.97400
H  58.78300 26.07300 45.65500
H  58.37400 22.59500 46.20900
H  58.94100 24.23300 46.79400
H  60.02200 23.06000 45.97100
H  60.13500 25.99600 43.79100
H  59.22200 27.50300 44.15400
H  58.53000 25.48900 41.96200
H  59.74200 26.88100 41.80100
H  58.01100 27.18800 42.11200
H  55.95500 30.29500 43.97600
H  55.39300 30.39600 45.62300
H  54.46600 31.10500 44.29600
H  49.86800 28.17200 43.72400
H  48.74500 30.63400 40.36700
H  48.31300 28.95100 39.96600
H  49.90000 29.47300 39.58200
Mg -5.90600 25.84100 26.35400
C  -4.66300 27.22700 29.24600
C  -7.86300 23.65700 28.55400
C  -6.46200 23.71700 23.81700
C  -3.59200 27.59900 24.52000
N  -6.32700 25.54500 28.64200
C  -5.60200 26.18900 29.58000
C  -6.06800 25.76800 30.97400
C  -6.78300 24.42200 30.73600
C  -7.01700 24.53600 29.24000
C  -6.03200 23.09900 31.24400
C  -7.00600 26.86800 31.58600
C  -6.88200 26.94100 33.17800
H  -6.14100 25.87900 34.00400
N  -7.07100 24.07200 26.17000
C  -7.88400 23.44200 27.10900
C  -8.72900 22.45400 26.45000
C  -8.26200 22.38900 25.08300
C  -7.20400 23.41700 24.93500
C  -9.78900 21.72900 27.14100
C  -8.74100 21.42200 23.99200
O  -8.11900 21.34400 22.98000
C  -10.00500 20.61800 24.11600
N  -5.08000 25.65400 24.52000
C  -5.52100 24.77500 23.57300
C  -4.86100 25.02000 22.17500
C  -4.17100 26.36500 22.40600
C  -4.24300 26.57200 23.96100
C  -3.97600 23.84300 21.70300
C  -4.68100 27.65600 21.59700
C  -3.53100 28.42400 20.75500
N  -4.51200 27.27200 26.80100
C  -3.57600 27.92100 25.95400
C  -2.83200 28.88500 26.63600
C  -3.21400 28.65900 27.94900
C  -4.25500 27.68300 27.97700
C  -1.90300 29.80100 25.94700
C  -3.00100 29.09900 29.35700
O  -2.31700 29.94100 29.85500
C  -3.84400 28.07500 30.21800
C  -2.91900 27.37700 31.22100
O  -2.24600 26.36900 31.07000
O  -2.85700 28.11500 32.37600
C  -2.15000 27.36300 33.48000
H  -8.31900 22.91400 29.21100
H  -6.57300 22.96700 23.03200
H  -2.94800 28.20000 23.87400
H  -5.08500 25.65300 31.43100
H  -7.71900 24.46700 31.29200
H  -6.16100 22.28100 30.53600
H  -6.39100 22.80900 32.23200
H  -5.00800 23.35300 31.51700
H  -8.04100 26.58000 31.40100
H  -6.82900 27.85600 31.16200
H  -7.94500 27.05700 33.38900
H  -6.39700 27.90300 33.34000
H  -10.78100 22.01600 26.79300
H  -9.66500 21.85500 28.21600
H  -9.55300 20.66500 27.13600
H  -9.75800 19.75800 24.73800
H  -10.34200 20.25000 23.14700
H  -10.63700 21.34800 24.62200
H  -5.64600 25.11800 21.42500
H  -3.14300 26.26200 22.06000
H  -3.99300 23.16000 22.55200
H  -2.92100 24.11900 21.68600
H  -4.36600 23.34200 20.81700
H  -5.23500 28.30100 22.27900
H  -5.46400 27.31500 20.91900
H  -3.54000 29.49100 20.97700
H  -3.83800 28.20700 19.73200
H  -2.54500 27.98900 20.91600
H  -1.95000 29.73700 24.86000
H  -0.87500 29.50100 26.15300
H  -2.06500 30.84600 26.21000
H  -4.55200 28.64900 30.81600
H  -1.12900 27.74100 33.42300
H  -2.19800 26.27500 33.51700
H  -2.61800 27.75200 34.38400

