158

Mg 29.78600 57.01000 40.09500
C  27.19500 55.06100 38.76700
C  31.96700 54.63800 38.97300
C  32.15700 59.28800 40.30000
C  27.28000 59.43500 40.95600
N  29.58100 55.23300 38.84500
C  28.46100 54.57900 38.50100
C  28.69000 53.20300 37.95300
C  30.14200 52.99000 38.21100
C  30.63200 54.37000 38.72300
C  30.56700 51.89400 39.26400
C  28.35200 52.92300 36.46500
C  28.12200 54.20400 35.59600
H  28.45400 54.28300 34.15000
N  31.78300 56.95900 39.78700
C  32.51600 55.91600 39.37800
C  33.91900 56.24300 39.33900
C  34.03700 57.59700 39.71100
C  32.62200 58.01300 39.94000
C  34.98100 55.19800 39.01400
C  35.28400 58.47600 39.70300
O  36.36300 57.94700 39.41300
C  35.23500 59.99300 40.01300
N  29.75100 59.01000 40.66700
C  30.87700 59.73700 40.64900
C  30.49700 61.25900 40.85100
C  29.03800 61.18600 41.49500
C  28.58400 59.82000 40.97100
C  31.57200 62.01600 41.70300
C  28.11300 62.41200 41.09200
C  27.38000 63.06700 42.23700
N  27.66600 57.17400 40.00700
C  26.82000 58.19700 40.38100
C  25.45500 57.79400 40.11400
C  25.53700 56.52700 39.57800
C  26.88700 56.22300 39.47500
C  24.16600 58.50600 40.34700
C  24.82900 55.45400 38.98200
O  23.65100 55.31400 38.82700
C  25.88400 54.39900 38.53000
C  25.60300 53.16500 39.34900
O  26.04900 52.91700 40.47400
O  24.76300 52.35200 38.67700
C  24.44300 51.07600 39.22400
H  32.66000 53.79600 38.93000
H  32.84900 60.13200 40.29100
H  26.54900 60.14800 41.34600
H  28.09200 52.47200 38.49800
H  30.64400 52.73600 37.27800
H  29.85100 51.09700 39.46700
H  30.80000 52.31500 40.24100
H  31.44000 51.47800 38.76200
H  27.50100 52.24400 36.41200
H  29.10800 52.25900 36.04600
H  28.59900 55.05000 36.08900
H  27.03300 54.23600 35.61200
H  35.25700 55.26400 37.96200
H  34.79900 54.16600 39.31600
H  35.85300 55.42000 39.62900
H  36.29200 60.25000 39.94900
H  34.81100 60.05700 41.01500
H  34.71500 60.57100 39.24900
H  30.44300 61.70100 39.85600
H  29.08100 61.05600 42.57600
H  32.14500 61.35600 42.35400
H  31.10400 62.68900 42.42200
H  32.23600 62.77500 41.29000
H  27.40600 62.09000 40.32800
H  28.54800 63.32900 40.69500
H  26.95500 64.02100 41.92600
H  28.03300 63.16100 43.10600
H  26.49800 62.48200 42.49900
H  23.37300 57.88300 39.93400
H  24.05400 59.44700 39.80800
H  24.06300 58.64900 41.42300
H  25.65500 54.22800 37.47800
H  25.22200 50.45400 39.66500
H  24.09800 50.50300 38.36300
H  23.68800 51.07800 40.01100
Mg 1.07700 42.02300 24.99000
C  2.13500 42.13000 28.42400
C  -2.01800 41.12400 26.24700
C  0.08900 41.57700 21.87100
C  4.39700 42.74600 24.02000
N  0.23100 41.53000 27.11400
C  0.80400 41.84600 28.29100
C  -0.17700 41.66500 29.44700
C  -1.55500 41.27600 28.76800
C  -1.13700 41.32300 27.29200
C  -1.89400 39.82700 29.10100
C  -0.24300 42.98300 30.31800
C  -0.31500 42.88100 31.85600
H  -0.47600 41.47100 32.45900
N  -0.80700 41.49700 24.16700
C  -1.88100 41.07300 24.85600
C  -2.95200 40.85000 23.85100
C  -2.41600 40.96400 22.55400
C  -0.99600 41.35700 22.79300
C  -4.36100 40.44600 24.17700
C  -2.98500 40.74800 21.16900
O  -2.33600 41.04200 20.18000
C  -4.38000 40.23600 20.97300
N  2.05000 42.31400 23.26500
C  1.36000 42.05300 22.10300
C  2.28000 42.15800 20.79500
C  3.64700 42.60700 21.51400
C  3.35700 42.53300 23.02500
C  2.26100 40.87400 19.91300
C  4.10700 44.09000 21.11300
C  2.95900 45.12700 21.09800
N  2.92600 42.39400 25.95300
C  4.14200 42.73300 25.45000
C  5.12800 42.74500 26.54100
C  4.28600 42.64900 27.70600
C  3.04500 42.32700 27.30400
C  6.56300 43.04900 26.43100
C  4.30600 42.69100 29.21300
O  5.16200 42.97500 30.07400
C  2.98100 42.36600 29.71500
C  3.34000 41.08200 30.47900
O  3.76300 40.08200 29.95200
O  3.01000 41.20200 31.75500
C  3.41600 40.29700 32.80300
H  -3.04600 41.01900 26.60100
H  -0.16200 41.51300 20.81000
H  5.39200 43.09600 23.73900
H  0.18300 40.90200 30.13600
H  -2.36300 41.98400 28.95500
H  -1.47300 39.48200 30.04600
H  -1.53400 39.22700 28.26600
H  -2.98100 39.87500 29.16800
H  -1.10200 43.53500 29.93400
H  0.68100 43.54700 30.19100
H  -1.16100 43.44800 32.24500
H  0.52100 43.35300 32.37300
H  -5.03000 41.02800 23.54400
H  -4.62100 40.66100 25.21300
H  -4.53500 39.37500 24.06700
H  -4.44100 39.28600 21.50400
H  -4.46900 40.12500 19.89300
H  -5.12000 40.95700 21.32100
H  1.78000 42.98500 20.28900
H  4.38100 41.86400 21.20300
H  1.53300 40.15000 20.27700
H  3.23800 40.38900 19.90100
H  2.12100 41.15200 18.86800
H  4.35600 43.91300 20.06600
H  4.91800 44.44800 21.74700
H  2.07100 44.97100 21.71100
H  2.63000 45.25300 20.06600
H  3.35200 46.09200 21.41700
H  6.62500 43.88700 25.73700
H  7.06100 42.18500 25.99100
H  7.08000 43.27800 27.36300
H  2.63100 43.04000 30.49700
H  4.40000 40.57500 33.18100
H  3.37500 39.21700 32.66400
H  2.75400 40.46500 33.65300

