158

Mg 17.80400 -2.04200 28.04700
C  16.93600 -0.08500 30.83200
C  19.97600 -3.77300 29.94100
C  19.25900 -3.09700 25.25000
C  15.81200 0.26000 26.26800
N  18.31600 -1.87600 30.13400
C  17.87800 -1.06400 31.15600
C  18.31500 -1.54800 32.50500
C  19.36700 -2.62300 32.13700
C  19.19500 -2.87600 30.66200
C  20.84600 -2.33900 32.60200
C  17.00600 -2.10100 33.33300
C  17.06900 -1.71600 34.87200
H  18.49200 -1.92200 35.44000
N  19.29400 -3.44000 27.64200
C  20.03400 -4.04600 28.54000
C  20.75700 -5.08800 27.89900
C  20.52200 -5.05200 26.50100
C  19.70100 -3.79700 26.41400
C  21.63000 -6.11600 28.60500
C  20.89000 -5.97900 25.38400
O  20.60100 -5.68200 24.24900
C  21.76100 -7.16900 25.64400
N  17.56600 -1.51500 26.08500
C  18.35100 -2.00200 25.08100
C  17.87800 -1.45900 23.69200
C  16.70200 -0.53500 24.05100
C  16.68100 -0.63100 25.55400
C  18.95300 -0.64900 22.90600
C  15.35900 -0.92400 23.34700
C  14.56400 0.22200 22.79000
N  16.43800 -0.33500 28.42900
C  15.67700 0.44200 27.61700
C  14.87700 1.42900 28.33900
C  15.40300 1.35700 29.62800
C  16.27800 0.24900 29.62800
C  13.92500 2.37300 27.71100
C  15.36200 1.92000 30.97400
O  14.81400 2.90100 31.45900
C  16.44400 0.98000 31.78300
C  17.58000 1.90900 32.30500
O  18.62200 2.15500 31.79400
O  17.03500 2.49200 33.42700
C  17.88900 3.38900 34.15900
H  20.66200 -4.47400 30.42100
H  19.78300 -3.46900 24.36700
H  15.24500 0.95000 25.63800
H  18.85400 -0.71900 32.96400
H  19.16800 -3.54400 32.68500
H  20.86700 -1.86600 33.58400
H  21.44900 -1.76600 31.89900
H  21.41900 -3.24700 32.79100
H  16.88500 -3.14800 33.05300
H  16.14800 -1.56900 32.92400
H  16.41500 -2.33500 35.48600
H  16.71300 -0.70400 35.06500
H  22.53200 -6.41200 28.07000
H  21.07000 -7.04100 28.74700
H  21.98500 -5.67900 29.53800
H  22.71800 -6.85100 26.05800
H  21.83200 -7.57700 24.63600
H  21.28900 -7.87000 26.33100
H  17.53700 -2.32800 23.12900
H  16.82600 0.49600 23.71700
H  19.90100 -0.82600 23.41600
H  18.76000 0.41800 22.79900
H  19.07100 -1.13900 21.94000
H  14.73900 -1.31100 24.15600
H  15.50400 -1.75100 22.65100
H  14.96500 1.18900 23.09300
H  13.56000 0.24700 23.21300
H  14.40200 0.08100 21.72100
H  14.49200 3.26900 27.45500
H  13.12300 2.54400 28.42800
H  13.59900 1.85700 26.80700
H  15.86900 0.57500 32.61600
H  18.92600 3.35800 33.82400
H  17.80500 3.08300 35.20200
H  17.30400 4.28100 33.93500
Mg 9.68800 48.37400 26.02300
C  7.82600 48.76400 28.99000
C  12.21400 49.96300 27.55500
C  11.44000 47.97100 23.06400
C  6.68300 47.83100 24.26300
N  9.90900 49.26800 28.06200
C  9.13400 49.11500 29.12100
C  9.84700 49.55200 30.42500
C  11.01000 50.39500 29.85700
C  11.03700 49.94100 28.38900
C  10.75000 51.91400 30.06300
C  10.19100 48.29600 31.30300
C  10.09400 48.37900 32.85000
H  10.14400 47.03600 33.67900
N  11.55300 48.90100 25.32000
C  12.46200 49.52900 26.15200
C  13.78000 49.43400 25.48600
C  13.59200 48.81000 24.26700
C  12.14600 48.49700 24.18600
C  15.11000 49.86700 26.17900
C  14.54600 48.50400 23.09100
O  14.25200 48.09000 21.95900
C  16.03800 48.83200 23.24400
N  9.24100 48.07800 23.94000
C  10.10600 47.89000 22.93100
C  9.39700 47.41100 21.66100
C  7.84600 47.51400 22.07400
C  7.89800 47.81800 23.57500
C  9.78900 48.27100 20.43000
C  7.09000 46.24900 21.57800
C  6.87700 46.01700 20.10100
N  7.67400 48.32900 26.49400
C  6.53400 48.12800 25.63400
C  5.39200 48.01400 26.49000
C  5.84300 48.24500 27.78300
C  7.19500 48.43300 27.73800
C  3.98700 47.62000 26.04100
C  5.46600 48.29000 29.20300
O  4.29800 48.17000 29.66200
C  6.76800 48.58300 29.99200
C  6.88400 47.31000 30.76700
O  7.09900 46.17900 30.35200
O  6.84700 47.54500 32.13400
C  7.08400 46.28100 32.90400
H  13.04900 50.39000 28.11400
H  12.07100 47.70600 22.21400
H  5.72800 47.67100 23.75800
H  9.17000 50.14700 31.03900
H  11.97500 50.07200 30.24700
H  10.02900 52.03100 30.87200
H  10.35800 52.24900 29.10200
H  11.63700 52.48800 30.33100
H  11.25300 48.08800 31.17400
H  9.73100 47.37700 30.94000
H  9.20700 48.95600 33.11400
H  11.00500 48.84000 33.23000
H  15.77600 49.01100 26.28900
H  14.94900 50.42400 27.10200
H  15.55100 50.55900 25.46200
H  16.51300 48.72200 22.26900
H  16.48000 48.10300 23.92300
H  16.23000 49.88500 23.45000
H  9.67500 46.37600 21.46100
H  7.37000 48.43400 21.73400
H  10.58300 48.98000 20.66200
H  8.95400 48.82500 20.00000
H  10.25200 47.65800 19.65700
H  6.11800 46.28400 22.06900
H  7.54900 45.34100 21.96900
H  5.87400 45.61800 19.94800
H  7.61100 45.31600 19.70400
H  6.99300 47.00300 19.65200
H  3.89900 47.08500 25.09500
H  3.44000 48.50200 25.70900
H  3.54900 47.04400 26.85600
H  6.57000 49.42100 30.66100
H  7.42500 46.63800 33.87500
H  7.91100 45.68300 32.52100
H  6.15100 45.72400 32.99500

