158

Mg 47.81300 34.63300 27.59100
C  45.79300 33.10600 29.83800
C  48.16400 37.29700 29.50200
C  49.42800 36.32200 24.99200
C  47.13700 32.02000 25.19800
N  47.01200 35.13600 29.45900
C  46.29100 34.28600 30.28900
C  46.26300 34.89400 31.70700
C  46.65700 36.40100 31.51300
C  47.26800 36.33200 30.07000
C  45.50500 37.45400 31.63400
C  47.28900 34.08700 32.66000
C  46.77500 33.80900 34.07100
H  47.62800 34.57600 35.13600
N  48.83800 36.41700 27.32200
C  48.87000 37.34000 28.31100
C  49.78100 38.35600 27.97400
C  50.30800 38.03400 26.68200
C  49.50000 36.87800 26.26700
C  50.00500 39.60900 28.78500
C  51.29100 38.82800 25.78900
O  51.53700 38.43300 24.64200
C  52.11600 40.04800 26.29100
N  48.04400 34.32300 25.33200
C  48.90700 35.07700 24.61100
C  49.03800 34.54100 23.14800
C  48.33300 33.11200 23.23000
C  47.75100 33.17800 24.65200
C  48.44600 35.39600 22.03000
C  49.44500 31.96000 23.03400
C  50.26500 31.50500 24.32800
N  46.67000 33.01500 27.43500
C  46.62600 31.95200 26.53700
C  45.88000 30.88700 27.09200
C  45.50700 31.28900 28.34300
C  45.97900 32.56300 28.48600
C  45.43800 29.59700 26.42100
C  44.78400 30.97900 29.55600
O  44.27700 29.89900 29.92000
C  44.82100 32.22400 30.43900
C  44.91500 31.79400 31.84300
O  45.85900 31.16100 32.41900
O  43.69900 32.00600 32.51500
C  43.69700 31.56000 33.89100
H  48.24400 38.11400 30.22300
H  49.81800 36.85000 24.12000
H  47.22600 31.08300 24.64400
H  45.23400 34.77300 32.04600
H  47.43700 36.70600 32.21100
H  44.64300 37.16700 32.23600
H  45.17500 37.78200 30.64800
H  45.84200 38.32300 32.19900
H  48.21700 34.65400 32.58800
H  47.63400 33.17100 32.17900
H  46.87100 32.75700 34.34000
H  45.75000 34.11900 34.27300
H  49.71600 40.41200 28.10800
H  51.06900 39.67000 29.01600
H  49.46100 39.69300 29.72600
H  51.48800 40.93800 26.32500
H  52.93500 40.21600 25.59100
H  52.46200 39.90800 27.31500
H  50.11600 34.52800 22.98600
H  47.57300 32.90600 22.47600
H  49.14100 35.54900 21.20400
H  48.20000 36.33100 22.53300
H  47.48100 35.10000 21.62100
H  50.02800 32.25000 22.16000
H  48.99700 31.03000 22.68400
H  49.87900 31.91500 25.26100
H  51.31200 31.80100 24.26000
H  50.37200 30.42100 24.36000
H  45.32900 28.84900 27.20500
H  46.21900 29.36500 25.69700
H  44.47200 29.83200 25.97400
H  43.81400 32.63000 30.34300
H  42.86600 30.85400 33.89000
H  43.51100 32.39200 34.56900
H  44.60200 31.26800 34.42400
Mg -4.36500 24.65100 26.15700
C  -3.37100 26.23000 28.98100
C  -6.13500 22.39000 28.12400
C  -5.32500 22.96600 23.37200
C  -2.66000 26.93100 24.17700
N  -4.99000 24.56900 28.32200
C  -4.37800 25.28100 29.23900
C  -4.91800 24.88000 30.66700
C  -5.57800 23.48100 30.39600
C  -5.56800 23.45200 28.82300
C  -5.01900 22.26800 31.15500
C  -5.87900 25.98500 31.19300
C  -5.60300 26.37300 32.70000
H  -4.83700 25.58200 33.73200
N  -5.57200 22.94300 25.81000
C  -6.21400 22.17700 26.76000
C  -6.84200 21.02800 26.12800
C  -6.64800 21.18500 24.72500
C  -5.75700 22.38500 24.57300
C  -7.51700 19.91400 26.95000
C  -7.15200 20.30700 23.51300
O  -6.65100 20.48100 22.40700
C  -8.08200 19.13900 23.77700
N  -4.05400 24.91900 24.07400
C  -4.58700 24.17100 23.11600
C  -4.43100 24.79000 21.72900
C  -3.48900 25.99300 22.01100
C  -3.42700 25.98800 23.49100
C  -3.78900 23.92300 20.61400
C  -3.97700 27.29600 21.44200
C  -2.90700 28.26300 20.89200
N  -3.21200 26.27200 26.41200
C  -2.56900 27.08500 25.56400
C  -1.76500 28.08400 26.27500
C  -2.00900 27.74600 27.68600
C  -2.98000 26.71100 27.70000
C  -0.84000 29.17700 25.67700
C  -1.70800 28.10600 29.02800
O  -0.95200 28.86600 29.52100
C  -2.55300 27.19700 29.86300
C  -1.56500 26.34800 30.70700
O  -1.02400 25.31100 30.34600
O  -1.31900 27.08600 31.79400
C  -0.48100 26.42600 32.81300
H  -6.42900 21.64800 28.87000
H  -5.78500 22.62200 22.44400
H  -2.32900 27.80200 23.60700
H  -4.04800 24.80700 31.32000
H  -6.64300 23.51600 30.62400
H  -4.06800 21.95900 30.72100
H  -5.75500 21.46700 31.22500
H  -4.76300 22.57800 32.16800
H  -6.91700 25.67000 31.09000
H  -5.77100 26.80400 30.48200
H  -6.60900 26.53600 33.08700
H  -5.10700 27.33700 32.58600
H  -7.01400 19.73200 27.90000
H  -7.51900 18.98000 26.38800
H  -8.54900 20.16800 27.18800
H  -8.84200 19.49400 24.47400
H  -7.52200 18.29800 24.18600
H  -8.64300 18.84500 22.89000
H  -5.37500 25.22000 21.39300
H  -2.50400 25.87800 21.55800
H  -4.59500 23.51200 20.00500
H  -3.03900 23.22800 20.99300
H  -3.10100 24.48900 19.98700
H  -4.56900 27.68900 22.26800
H  -4.65600 27.12000 20.60700
H  -1.89900 27.86500 21.00700
H  -3.02600 29.27000 21.29300
H  -3.09600 28.33900 19.82100
H  -1.27000 30.15700 25.88200
H  -0.68800 29.17500 24.59800
H  0.12800 29.11800 26.17600
H  -3.11000 27.90900 30.47200
H  0.52000 26.61600 32.42500
H  -0.62900 25.35100 32.92000
H  -0.56600 27.08600 33.67700

