158

Mg 40.94700 8.88600 29.54700
C  42.91100 9.89400 32.18100
C  38.54800 7.66700 31.73600
C  39.13800 7.63100 26.92300
C  43.71200 9.36500 27.39400
N  40.87400 8.62500 31.70500
C  41.66600 9.40500 32.58300
C  41.00500 9.48200 34.05400
C  39.76400 8.57400 33.85500
C  39.70600 8.24100 32.32500
C  39.53400 7.43700 34.81000
C  40.72000 10.90200 34.54500
C  41.62500 11.39900 35.66300
H  41.03100 12.23400 36.81300
N  39.04800 7.88200 29.36000
C  38.21500 7.46500 30.38400
C  37.00800 7.00500 29.87100
C  37.16400 6.93400 28.44200
C  38.50000 7.44300 28.16500
C  35.85800 6.51300 30.76400
C  36.15400 6.44900 27.36400
O  36.54700 6.10800 26.23500
C  34.68000 6.24700 27.76100
N  41.33700 8.60000 27.50500
C  40.40100 8.14700 26.60500
C  40.90200 8.33300 25.16900
C  42.40500 8.84300 25.37600
C  42.51700 8.86700 26.88200
C  40.85000 7.04000 24.23000
C  42.58000 10.21000 24.60500
C  41.93400 11.41800 25.37100
N  42.98700 9.47800 29.68300
C  43.99000 9.64200 28.72100
C  45.22400 10.12200 29.37400
C  44.81900 10.33400 30.71600
C  43.46300 9.90300 30.85200
C  46.60200 10.29200 28.78000
C  45.20400 10.90500 31.99800
O  46.24600 11.39500 32.33200
C  44.02400 10.56400 32.99900
C  44.52500 9.61200 34.13100
O  44.50400 8.38600 34.13700
O  45.01500 10.43800 35.18700
C  45.44100 9.94600 36.50500
H  37.79700 7.50900 32.51300
H  38.62400 7.31500 26.01200
H  44.49400 9.57600 26.66300
H  41.67600 8.95900 34.73500
H  38.89300 9.20300 34.04000
H  38.64100 7.59600 35.41600
H  40.31700 7.29400 35.55500
H  39.52400 6.48800 34.27500
H  39.73500 10.92200 35.01100
H  40.80200 11.67800 33.78400
H  42.35300 12.14000 35.33100
H  42.31400 10.66400 36.08000
H  36.16500 6.45900 31.80800
H  35.54200 5.52200 30.43900
H  35.15200 7.34400 30.75200
H  34.21300 5.87100 26.85100
H  34.33700 7.26400 27.95300
H  34.55500 5.57200 28.60800
H  40.33700 9.08300 24.61600
H  43.09800 8.07300 25.03700
H  40.21700 7.22500 23.36200
H  40.37300 6.22900 24.78100
H  41.86000 6.67900 24.03700
H  42.02100 10.04000 23.68500
H  43.64600 10.35300 24.42500
H  42.56600 12.29200 25.21600
H  41.77000 11.29900 26.44200
H  40.99700 11.57500 24.83600
H  46.72500 11.34900 28.54300
H  46.50700 9.72500 27.85500
H  47.41400 9.85900 29.36400
H  43.58900 11.47000 33.42100
H  44.89200 9.01900 36.67200
H  45.05900 10.71500 37.17600
H  46.52300 9.87000 36.61100
Mg 42.03100 40.92100 26.76100
C  40.85600 43.10700 29.14200
C  43.33400 38.97500 29.26600
C  42.85600 38.59100 24.43800
C  41.37300 43.25900 24.36500
N  41.84400 40.95300 28.95400
C  41.36000 41.89600 29.71700
C  41.56900 41.60400 31.22500
C  42.57100 40.38600 31.25500
C  42.56700 40.10600 29.70300
C  43.99100 40.70400 31.80900
C  40.27100 41.26800 31.93000
C  39.80000 42.22700 33.00600
H  39.43200 41.69600 34.38600
N  42.91200 38.99300 26.91700
C  43.33500 38.40000 28.03300
C  43.86400 37.08800 27.67700
C  43.65600 36.84500 26.26500
C  43.11200 38.16300 25.73700
C  44.49000 36.21400 28.70000
C  43.86900 35.62900 25.46500
O  43.61300 35.58200 24.29000
C  44.34400 34.36600 26.17500
N  42.27000 40.99700 24.74900
C  42.50500 39.86300 24.00900
C  42.48300 40.18700 22.52500
C  41.89500 41.62700 22.41500
C  41.75100 42.02900 23.92200
C  43.84900 39.99800 21.86400
C  40.53400 41.82800 21.71900
C  40.50300 43.05100 20.78100
N  41.23300 42.83200 26.67900
C  41.12100 43.67100 25.67800
C  40.51500 44.91100 26.14100
C  40.38000 44.75600 27.52000
C  40.82600 43.46400 27.75700
C  40.13900 46.06300 25.29800
C  40.01700 45.33000 28.74300
O  39.37600 46.32800 28.98800
C  40.30800 44.32500 29.87200
C  41.27000 45.06400 30.73000
O  42.46400 45.31800 30.44000
O  40.63100 45.46000 31.84100
C  41.48200 46.16400 32.82200
H  43.84000 38.43000 30.06600
H  43.10100 37.92700 23.60700
H  41.09900 44.10000 23.72500
H  41.99200 42.47100 31.73200
H  42.22200 39.48600 31.76200
H  44.68800 40.48800 31.00000
H  44.15500 40.01300 32.63500
H  44.02000 41.74500 32.13200
H  40.34600 40.25600 32.32600
H  39.46900 41.32200 31.19400
H  38.82700 42.54900 32.63400
H  40.39400 43.13200 33.12700
H  44.02600 35.23100 28.77600
H  44.45700 36.56100 29.73300
H  45.54200 36.06800 28.45200
H  44.40600 33.52600 25.48300
H  43.63200 34.08100 26.95000
H  45.33000 34.52000 26.61300
H  41.79100 39.53800 21.98800
H  42.67600 42.19100 21.90400
H  44.15300 40.79200 21.18200
H  43.64600 39.08800 21.30000
H  44.58700 39.69700 22.60800
H  39.74500 41.83500 22.47100
H  40.28300 40.95700 21.11500
H  41.43400 43.13700 20.22200
H  40.28200 44.03700 21.19200
H  39.70600 42.82400 20.07300
H  39.08300 45.95500 25.05100
H  40.86500 46.13400 24.48700
H  40.37400 46.90400 25.95100
H  39.38900 44.13500 30.42600
H  41.75800 45.39700 33.54500
H  40.83800 46.90800 33.29200
H  42.40900 46.53200 32.38400

