158

Mg 25.85000 0.36600 29.58100
C  27.68600 0.14500 32.61400
C  22.94400 0.99300 31.52500
C  23.96300 0.16300 26.86500
C  28.65500 -0.58300 27.90900
N  25.35100 0.45200 31.81900
C  26.32300 0.45300 32.79600
C  25.66600 0.81300 34.15600
C  24.09600 0.87900 33.88400
C  24.09700 0.75800 32.31900
C  23.18200 -0.28800 34.45800
C  26.23200 2.08400 34.86100
C  26.93600 1.82100 36.22400
H  26.55000 2.73400 37.40200
N  23.78300 0.53300 29.26900
C  22.77900 0.87200 30.12200
C  21.54600 1.10300 29.42200
C  21.74500 0.86600 28.04600
C  23.20900 0.41400 28.02500
C  20.26200 1.56300 30.19300
C  20.94200 0.92500 26.87100
O  21.37100 0.87000 25.71600
C  19.43500 1.17100 26.98300
N  26.19900 -0.40600 27.68900
C  25.28400 -0.21500 26.65900
C  25.97600 -0.30700 25.23100
C  27.45800 -0.67600 25.60800
C  27.48300 -0.56700 27.13900
C  25.25800 -1.42200 24.34100
C  28.52200 0.35000 25.05400
C  28.47700 1.76000 25.63200
N  27.80500 -0.05400 30.16400
C  28.77900 -0.50300 29.29700
C  29.98600 -0.82400 30.09500
C  29.54300 -0.48600 31.42400
C  28.24600 -0.08800 31.37800
C  31.23400 -1.40700 29.63600
C  29.97600 -0.45300 32.79800
O  31.09200 -0.68100 33.29500
C  28.74100 -0.04300 33.61400
C  28.49400 -1.10000 34.63400
O  27.87100 -2.16800 34.43600
O  29.12900 -0.73800 35.81500
C  28.89000 -1.69500 36.85900
H  22.05500 1.16000 32.13600
H  23.52100 0.26400 25.87200
H  29.63300 -0.68000 27.43200
H  25.75600 -0.09200 34.75700
H  23.61700 1.85100 34.00400
H  23.05500 -1.09600 33.73700
H  22.26900 0.10100 34.90700
H  23.73400 -0.76900 35.26600
H  25.39000 2.76900 34.95900
H  27.00600 2.57300 34.26800
H  27.98700 1.89900 35.94800
H  26.61600 0.84800 36.59900
H  19.88000 0.62100 30.58800
H  19.53800 2.16500 29.64400
H  20.61000 2.23900 30.97400
H  19.06000 0.47600 27.73500
H  18.98100 0.92100 26.02500
H  19.20100 2.17200 27.34400
H  25.99300 0.70000 24.81500
H  27.79100 -1.65800 25.27100
H  25.74100 -2.37700 24.13300
H  25.17500 -0.99100 23.34300
H  24.26900 -1.65700 24.73400
H  28.36700 0.47100 23.98200
H  29.49300 -0.11200 25.23300
H  29.33900 2.04200 26.23500
H  27.59500 1.95500 26.24300
H  28.44700 2.50200 24.83500
H  31.93600 -0.57400 29.59800
H  31.11800 -1.86400 28.65300
H  31.51200 -2.11800 30.41500
H  28.86600 0.87200 34.19400
H  28.12100 -1.34700 37.55000
H  29.88800 -1.70300 37.29600
H  28.63000 -2.71500 36.57300
Mg 8.81000 47.51100 27.57000
C  6.82100 47.20500 30.44000
C  11.52700 47.93400 29.44600
C  10.44900 48.29100 24.72000
C  5.72900 47.59400 25.63700
N  9.10300 47.55700 29.62400
C  8.21300 47.34200 30.63700
C  8.85100 47.25600 32.02800
C  10.28700 47.70100 31.68200
C  10.33400 47.69500 30.14000
C  10.78900 49.10500 32.17600
C  8.82000 45.87600 32.76000
C  9.95600 45.42100 33.73600
H  9.51900 44.89300 35.11000
N  10.77400 48.01000 27.16600
C  11.80100 48.10600 28.08100
C  13.05600 48.20200 27.39900
C  12.71300 48.41100 26.00800
C  11.25600 48.29800 25.91600
C  14.37700 48.20900 28.14800
C  13.69600 48.46400 24.88400
O  13.34600 48.65400 23.70800
C  15.21000 48.43300 25.11000
N  8.10400 47.83200 25.50000
C  9.05100 48.07400 24.52800
C  8.44700 48.44200 23.13900
C  6.97000 47.92800 23.36300
C  6.90700 47.68400 24.92000
C  8.54900 49.97500 22.84500
C  6.63800 46.55900 22.54700
C  5.51300 46.75500 21.55100
N  6.73100 47.36600 27.95100
C  5.62600 47.51000 27.06700
C  4.35900 47.39300 27.80000
C  4.82900 47.25000 29.18300
C  6.24000 47.24600 29.17400
C  2.94400 47.64300 27.20700
C  4.45000 47.06100 30.56900
O  3.34900 46.95100 31.13500
C  5.70300 46.86700 31.42300
C  5.75200 45.48400 31.86000
O  6.07700 44.52000 31.13600
O  5.30600 45.35400 33.17600
C  5.48400 43.99900 33.75800
H  12.49100 48.02400 29.94900
H  11.07500 48.66900 23.91000
H  4.80200 47.54500 25.06100
H  8.43200 48.01600 32.68800
H  11.00300 46.89200 31.82100
H  10.12900 49.46900 32.96400
H  10.69000 49.92100 31.46100
H  11.78300 49.07600 32.62400
H  8.80900 45.10900 31.98500
H  7.97300 45.70100 33.42400
H  10.54400 46.31900 33.92200
H  10.58500 44.75600 33.14400
H  15.00400 47.51900 27.58300
H  14.31200 47.87400 29.18300
H  14.72600 49.24200 28.13600
H  15.53100 48.94600 26.01600
H  15.54700 48.93000 24.20000
H  15.57300 47.40600 25.06200
H  9.01000 47.93200 22.35700
H  6.25300 48.71800 23.14100
H  8.70800 50.43100 23.82300
H  7.62400 50.36600 22.41900
H  9.39400 50.14900 22.17900
H  6.34900 45.78700 23.26000
H  7.54000 46.14300 22.09900
H  5.04200 47.73300 21.45300
H  4.67500 46.13700 21.87400
H  5.92900 46.39500 20.61000
H  2.35000 46.82800 27.62100
H  2.86000 47.78100 26.12900
H  2.51000 48.48600 27.74400
H  5.68800 47.56400 32.26100
H  6.51000 43.70500 33.53600
H  4.69500 43.28100 33.53500
H  5.60100 44.05600 34.84000

