158

Mg 1.69500 8.62000 26.34100
C  1.90300 10.77500 29.07100
C  2.15600 6.02300 28.23400
C  2.33600 6.79900 23.44800
C  1.78700 11.53900 24.28000
N  2.11300 8.47300 28.47600
C  1.89900 9.41200 29.43300
C  1.91400 8.73700 30.86900
C  2.16800 7.32300 30.56500
C  2.22100 7.22700 28.98100
C  3.41500 6.63300 31.29200
C  0.60000 9.11500 31.68400
C  0.47800 9.21500 33.17700
H  1.61100 8.70700 34.08800
N  2.09200 6.65800 25.92700
C  2.13300 5.72000 26.88400
C  2.22200 4.41400 26.25300
C  2.41300 4.65100 24.83700
C  2.27800 6.11100 24.68100
C  2.26900 3.08700 27.05500
C  2.57900 3.61000 23.74400
O  2.49700 3.87000 22.54100
C  2.76300 2.25600 24.08700
N  1.98200 9.09800 24.22300
C  2.05600 8.13400 23.23700
C  2.00000 8.67800 21.78100
C  1.68200 10.19400 22.10600
C  1.80900 10.29700 23.61700
C  3.25600 8.23700 21.01300
C  0.30700 10.74700 21.61900
C  0.21500 11.94700 20.64200
N  1.82300 10.73800 26.57000
C  1.85300 11.74800 25.66200
C  1.83800 13.02500 26.35500
C  1.95200 12.67400 27.74600
C  1.94000 11.29200 27.79000
C  1.98200 14.41900 25.74500
C  2.12600 13.24500 29.10500
O  2.35500 14.33700 29.57900
C  2.23800 11.94700 30.00000
C  3.52900 11.92200 30.69200
O  4.62500 11.83900 30.12800
O  3.46200 12.06100 32.08200
C  4.58700 11.70400 32.82800
H  2.15800 5.14300 28.88100
H  2.32800 6.18200 22.54700
H  1.63200 12.43000 23.66700
H  2.83100 9.15800 31.28000
H  1.25600 6.80200 30.85700
H  2.95900 5.95400 32.01200
H  4.11600 7.28400 31.81400
H  4.07000 6.03600 30.65800
H  -0.24000 8.53800 31.29900
H  0.34100 10.11200 31.32800
H  -0.49200 8.80800 33.46200
H  0.57300 10.27000 33.43300
H  1.85000 3.35500 28.02400
H  3.24900 2.61000 27.03000
H  1.62100 2.36800 26.55300
H  2.99600 1.56600 23.27600
H  1.87700 1.91000 24.62000
H  3.60900 2.22000 24.77400
H  1.13500 8.10400 21.44900
H  2.54900 10.60700 21.58900
H  3.98000 7.62600 21.55100
H  3.80000 9.05100 20.53400
H  2.83200 7.59200 20.24400
H  -0.12200 11.23800 22.49200
H  -0.40900 9.97600 21.33500
H  1.18400 12.02100 20.14900
H  0.19900 12.93800 21.09500
H  -0.51600 11.93400 19.83400
H  1.66700 14.52800 24.70700
H  3.05300 14.62000 25.78600
H  1.45400 15.07000 26.44000
H  1.32400 12.12100 30.56900
H  5.50000 12.29700 32.77600
H  4.92000 10.69700 32.57700
H  4.29900 11.74700 33.87800
Mg -5.66300 24.99400 27.72100
C  -3.78100 26.86200 30.11200
C  -6.64800 22.84300 30.13300
C  -7.16300 23.01100 25.26300
C  -4.19900 26.83300 25.23200
N  -5.18000 24.87900 29.77300
C  -4.53500 25.78900 30.64300
C  -4.83800 25.54300 32.12900
C  -5.67100 24.15400 32.07100
C  -5.79900 23.85500 30.56700
C  -5.03200 23.03100 32.85100
C  -5.66000 26.69800 32.74100
C  -5.34100 27.00700 34.17100
H  -6.39900 26.71600 35.21100
N  -6.85700 23.17700 27.75500
C  -7.12300 22.46100 28.82800
C  -7.77100 21.24300 28.41200
C  -7.91000 21.19200 27.01300
C  -7.24100 22.45700 26.61900
C  -8.27100 20.26200 29.45600
C  -8.57700 20.12900 26.12100
O  -8.58400 20.17400 24.87000
C  -9.35100 19.02500 26.80000
N  -5.68400 24.89000 25.58100
C  -6.41200 24.04600 24.78800
C  -6.30800 24.33100 23.27500
C  -5.31300 25.61300 23.30000
C  -5.08500 25.85300 24.80100
C  -5.73900 23.14700 22.48800
C  -5.93300 26.92900 22.63200
C  -5.02400 27.73700 21.78700
N  -4.28400 26.55100 27.65900
C  -3.90800 27.22100 26.57400
C  -2.89800 28.21000 27.00700
C  -2.90800 28.20000 28.37200
C  -3.65100 27.09200 28.73500
C  -2.30000 29.21900 26.14000
C  -2.36900 28.74400 29.60200
O  -1.59100 29.68500 29.76600
C  -3.00500 27.96200 30.78800
C  -1.83100 27.50600 31.61900
O  -0.79500 26.97500 31.26200
O  -2.11800 27.90200 32.88500
C  -0.97400 27.72000 33.79800
H  -6.92100 22.12800 30.91200
H  -7.59300 22.32300 24.53300
H  -3.86800 27.55600 24.48400
H  -3.87900 25.36700 32.61700
H  -6.67300 24.21300 32.49700
H  -5.78400 22.37400 33.28800
H  -4.36300 23.33300 33.65600
H  -4.46100 22.41500 32.15700
H  -6.67500 26.30800 32.66500
H  -5.78500 27.60000 32.14300
H  -5.10200 28.06800 34.24800
H  -4.45000 26.44400 34.45100
H  -9.34500 20.09000 29.38500
H  -7.99800 20.54000 30.47400
H  -7.64000 19.38600 29.30800
H  -9.95900 18.51100 26.05500
H  -10.09900 19.38400 27.50800
H  -8.53900 18.52600 27.32900
H  -7.30600 24.51300 22.87600
H  -4.32100 25.33700 22.94200
H  -4.94600 23.46200 21.80900
H  -6.53000 22.63300 21.94100
H  -5.34800 22.39500 23.17200
H  -6.27100 27.58300 23.43600
H  -6.83700 26.67700 22.07900
H  -5.49100 27.88900 20.81400
H  -4.03300 27.28700 21.72400
H  -4.81400 28.72400 22.19800
H  -1.75800 28.62100 25.40800
H  -1.43600 29.67300 26.62600
H  -2.98500 29.96100 25.72800
H  -3.70400 28.59500 31.33400
H  -0.07800 28.13500 33.33600
H  -0.68900 26.67200 33.89100
H  -1.16800 28.13800 34.78600

