158

Mg 5.97200 54.35100 40.81300
C  5.05100 51.01900 40.36600
C  9.11400 53.63100 39.39200
C  6.63500 57.55500 41.02500
C  2.58200 55.03700 41.85000
N  6.93600 52.56700 40.03800
C  6.38400 51.33600 39.89600
C  7.42000 50.30000 39.40500
C  8.81300 51.06000 39.52300
C  8.25700 52.49900 39.52100
C  9.56700 50.60700 40.81000
C  7.04700 49.99400 37.96300
C  7.67600 48.77800 37.28400
H  6.86300 48.13800 36.11100
N  7.55800 55.43100 40.22500
C  8.78200 54.96400 39.73900
C  9.63800 56.08300 39.53700
C  9.08900 57.23700 40.05800
C  7.69000 56.78600 40.48600
C  10.91900 56.00800 38.78400
C  9.72700 58.53300 40.09700
O  10.85700 58.71600 39.60800
C  9.07400 59.59000 40.79900
N  4.79100 56.06800 41.28200
C  5.33400 57.26300 41.39500
C  4.34600 58.37100 41.85400
C  3.03000 57.59200 41.88400
C  3.45600 56.10500 41.64200
C  4.64600 59.03400 43.27200
C  1.97900 57.96800 40.83200
C  0.93000 59.08200 41.20100
N  4.17200 53.26600 41.08200
C  2.94100 53.64400 41.58500
C  2.17800 52.44800 41.84800
C  3.00400 51.38500 41.34300
C  4.16100 51.91800 40.88800
C  0.85900 52.40000 42.50200
C  3.03300 49.94600 41.25300
O  2.31200 49.03800 41.65400
C  4.42500 49.70800 40.66300
C  4.36100 48.69200 39.56100
O  3.81400 48.75500 38.43900
O  5.09100 47.57800 39.98000
C  4.75200 46.35800 39.18100
H  10.16800 53.40500 39.21700
H  6.69200 58.64100 41.13400
H  1.62200 55.37000 42.25000
H  7.30400 49.39200 39.99600
H  9.36000 50.99200 38.58200
H  9.17900 49.72200 41.31300
H  9.45300 51.43400 41.51100
H  10.63200 50.60000 40.57500
H  7.26500 50.87500 37.35800
H  5.96800 49.90800 37.84000
H  8.00000 48.04400 38.02200
H  8.55000 49.18900 36.77700
H  11.79000 56.13900 39.42600
H  10.93300 56.83800 38.07700
H  11.01000 55.07200 38.23300
H  8.28700 59.97800 40.15200
H  9.72000 60.38200 41.17700
H  8.69200 59.02100 41.64700
H  4.55500 59.14700 41.11800
H  2.56000 57.58500 42.86700
H  3.66300 59.33100 43.63900
H  5.15500 59.94400 42.95300
H  5.35100 58.55800 43.95300
H  1.40600 57.16800 40.36400
H  2.56100 58.36200 39.99900
H  0.94100 59.79600 40.37700
H  1.26800 59.54900 42.12600
H  -0.06800 58.67000 41.35300
H  0.15700 52.32200 41.67200
H  0.66600 53.31900 43.05500
H  0.94300 51.48100 43.08300
H  5.05300 49.27400 41.44100
H  3.70000 46.08200 39.25100
H  5.38900 45.58400 39.61000
H  5.01300 46.51600 38.13400
Mg 17.48100 52.70300 26.47900
C  19.38000 51.42800 29.17200
C  14.86900 53.17100 28.63800
C  15.70300 53.71000 23.90400
C  20.07000 51.53600 24.31300
N  17.13600 52.39100 28.66300
C  18.14100 52.04000 29.54800
C  17.71200 52.21700 30.99200
C  16.18300 52.63400 30.92500
C  16.05100 52.72600 29.34000
C  15.15100 51.68400 31.64800
C  18.67200 53.15200 31.84800
C  18.86000 52.94100 33.33300
H  17.73000 52.15100 34.07200
N  15.53500 53.29900 26.29400
C  14.59300 53.45800 27.31500
C  13.36100 54.05200 26.85700
C  13.65400 54.27800 25.45300
C  15.04900 53.79200 25.18100
C  12.18200 54.40500 27.79700
C  12.77500 55.00200 24.37500
O  13.18800 55.30200 23.25000
C  11.52200 55.69600 24.89100
N  17.89100 52.73500 24.45300
C  16.93400 53.21700 23.60900
C  17.48000 53.20300 22.17900
C  18.88800 52.55400 22.26600
C  18.93700 52.19700 23.72800
C  16.54800 52.39600 21.17700
C  20.03200 53.50800 21.70400
C  20.17200 54.75700 22.60700
N  19.27800 51.63000 26.65100
C  20.17600 51.31500 25.71100
C  21.28200 50.69200 26.30300
C  20.97700 50.64200 27.66000
C  19.76800 51.28800 27.85600
C  22.38300 49.98500 25.67800
C  21.48800 50.23200 28.94800
O  22.47800 49.57800 29.28700
C  20.50300 50.74600 30.00200
C  19.87300 49.63300 30.81100
O  18.96600 48.93800 30.41800
O  20.44200 49.39500 32.03400
C  19.81200 48.55800 33.00600
H  14.04100 53.48900 29.27500
H  15.19100 54.00100 22.98500
H  20.85000 51.15300 23.65200
H  17.83600 51.21000 31.38800
H  16.03400 53.67200 31.21900
H  14.76400 51.05400 30.84700
H  14.34300 52.21400 32.15300
H  15.62800 51.05600 32.40100
H  18.17000 54.10600 31.68600
H  19.62600 53.25600 31.33100
H  18.96700 53.88700 33.86400
H  19.81600 52.44300 33.49200
H  11.22000 54.53000 27.29800
H  12.51200 55.28900 28.34200
H  12.07200 53.67600 28.59900
H  10.90000 54.88900 25.27800
H  11.14100 56.14400 23.97400
H  11.75400 56.50400 25.58400
H  17.46100 54.24900 21.87400
H  19.09200 51.59700 21.78700
H  16.74200 51.32900 21.28200
H  16.73500 52.87800 20.21700
H  15.50800 52.60900 21.42500
H  19.82200 53.86000 20.69400
H  21.03200 53.07500 21.72000
H  19.64800 55.68600 22.38500
H  21.23000 54.97900 22.47100
H  19.98300 54.43700 23.63200
H  22.93400 50.71000 25.07800
H  21.95000 49.32000 24.93100
H  23.04100 49.32700 26.24500
H  20.93400 51.54100 30.61000
H  19.93000 49.02500 33.98400
H  20.27200 47.57100 33.04400
H  18.73300 48.55100 32.84700

