158

Mg 47.37000 16.16800 28.19200
C  45.22700 16.16100 31.09900
C  49.57300 18.01300 30.09100
C  48.98500 16.73500 25.34300
C  44.76100 14.73100 26.50000
N  47.28900 17.06900 30.23500
C  46.44700 16.79100 31.27100
C  47.00900 17.16800 32.64400
C  48.35200 17.88800 32.31900
C  48.43000 17.68800 30.75200
C  48.48100 19.30200 32.82300
C  47.15600 16.00600 33.66500
C  46.51300 16.17500 35.11200
H  46.18600 17.54700 35.58200
N  49.13400 17.07200 27.80100
C  49.89000 17.76600 28.69800
C  51.03100 18.39300 28.04300
C  50.90600 17.95500 26.64100
C  49.69100 17.15500 26.56300
C  52.01800 19.26500 28.66100
C  51.84000 18.23800 25.48900
O  51.60600 18.01500 24.30900
C  53.17200 18.77600 25.78100
N  47.01700 15.71700 26.20000
C  47.74500 16.13200 25.13500
C  47.11100 15.68000 23.82100
C  45.95300 14.72600 24.28400
C  45.90200 15.06100 25.76000
C  46.63300 16.81200 22.91500
C  46.16300 13.18700 23.90900
C  45.21800 12.57300 22.88000
N  45.39500 15.47500 28.65500
C  44.54900 14.87900 27.86200
C  43.36500 14.40300 28.69100
C  43.56200 14.88400 29.94700
C  44.84600 15.48500 29.89100
C  42.11500 13.78300 28.26300
C  43.08200 14.98200 31.33800
O  42.12800 14.48500 31.89600
C  44.14700 15.84300 32.13800
C  43.45700 16.95800 32.81100
O  43.34200 18.11300 32.37600
O  42.86200 16.44200 33.94800
C  41.93200 17.36900 34.62500
H  50.37700 18.45600 30.68200
H  49.47700 17.02000 24.41100
H  44.10000 14.04800 25.96200
H  46.29400 17.91700 32.98700
H  49.21600 17.39200 32.76300
H  49.27600 19.35900 33.56700
H  47.50200 19.60800 33.19100
H  48.76000 19.96800 32.00700
H  48.23200 15.91100 33.81100
H  46.76000 15.11700 33.17400
H  47.30700 15.76600 35.73600
H  45.72200 15.42500 35.12100
H  52.21400 20.24900 28.23400
H  52.98600 18.76600 28.62300
H  51.83900 19.47800 29.71500
H  53.04000 19.62000 26.45800
H  53.58400 19.10100 24.82600
H  53.88100 18.01600 26.11000
H  47.92300 15.25200 23.23400
H  45.08900 15.10900 23.74100
H  45.75200 16.68200 22.28700
H  47.28100 16.80400 22.03900
H  46.55800 17.74700 23.47100
H  46.08500 12.52700 24.77300
H  47.14000 13.07500 23.43800
H  44.32600 13.17900 22.71700
H  44.74000 11.67800 23.27900
H  45.64200 12.27600 21.92100
H  41.86600 14.14600 27.26600
H  41.28100 14.10800 28.88400
H  42.26100 12.70300 28.25000
H  44.45100 15.11600 32.89200
H  42.16400 17.45900 35.68600
H  40.90700 17.02400 34.48600
H  41.85300 18.32800 34.11300
Mg 30.12800 58.02600 40.53600
C  27.11400 56.28500 39.87300
C  31.89300 55.33000 39.43500
C  32.86800 59.99900 40.09100
C  28.17300 60.87600 41.20900
N  29.47600 56.06500 39.65400
C  28.19500 55.49500 39.56700
C  28.32500 54.02800 39.22400
C  29.87400 53.82100 39.07000
C  30.47100 55.15400 39.48900
C  30.41100 52.56300 39.83400
C  27.40400 53.51600 38.06400
C  27.19500 54.33100 36.81500
H  27.97400 54.07500 35.50900
N  32.13700 57.67700 40.15000
C  32.61300 56.48000 39.68500
C  34.06000 56.53000 39.65900
C  34.36800 57.90500 39.80600
C  33.09800 58.61700 39.97200
C  34.95300 55.43800 39.28100
C  35.73700 58.51300 39.56700
O  36.72000 57.83300 39.35000
C  35.92500 60.03100 39.70200
N  30.47500 60.16200 40.59800
C  31.70800 60.72700 40.45800
C  31.66800 62.26900 40.63100
C  30.16500 62.49700 41.04700
C  29.54100 61.11500 40.92200
C  32.73000 62.79100 41.70600
C  29.36400 63.51700 40.15700
C  28.44700 64.50300 40.99900
N  28.04900 58.54700 40.70800
C  27.45000 59.72400 40.99000
C  26.00300 59.53200 40.97000
C  25.81700 58.24800 40.53300
C  27.09300 57.64900 40.33200
C  25.01600 60.62300 41.33800
C  24.81300 57.24400 40.12100
O  23.61300 57.29500 40.20900
C  25.60700 55.93500 39.79100
C  25.30500 54.81500 40.73600
O  25.95100 54.48200 41.66000
O  24.12300 54.22600 40.23300
C  23.70500 52.98800 40.96200
H  32.53800 54.46900 39.24700
H  33.63200 60.77100 40.20000
H  27.47900 61.65400 41.53500
H  28.01200 53.46800 40.10500
H  30.12000 53.63000 38.02500
H  31.39700 52.21900 39.52300
H  29.70900 51.77800 39.55200
H  30.49300 52.72800 40.90800
H  26.39000 53.44600 38.45800
H  27.68200 52.50500 37.76500
H  27.26700 55.38400 37.08900
H  26.19300 54.17200 36.41600
H  35.64600 55.81500 38.52900
H  34.55400 54.58600 38.73100
H  35.55000 55.21100 40.16400
H  35.57600 60.35800 40.68100
H  35.32300 60.34200 38.84900
H  36.97200 60.33200 39.65100
H  31.79400 62.79300 39.68400
H  30.20700 62.79600 42.09400
H  33.18500 61.94800 42.22700
H  32.29300 63.41000 42.49000
H  33.53200 63.31100 41.18300
H  28.80100 63.00400 39.37700
H  30.08800 64.19900 39.71200
H  28.68400 65.56300 41.09800
H  28.46100 64.30700 42.07100
H  27.39800 64.45000 40.71000
H  25.44800 61.51200 41.79600
H  24.43700 60.11400 42.10900
H  24.43500 60.95700 40.47800
H  25.44200 55.69300 38.74100
H  22.70800 52.66600 40.66400
H  23.79200 53.06100 42.04700
H  24.52600 52.28400 40.82800

