158

Mg 6.49000 53.92000 41.40100
C  6.09700 50.31800 41.17200
C  9.80500 53.43700 40.25200
C  6.65700 57.23800 40.89100
C  2.97600 54.08100 41.65100
N  7.75700 52.02300 40.52700
C  7.42400 50.75600 40.79500
C  8.64500 49.88500 40.47700
C  9.80300 50.90600 40.54900
C  9.08900 52.24500 40.45600
C  10.91100 50.63100 41.63200
C  8.59400 49.00700 39.20500
C  7.84700 49.75700 37.95400
H  7.20000 48.97600 36.82100
N  8.00000 55.13800 40.69600
C  9.28900 54.79200 40.31500
C  9.95800 55.91600 39.86000
C  9.18300 57.03600 40.14400
C  7.85900 56.52300 40.59200
C  11.33100 55.97300 39.17800
C  9.58800 58.49300 39.82300
O  10.72100 58.76000 39.49700
C  8.74100 59.68000 40.14600
N  4.96900 55.40500 41.17300
C  5.38500 56.75900 41.24200
C  4.18800 57.66700 41.54100
C  3.02100 56.60900 41.87400
C  3.63500 55.30400 41.53300
C  4.38700 58.73300 42.60600
C  1.74000 56.94700 41.22000
C  0.47900 57.07400 42.15600
N  4.76900 52.54000 41.52400
C  3.44100 52.77500 41.69100
C  2.73500 51.49300 41.80500
C  3.75500 50.55000 41.73200
C  4.92900 51.20500 41.46400
C  1.21300 51.21500 42.01600
C  4.07500 49.17500 41.74400
O  3.33900 48.20400 41.90400
C  5.59900 48.89500 41.44200
C  5.49600 48.03100 40.17500
O  5.06900 48.47200 39.10600
O  5.66900 46.69600 40.33600
C  5.22600 45.87700 39.20500
H  10.86800 53.28500 40.05600
H  6.60800 58.32200 40.77100
H  1.91600 54.15800 41.90300
H  8.65900 49.14900 41.28100
H  10.47900 50.84800 39.69700
H  11.01000 51.47500 42.31600
H  11.84800 50.60700 41.07600
H  10.66700 49.75500 42.23200
H  8.03800 48.12100 39.51300
H  9.56900 48.66400 38.86000
H  8.62400 50.24200 37.36300
H  7.20600 50.58700 38.24800
H  11.32400 56.10800 38.09600
H  11.65000 54.93200 39.22600
H  12.00600 56.65000 39.70200
H  7.99900 59.81200 39.35900
H  9.51200 60.44700 40.22100
H  8.29600 59.47600 41.12000
H  3.97000 58.24900 40.64600
H  2.93400 56.53800 42.95800
H  4.32200 59.73600 42.18400
H  5.37000 58.54500 43.03500
H  3.69500 58.75200 43.44800
H  1.47700 56.26300 40.41300
H  1.87000 57.88000 40.67100
H  -0.29900 57.63100 41.63400
H  0.82200 57.53700 43.08200
H  0.05600 56.10100 42.40500
H  1.06500 50.33600 42.64400
H  0.58400 51.10200 41.13400
H  0.65400 52.00700 42.51500
H  6.21300 48.37500 42.17700
H  5.42900 44.84300 39.48700
H  5.73500 46.04700 38.25600
H  4.15000 46.04000 39.16200
Mg -1.70500 34.44800 26.73200
C  -3.19200 32.58700 29.10400
C  -0.33900 36.44800 29.16600
C  -0.60600 36.61300 24.26000
C  -3.67700 32.89900 24.34700
N  -1.61600 34.38300 28.82400
C  -2.24800 33.45400 29.63400
C  -1.95300 33.65200 31.17000
C  -1.00600 34.91700 31.17600
C  -0.92300 35.28800 29.64200
C  -1.49100 36.13700 32.02100
C  -1.23600 32.36200 31.74800
C  -1.85700 31.73700 32.96600
H  -1.06900 31.88400 34.27600
N  -0.49100 36.23000 26.69700
C  -0.09000 36.87700 27.83700
C  0.67400 38.00600 27.43300
C  0.78900 37.96500 25.96300
C  -0.11500 36.90700 25.54900
C  1.16200 39.05800 28.40800
C  1.58400 38.82100 25.05300
O  1.51700 38.71700 23.81400
C  2.46300 39.86300 25.60200
N  -2.12600 34.76600 24.63700
C  -1.56700 35.70500 23.87400
C  -2.10200 35.56400 22.39200
C  -2.88100 34.25500 22.45300
C  -2.97200 34.01900 23.91500
C  -2.95300 36.81600 21.97300
C  -2.36100 33.05900 21.66200
C  -1.27600 32.09500 22.28600
N  -3.11800 32.94900 26.56900
C  -3.85500 32.41700 25.64900
C  -4.62600 31.30800 26.08500
C  -4.44300 31.36800 27.46600
C  -3.51400 32.37000 27.74200
C  -5.52300 30.45700 25.36300
C  -4.76100 30.80900 28.73200
O  -5.46900 29.81700 28.97100
C  -4.04500 31.68700 29.86300
C  -5.07400 32.29000 30.73100
O  -5.97800 33.08500 30.37100
O  -5.02800 31.73300 32.01600
C  -6.13300 32.13100 32.81000
H  0.25100 36.95800 29.93000
H  -0.34600 37.29000 23.44400
H  -4.23200 32.36800 23.57100
H  -2.90800 33.91400 31.62600
H  -0.01500 34.57900 31.47900
H  -1.74000 36.99700 31.40100
H  -0.60000 36.43800 32.57300
H  -2.23700 35.78900 32.73600
H  -0.20700 32.61100 32.00800
H  -1.24700 31.72100 30.86600
H  -1.91200 30.66100 32.80000
H  -2.79900 32.27200 33.08400
H  0.86400 40.07100 28.13800
H  2.24000 39.21000 28.46200
H  0.84800 38.94100 29.44600
H  3.17900 40.13700 24.82700
H  2.99100 39.51500 26.49000
H  1.69700 40.61200 25.80500
H  -1.18700 35.41800 21.81900
H  -3.91900 34.36800 22.13800
H  -2.34800 37.49900 21.37600
H  -3.21300 37.43100 22.83400
H  -3.81000 36.48000 21.38900
H  -1.90200 33.28800 20.70000
H  -3.20900 32.38700 21.53000
H  -1.58800 31.13700 22.70200
H  -0.66200 32.67300 22.97600
H  -0.52600 31.96300 21.50700
H  -5.79200 29.49200 25.79400
H  -5.20400 30.14100 24.37000
H  -6.46300 30.99000 25.21600
H  -3.40300 30.98700 30.39700
H  -5.94000 32.74800 33.68800
H  -6.37400 31.14600 33.20900
H  -7.06300 32.41400 32.31600

