158

Mg 48.67400 44.41600 42.90600
C  45.26100 44.22200 42.72200
C  48.69600 40.95200 42.42900
C  52.12100 44.43700 42.97500
C  48.59600 47.87900 42.43500
N  47.14900 42.74200 42.72700
C  45.77300 42.94400 42.61800
C  44.95600 41.62500 42.65800
C  46.14700 40.62000 42.84500
C  47.42200 41.48100 42.62200
C  46.07700 39.96400 44.25500
C  44.04800 41.41600 41.40300
C  44.26000 42.25200 40.10000
H  44.73600 41.52300 38.85000
N  50.16700 42.94500 42.84100
C  49.99100 41.54400 42.55200
C  51.35200 40.91800 42.52400
C  52.28300 41.85700 42.91400
C  51.53500 43.14000 42.97500
C  51.63600 39.43200 42.19800
C  53.74500 41.49700 43.13200
O  54.17200 40.34400 42.96500
C  54.74800 42.47800 43.63100
N  50.17500 45.96700 42.67400
C  51.50700 45.71000 42.81900
C  52.25500 47.06600 42.88500
C  51.13600 48.17800 42.86800
C  49.87400 47.28800 42.61900
C  53.23100 47.12500 44.18300
C  51.31500 49.50000 42.00100
C  51.29900 50.86400 42.72800
N  47.30000 45.84000 42.56100
C  47.32700 47.19800 42.43100
C  46.03400 47.79300 42.41400
C  45.16700 46.63900 42.49500
C  45.96500 45.44100 42.58500
C  45.68100 49.25300 42.46900
C  43.75900 46.27400 42.57300
O  42.73800 46.97400 42.62300
C  43.79600 44.63000 42.75400
C  43.08800 44.35700 43.95500
O  42.07100 43.72700 43.97700
O  43.83800 44.75000 45.03300
C  43.41400 44.09500 46.29400
H  48.73500 39.88700 42.19100
H  53.20800 44.54000 42.95000
H  48.43900 48.95900 42.44600
H  44.32700 41.63600 43.54700
H  46.02300 39.84900 42.08500
H  47.06200 40.08000 44.70800
H  45.83600 38.91500 44.08100
H  45.28000 40.44900 44.81900
H  43.02200 41.30300 41.75300
H  44.32300 40.39900 41.12300
H  44.93200 43.08100 40.32200
H  43.33700 42.74800 39.80100
H  52.31800 39.32500 41.35400
H  50.69000 38.92400 42.01000
H  52.16300 38.98100 43.03900
H  55.17300 43.14300 42.87900
H  55.63400 41.97200 44.01200
H  54.27800 42.88600 44.52600
H  52.79000 47.21200 41.94700
H  51.00400 48.36300 43.93400
H  53.18500 46.17400 44.71400
H  52.78800 47.88500 44.82700
H  54.22300 47.43700 43.85700
H  50.55800 49.51800 41.21700
H  52.26400 49.52600 41.46500
H  52.26400 51.35300 42.60000
H  51.09100 50.67800 43.78200
H  50.56200 51.47200 42.20300
H  45.60900 49.67300 41.46600
H  46.42200 49.79600 43.05600
H  44.74600 49.44900 42.99400
H  43.32500 44.12100 41.91300
H  44.03000 43.19600 46.33300
H  42.35600 43.86400 46.41400
H  43.63800 44.67000 47.19300
Mg 0.28700 43.96800 26.47100
C  2.63600 43.60200 29.13700
C  -1.94800 42.34500 28.41200
C  -1.73200 43.81800 23.75000
C  2.99300 45.12500 24.41800
N  0.42300 43.09400 28.52300
C  1.30000 43.28300 29.48800
C  0.69900 43.08600 30.91400
C  -0.69700 42.47000 30.61600
C  -0.81100 42.67200 29.11000
C  -0.99400 41.05500 31.11900
C  0.62500 44.37700 31.77700
C  1.00100 44.23000 33.33900
H  0.68100 42.94900 34.08900
N  -1.55700 43.00300 26.09000
C  -2.31000 42.35100 27.01600
C  -3.52400 41.90900 26.41200
C  -3.58500 42.45000 25.06600
C  -2.23100 43.16200 24.89000
C  -4.56500 41.00900 27.19600
C  -4.62200 42.29000 24.02300
O  -4.51700 42.78900 22.90800
C  -5.75800 41.37600 24.25000
N  0.56500 44.39900 24.36600
C  -0.47900 44.43900 23.52000
C  -0.16400 45.32800 22.34500
C  1.30000 45.81400 22.60800
C  1.68000 45.10000 23.86500
C  -0.27100 44.70300 20.93500
C  1.28300 47.33800 22.96800
C  2.06500 48.32700 22.08600
N  2.37000 44.43300 26.66000
C  3.35200 44.75400 25.73200
C  4.67200 44.63200 26.35400
C  4.38000 44.24300 27.66600
C  3.00700 44.12700 27.84200
C  6.02500 44.86000 25.74900
C  4.99800 43.92300 28.98000
O  6.19400 43.86300 29.24900
C  3.79800 43.70100 29.94500
C  4.03500 42.45500 30.72100
O  4.33500 41.33100 30.29300
O  3.90300 42.78200 32.03900
C  4.35800 41.69000 32.97700
H  -2.78800 42.05200 29.04600
H  -2.45200 43.91000 22.93400
H  3.78500 45.68800 23.91900
H  1.26200 42.30200 31.42000
H  -1.45000 43.04600 31.15400
H  -1.12700 40.36100 30.29000
H  -1.85600 40.98200 31.78300
H  -0.23500 40.73100 31.83000
H  -0.40000 44.71900 31.92100
H  1.24200 45.17500 31.36400
H  0.39900 45.02200 33.78400
H  2.08300 44.30600 33.45100
H  -4.48000 39.97400 26.86300
H  -5.55100 41.35400 26.88700
H  -4.34000 41.08800 28.25900
H  -6.50700 41.85400 24.88100
H  -5.40600 40.42700 24.65600
H  -6.17700 41.13400 23.27300
H  -0.96600 46.06400 22.29300
H  1.95600 45.57500 21.77000
H  0.62200 44.94500 20.35800
H  -1.23800 44.96700 20.50800
H  -0.26000 43.61300 20.97500
H  1.46400 47.40900 24.04100
H  0.29600 47.75600 22.76600
H  1.42300 49.00900 21.52900
H  2.66300 47.70400 21.42000
H  2.81700 48.85600 22.67100
H  6.56000 43.94300 25.99700
H  6.44300 45.77600 26.16500
H  5.93100 44.99900 24.67200
H  3.65800 44.51000 30.66200
H  3.63800 40.87500 32.89800
H  4.25100 42.20900 33.93000
H  5.39400 41.44900 32.74000

