158

Mg 9.43300 3.90100 27.92100
C  10.90200 2.40600 30.73600
C  7.36100 5.64100 30.05800
C  7.75300 5.08100 25.32000
C  11.16000 1.78000 25.82000
N  9.17400 3.92300 30.20000
C  9.87600 3.31700 31.09100
C  9.59700 3.88200 32.45800
C  8.22100 4.65600 32.25200
C  8.20100 4.72400 30.72100
C  6.94700 4.14200 32.99400
C  10.78700 4.74900 33.15500
C  11.33900 4.10500 34.41400
H  11.64500 5.04000 35.61000
N  7.95600 5.31000 27.75300
C  7.22300 5.92000 28.73000
C  6.32500 6.86100 28.13900
C  6.51100 6.84700 26.76000
C  7.46100 5.69200 26.57200
C  5.46900 7.75100 28.94800
C  5.87300 7.70400 25.65700
O  6.11200 7.44400 24.45400
C  4.98900 8.86000 25.91400
N  9.40300 3.38200 25.76400
C  8.61800 4.06700 24.88900
C  8.79800 3.58900 23.41000
C  9.93900 2.55300 23.61200
C  10.20000 2.58200 25.10600
C  7.47400 2.93400 22.82500
C  11.18300 2.73400 22.69400
C  11.91900 1.45500 22.12500
N  10.80000 2.33500 28.18500
C  11.52100 1.60200 27.20600
C  12.38900 0.73700 27.87700
C  12.23800 1.07200 29.28400
C  11.20300 2.03500 29.39700
C  13.20800 -0.34700 27.16600
C  12.75300 0.75600 30.58300
O  13.53500 -0.06300 30.95500
C  11.92000 1.70100 31.57900
C  11.26000 0.79600 32.58000
O  10.16500 0.30100 32.37500
O  11.98700 0.67400 33.71700
C  11.43100 -0.06400 34.85500
H  6.72200 6.24800 30.70300
H  7.26800 5.53800 24.45500
H  11.82500 1.12300 25.25600
H  9.36800 3.00200 33.05800
H  8.28700 5.63600 32.72500
H  6.16500 3.76100 32.33800
H  6.43000 5.00100 33.42200
H  7.09700 3.32600 33.70100
H  10.38700 5.73500 33.39400
H  11.55200 4.68900 32.38100
H  12.28100 3.60100 34.19600
H  10.78200 3.25500 34.80700
H  5.40800 7.51900 30.01200
H  4.51300 7.70600 28.42600
H  5.93400 8.73500 28.87400
H  5.40700 9.55300 26.64300
H  4.11800 8.44000 26.41600
H  4.61900 9.34400 25.01000
H  9.13400 4.40600 22.77100
H  9.63800 1.52300 23.42100
H  6.60400 3.40300 23.28500
H  7.55900 1.85100 22.90700
H  7.33700 3.32500 21.81600
H  11.91600 3.22200 23.33600
H  10.88300 3.30000 21.81200
H  11.29200 1.00700 21.35400
H  12.03400 0.64600 22.84700
H  12.86200 1.82200 21.72000
H  12.53600 -1.19400 27.02600
H  14.15700 -0.65200 27.60500
H  13.47200 0.12800 26.22100
H  12.61100 2.40900 32.03800
H  11.05400 0.64600 35.59100
H  12.28900 -0.54700 35.32200
H  10.71200 -0.87600 34.75200
Mg 44.95900 3.65500 46.62700
C  42.86500 6.31700 46.55100
C  42.30300 1.53300 46.39900
C  47.10700 1.06400 46.08100
C  47.73300 5.80200 46.26500
N  42.78400 3.94500 46.55900
C  42.13800 5.11600 46.61800
C  40.57900 4.89800 46.49000
C  40.46400 3.33000 46.51400
C  41.93500 2.84400 46.58800
C  39.63400 2.78300 47.75200
C  39.84100 5.57000 45.32300
C  40.52700 5.53600 43.90100
H  39.62700 5.70500 42.65900
N  44.66000 1.54000 46.29600
C  43.46100 0.84200 46.28600
C  43.76800 -0.57100 46.22900
C  45.15900 -0.70800 46.02400
C  45.71800 0.64400 46.10900
C  42.73900 -1.71400 46.34000
C  45.80500 -1.96700 45.86500
O  45.21600 -3.06400 45.82300
C  47.30200 -2.11100 45.78000
N  47.11700 3.51000 46.09100
C  47.71100 2.31400 46.14300
C  49.20300 2.49500 46.29100
C  49.43100 3.97000 46.03900
C  48.03800 4.46100 46.13300
C  49.74200 1.92100 47.63200
C  50.23700 4.41200 44.72800
C  49.43300 4.43500 43.45100
N  45.30000 5.65300 46.28500
C  46.44600 6.39800 46.24600
C  46.08600 7.78500 46.13000
C  44.69100 7.79800 46.21900
C  44.23700 6.47500 46.37100
C  47.06200 8.89500 46.13900
C  43.53600 8.63800 46.34200
O  43.39200 9.84200 46.23300
C  42.27400 7.67400 46.38200
C  41.33300 7.99500 47.39700
O  41.45900 7.61400 48.53200
O  40.29800 8.86600 46.94400
C  39.33900 9.25000 47.92300
H  41.41100 0.90800 46.32400
H  47.78300 0.21200 46.18300
H  48.50800 6.57100 46.24600
H  40.10900 5.18200 47.43100
H  39.96300 3.09800 45.57500
H  39.05800 3.48400 48.35600
H  40.35500 2.25500 48.37600
H  38.95100 1.97400 47.49400
H  39.71000 6.62900 45.54400
H  38.82100 5.18800 45.28700
H  41.12400 4.65000 43.68600
H  41.17700 6.40200 43.77500
H  41.98900 -1.43900 47.08200
H  43.10400 -2.70900 46.59500
H  42.20800 -1.63400 45.39200
H  47.77600 -1.89400 46.73700
H  47.58700 -1.45600 44.95700
H  47.64400 -3.10700 45.50100
H  49.72200 1.92000 45.52400
H  49.94200 4.38600 46.90700
H  50.19900 0.96600 47.37400
H  48.95700 1.64100 48.33500
H  50.54000 2.57900 47.97700
H  51.00000 3.64000 44.62000
H  50.77500 5.34100 44.91600
H  48.37400 4.39200 43.70600
H  49.67100 3.49500 42.95300
H  49.52300 5.34200 42.85400
H  47.78000 8.74000 45.33400
H  47.73200 8.90700 46.99900
H  46.49400 9.79300 45.89600
H  41.77800 7.70200 45.41200
H  38.37800 8.80100 47.67500
H  39.25300 10.33600 47.93900
H  39.64400 8.98800 48.93600

