158

Mg 1.70300 -1.12900 43.88200
C  4.99400 0.02300 43.28600
C  0.60100 1.88500 42.75800
C  -1.38800 -2.47900 43.90400
C  3.11300 -4.24200 44.73600
N  2.72300 0.72800 43.19700
C  4.06900 0.95300 42.99700
C  4.33100 2.41400 42.64700
C  2.87600 3.01400 42.68300
C  1.94900 1.78600 42.82900
C  2.59300 4.14100 43.80100
C  5.02800 2.49300 41.23900
C  5.81100 3.70700 40.86500
H  5.52100 4.52200 39.55300
N  -0.14400 -0.32500 43.47900
C  -0.43800 0.93800 43.04300
C  -1.88900 1.08500 42.90200
C  -2.43900 -0.20900 43.19200
C  -1.27900 -1.06900 43.59900
C  -2.54200 2.35200 42.57000
C  -3.92000 -0.56900 43.19600
O  -4.73400 0.31900 42.76400
C  -4.53500 -1.84400 43.78400
N  0.90800 -3.11900 44.17800
C  -0.39800 -3.36200 44.26600
C  -0.68500 -4.85600 44.70200
C  0.78700 -5.39500 44.95100
C  1.68800 -4.20000 44.62200
C  -1.72500 -5.02300 45.83300
C  1.32200 -6.50900 44.08300
C  1.68500 -7.89200 44.77500
N  3.59400 -1.98400 43.99400
C  3.97600 -3.22600 44.48200
C  5.40900 -3.24700 44.51200
C  5.80900 -2.02000 44.06300
C  4.74500 -1.30500 43.70300
C  6.17900 -4.43300 44.85400
C  6.95000 -1.15600 43.88900
O  8.15700 -1.32000 44.05800
C  6.48400 0.16800 43.24800
C  7.00000 1.25200 44.14100
O  6.62400 1.39500 45.29100
O  7.86400 2.13800 43.53700
C  8.32100 3.31200 44.39700
H  0.22400 2.83500 42.37400
H  -2.42400 -2.72000 44.15100
H  3.60800 -5.14800 45.09300
H  4.93000 2.94500 43.38700
H  2.71600 3.47800 41.71000
H  3.49400 4.36200 44.37400
H  1.89600 3.82400 44.57700
H  2.31900 5.09100 43.34100
H  4.23200 2.49500 40.49400
H  5.57100 1.57600 41.01200
H  6.83800 3.44100 40.61600
H  5.87000 4.39100 41.71100
H  -1.82200 3.14700 42.37600
H  -3.20800 2.55000 43.41000
H  -3.25700 2.24000 41.75500
H  -5.59500 -1.59600 43.72600
H  -4.20600 -2.09200 44.79300
H  -4.30000 -2.72500 43.18600
H  -0.96900 -5.52400 43.88900
H  1.02300 -5.56100 46.00300
H  -2.26000 -4.09600 46.03800
H  -1.17500 -5.40300 46.69400
H  -2.57800 -5.67700 45.64600
H  2.15100 -6.33000 43.39800
H  0.54700 -6.83800 43.39100
H  0.79400 -8.46000 45.04300
H  2.23700 -7.74800 45.70300
H  2.31600 -8.53200 44.15800
H  5.97700 -5.26100 44.17500
H  6.05500 -4.71100 45.90100
H  7.23800 -4.17600 44.84000
H  6.89500 0.23200 42.24000
H  8.52900 3.13900 45.45300
H  7.58500 4.10200 44.54600
H  9.18600 3.77500 43.92200
Mg 26.48300 50.85100 26.43300
C  24.56700 51.93200 29.01100
C  28.89700 49.83100 28.82700
C  28.31600 49.37300 24.04100
C  24.45800 52.29300 24.13200
N  26.81700 51.12500 28.72800
C  25.73600 51.29900 29.49400
C  26.07100 51.11200 31.00900
C  27.65100 50.90000 30.85500
C  27.82100 50.55900 29.38400
C  28.56000 52.04500 31.37100
C  25.27100 50.00500 31.62300
C  24.85900 50.28200 33.12100
H  25.88000 50.70000 34.24600
N  28.37500 49.81600 26.38800
C  29.17900 49.47400 27.51500
C  30.22900 48.63100 27.10700
C  30.10500 48.45800 25.64600
C  28.90000 49.25300 25.28300
C  31.27100 48.05700 27.97600
C  30.82500 47.58900 24.77000
O  30.61700 47.47500 23.62600
C  31.96500 46.70100 25.26200
N  26.48800 50.90800 24.32400
C  27.22100 50.07300 23.56500
C  26.60200 49.84600 22.19500
C  25.22300 50.76500 22.26300
C  25.38000 51.36000 23.63300
C  27.54600 50.13700 20.97400
C  23.87200 50.04600 22.04100
C  22.81600 50.67500 21.06300
N  24.87100 51.99500 26.54700
C  24.10900 52.52900 25.46800
C  22.95800 53.21900 26.08500
C  23.07400 52.98900 27.44800
C  24.24900 52.26200 27.69400
C  21.86600 53.86900 25.36600
C  22.40500 53.17900 28.71200
O  21.27600 53.62600 28.95400
C  23.38000 52.52400 29.85200
C  23.81000 53.61500 30.75500
O  24.66400 54.46600 30.51700
O  23.08600 53.67300 31.95300
C  23.58200 54.66100 33.01800
H  29.63700 49.56500 29.58500
H  28.79300 48.82200 23.22800
H  23.65100 52.54600 23.44100
H  26.00900 52.01000 31.62300
H  28.00800 50.01600 31.38500
H  27.90900 52.83900 31.73700
H  29.19800 52.44100 30.58100
H  29.08700 51.67100 32.24800
H  25.86400 49.09100 31.58900
H  24.36300 49.83700 31.04400
H  24.32400 49.43300 33.54700
H  24.07400 51.03500 33.04000
H  31.18600 48.44400 28.99200
H  32.25000 48.37400 27.61500
H  31.39200 46.98300 27.83700
H  32.66300 47.38600 25.74300
H  32.39700 46.21300 24.38800
H  31.43000 46.01000 25.91400
H  26.30900 48.81000 22.02500
H  25.37100 51.66100 21.66000
H  27.24100 50.96800 20.33800
H  27.53100 49.25200 20.33700
H  28.57600 50.39400 21.21900
H  23.40500 50.07700 23.02600
H  24.13800 49.02300 21.77500
H  22.47600 49.84300 20.44700
H  23.16800 51.43200 20.36200
H  21.95900 51.13800 21.55300
H  21.13000 54.28800 26.05200
H  21.30700 53.22800 24.68300
H  22.30000 54.57100 24.65400
H  22.77300 51.75600 30.33200
H  22.89900 54.80000 33.85600
H  23.70300 55.61400 32.50400
H  24.50900 54.32500 33.48200

