158

Mg 46.91900 35.52600 29.03800
C  45.11400 33.41700 31.17700
C  47.11000 37.81900 31.59700
C  48.08900 37.76000 26.92200
C  46.46400 33.25300 26.42700
N  46.06900 35.57800 31.06500
C  45.58400 34.52800 31.80800
C  45.79200 34.76700 33.29700
C  45.87500 36.27900 33.34000
C  46.45400 36.61800 31.88200
C  44.47900 37.00900 33.53000
C  47.02400 34.02600 33.83400
C  47.21400 33.83400 35.33700
H  46.28900 34.68400 36.26500
N  47.50300 37.53000 29.27500
C  47.56700 38.27300 30.34900
C  48.37800 39.41800 30.04600
C  48.67500 39.46400 28.70600
C  48.05400 38.29400 28.22400
C  48.84000 40.30900 31.23400
C  49.52200 40.46000 27.88700
O  49.73300 40.31500 26.68300
C  50.14700 41.71400 28.60500
N  47.14900 35.50100 26.87900
C  47.57800 36.63900 26.30600
C  47.46500 36.49700 24.78900
C  47.21700 34.92000 24.59600
C  46.98800 34.49200 26.02700
C  46.42900 37.50400 24.10600
C  48.33200 34.07200 23.94100
C  48.42600 34.36700 22.46200
N  46.08200 33.64400 28.75800
C  45.93000 32.86900 27.66100
C  45.28300 31.63800 28.06200
C  44.91600 31.81500 29.40700
C  45.45400 33.03300 29.85900
C  44.84800 30.53200 27.19400
C  44.16700 31.24500 30.51000
O  43.54300 30.19500 30.62100
C  44.07700 32.45300 31.59400
C  44.15900 31.85700 33.01600
O  44.94300 31.10700 33.43400
O  43.13800 32.38700 33.79400
C  43.07100 32.08700 35.23500
H  47.36700 38.39400 32.48900
H  48.57100 38.40400 26.18400
H  46.50800 32.48700 25.65000
H  44.95700 34.36600 33.87200
H  46.53200 36.64700 34.12900
H  44.60800 37.80000 34.27000
H  43.79500 36.23700 33.88100
H  44.08900 37.48300 32.62900
H  47.92400 34.51200 33.45700
H  46.94700 33.07900 33.29900
H  48.24600 33.93800 35.67200
H  46.84400 32.81200 35.41400
H  48.20300 40.18200 32.11000
H  48.91600 41.34000 30.89000
H  49.77700 39.82800 31.51600
H  50.72200 41.35000 29.45600
H  49.43600 42.43000 29.01800
H  50.69600 42.35600 27.91600
H  48.47100 36.56900 24.37500
H  46.31400 34.82200 23.99300
H  46.85600 38.36200 23.58800
H  45.72100 37.88900 24.84000
H  45.92600 36.86100 23.38400
H  48.30600 32.99700 24.11900
H  49.23700 34.36500 24.47300
H  49.32400 34.94800 22.25200
H  47.51900 34.80400 22.04500
H  48.40700 33.40600 21.94800
H  44.52800 29.63100 27.71800
H  45.76400 30.14200 26.75100
H  44.02700 30.77600 26.51900
H  43.09400 32.90800 31.47700
H  42.17800 31.46300 35.28400
H  42.82700 33.07000 35.63700
H  43.93300 31.50600 35.56100
Mg -2.43000 33.93900 26.74700
C  -3.83100 32.22200 29.59700
C  -0.60100 35.72100 29.01000
C  -1.38100 35.73800 24.26800
C  -4.24500 31.99500 24.67300
N  -2.41200 34.12100 29.11000
C  -2.94300 33.26000 30.02500
C  -2.33500 33.46100 31.45400
C  -1.32700 34.59100 31.18900
C  -1.42200 34.75000 29.63500
C  -1.66800 35.85700 31.94400
C  -1.57800 32.22100 32.05000
C  -2.14600 31.66600 33.32600
H  -1.19600 31.67200 34.56800
N  -1.18000 35.51400 26.67400
C  -0.47600 36.08100 27.72100
C  0.34500 37.11600 27.16900
C  0.15300 37.17400 25.74400
C  -0.86200 36.15200 25.48800
C  1.20500 38.08000 28.06500
C  0.76000 38.04100 24.71700
O  0.36600 38.04600 23.58500
C  1.95500 38.95900 25.07300
N  -2.95900 34.01200 24.74600
C  -2.26200 34.75900 23.90700
C  -2.64100 34.42500 22.40900
C  -3.34000 33.00900 22.55900
C  -3.42100 32.95200 24.05800
C  -3.57300 35.48800 21.68400
C  -2.52200 31.78400 21.93900
C  -1.05100 31.62500 22.31600
N  -3.91500 32.57800 26.99500
C  -4.57100 31.79600 26.07200
C  -5.38300 30.73000 26.70500
C  -5.13600 30.87200 28.10400
C  -4.23200 32.00100 28.18700
C  -6.14400 29.64000 26.06300
C  -5.41800 30.34300 29.40400
O  -6.14300 29.40400 29.76400
C  -4.60300 31.19200 30.35400
C  -5.51000 31.76600 31.40800
O  -6.18300 32.72900 31.22200
O  -5.31000 31.15600 32.65400
C  -6.01100 31.65000 33.83700
H  0.13400 36.15500 29.69200
H  -0.86300 36.27200 23.46800
H  -4.64900 31.21900 24.01800
H  -3.16700 33.70200 32.11600
H  -0.28700 34.31500 31.35800
H  -2.16500 36.52100 31.23700
H  -0.81300 36.46400 32.24200
H  -2.34300 35.77100 32.79600
H  -0.53700 32.48100 32.24100
H  -1.55900 31.38800 31.34700
H  -2.46200 30.65400 33.07300
H  -3.03200 32.23200 33.61400
H  0.76700 39.01900 28.40100
H  2.17200 38.14400 27.56400
H  1.50300 37.51900 28.95100
H  2.79400 38.33000 25.36900
H  1.73500 39.59500 25.93100
H  2.35200 39.53500 24.23700
H  -1.74200 34.35600 21.79700
H  -4.36700 33.00700 22.19300
H  -3.98500 35.03300 20.78300
H  -2.98400 36.31400 21.28400
H  -4.34400 35.87800 22.34800
H  -2.53300 31.97400 20.86600
H  -3.08000 30.85700 22.06900
H  -0.51100 31.60800 21.36900
H  -0.73900 30.76200 22.90400
H  -0.73200 32.51700 22.85400
H  -5.97300 28.76800 26.69500
H  -5.69200 29.52200 25.07800
H  -7.18500 29.96200 26.04200
H  -3.82000 30.54900 30.75800
H  -6.58000 32.56100 33.65100
H  -5.22900 31.87400 34.56200
H  -6.61900 30.82700 34.21400

