158

Mg 40.80700 9.55100 29.15500
C  42.71100 10.90900 31.89100
C  38.49700 8.64500 31.63600
C  39.10200 7.99500 26.78000
C  43.38900 10.44400 27.04700
N  40.58200 9.87900 31.57800
C  41.47100 10.36200 32.41400
C  40.96900 10.37500 33.87200
C  39.59100 9.73800 33.76800
C  39.54000 9.34900 32.29100
C  39.51800 8.44400 34.71000
C  41.00700 11.82900 34.51000
C  40.38800 11.89400 35.90900
H  41.20100 12.72900 36.87000
N  39.01700 8.63000 29.12000
C  38.28700 8.23400 30.29400
C  37.29900 7.22000 29.90100
C  37.39500 7.06100 28.50800
C  38.52100 7.95500 28.06300
C  36.37400 6.63500 30.86000
C  36.57300 6.27400 27.48900
O  36.60500 6.42100 26.28200
C  35.47200 5.35900 28.04900
N  41.20100 9.13000 27.25800
C  40.28800 8.63200 26.37100
C  40.80800 8.82100 24.95400
C  42.13300 9.54600 25.05500
C  42.24700 9.77100 26.54100
C  40.62200 7.65300 23.95300
C  42.31700 10.84100 24.18600
C  41.74400 12.09200 24.66600
N  42.67400 10.33900 29.33200
C  43.63800 10.61800 28.44100
C  44.68900 11.25500 29.05000
C  44.35300 11.46800 30.37300
C  43.13000 10.82400 30.51900
C  45.89900 11.74400 28.43900
C  44.77100 12.01800 31.66000
O  45.79800 12.69900 31.88600
C  43.81100 11.62000 32.71400
C  44.60100 10.67900 33.62200
O  45.17300 9.63300 33.39900
O  44.68100 11.26200 34.83600
C  45.38200 10.60800 35.93600
H  37.75100 8.47500 32.41500
H  38.50300 7.47100 26.03200
H  44.06800 10.80900 26.27300
H  41.66300 9.80800 34.49300
H  38.85500 10.46000 34.12400
H  40.44500 8.31200 35.26800
H  39.29700 7.51400 34.18800
H  38.75500 8.44500 35.48700
H  40.64700 12.59500 33.82300
H  42.07600 12.00400 34.63600
H  40.23500 10.93700 36.40600
H  39.39900 12.33200 35.77500
H  36.39900 5.55200 30.73700
H  35.36400 7.04000 30.92400
H  36.83300 6.71400 31.84500
H  34.81400 6.01200 28.62300
H  35.95800 4.61800 28.68400
H  34.94500 4.88400 27.22200
H  40.09900 9.57100 24.60200
H  42.98200 8.90700 24.81300
H  40.28200 6.75700 24.47300
H  41.56400 7.44100 23.44600
H  39.87900 7.90900 23.19800
H  41.83900 10.70000 23.21600
H  43.36600 10.86100 23.89000
H  41.23100 11.94600 25.61700
H  41.09700 12.62800 23.97200
H  42.58300 12.73000 24.94600
H  45.67500 12.60000 27.80200
H  46.29500 10.98700 27.76300
H  46.65300 12.04600 29.16600
H  43.46300 12.53000 33.20300
H  45.97300 11.40700 36.38400
H  46.11300 9.82900 35.72400
H  44.69400 10.18400 36.66800
Mg 49.54600 46.36000 43.08300
C  46.40600 47.02900 41.57500
C  49.49900 43.30200 41.26200
C  52.75700 46.06400 43.70200
C  49.51900 49.70500 44.26600
N  48.18000 45.37000 41.44700
C  46.91200 45.81200 41.07200
C  46.26900 44.86300 40.07400
C  47.14300 43.54300 40.27000
C  48.38500 44.09800 41.06000
C  46.48700 42.40100 40.99000
C  46.36600 45.47700 38.62800
C  45.22100 44.90300 37.70100
H  45.69300 44.34900 36.32400
N  50.99500 44.87300 42.64600
C  50.70600 43.65800 41.97600
C  51.96600 42.91500 41.97100
C  52.96900 43.64500 42.63300
C  52.27700 44.92500 43.01400
C  52.16200 41.62300 41.31500
C  54.48300 43.27300 42.86400
O  54.95800 42.18700 42.55100
C  55.37000 44.21400 43.55200
N  50.94100 47.76700 43.62300
C  52.15600 47.31500 43.92300
C  53.05700 48.50400 44.49300
C  52.02400 49.65000 44.78000
C  50.76100 49.01900 44.22300
C  53.95800 48.14400 45.73000
C  52.40300 51.08800 44.09300
C  52.11900 52.35400 44.99500
N  48.16900 47.97500 43.19400
C  48.31000 49.23300 43.72800
C  46.95600 49.82400 43.66000
C  46.20300 49.01800 42.87700
C  46.96500 47.90400 42.53100
C  46.48700 51.18200 44.08500
C  44.87200 48.92200 42.25600
O  43.91700 49.70300 42.27300
C  44.96000 47.58300 41.32700
C  43.96400 46.72300 41.92600
O  44.17600 45.93200 42.86400
O  42.77700 46.96200 41.38000
C  41.67900 46.04000 41.73200
H  49.57200 42.29600 40.84300
H  53.80500 46.06200 44.01200
H  49.48300 50.64200 44.82600
H  45.24000 44.67500 40.38100
H  47.41500 43.18900 39.27500
H  46.06400 41.60000 40.38400
H  45.79300 42.73100 41.76300
H  47.10800 41.94200 41.76000
H  47.29500 45.32500 38.07800
H  46.19000 46.55300 38.61700
H  44.42600 45.63200 37.54900
H  44.89800 43.93600 38.08700
H  52.71000 40.94400 41.96700
H  52.76900 41.93600 40.46500
H  51.38500 41.07400 40.78300
H  55.02200 44.28800 44.58200
H  55.44100 45.21300 43.12200
H  56.39700 43.85900 43.63800
H  53.69200 49.04200 43.78900
H  51.89900 49.73400 45.85900
H  53.93300 47.08600 45.99200
H  53.67000 48.72500 46.60600
H  54.96900 48.45100 45.46300
H  51.74300 51.24300 43.24000
H  53.41900 51.17900 43.70900
H  53.10400 52.61700 45.38100
H  51.57000 52.01700 45.87500
H  51.58800 53.14500 44.46700
H  45.64200 51.43700 43.44600
H  47.27300 51.93700 44.04600
H  46.05600 51.00500 45.07100
H  44.83900 47.86200 40.28000
H  40.74100 46.36000 41.27900
H  41.45800 46.18700 42.78900
H  41.87000 44.99800 41.47800

