158

Mg 5.90000 56.18400 41.13100
C  3.97400 53.26800 40.77400
C  8.38200 54.67100 39.40400
C  7.17700 59.27100 40.48000
C  3.00200 57.82100 42.39100
N  6.13200 54.26900 40.00700
C  5.23700 53.22500 40.09800
C  5.78200 51.90400 39.48200
C  7.29300 52.33600 39.34200
C  7.32300 53.81300 39.66400
C  8.37200 51.49800 40.00400
C  5.15400 51.65500 38.14200
C  4.80600 50.12900 37.95500
H  5.17400 49.55000 36.57600
N  7.63700 56.86500 40.27900
C  8.59700 56.08700 39.58200
C  9.67700 56.89900 39.20000
C  9.38900 58.19000 39.67000
C  8.00200 58.16900 40.20300
C  10.98500 56.42000 38.60700
C  10.34600 59.39300 39.48300
O  11.41500 59.29900 38.86100
C  9.96800 60.76400 40.07800
N  5.16400 58.27600 41.32400
C  5.93700 59.31600 40.94400
C  5.13800 60.65100 41.23200
C  3.92200 60.18800 41.96000
C  3.96400 58.67600 41.80500
C  5.94100 61.76200 41.96300
C  2.62900 60.91800 41.53400
C  2.29200 62.19200 42.35900
N  4.05800 55.69900 41.76100
C  3.01600 56.43800 42.29900
C  1.93700 55.51100 42.76200
C  2.31100 54.27200 42.23100
C  3.49200 54.48500 41.52700
C  0.54200 55.89600 43.30600
C  1.91100 52.86600 42.12100
O  1.03600 52.14800 42.60800
C  3.00600 52.22700 41.14600
C  2.10500 51.96800 39.98000
O  1.47500 52.77100 39.29500
O  2.09700 50.63000 39.75100
C  0.96400 50.04300 39.05400
H  9.28000 54.24800 38.94800
H  7.66800 60.18000 40.12600
H  2.06600 58.26500 42.73400
H  5.51800 51.14500 40.21900
H  7.46600 52.50700 38.27900
H  9.10200 51.86900 40.72500
H  8.87800 51.04300 39.15300
H  7.91000 50.73700 40.63300
H  5.85800 51.88100 37.34100
H  4.27500 52.29600 38.06600
H  3.71600 50.15500 37.96500
H  5.25900 49.60700 38.79800
H  11.00700 56.94000 37.65000
H  10.96600 55.38600 38.26200
H  11.80200 56.67500 39.28200
H  10.74900 61.51300 40.20400
H  9.53600 60.48700 41.04000
H  9.28000 61.29300 39.41900
H  4.85000 60.89500 40.21000
H  3.93300 60.36700 43.03500
H  5.88100 62.57000 41.23400
H  6.96600 61.39400 41.91000
H  5.74700 61.97300 43.01500
H  1.80400 60.20600 41.56700
H  2.58200 61.16700 40.47400
H  2.04000 63.04800 41.73200
H  3.09300 62.45400 43.05000
H  1.38000 62.09100 42.94700
H  -0.13800 56.33600 42.57700
H  0.68900 56.58200 44.14000
H  0.05200 54.98300 43.64400
H  3.49800 51.35900 41.58600
H  0.22900 50.77300 38.71400
H  0.54900 49.21300 39.62700
H  1.33300 49.67800 38.09600
Mg -11.83600 16.85700 40.96500
C  -8.67000 15.53400 41.04100
C  -10.38900 19.93000 40.28300
C  -14.85500 18.02000 39.97500
C  -13.14600 13.52700 41.16700
N  -9.70500 17.65300 40.78500
C  -8.57300 16.94700 40.78700
C  -7.30500 17.78800 40.56800
C  -7.92200 19.25900 40.68000
C  -9.42700 18.96700 40.56500
C  -7.43700 19.97000 42.00200
C  -6.48200 17.36000 39.30900
C  -5.04900 16.75200 39.50900
H  -4.80000 15.45900 38.85200
N  -12.55000 18.71000 40.26800
C  -11.80100 19.84700 40.05400
C  -12.62200 20.87200 39.58600
C  -13.93200 20.39100 39.50100
C  -13.83800 18.96500 39.94500
C  -12.12900 22.25800 39.15600
C  -15.19400 21.20100 39.11100
O  -15.00000 22.41100 38.81100
C  -16.63300 20.74700 39.15600
N  -13.72800 15.97900 40.74500
C  -14.83700 16.68000 40.32600
C  -15.96400 15.71000 39.88400
C  -15.49700 14.44000 40.54500
C  -14.00300 14.59400 40.83200
C  -17.31700 16.27200 40.46100
C  -15.89000 13.11800 39.88300
C  -16.98000 12.30600 40.62500
N  -11.12600 14.94700 41.27500
C  -11.75500 13.71000 41.36400
C  -10.73900 12.64700 41.43500
C  -9.50500 13.35200 41.37300
C  -9.85500 14.70100 41.18500
C  -11.02000 11.22800 41.54800
C  -8.10000 13.11300 41.19400
O  -7.41500 12.09700 41.06300
C  -7.51000 14.52600 41.13400
C  -6.69300 14.82000 42.33800
O  -6.97300 15.50700 43.29700
O  -5.50000 14.07400 42.31100
C  -4.66100 14.20200 43.51000
H  -9.84700 20.82400 39.96700
H  -15.78200 18.37600 39.52200
H  -13.52000 12.51500 41.33900
H  -6.66000 17.62100 41.43100
H  -7.76900 19.76800 39.72900
H  -7.41900 21.05100 41.86600
H  -6.42700 19.71200 42.31900
H  -8.20600 19.74200 42.74000
H  -6.39900 18.24100 38.67200
H  -7.03700 16.56100 38.81700
H  -4.87700 16.71100 40.58500
H  -4.28300 17.42400 39.12200
H  -12.54700 22.51900 38.18400
H  -11.04800 22.15200 39.06600
H  -12.26200 23.05900 39.88300
H  -16.75800 19.96200 38.41000
H  -17.32900 21.55400 38.92500
H  -17.00400 20.31800 40.08600
H  -16.03100 15.78000 38.79800
H  -15.95700 14.44900 41.53200
H  -17.97100 16.73000 39.71900
H  -17.03800 17.05700 41.16400
H  -17.80200 15.41200 40.92400
H  -15.01800 12.48200 39.73400
H  -16.40500 13.32700 38.94500
H  -17.88300 12.64300 40.11600
H  -17.14800 12.39900 41.69800
H  -16.71500 11.25500 40.51300
H  -11.51700 10.93900 40.62300
H  -11.61400 10.94700 42.41800
H  -10.08300 10.68400 41.67200
H  -6.86700 14.62700 40.26000
H  -4.67500 15.19700 43.95300
H  -3.66200 13.94000 43.16200
H  -5.01400 13.46700 44.23400

