158

Mg -1.74800 17.51400 26.96000
C  -2.53300 15.43400 29.84500
C  -2.21800 20.12000 29.06000
C  -1.18900 19.36100 24.36800
C  -2.19700 14.70200 25.00200
N  -2.11300 17.65000 29.30100
C  -2.45000 16.73100 30.26400
C  -2.65700 17.35000 31.63200
C  -2.79400 18.88600 31.21000
C  -2.35900 18.92100 29.74000
C  -4.15800 19.49500 31.63200
C  -1.56000 17.15900 32.70800
C  -2.02700 16.75100 34.15400
H  -1.29900 17.25700 35.40000
N  -1.68300 19.52400 26.75400
C  -1.90400 20.51300 27.71000
C  -1.66100 21.78200 27.18600
C  -1.24800 21.56000 25.81300
C  -1.35900 20.13000 25.57500
C  -1.82600 23.02600 27.99300
C  -0.77300 22.52100 24.75700
O  -0.33300 22.20300 23.61200
C  -0.74200 24.04700 24.98100
N  -1.68200 17.09900 24.98900
C  -1.45000 18.01800 24.06400
C  -1.48200 17.46600 22.60000
C  -1.84900 15.98100 22.83000
C  -1.86600 15.88700 24.39400
C  -2.46000 18.12800 21.71700
C  -0.81800 15.10600 22.15800
C  0.63800 15.25500 22.68800
N  -2.17100 15.46400 27.28300
C  -2.33700 14.45400 26.35700
C  -2.54100 13.20500 27.03800
C  -2.69800 13.58600 28.40800
C  -2.46900 14.94000 28.49600
C  -2.73000 11.86100 26.35100
C  -2.96900 13.01300 29.71800
O  -3.31200 11.89400 30.01600
C  -2.72800 14.19000 30.67600
C  -1.49300 13.84400 31.47600
O  -0.35600 14.03800 31.14000
O  -1.81000 13.22000 32.66400
C  -0.64100 12.57200 33.38000
H  -2.52800 20.99500 29.63600
H  -1.07400 20.00100 23.49100
H  -2.39800 13.77900 24.45400
H  -3.58400 17.00200 32.08700
H  -2.10100 19.59000 31.67100
H  -4.53400 20.12700 30.82700
H  -4.05500 20.20600 32.45200
H  -4.79300 18.66900 31.95300
H  -0.87000 18.00300 32.73200
H  -0.86300 16.39500 32.36400
H  -2.00700 15.66200 34.20800
H  -3.06600 17.08000 34.14500
H  -0.99500 23.27500 28.65300
H  -2.69900 22.98600 28.64500
H  -1.98500 23.96000 27.45400
H  -0.33600 24.16600 25.98600
H  -1.78200 24.26800 24.74200
H  -0.03000 24.61300 24.38200
H  -0.48400 17.46100 22.16300
H  -2.81000 15.61500 22.47100
H  -3.30700 18.31700 22.37700
H  -2.64400 17.57900 20.79400
H  -1.97900 19.06200 21.42600
H  -0.80800 15.26800 21.08100
H  -1.18200 14.08100 22.23600
H  0.65000 16.01300 23.47200
H  1.20400 15.71800 21.87800
H  1.02800 14.35000 23.15400
H  -3.04300 11.10200 27.06800
H  -1.80700 11.49400 25.90100
H  -3.54900 11.93500 25.63500
H  -3.49100 14.27500 31.45000
H  -0.67600 12.78900 34.44800
H  0.38900 12.82900 33.13100
H  -0.74400 11.48900 33.30600
Mg -1.02900 34.50100 26.78700
C  -2.87600 32.78300 29.24800
C  0.54100 36.32800 29.42400
C  0.22500 36.57100 24.60000
C  -2.78400 32.87900 24.28100
N  -1.30900 34.66400 29.10500
C  -2.06200 33.81400 29.87400
C  -1.84400 34.07800 31.38800
C  -0.86300 35.27700 31.32100
C  -0.48200 35.43500 29.88200
C  -1.36000 36.53400 31.98700
C  -1.25700 32.76900 32.09800
C  -1.94300 32.29800 33.34700
H  -1.10800 32.17400 34.58300
N  0.47300 36.01900 27.01500
C  0.96000 36.68800 28.14800
C  1.97800 37.65900 27.67100
C  1.89800 37.69500 26.27900
C  0.83700 36.69000 25.92000
C  2.82100 38.50700 28.60200
C  2.80100 38.51000 25.37700
O  2.57300 38.53900 24.19400
C  3.93700 39.37100 25.86700
N  -1.12800 34.60200 24.70300
C  -0.58400 35.57400 24.02500
C  -0.97400 35.58200 22.56400
C  -1.80900 34.26800 22.42500
C  -1.91400 33.89900 23.87500
C  -1.51800 36.94700 21.96200
C  -1.28000 33.05400 21.65300
C  -0.94100 33.11200 20.18000
N  -2.49800 33.14900 26.72000
C  -3.03600 32.49400 25.65200
C  -4.02700 31.47100 26.07300
C  -3.92000 31.55200 27.49200
C  -2.97000 32.52000 27.80300
C  -5.02300 30.68000 25.37000
C  -4.51500 31.04600 28.76700
O  -5.37900 30.28100 29.05000
C  -3.74500 31.83800 29.93500
C  -4.78800 32.47600 30.85800
O  -5.44800 33.45000 30.47900
O  -4.84800 31.84700 32.15200
C  -5.87700 32.48400 33.04200
H  1.18400 36.64100 30.25000
H  0.52500 37.30200 23.84600
H  -3.43200 32.43600 23.52200
H  -2.80900 34.37100 31.80300
H  0.10000 34.97600 31.73500
H  -1.97800 36.25400 32.84000
H  -1.92400 37.10800 31.25200
H  -0.57100 37.15700 32.40800
H  -0.25300 32.97400 32.46800
H  -1.18900 31.94500 31.38900
H  -2.30300 31.27300 33.25100
H  -2.86000 32.83800 33.58500
H  3.85000 38.25200 28.34800
H  2.46500 38.37000 29.62300
H  2.65600 39.56400 28.39100
H  4.66200 38.79200 26.43800
H  3.63300 40.17600 26.53600
H  4.47000 39.84000 25.04000
H  -0.10200 35.22400 22.01700
H  -2.70900 34.72500 22.01300
H  -1.48100 37.71600 22.73300
H  -2.58000 36.78600 21.77300
H  -1.10600 37.23600 20.99500
H  -1.85000 32.13900 21.81200
H  -0.34500 32.80500 22.15500
H  0.12800 33.25400 20.01600
H  -1.44400 33.88700 19.60200
H  -1.27000 32.17000 19.74100
H  -5.08700 30.95400 24.31700
H  -5.97100 30.76300 25.90000
H  -4.60800 29.67200 25.33500
H  -3.12400 31.20700 30.57100
H  -5.24800 32.90800 33.82400
H  -6.59400 31.80200 33.49900
H  -6.45300 33.24800 32.52000

