158

Mg 26.50900 51.98800 26.74200
C  24.25200 52.90800 29.31100
C  28.77800 51.24500 29.14800
C  28.71200 51.74300 24.33500
C  24.10500 53.14400 24.46200
N  26.48600 52.17700 29.02500
C  25.46200 52.39200 29.85700
C  25.90000 52.16200 31.35500
C  27.35900 51.72800 31.19100
C  27.56300 51.69400 29.66200
C  28.39400 52.66200 31.93900
C  25.00200 51.11400 32.15000
C  25.42200 50.86100 33.59600
H  24.56300 51.26600 34.76300
N  28.52500 51.46900 26.80900
C  29.23100 51.17500 27.85400
C  30.54000 50.79900 27.34900
C  30.51800 50.97200 25.94300
C  29.20900 51.41300 25.61800
C  31.66600 50.22900 28.23400
C  31.75600 50.83500 25.05500
O  31.63300 51.14200 23.89300
C  33.08200 50.43700 25.52000
N  26.37900 52.32700 24.71100
C  27.39000 52.02600 23.93300
C  27.05100 52.27500 22.38400
C  25.57500 52.54900 22.45500
C  25.31600 52.83400 23.92100
C  27.89000 53.32300 21.73500
C  24.63600 51.43200 21.80000
C  23.75200 51.96700 20.64700
N  24.58300 52.95700 26.83800
C  23.75100 53.23300 25.83400
C  22.51400 53.75300 26.32900
C  22.65700 53.57500 27.71500
C  23.93500 53.13900 27.99800
C  21.36900 54.37900 25.63400
C  21.97500 53.70800 29.05500
O  20.88700 54.15000 29.41500
C  23.00200 53.33200 30.07400
C  23.20700 54.51700 30.96500
O  23.68900 55.60000 30.63100
O  22.79100 54.17300 32.22800
C  22.56400 55.26500 33.17400
H  29.43800 50.90700 29.95000
H  29.37600 51.74800 23.46900
H  23.27600 53.58400 23.90500
H  25.77900 53.11100 31.87700
H  27.47200 50.74100 31.64100
H  29.23000 52.88800 31.27700
H  28.82100 52.07500 32.75200
H  28.08100 53.63400 32.32000
H  25.14600 50.22200 31.54000
H  23.95200 51.38500 32.03900
H  26.40400 51.32900 33.66500
H  25.49900 49.77800 33.70000
H  31.93800 49.20300 27.98600
H  31.40600 50.27500 29.29200
H  32.50000 50.92700 28.15500
H  33.31000 51.16500 26.29900
H  33.85100 50.51900 24.75300
H  33.07100 49.41700 25.90300
H  27.33200 51.29200 22.00700
H  25.42800 53.55400 22.05900
H  27.27900 54.09700 21.27100
H  28.46600 52.85400 20.93700
H  28.52100 53.70300 22.53800
H  23.93900 51.03700 22.54000
H  25.24300 50.58300 21.48700
H  23.85500 51.30700 19.78600
H  24.01500 52.99200 20.38500
H  22.70000 51.88400 20.91900
H  21.80800 55.16200 25.01500
H  20.80900 54.72100 26.50500
H  20.87100 53.60600 25.05000
H  22.64600 52.48100 30.65600
H  23.51100 55.79500 33.26900
H  22.33400 54.82700 34.14500
H  21.73800 55.90400 32.86200
Mg 16.37200 51.58100 25.71900
C  18.41700 50.88400 28.41700
C  13.69000 51.53600 28.03200
C  14.21200 51.70000 23.10100
C  18.99500 50.89100 23.59600
N  16.15900 51.28200 27.85800
C  17.14300 51.19200 28.75800
C  16.67900 51.48200 30.19800
C  15.11300 51.19600 30.10300
C  14.98500 51.38100 28.56200
C  14.68600 49.72100 30.45000
C  16.95800 52.94200 30.47600
C  16.89100 53.29400 31.98200
H  16.17700 52.31800 32.94500
N  14.27200 51.69800 25.58000
C  13.34500 51.59800 26.63300
C  12.04300 51.66900 26.09800
C  12.12300 51.70200 24.67600
C  13.58500 51.70500 24.37000
C  10.80800 51.82600 26.87700
C  10.99800 51.64900 23.66100
O  11.23000 51.76500 22.50000
C  9.46700 51.63100 23.99800
N  16.55400 51.31800 23.60200
C  15.53700 51.44800 22.72600
C  16.07800 51.44600 21.22600
C  17.56700 50.84600 21.53300
C  17.76500 51.11700 23.00700
C  15.33200 50.65300 20.13400
C  18.68800 51.34200 20.61400
C  19.03200 52.88100 20.68100
N  18.38800 51.11200 25.89400
C  19.32200 50.88500 24.95700
C  20.57700 50.41900 25.59900
C  20.32600 50.50900 26.99300
C  18.94300 50.84900 27.09800
C  21.78900 49.99700 24.89600
C  20.85000 50.30100 28.27100
O  21.97900 49.90500 28.53900
C  19.64500 50.58500 29.25300
C  19.42700 49.32100 30.05700
O  19.25700 48.19800 29.60600
O  19.46400 49.63700 31.36900
C  19.02600 48.70400 32.36400
H  12.84300 51.51700 28.72000
H  13.61700 51.75800 22.18700
H  19.75400 50.45100 22.94600
H  17.22000 50.79100 30.84400
H  14.52000 51.87000 30.72100
H  15.57100 49.08700 30.50000
H  14.17600 49.28400 29.59100
H  13.98200 49.63400 31.27700
H  16.23000 53.61200 30.01800
H  17.96300 53.14000 30.10200
H  16.45900 54.27700 32.17000
H  17.95500 53.38700 32.19900
H  10.46200 50.79500 26.80300
H  10.15600 52.53100 26.36200
H  11.00400 52.07800 27.91900
H  9.22300 51.16600 24.95300
H  9.01100 51.05700 23.19000
H  9.04600 52.63300 24.07600
H  16.07600 52.50000 20.94700
H  17.46600 49.77300 21.37100
H  14.56700 50.08600 20.66500
H  16.08200 49.97400 19.72900
H  14.96500 51.20000 19.26500
H  18.43500 51.07300 19.58800
H  19.59700 50.77700 20.81900
H  20.08700 52.86000 20.95300
H  18.51600 53.39600 21.49200
H  18.99100 53.35700 19.70100
H  21.90200 50.78600 24.15200
H  21.69600 49.04500 24.37300
H  22.65200 49.76100 25.51800
H  19.78200 51.48200 29.85700
H  18.85500 49.19000 33.32400
H  19.86600 48.01000 32.32500
H  18.12200 48.20100 32.02000

