158

Mg -1.45200 18.21200 27.34400
C  -2.39700 15.93700 29.90000
C  -1.79900 20.76000 29.39900
C  -0.49300 20.18000 24.72700
C  -1.72200 15.46900 24.99900
N  -1.88300 18.24400 29.40500
C  -2.18900 17.25700 30.35000
C  -2.32700 17.78300 31.76400
C  -2.33400 19.38200 31.48600
C  -1.93800 19.50900 30.02200
C  -3.61500 20.21700 31.97200
C  -1.06300 17.36800 32.67100
C  -1.45900 16.52500 33.83800
H  -0.92000 16.65100 35.28900
N  -1.05200 20.16700 27.19000
C  -1.32500 21.06800 28.12100
C  -0.89100 22.43700 27.62100
C  -0.30700 22.16700 26.32400
C  -0.55300 20.80400 25.99800
C  -1.06400 23.71000 28.41800
C  0.15300 23.11400 25.29600
O  0.79100 22.88600 24.29000
C  0.09600 24.57000 25.67000
N  -1.42400 17.94900 25.04300
C  -0.83300 18.94100 24.25600
C  -0.59700 18.46700 22.80200
C  -0.95100 16.86400 22.93000
C  -1.32300 16.69300 24.42700
C  -1.33800 19.38300 21.82100
C  0.16200 15.87100 22.59400
C  1.49800 16.09600 23.39000
N  -2.03700 16.13800 27.32800
C  -2.01700 15.17500 26.33600
C  -2.34300 13.91700 26.93500
C  -2.59600 14.14000 28.30000
C  -2.28200 15.50800 28.50700
C  -2.51900 12.62200 26.11400
C  -3.05400 13.59900 29.51900
O  -3.55600 12.56100 29.83700
C  -2.95300 14.70300 30.66000
C  -2.05600 14.06600 31.54500
O  -0.84700 14.00100 31.47800
O  -2.84800 13.49200 32.51800
C  -2.23700 12.61900 33.53700
H  -1.90000 21.67200 29.99000
H  -0.06900 20.71700 23.87600
H  -1.86000 14.65500 24.28500
H  -3.27400 17.42700 32.17000
H  -1.47200 19.79900 32.00700
H  -4.15700 20.68700 31.15200
H  -3.24800 21.00500 32.63000
H  -4.30400 19.62400 32.57400
H  -0.53200 18.18600 33.15900
H  -0.31600 16.82000 32.09500
H  -1.12500 15.54500 33.49600
H  -2.54200 16.56200 33.95900
H  -0.18400 24.05300 28.96100
H  -1.83000 23.61900 29.18800
H  -1.41500 24.49000 27.74200
H  0.70700 24.73600 26.55700
H  -0.97300 24.78400 25.69700
H  0.72700 25.18600 25.03000
H  0.45000 18.54800 22.51000
H  -1.88900 16.73500 22.39000
H  -1.97900 20.08400 22.35700
H  -1.96800 18.83900 21.11700
H  -0.64800 19.96200 21.20700
H  0.34600 16.12100 21.55000
H  -0.18900 14.85900 22.79500
H  2.15100 15.22300 23.41500
H  1.26500 16.38300 24.41500
H  2.07500 16.90300 22.93800
H  -1.67300 12.50600 25.43600
H  -3.46400 12.45900 25.59600
H  -2.27600 11.76700 26.74400
H  -3.96200 14.89600 31.02500
H  -2.97600 11.95900 33.98900
H  -1.76300 13.26200 34.27900
H  -1.42400 12.04000 33.09800
Mg 49.70300 45.71800 42.85100
C  46.39800 46.34100 41.89100
C  49.54700 42.75800 41.12100
C  53.19200 45.66800 42.67700
C  49.81400 48.97400 44.04200
N  48.15200 44.68500 41.67400
C  46.83500 45.03500 41.48500
C  46.07200 43.93900 40.69900
C  47.02600 42.71200 40.64900
C  48.36600 43.44900 41.11000
C  46.51500 41.55400 41.57900
C  45.66100 44.52800 39.24500
C  44.30400 44.03500 38.77000
H  44.19600 43.07700 37.59900
N  51.13900 44.33300 42.16600
C  50.85000 43.20100 41.54300
C  52.08600 42.45000 41.37800
C  53.15600 43.18900 42.03800
C  52.49400 44.45700 42.37700
C  52.19200 41.14200 40.76900
C  54.56600 42.76600 42.18800
O  54.93000 41.71800 41.67800
C  55.55200 43.55000 42.89800
N  51.25400 47.10600 43.24000
C  52.61200 46.79500 43.20900
C  53.50300 48.06100 43.53300
C  52.38900 49.05200 44.20000
C  51.05400 48.34600 43.87100
C  54.76800 47.82400 44.42400
C  52.42500 50.55200 43.70200
C  52.10000 51.56200 44.83300
N  48.33700 47.33400 43.07200
C  48.53900 48.55000 43.66300
C  47.35900 49.33700 43.57500
C  46.42600 48.46300 42.91400
C  47.14000 47.22600 42.58800
C  47.20600 50.79800 44.04500
C  45.03700 48.38800 42.44900
O  44.06700 49.10800 42.56100
C  45.01600 47.02100 41.69500
C  43.97700 46.25600 42.42900
O  44.13000 45.90400 43.60900
O  42.87600 46.05000 41.67500
C  41.83200 45.28700 42.31400
H  49.62500 41.74800 40.71400
H  54.26100 45.53900 42.49900
H  49.88200 50.02100 44.34300
H  45.27200 43.65300 41.38300
H  47.02500 42.22900 39.67200
H  47.36900 40.92200 41.82300
H  45.79100 40.96300 41.01800
H  46.02200 41.92400 42.47800
H  46.38900 44.23100 38.48900
H  45.68200 45.61800 39.25600
H  43.66800 44.90000 38.58600
H  43.83200 43.49000 39.58800
H  52.48200 41.20600 39.72000
H  51.24300 40.61300 40.69200
H  52.83500 40.47700 41.34600
H  55.16300 43.78900 43.88800
H  55.88000 44.45200 42.38200
H  56.39500 42.88200 43.07300
H  53.82000 48.39000 42.54400
H  52.49800 48.93100 45.27800
H  54.76200 48.42500 45.33300
H  55.63300 48.15500 43.84900
H  54.93100 46.79000 44.73100
H  51.74300 50.78200 42.88300
H  53.42500 50.65400 43.28100
H  51.24000 52.13300 44.48300
H  53.02200 52.14000 44.76300
H  51.85700 51.11900 45.79900
H  47.93200 51.02200 44.82600
H  46.19000 50.99900 44.38500
H  47.42900 51.46600 43.21300
H  44.87300 47.17300 40.62500
H  41.14900 44.73300 41.67100
H  41.24700 46.08100 42.77800
H  42.25500 44.59300 43.04100

