158

Mg 24.30600 -4.58600 45.51800
C  26.43500 -2.45100 43.64900
C  21.56900 -3.68200 43.35500
C  22.76300 -7.43400 46.24500
C  27.21800 -5.67900 47.24100
N  24.06800 -3.19300 43.75800
C  25.06200 -2.40800 43.23500
C  24.47700 -1.55100 42.07600
C  22.97800 -1.79300 42.22100
C  22.87100 -2.98400 43.14300
C  22.15700 -0.49700 42.75800
C  25.14800 -2.15300 40.73900
C  25.84600 -1.26400 39.72500
H  25.38900 -1.35900 38.25500
N  22.32100 -5.41800 44.94200
C  21.34900 -4.88800 44.11200
C  20.20200 -5.77600 44.15400
C  20.56800 -6.90900 44.88800
C  21.98700 -6.62400 45.40400
C  18.90400 -5.46700 43.49700
C  19.59700 -8.07500 45.13700
O  18.45700 -8.08500 44.64500
C  20.02800 -9.19300 45.94000
N  24.81900 -6.23400 46.65100
C  23.98500 -7.22300 46.87000
C  24.64000 -8.33300 47.76000
C  25.95300 -7.68900 48.25500
C  26.05300 -6.45800 47.37300
C  23.71300 -8.95200 48.83000
C  27.28000 -8.66600 48.07700
C  28.29600 -8.63200 49.18400
N  26.42400 -4.13800 45.59200
C  27.42400 -4.70100 46.32800
C  28.69900 -4.00200 45.98400
C  28.33000 -3.20300 44.87400
C  26.94100 -3.26200 44.71600
C  30.04000 -4.32100 46.53200
C  28.87000 -2.25800 43.93100
O  29.97300 -1.89900 43.83300
C  27.60500 -1.70800 43.09400
C  27.58500 -0.13600 43.32200
O  27.48600 0.41000 44.39900
O  27.67700 0.58800 42.11800
C  27.52300 2.03200 42.10300
H  20.73500 -3.29800 42.76200
H  22.31500 -8.40000 46.48700
H  28.11700 -5.88000 47.82700
H  24.80300 -0.51100 42.10700
H  22.48900 -2.10400 41.29800
H  22.65600 0.41700 42.43900
H  22.22400 -0.50200 43.84600
H  21.13000 -0.50200 42.39300
H  24.43700 -2.81000 40.23900
H  25.86900 -2.93100 40.99200
H  26.87700 -1.61600 39.70200
H  25.95000 -0.20300 39.95000
H  18.46600 -6.24600 42.87300
H  19.07000 -4.51700 42.98900
H  18.18800 -5.27500 44.29700
H  20.80100 -9.70500 45.36700
H  19.20100 -9.89700 46.04000
H  20.44400 -8.77000 46.85400
H  24.91600 -9.18500 47.13900
H  25.91700 -7.34900 49.29000
H  22.67600 -8.61600 48.85700
H  24.18600 -8.79900 49.80000
H  23.60600 -10.03500 48.76900
H  27.67700 -8.31400 47.12500
H  27.01200 -9.70100 47.86600
H  28.36400 -9.64200 49.58800
H  28.06300 -7.99300 50.03600
H  29.15200 -8.47600 48.52700
H  29.90700 -5.40200 46.47400
H  30.26100 -4.15300 47.58600
H  30.86100 -3.85200 45.99000
H  27.79500 -1.83600 42.02900
H  27.46700 2.28000 43.16300
H  26.63400 2.27900 41.52200
H  28.35000 2.59300 41.66900
Mg -11.20200 39.51700 41.47000
C  -10.15400 36.20800 40.94000
C  -8.27100 40.49900 39.64500
C  -12.37900 42.58700 41.00300
C  -14.25500 38.33000 42.47700
N  -9.42400 38.44000 40.37400
C  -9.25600 37.06300 40.27800
C  -7.93700 36.68200 39.59500
C  -7.23900 38.12500 39.47200
C  -8.34300 39.08400 39.80000
C  -5.97600 38.37100 40.33400
C  -8.14400 35.96000 38.21000
C  -7.24000 34.79200 37.88100
H  -6.21600 35.03800 36.78800
N  -10.42300 41.32700 40.49000
C  -9.24700 41.51100 39.84800
C  -9.07200 42.94200 39.56900
C  -10.27500 43.55000 39.91700
C  -11.14000 42.47100 40.46600
C  -7.94200 43.42300 38.79100
C  -10.58400 45.00500 39.73700
O  -9.79900 45.74600 39.14000
C  -11.95600 45.66400 40.09100
N  -13.05400 40.31000 41.64900
C  -13.28500 41.64500 41.50500
C  -14.75500 42.01000 41.87200
C  -15.43400 40.59400 42.06200
C  -14.16500 39.68600 42.11400
C  -14.86100 42.83700 43.23200
C  -16.54100 40.11300 41.07000
C  -17.74700 39.25900 41.52100
N  -12.07400 37.66500 41.88000
C  -13.26700 37.36200 42.40800
C  -13.36300 35.88900 42.64100
C  -12.11300 35.34900 42.08500
C  -11.35500 36.47900 41.71600
C  -14.58700 35.12500 43.23800
C  -11.37800 34.14300 41.72800
O  -11.63000 32.99700 41.98700
C  -10.09900 34.65500 40.93100
C  -8.84000 34.05300 41.55100
O  -8.21800 33.03000 41.23900
O  -8.23900 34.94500 42.51500
C  -6.96800 34.44900 43.09500
H  -7.28400 40.71100 39.22800
H  -12.79300 43.59100 41.12200
H  -15.22300 37.99700 42.85800
H  -7.42900 36.05400 40.32700
H  -6.96300 38.26700 38.42700
H  -5.84100 37.66300 41.15100
H  -6.05500 39.30900 40.88300
H  -5.15400 38.26300 39.62600
H  -7.99900 36.74000 37.46300
H  -9.18500 35.63900 38.16700
H  -7.95700 34.04100 37.55000
H  -6.67900 34.41800 38.73800
H  -7.30200 42.60200 38.47000
H  -7.43400 43.93500 39.60900
H  -8.20000 44.16200 38.03200
H  -12.77100 45.19600 39.53800
H  -11.90300 46.72800 39.86000
H  -12.16100 45.57100 41.15800
H  -15.14300 42.50600 40.98200
H  -15.93700 40.43100 43.01500
H  -15.35300 43.79400 43.06500
H  -13.84400 42.96000 43.60500
H  -15.48100 42.45300 44.04200
H  -15.93700 39.72000 40.25300
H  -17.03900 41.05900 40.85700
H  -18.00300 38.72000 40.60900
H  -18.48700 39.89600 42.00500
H  -17.45700 38.59300 42.33500
H  -15.10900 35.87500 43.83200
H  -14.30700 34.29300 43.88400
H  -15.30400 34.77600 42.49500
H  -10.18600 34.29900 39.90500
H  -6.62800 34.86900 44.04200
H  -6.16200 34.69400 42.40300
H  -7.10300 33.40000 43.35800

