158

Mg 39.97500 10.09500 30.02100
C  41.98600 11.02200 32.78000
C  37.82200 8.63200 32.22900
C  38.61400 8.67000 27.42900
C  42.72200 11.19000 27.90500
N  39.91300 9.85000 32.29200
C  40.80100 10.46900 33.20900
C  40.19200 10.37400 34.63600
C  38.96700 9.36300 34.48200
C  38.92900 9.25500 32.92700
C  39.14800 7.94900 35.10700
C  39.76100 11.76900 34.99200
C  40.55400 12.36800 36.13600
H  39.84000 13.17700 37.18800
N  38.30100 8.94900 29.87300
C  37.52100 8.49700 30.89500
C  36.40200 7.79600 30.33800
C  36.59200 7.84000 28.85400
C  37.88100 8.42900 28.67200
C  35.48200 6.98600 31.19200
C  35.70200 7.33900 27.88600
O  35.90600 7.43100 26.63900
C  34.38000 6.75400 28.29200
N  40.58700 9.93000 27.96800
C  39.80200 9.31300 27.08900
C  40.29700 9.39700 25.61000
C  41.63000 10.24800 25.80900
C  41.64600 10.52500 27.33400
C  40.48100 8.07400 24.86600
C  41.63100 11.63000 25.06400
C  40.97600 11.72900 23.75400
N  41.99100 10.77100 30.24200
C  42.90900 11.23400 29.30000
C  43.97800 11.80900 29.89000
C  43.63200 11.90300 31.28400
C  42.46200 11.12400 31.44500
C  45.28200 12.31000 29.31700
C  44.12500 12.22800 32.61500
O  45.11900 12.79200 32.93100
C  43.02000 11.82800 33.56500
C  43.73700 10.88200 34.43900
O  44.34600 9.89600 34.02300
O  43.56100 11.18500 35.77200
C  44.22800 10.36900 36.76900
H  37.08800 8.12200 32.85700
H  38.07600 8.29700 26.55400
H  43.51100 11.69600 27.34400
H  40.98300 9.86700 35.18900
H  37.98200 9.72000 34.78400
H  38.41300 7.82400 35.90200
H  40.10500 7.79900 35.60700
H  39.18000 7.09800 34.42800
H  38.76100 11.60900 35.39600
H  39.86500 12.47100 34.16500
H  41.24900 13.08200 35.69300
H  41.21500 11.65300 36.62500
H  34.80300 7.73100 31.60700
H  35.95100 6.50600 32.05100
H  34.97100 6.14600 30.72300
H  34.06700 7.45600 29.06500
H  34.51500 5.77800 28.75800
H  33.63300 6.71500 27.49900
H  39.54400 9.98000 25.08000
H  42.47600 9.64700 25.47700
H  41.35700 8.14800 24.22300
H  39.54100 7.89900 24.34200
H  40.77800 7.29700 25.57000
H  42.65800 11.88300 24.80100
H  41.32500 12.43800 25.72800
H  40.79900 10.73600 23.34000
H  41.62400 12.19000 23.00800
H  40.00200 12.21800 23.74500
H  45.90200 11.52200 28.89000
H  45.80600 12.72600 30.17700
H  44.90900 13.05000 28.60800
H  42.64500 12.67300 34.14300
H  43.83900 9.36000 36.63000
H  44.09100 10.75400 37.78000
H  45.30000 10.37600 36.57100
Mg -12.32600 37.43400 42.46000
C  -10.16800 35.00800 41.41800
C  -10.21300 39.92500 40.93600
C  -14.71500 39.83800 43.11400
C  -14.65700 34.87500 43.31400
N  -10.46800 37.45000 41.23200
C  -9.72100 36.28700 40.99200
C  -8.46400 36.57600 40.22200
C  -8.44300 38.16600 40.16100
C  -9.80900 38.58800 40.77800
C  -7.25400 38.87300 40.90000
C  -8.54200 35.86200 38.76200
C  -7.45900 34.88300 38.39700
H  -6.54500 35.30000 37.18100
N  -12.45200 39.58500 42.08300
C  -11.43800 40.40700 41.49600
C  -11.87700 41.82100 41.58800
C  -13.26400 41.84400 42.07800
C  -13.52700 40.40400 42.47700
C  -11.00600 43.01600 41.21100
C  -14.33800 42.97400 42.02000
O  -13.92700 44.04800 41.55600
C  -15.72700 42.91400 42.64900
N  -14.40600 37.33800 43.13400
C  -15.11800 38.50400 43.34600
C  -16.52000 38.19000 43.84700
C  -16.50900 36.62800 43.73200
C  -15.11400 36.20900 43.36500
C  -16.96700 38.80300 45.17700
C  -17.56500 36.17000 42.54900
C  -18.66800 35.29500 43.00800
N  -12.40500 35.41400 42.43700
C  -13.40900 34.46000 42.91700
C  -12.84200 33.06800 42.73100
C  -11.54700 33.30900 42.24700
C  -11.36000 34.69400 42.10100
C  -13.52400 31.71200 43.13400
C  -10.41000 32.58300 41.81100
O  -10.26600 31.35900 41.75600
C  -9.34100 33.70800 41.33000
C  -8.09000 33.63700 42.16900
O  -7.00400 33.82000 41.64500
O  -8.19300 33.54200 43.49600
C  -7.08100 33.98700 44.34300
H  -9.52700 40.72000 40.63600
H  -15.50200 40.50800 43.46600
H  -15.36400 34.04800 43.22700
H  -7.61700 36.17300 40.77800
H  -8.63600 38.47600 39.13400
H  -7.44100 38.99000 41.96800
H  -6.94700 39.85400 40.53900
H  -6.36500 38.25900 40.75200
H  -8.40400 36.65500 38.02600
H  -9.50100 35.40100 38.52400
H  -7.86900 33.89100 38.20800
H  -6.81100 34.84800 39.27300
H  -10.01800 42.74400 41.58200
H  -11.30100 43.85100 41.84600
H  -10.81500 43.16800 40.14800
H  -16.24900 43.87200 42.64800
H  -15.51200 42.47600 43.62400
H  -16.33500 42.22900 42.05900
H  -17.25100 38.64000 43.17600
H  -16.68100 36.12000 44.68100
H  -16.16600 39.06700 45.86800
H  -17.72900 38.17500 45.63800
H  -17.55500 39.69900 44.97700
H  -17.02600 35.58500 41.80300
H  -18.08000 36.99500 42.05900
H  -18.50400 34.96000 44.03300
H  -18.69100 34.32600 42.50800
H  -19.62800 35.77500 42.82100
H  -13.25100 30.89500 42.46600
H  -14.60700 31.75800 43.24900
H  -13.04700 31.45600 44.08000
H  -9.21900 33.47700 40.27200
H  -7.34100 34.49600 45.27100
H  -6.27200 34.42800 43.76000
H  -6.67400 33.01800 44.63200

