158

Mg 17.41800 -0.93500 27.92900
C  16.34400 0.92200 30.63300
C  19.37800 -2.67100 30.16700
C  18.93000 -2.35700 25.29200
C  15.44300 1.00700 25.82400
N  18.05400 -0.70700 30.18800
C  17.43500 0.07600 31.05600
C  17.85600 -0.28400 32.51800
C  19.01200 -1.34300 32.33800
C  18.82400 -1.58500 30.80200
C  20.40500 -0.73400 32.70700
C  16.65800 -0.79500 33.39400
C  16.55500 -0.18300 34.80000
H  17.79000 0.39300 35.46600
N  18.87900 -2.38200 27.78100
C  19.48800 -3.04200 28.81100
C  20.17700 -4.23100 28.24800
C  20.13300 -4.11600 26.80100
C  19.27300 -2.91300 26.55300
C  20.86200 -5.27800 29.20300
C  20.76200 -4.97300 25.71700
O  20.47500 -4.85500 24.55100
C  21.65700 -6.11800 26.07400
N  17.30600 -0.65300 25.89400
C  18.08000 -1.31800 24.98800
C  17.70800 -0.95000 23.61200
C  16.45200 -0.01100 23.75700
C  16.38900 0.16600 25.31700
C  18.90100 -0.33300 22.86100
C  15.06400 -0.44300 23.18200
C  14.47700 0.22100 21.94500
N  16.18700 0.62800 28.13500
C  15.34900 1.26700 27.24400
C  14.52400 2.30900 27.90000
C  14.86000 2.13100 29.22200
C  15.94400 1.16400 29.34400
C  13.60700 3.23300 27.20200
C  14.53600 2.64100 30.47900
O  13.69000 3.43900 30.81300
C  15.48400 1.90800 31.49000
C  16.25700 2.89000 32.21700
O  17.10400 3.56600 31.64100
O  16.03000 2.90700 33.56900
C  16.51200 4.10000 34.30300
H  20.02500 -3.19500 30.87300
H  19.32100 -2.96300 24.47100
H  14.81100 1.59200 25.15300
H  18.38000 0.54800 32.98900
H  18.82800 -2.25300 32.90800
H  21.19200 -1.20400 32.11800
H  20.56800 -0.94800 33.76300
H  20.50700 0.33600 32.52500
H  16.81700 -1.86600 33.52100
H  15.74500 -0.62200 32.82500
H  16.40900 -1.00900 35.49600
H  15.74800 0.54700 34.85900
H  21.86500 -5.45700 28.81700
H  20.35200 -6.23500 29.31900
H  20.86000 -4.88400 30.21900
H  22.64300 -5.71700 26.31100
H  21.63900 -6.73800 25.17800
H  21.33000 -6.71000 26.92900
H  17.53900 -1.84700 23.01700
H  16.70500 0.98800 23.40300
H  19.79900 -0.27000 23.47600
H  18.67500 0.66400 22.48300
H  19.08000 -1.03900 22.05000
H  14.27900 -0.42200 23.93800
H  15.13700 -1.51100 22.97900
H  13.53300 0.65400 22.27700
H  14.24200 -0.45000 21.11900
H  15.12700 1.00200 21.55000
H  12.61300 2.80600 27.06400
H  13.96100 3.70300 26.28500
H  13.54200 3.92900 28.03800
H  14.71000 1.53400 32.16000
H  17.45800 3.82900 34.77000
H  15.78000 4.34800 35.07200
H  16.55300 4.96300 33.63900
Mg 26.00700 1.49700 29.78500
C  27.97400 1.08700 32.68000
C  23.27200 2.02100 31.90900
C  24.08900 1.30800 27.17900
C  28.75400 0.45100 27.84200
N  25.63900 1.48000 32.11100
C  26.69400 1.47600 33.03200
C  26.16700 1.79400 34.38500
C  24.59800 1.95800 34.25700
C  24.44600 1.84400 32.65200
C  23.81800 0.83200 34.95300
C  26.87100 3.07600 35.03700
C  27.71000 2.90700 36.30900
H  27.22500 3.85800 37.44600
N  23.93300 1.79200 29.54800
C  22.98000 1.90000 30.50600
C  21.68700 2.07400 29.83500
C  21.95100 1.97900 28.47600
C  23.37700 1.67000 28.34600
C  20.37300 2.35800 30.62600
C  20.95300 2.23500 27.34300
O  21.17900 2.36700 26.11600
C  19.51700 1.98900 27.67400
N  26.44600 1.02100 27.73300
C  25.42800 1.08800 26.85800
C  25.91500 0.75400 25.46600
C  27.43900 0.46500 25.59900
C  27.61500 0.63100 27.12900
C  25.31600 -0.48600 24.78400
C  28.32900 1.46600 24.75200
C  29.04400 0.80900 23.52300
N  28.05700 0.87300 30.14000
C  28.98900 0.46500 29.23900
C  30.24800 0.25300 29.98100
C  29.94700 0.43400 31.35000
C  28.59500 0.79900 31.34400
C  31.50000 -0.19600 29.38700
C  30.44900 0.42200 32.64700
O  31.64100 0.27900 33.01600
C  29.21700 0.85400 33.59600
C  28.85700 -0.13400 34.65300
O  28.45500 -1.25900 34.39600
O  29.22700 0.32800 35.85600
C  29.22800 -0.67900 36.96600
H  22.42000 2.26500 32.54800
H  23.49400 1.30700 26.26300
H  29.56700 -0.01500 27.28000
H  26.34500 0.88900 34.96500
H  24.28900 2.96300 34.54300
H  23.88200 -0.06500 34.33700
H  22.78500 1.17800 34.92000
H  24.16500 0.54100 35.94500
H  26.03600 3.71000 35.33600
H  27.43900 3.46800 34.19300
H  28.73700 3.19200 36.08300
H  27.61100 1.89100 36.69200
H  20.02300 3.27100 30.14500
H  20.50300 2.49400 31.70000
H  19.72700 1.48900 30.49300
H  18.98100 1.93800 26.72600
H  19.08500 2.86000 28.16600
H  19.40700 1.08800 28.27900
H  25.56700 1.55700 24.81600
H  27.62500 -0.58000 25.35100
H  26.04100 -1.13100 24.28800
H  24.67300 -0.09900 23.99300
H  24.81500 -1.09500 25.53700
H  29.09500 1.96300 25.34800
H  27.68700 2.27900 24.41500
H  28.81400 1.34800 22.60300
H  28.61000 -0.18900 23.45700
H  30.12400 0.93800 23.58300
H  31.72000 0.23400 28.40900
H  31.32600 -1.26900 29.30100
H  32.39600 -0.17900 30.00800
H  29.44000 1.82800 34.03000
H  28.28900 -0.42300 37.45800
H  30.10000 -0.51500 37.59900
H  29.23200 -1.72900 36.67300

