158

Mg 49.71800 47.41700 43.16400
C  46.33400 47.36600 42.31500
C  50.01700 44.24800 42.03800
C  53.15600 47.68300 43.36600
C  49.51400 50.89300 43.70300
N  48.25800 46.05400 42.23000
C  46.96900 46.14800 42.01500
C  46.33900 44.90300 41.46900
C  47.49300 43.85400 41.65800
C  48.71100 44.75800 42.02800
C  47.14700 42.69300 42.65400
C  46.01200 45.00700 39.93500
C  44.65800 44.36400 39.60500
H  44.73600 43.36800 38.47300
N  51.32500 46.15100 42.78500
C  51.16800 44.85700 42.31900
C  52.46400 44.23900 42.22200
C  53.47500 45.20000 42.65200
C  52.64500 46.40500 42.94400
C  52.73600 42.84000 41.70200
C  54.99500 45.01400 42.73500
O  55.45400 43.99500 42.24000
C  55.95000 45.97700 43.30000
N  51.17300 49.12900 43.48400
C  52.50500 48.91800 43.56100
C  53.19900 50.18200 44.06200
C  52.08400 51.25200 44.15800
C  50.82200 50.40500 43.81100
C  54.11500 49.99900 45.22500
C  52.21800 52.43000 43.14000
C  53.24700 53.48300 43.60900
N  48.28100 48.83300 43.22500
C  48.29100 50.21500 43.36700
C  46.94400 50.73100 43.24700
C  46.19200 49.63700 42.87800
C  47.01000 48.49700 42.86500
C  46.49400 52.14100 43.47900
C  44.85500 49.33900 42.50900
O  43.84400 50.01200 42.39500
C  44.92400 47.89500 42.07400
C  44.07100 47.01600 42.85200
O  43.99400 47.16700 44.08300
O  43.38600 46.09100 42.05400
C  42.51400 45.24500 42.79800
H  50.12800 43.22200 41.68200
H  54.24300 47.71400 43.46300
H  49.48800 51.96800 43.89000
H  45.44900 44.60400 42.02300
H  47.67400 43.31700 40.72600
H  46.81400 41.78900 42.14300
H  46.39500 43.08300 43.33900
H  47.98000 42.44800 43.31200
H  46.82800 44.57400 39.35600
H  45.96300 46.08300 39.77300
H  43.99400 45.17200 39.29900
H  44.12700 43.96800 40.47100
H  53.55000 42.83700 40.97600
H  51.92400 42.31000 41.20400
H  53.02200 42.33500 42.62400
H  55.71700 45.99600 44.36500
H  55.90900 46.92300 42.76000
H  56.96500 45.59300 43.19400
H  53.83600 50.62800 43.29700
H  51.81500 51.59600 45.15600
H  53.50500 49.65900 46.06200
H  54.54700 50.95300 45.52800
H  54.90800 49.27400 45.04300
H  51.23400 52.87600 43.00000
H  52.46600 51.95400 42.19200
H  54.13100 53.33100 42.99000
H  53.45400 53.45600 44.67900
H  52.81300 54.45400 43.37200
H  47.18200 52.69400 44.11900
H  45.49800 52.02700 43.90700
H  46.55800 52.61500 42.50000
H  44.74800 47.84700 40.99900
H  42.93400 44.79600 43.69900
H  42.23700 44.35500 42.23300
H  41.55900 45.70700 43.04900
Mg 9.95000 47.14300 25.80000
C  7.67900 47.42600 28.43200
C  12.36000 48.54500 27.97300
C  12.26400 46.76800 23.37400
C  7.39600 46.40900 23.70000
N  9.99400 47.88400 27.97600
C  8.94500 47.73900 28.92300
C  9.44200 48.25300 30.29000
C  10.90200 48.86800 29.97600
C  11.11300 48.36400 28.56200
C  11.16500 50.34800 30.13500
C  9.48700 47.19000 31.47300
C  10.15600 47.57900 32.82800
H  9.23800 47.28900 34.02100
N  12.01500 47.69200 25.63100
C  12.83700 48.16100 26.66600
C  14.17400 48.10100 26.22100
C  14.19400 47.47400 24.89200
C  12.78200 47.30400 24.56900
C  15.41100 48.52500 27.10900
C  15.34300 46.97000 24.12800
O  15.23100 46.51000 22.96100
C  16.75500 46.93300 24.75100
N  9.86900 46.76400 23.84900
C  10.93300 46.62800 22.99700
C  10.47700 46.08900 21.64900
C  8.95300 46.15200 21.65800
C  8.69700 46.46500 23.16100
C  11.07100 46.81200 20.46700
C  8.21100 44.93100 21.04000
C  7.20500 45.17900 19.84800
N  7.90500 47.01500 25.95400
C  6.96900 46.69300 25.04000
C  5.69200 46.48700 25.64600
C  5.92100 46.90000 26.98100
C  7.31700 47.10300 27.08400
C  4.33500 46.21700 24.98100
C  5.19900 47.11000 28.23400
O  4.06900 46.94900 28.58200
C  6.32100 47.50200 29.21600
C  6.07400 46.51900 30.33900
O  6.53600 45.39900 30.42000
O  5.28700 47.05500 31.29500
C  5.08200 46.38000 32.53900
H  13.09600 48.83900 28.72500
H  12.97700 46.57000 22.57100
H  6.55000 46.22800 23.03400
H  8.77400 49.06500 30.57400
H  11.61600 48.29600 30.56900
H  10.53000 50.84500 30.86800
H  10.94300 50.83800 29.18700
H  12.21800 50.53100 30.34800
H  9.65700 46.14400 31.21500
H  8.45700 46.94600 31.73300
H  10.37900 48.64400 32.75800
H  11.08500 47.01600 32.91800
H  15.09100 49.03500 28.01800
H  16.02300 49.23100 26.54700
H  16.01500 47.72100 27.52800
H  16.61000 46.78700 25.82100
H  17.38000 47.79500 24.51500
H  17.32400 46.08500 24.37000
H  10.84600 45.06800 21.55100
H  8.66400 47.05100 21.11200
H  12.13400 46.59800 20.35800
H  11.03700 47.89100 20.61700
H  10.51300 46.51600 19.58000
H  7.70600 44.44100 21.87200
H  8.94200 44.23600 20.62500
H  7.46800 44.47100 19.06200
H  7.22400 46.20600 19.48400
H  6.14600 45.02500 20.05500
H  4.46500 45.85800 23.96000
H  3.80300 47.16300 24.87500
H  3.90200 45.46900 25.64500
H  6.23100 48.54200 29.52700
H  4.73500 47.05700 33.32100
H  5.99600 45.91000 32.90100
H  4.32800 45.59300 32.53300

