158

Mg 26.20300 0.89700 28.98800
C  28.28600 0.74900 31.98600
C  23.48700 0.70200 31.24600
C  24.34600 0.93300 26.44300
C  29.02600 0.26900 27.11500
N  26.01900 0.80100 31.34900
C  26.93700 0.90900 32.31000
C  26.38100 0.98300 33.74700
C  24.81600 0.87700 33.48300
C  24.72000 0.91300 31.94800
C  24.04400 -0.32300 34.24200
C  26.83000 2.16300 34.60000
C  27.38400 1.93300 35.97100
H  27.05800 2.89100 37.13900
N  24.19200 0.86400 28.83400
C  23.22000 0.78200 29.87000
C  21.96700 1.02000 29.24900
C  22.13900 1.10200 27.84100
C  23.57600 0.91000 27.62800
C  20.66800 1.17900 30.00600
C  21.05300 1.44100 26.70100
O  21.42100 1.25500 25.57600
C  19.61700 1.76800 26.96500
N  26.65700 0.52400 27.09300
C  25.70400 0.72300 26.16200
C  26.27500 0.83700 24.73200
C  27.74000 0.51700 24.91800
C  27.84400 0.40600 26.45500
C  25.64800 -0.09800 23.61600
C  28.73900 1.55500 24.36100
C  28.76400 1.63000 22.88500
N  28.29700 0.55000 29.38000
C  29.30300 0.23800 28.50100
C  30.51400 0.13800 29.21500
C  30.25000 0.35100 30.56100
C  28.85700 0.64000 30.64000
C  31.79900 -0.25300 28.73900
C  30.79600 0.48000 31.91800
O  31.94900 0.31500 32.29200
C  29.53000 0.69800 32.93100
C  29.39500 -0.33400 33.96800
O  28.91800 -1.44000 33.85800
O  29.95100 0.08400 35.15800
C  29.97100 -0.81800 36.37400
H  22.59900 0.64300 31.87900
H  23.68800 0.94900 25.57200
H  29.90600 0.14600 26.48100
H  26.70500 0.13700 34.35400
H  24.30400 1.75200 33.88100
H  22.98500 -0.06900 34.27800
H  24.49000 -0.45500 35.22800
H  24.05100 -1.30400 33.76500
H  25.99000 2.82700 34.80200
H  27.53000 2.78300 34.04100
H  28.45500 1.74100 35.90400
H  26.91800 0.98000 36.22100
H  19.97200 0.37300 29.77300
H  20.20700 2.09300 29.63100
H  20.63800 1.34800 31.08300
H  19.46800 2.66200 27.57000
H  19.16300 0.86800 27.38000
H  19.10400 1.96400 26.02300
H  26.18900 1.88000 24.42600
H  27.95500 -0.45600 24.47700
H  24.96000 -0.69500 24.21500
H  26.32400 -0.83800 23.19000
H  25.07100 0.46800 22.88400
H  29.76700 1.39600 24.68700
H  28.45100 2.56600 24.65100
H  28.40000 2.59900 22.54600
H  28.13200 0.88300 22.40500
H  29.76700 1.42400 22.50900
H  31.68800 -1.32900 28.60400
H  32.56400 0.02800 29.46300
H  32.19600 0.22700 27.84500
H  29.67300 1.65100 33.44100
H  29.41000 -0.35100 37.18300
H  31.01200 -0.94900 36.67100
H  29.53200 -1.78800 36.13800
Mg 36.44300 2.56500 30.27700
C  33.91300 3.36800 32.52400
C  38.72100 2.68300 32.81800
C  38.88800 2.05700 27.92700
C  34.04900 2.89800 27.59900
N  36.30900 2.93700 32.39700
C  35.18600 3.24200 33.11300
C  35.53900 3.27600 34.62900
C  37.14100 3.32500 34.61900
C  37.42200 2.95400 33.18500
C  37.68600 4.68100 35.00700
C  34.87900 2.11100 35.45300
C  34.40200 2.48100 36.85100
H  34.81100 3.76300 37.60100
N  38.49900 2.21700 30.41400
C  39.30500 2.41900 31.55200
C  40.60400 2.07700 31.26100
C  40.68600 1.99800 29.81900
C  39.33100 2.07900 29.31000
C  41.56200 1.75000 32.36800
C  41.90400 1.67800 28.95900
O  41.73000 1.65200 27.73300
C  43.20100 1.43800 29.58400
N  36.53700 2.71700 28.13500
C  37.62500 2.25200 27.39700
C  37.35800 2.35000 25.89900
C  35.81300 2.28500 25.92400
C  35.38200 2.67900 27.32700
C  37.94500 3.62900 25.32300
C  35.20200 0.94100 25.39100
C  35.41500 -0.36500 26.29700
N  34.43200 3.00200 30.07900
C  33.60700 3.04900 28.94700
C  32.21200 3.30600 29.40300
C  32.30100 3.46300 30.77300
C  33.66100 3.20400 31.14200
C  31.07200 3.22500 28.48100
C  31.57000 3.75700 32.03000
O  30.37600 4.05000 32.16600
C  32.57200 3.67900 33.18700
C  32.48700 5.04400 33.77500
O  32.97000 5.99100 33.24800
O  31.96400 5.00600 35.02500
C  32.16400 6.14400 35.85100
H  39.49600 2.83100 33.57400
H  39.62100 2.05900 27.11700
H  33.23000 2.94300 26.87900
H  35.11900 4.18400 35.06100
H  37.61000 2.54100 35.21300
H  38.39100 5.00400 34.24100
H  38.17100 4.45200 35.95500
H  36.98500 5.48200 35.24300
H  35.62700 1.32000 35.39500
H  33.98800 1.72500 34.95800
H  34.63900 1.55700 37.37900
H  33.32400 2.63700 36.79900
H  41.77100 2.58800 33.03400
H  42.56800 1.37100 32.18700
H  41.19500 0.99500 33.06300
H  44.03500 1.48600 28.88500
H  43.04900 0.49600 30.11100
H  43.33200 2.23400 30.31700
H  37.83700 1.49100 25.43000
H  35.52300 3.09000 25.24900
H  38.04100 3.46800 24.25000
H  38.79600 3.97800 25.90700
H  37.24700 4.46100 25.41500
H  35.67400 0.65100 24.45200
H  34.13600 1.08300 25.21000
H  36.21500 -0.21300 27.02200
H  35.53500 -1.31500 25.77700
H  34.44900 -0.46100 26.79300
H  31.17000 2.31400 27.89100
H  30.95500 4.03900 27.76600
H  30.13200 3.26300 29.03000
H  32.29000 2.95600 33.95300
H  31.27000 6.76400 35.78600
H  32.96900 6.76000 35.45000
H  32.32100 5.78700 36.86900

