158

Mg 44.23700 4.14500 47.13300
C  42.23100 7.00900 47.44700
C  41.44400 2.13600 47.33100
C  46.20800 1.52600 47.04200
C  46.97100 6.23100 46.44800
N  42.14600 4.58900 47.20900
C  41.57600 5.84200 47.34200
C  40.05200 5.74900 47.54400
C  39.87800 4.21400 47.87000
C  41.21400 3.59300 47.38500
C  39.56300 3.85000 49.35200
C  39.11900 6.36700 46.44000
C  39.32300 6.17700 44.93300
H  39.62100 7.34500 44.00600
N  43.89400 2.08400 46.89300
C  42.69400 1.51200 47.12400
C  42.84500 0.13500 46.97200
C  44.30000 -0.11300 46.91600
C  44.89700 1.18100 46.87800
C  41.72300 -0.90600 46.70300
C  44.97400 -1.44600 46.66900
O  44.28600 -2.47400 46.62400
C  46.43400 -1.60100 46.55000
N  46.25300 3.92400 46.44300
C  46.80200 2.76700 46.76000
C  48.36600 2.86900 46.64500
C  48.58400 4.40300 46.36800
C  47.18000 4.92900 46.43900
C  49.11200 2.27800 47.91900
C  49.25000 4.62900 44.96900
C  50.39600 5.63100 44.92900
N  44.59600 6.12900 46.96600
C  45.77500 6.83200 46.67900
C  45.54000 8.29000 46.83300
C  44.16800 8.36200 47.24300
C  43.61200 7.07000 47.24700
C  46.56300 9.43900 46.55400
C  43.09100 9.34100 47.52300
O  43.19800 10.56600 47.55500
C  41.78700 8.46200 47.66900
C  41.02700 8.76100 48.99400
O  41.10500 8.06200 50.04700
O  40.18800 9.84400 48.91000
C  39.23200 10.11300 50.06200
H  40.64700 1.43800 47.59400
H  46.95900 0.73400 47.06400
H  47.77800 6.88000 46.10200
H  39.80500 6.38300 48.39600
H  39.12800 3.74000 47.23800
H  39.27700 4.71200 49.95500
H  40.42800 3.39900 49.83700
H  38.74700 3.12900 49.30300
H  39.20600 7.42800 46.67600
H  38.12600 5.99200 46.69000
H  38.46600 5.68400 44.47400
H  40.14800 5.46400 44.92800
H  41.77800 -1.19200 45.65300
H  40.73800 -0.54900 47.00300
H  42.02700 -1.71400 47.36900
H  46.88700 -1.47800 47.53400
H  46.84600 -0.91000 45.81400
H  46.47500 -2.62000 46.16500
H  48.67700 2.18700 45.85400
H  49.15500 4.87000 47.17100
H  48.49800 1.79900 48.68200
H  49.50400 3.12900 48.47700
H  49.85400 1.50700 47.71200
H  48.57200 4.99300 44.19600
H  49.69500 3.73700 44.52900
H  50.21600 6.34400 44.12400
H  51.35300 5.11900 44.82800
H  50.42800 6.23800 45.83300
H  47.24000 9.15500 45.74800
H  47.13500 9.40800 47.48100
H  46.06600 10.37600 46.30000
H  41.09300 8.78800 46.89400
H  39.62100 10.93600 50.66200
H  39.09900 9.30000 50.77600
H  38.21800 10.35800 49.74500
Mg 48.60400 35.51500 27.90500
C  46.58200 34.29200 30.49500
C  49.33000 38.19600 30.05700
C  50.11800 37.00000 25.36300
C  47.49800 33.02300 25.82500
N  48.15800 36.03400 30.06600
C  47.39200 35.31400 30.93200
C  47.40900 35.88000 32.41600
C  48.05500 37.30900 32.15600
C  48.58400 37.14900 30.73000
C  47.12100 38.61300 32.23300
C  48.14100 35.01600 33.55300
C  49.52800 35.37600 34.15400
H  49.60600 36.16300 35.49300
N  49.70700 37.30600 27.69400
C  49.77200 38.28000 28.70800
C  50.34400 39.52800 28.08000
C  50.46500 39.28200 26.71500
C  50.04400 37.82400 26.52500
C  50.55100 40.89000 28.84500
C  50.99700 40.14300 25.59200
O  50.97900 39.74200 24.40700
C  51.55200 41.47900 25.92400
N  48.90500 35.02400 25.98500
C  49.63600 35.70400 25.10300
C  49.78300 35.07400 23.72100
C  48.83100 33.85600 23.82100
C  48.28700 33.97500 25.28700
C  49.34300 35.93400 22.64400
C  49.41800 32.42700 23.51200
C  49.16400 32.05200 22.06300
N  47.36900 33.93500 28.06700
C  47.05600 33.00700 27.16000
C  46.05600 32.10700 27.69800
C  45.74300 32.68600 28.99400
C  46.63000 33.70300 29.20900
C  45.37000 31.03500 27.02300
C  44.98400 32.53800 30.19700
O  44.18200 31.71200 30.49500
C  45.48300 33.59900 31.25100
C  45.82600 32.87400 32.47300
O  46.66400 32.05000 32.52300
O  44.93400 33.21300 33.51300
C  45.47000 32.54100 34.77800
H  49.64700 39.06400 30.64000
H  50.53900 37.47200 24.47300
H  47.06100 32.33200 25.10100
H  46.37900 35.94200 32.76800
H  48.98200 37.42400 32.71800
H  47.22500 39.18200 31.30900
H  47.34400 39.17300 33.14100
H  46.06100 38.36100 32.25700
H  48.46800 34.02700 33.23100
H  47.40700 34.75300 34.31400
H  50.18100 35.88300 33.44400
H  50.10500 34.45700 34.26400
H  50.32800 41.68900 28.13800
H  51.62200 40.72700 28.96100
H  49.93700 40.95900 29.74300
H  50.74700 42.14100 26.24400
H  51.88500 41.90000 24.97600
H  52.28500 41.32600 26.71600
H  50.80300 34.73700 23.53900
H  47.91800 33.97800 23.23800
H  48.89900 36.81600 23.10500
H  48.72600 35.47200 21.87300
H  50.23200 36.38000 22.19800
H  48.98600 31.70200 24.20100
H  50.50500 32.44800 23.44000
H  49.03400 32.86900 21.35400
H  48.36700 31.32000 21.93100
H  50.03100 31.58800 21.59200
H  45.16500 30.20900 27.70500
H  45.90500 30.71800 26.12800
H  44.34800 31.31400 26.76400
H  44.68700 34.28900 31.53100
H  45.56600 31.45500 34.77600
H  44.83200 32.90100 35.58500
H  46.47300 32.89700 35.01500

