158

Mg 42.36500 42.20200 26.31700
C  41.54300 44.46300 28.89300
C  43.46900 39.96900 28.71900
C  43.64400 40.30400 23.77500
C  41.91500 44.83900 24.04200
N  42.64500 42.27800 28.56800
C  42.06700 43.24700 29.36900
C  42.06400 42.75200 30.83500
C  42.86500 41.40100 30.77800
C  42.92600 41.13400 29.26300
C  44.21900 41.41700 31.58400
C  40.59000 42.65100 31.23400
C  40.23600 42.77600 32.73000
H  41.18500 43.12400 33.88300
N  43.26400 40.26200 26.25800
C  43.69600 39.55400 27.36100
C  44.20200 38.29700 26.86700
C  44.08300 38.22700 25.40400
C  43.60900 39.64700 25.06200
C  44.75400 37.22800 27.79700
C  44.38200 37.18100 24.43000
O  44.04200 37.23800 23.24700
C  45.08000 35.90900 24.90000
N  42.93400 42.57600 24.28100
C  43.34700 41.57300 23.42000
C  43.23700 41.96400 21.95800
C  42.41500 43.30000 22.02400
C  42.43900 43.68500 23.49200
C  44.59000 41.92900 21.13700
C  41.02500 43.19600 21.45700
C  40.02600 42.31500 22.28400
N  41.85800 44.23600 26.35500
C  41.76500 45.20900 25.36800
C  41.23200 46.48700 25.92900
C  41.08700 46.18100 27.24400
C  41.52700 44.86600 27.47900
C  40.87300 47.64100 25.05700
C  40.68000 46.71600 28.51400
O  40.17400 47.79800 28.76600
C  41.01700 45.61500 29.61000
C  41.89000 46.12300 30.72900
O  42.97600 46.63600 30.54200
O  41.40600 45.86800 32.05400
C  42.20700 46.46600 33.11800
H  43.68100 39.20000 29.46500
H  43.90800 39.60800 22.97600
H  41.85100 45.50200 23.17600
H  42.58800 43.42200 31.51600
H  42.22700 40.57500 31.09400
H  44.92700 40.68400 31.19500
H  44.01200 41.12600 32.61400
H  44.64000 42.42000 31.64700
H  40.34400 41.60000 31.08200
H  39.97900 43.32800 30.63700
H  39.62900 41.90200 32.96400
H  39.61300 43.67000 32.68100
H  45.74900 36.86900 27.53600
H  44.17600 36.30400 27.79600
H  44.93000 37.61900 28.80000
H  44.45800 35.34100 25.59200
H  45.97500 36.14300 25.47700
H  45.42500 35.31100 24.05600
H  42.63700 41.20300 21.46100
H  42.98000 44.12200 21.58600
H  45.39200 41.46100 21.70700
H  44.95800 42.90500 20.82200
H  44.47500 41.30400 20.25100
H  41.03900 42.78700 20.44700
H  40.53500 44.16400 21.35400
H  39.52600 42.98700 22.98200
H  40.54500 41.55900 22.87200
H  39.27500 41.79000 21.69400
H  40.38400 48.36700 25.70700
H  40.26100 47.30300 24.22100
H  41.81900 48.11800 24.80000
H  40.06900 45.44500 30.12000
H  42.48200 47.47700 32.81900
H  43.12500 45.95600 33.41000
H  41.63900 46.48000 34.04800
Mg 9.62000 47.43100 25.74200
C  7.29700 47.29100 28.53600
C  11.96600 48.37100 27.92800
C  11.63100 47.32700 23.13900
C  6.82900 46.90100 23.58000
N  9.57700 47.85000 28.05400
C  8.57400 47.59400 28.98000
C  9.13400 47.75900 30.41000
C  10.53900 48.34800 30.13800
C  10.70900 48.26100 28.59600
C  10.58400 49.86000 30.64700
C  9.02700 46.53000 31.35000
C  9.91400 46.40400 32.55500
H  9.27600 45.80700 33.86800
N  11.50300 47.94700 25.54200
C  12.29200 48.33100 26.59200
C  13.65500 48.53500 26.05500
C  13.58000 48.13200 24.63800
C  12.18800 47.76600 24.37500
C  14.93900 48.74000 26.85900
C  14.70900 48.08900 23.57900
O  14.43800 47.73900 22.45800
C  16.13000 48.39600 23.89200
N  9.24300 47.48200 23.62600
C  10.31100 47.28500 22.79500
C  9.69200 47.05000 21.32800
C  8.20000 47.05200 21.50800
C  8.07200 46.98200 22.98000
C  10.20400 48.16300 20.36400
C  7.60500 45.83600 20.74600
C  7.84300 45.76300 19.25600
N  7.52200 47.14300 25.97000
C  6.48200 46.97900 24.99200
C  5.21400 46.90000 25.66600
C  5.52100 47.00800 27.02400
C  6.91900 47.10400 27.18200
C  3.78500 46.80300 25.06000
C  4.92900 47.13000 28.28400
O  3.74300 47.11300 28.56700
C  6.01400 47.16000 29.32800
C  5.99300 45.91900 30.05100
O  6.48600 44.78700 29.75700
O  5.24300 46.14800 31.22600
C  4.97500 45.10300 32.19300
H  12.80100 48.62100 28.58600
H  12.19500 47.07100 22.23900
H  5.92800 46.89100 22.96300
H  8.55400 48.57800 30.83400
H  11.30000 47.82900 30.72100
H  10.45300 50.63800 29.89500
H  11.52000 50.06100 31.16800
H  9.83300 49.98900 31.42600
H  9.13300 45.63300 30.74000
H  7.99800 46.58900 31.70200
H  10.43100 47.32100 32.83900
H  10.61900 45.63100 32.24900
H  14.71500 48.72200 27.92600
H  15.49900 49.66400 26.71600
H  15.81200 48.11900 26.65800
H  16.45500 48.84300 22.95300
H  16.62800 47.53000 24.32700
H  16.10000 49.21300 24.61200
H  10.05500 46.04300 21.12200
H  7.72700 47.91100 21.03300
H  11.06400 48.59400 20.87700
H  9.43200 48.92700 20.26500
H  10.53900 47.81000 19.38900
H  6.53400 45.69400 20.89300
H  8.08800 44.95700 21.17200
H  7.77700 46.63800 18.60900
H  7.04600 45.11100 18.90000
H  8.79800 45.29200 19.02600
H  3.89000 46.50300 24.01800
H  3.10800 47.63100 25.26800
H  3.31200 46.07900 25.72400
H  5.87400 47.99400 30.01600
H  3.94400 44.77800 32.33300
H  5.37600 45.51700 33.11800
H  5.49300 44.16500 31.99300

