158

Mg 35.48000 0.79500 29.29200
C  33.38500 1.95000 31.88300
C  37.96800 0.77800 31.51300
C  37.45000 0.06100 26.79900
C  32.73000 1.19400 26.98600
N  35.65900 1.42800 31.48300
C  34.59800 1.66600 32.37000
C  35.05100 1.75600 33.83400
C  36.55900 1.24900 33.69400
C  36.77500 1.16800 32.11300
C  37.66700 2.08000 34.41700
C  34.25800 0.82600 34.74800
C  33.67200 1.46800 36.00000
H  34.70300 2.30500 36.84100
N  37.45200 0.42300 29.16900
C  38.37000 0.46700 30.18700
C  39.63500 -0.10000 29.70600
C  39.54100 -0.16300 28.31800
C  38.13200 0.11100 28.05300
C  40.73400 -0.43000 30.65800
C  40.54100 -0.48700 27.25600
O  40.27200 -0.60400 26.06700
C  41.85100 -0.81200 27.82100
N  35.14700 0.70400 27.18600
C  36.19800 0.43800 26.34900
C  35.67500 0.48500 24.82900
C  34.09500 0.51900 24.97400
C  33.94800 0.79200 26.46300
C  36.35500 1.60700 24.00800
C  33.46700 -0.81000 24.50100
C  32.83000 -0.71800 23.12100
N  33.50100 1.37500 29.41500
C  32.52500 1.50400 28.41100
C  31.31500 2.03500 28.96700
C  31.59300 2.23700 30.39100
C  32.90900 1.84500 30.54300
C  30.04500 2.24500 28.22700
C  31.08800 2.67200 31.67600
O  29.99100 3.12100 31.98100
C  32.27400 2.60700 32.69000
C  32.53100 3.91900 33.08700
O  32.97400 4.85800 32.43400
O  32.18900 3.99200 34.42600
C  32.31500 5.28800 35.09700
H  38.79800 0.44100 32.13800
H  37.86000 -0.34000 25.87000
H  31.90000 1.05500 26.28900
H  35.13400 2.77900 34.20000
H  36.69200 0.22300 34.03700
H  38.29400 2.60000 33.69300
H  38.19500 1.61700 35.25100
H  37.20200 2.91200 34.94700
H  34.89400 0.02000 35.11200
H  33.46600 0.29300 34.22200
H  33.14200 0.71700 36.58600
H  32.80500 2.08000 35.75300
H  41.53500 0.29500 30.80200
H  41.04900 -1.40700 30.29200
H  40.28300 -0.72900 31.60400
H  42.11800 0.08800 28.37400
H  42.57500 -1.03900 27.03900
H  41.79400 -1.71600 28.42800
H  36.03000 -0.43000 24.35300
H  33.82900 1.39300 24.38000
H  36.96900 1.25200 23.18100
H  37.02300 2.09100 24.72100
H  35.62600 2.39000 23.79700
H  32.68800 -1.00600 25.23800
H  34.06200 -1.70600 24.67700
H  33.46900 -0.06100 22.53100
H  31.76200 -0.50200 23.08400
H  32.90400 -1.70900 22.67200
H  29.25300 2.58600 28.89300
H  29.84600 1.31400 27.69700
H  30.14100 2.99900 27.44500
H  31.94000 1.93400 33.48000
H  32.90000 6.05300 34.58700
H  32.64600 5.04100 36.10600
H  31.37100 5.78600 35.31600
Mg 52.73900 24.20600 44.86600
C  49.90300 26.27300 43.86000
C  51.06600 21.64900 43.26300
C  55.50900 22.56000 45.03000
C  54.38500 27.18600 45.74300
N  50.71800 24.03700 43.61400
C  49.80900 24.95400 43.33300
C  48.75400 24.47700 42.33600
C  48.82800 22.91300 42.53600
C  50.26100 22.80600 43.17100
C  47.60100 22.22300 43.28200
C  49.17900 24.92200 40.88000
C  47.95000 25.02200 40.00200
H  47.53700 23.77000 39.18500
N  53.20500 22.33700 44.28200
C  52.37000 21.39000 43.72900
C  53.03600 20.12800 43.68600
C  54.36000 20.35100 44.18300
C  54.44700 21.80600 44.52800
C  52.29400 18.82300 43.24300
C  55.46800 19.28600 44.22400
O  55.26500 18.18000 43.72600
C  56.80300 19.55800 44.96100
N  54.63200 24.75600 45.43100
C  55.65600 23.86900 45.43800
C  56.97100 24.45800 45.89400
C  56.60600 25.97900 45.83400
C  55.10600 25.97300 45.69800
C  57.54400 23.83800 47.29500
C  57.31600 26.68600 44.69700
C  58.30600 27.76400 45.07500
N  52.24700 26.26700 44.91600
C  52.96600 27.35800 45.43400
C  52.23500 28.45800 45.48100
C  50.93000 28.11800 44.98700
C  51.05300 26.77100 44.59400
C  52.80500 29.74900 46.09900
C  49.59600 28.57200 44.69500
O  49.02800 29.63800 44.98400
C  48.91900 27.43400 43.91600
C  48.38000 27.93900 42.58200
O  49.07100 28.27400 41.54600
O  47.00400 28.17900 42.67100
C  46.43300 28.53600 41.37400
H  50.45200 20.80400 42.94500
H  56.47700 22.06300 45.12600
H  54.87600 28.13800 45.95700
H  47.76700 24.83000 42.63600
H  48.68900 22.53800 41.52200
H  46.71000 22.81500 43.49000
H  47.91600 21.69500 44.18200
H  47.24600 21.49700 42.55100
H  49.88700 24.13000 40.63500
H  49.86500 25.76900 40.92100
H  47.97600 25.87600 39.32600
H  47.00400 25.16400 40.52500
H  52.57900 18.70100 42.19800
H  51.20800 18.79200 43.33200
H  52.72700 18.00200 43.81500
H  57.41000 20.04800 44.20000
H  57.29200 18.61800 45.21600
H  56.70400 20.20900 45.83000
H  57.60000 24.17400 45.05100
H  56.78000 26.49900 46.77600
H  57.33800 24.42600 48.19000
H  58.63000 23.74800 47.29100
H  57.06700 22.92000 47.63800
H  56.59200 27.09600 43.99300
H  57.87500 25.97100 44.09200
H  59.31700 27.61800 44.69500
H  58.54400 27.73100 46.13800
H  58.02200 28.75800 44.72900
H  53.61600 30.14100 45.48500
H  53.26100 29.43600 47.03900
H  52.07200 30.53300 46.28700
H  47.98300 27.14700 44.39600
H  45.37400 28.69600 41.57400
H  46.60900 27.70800 40.68700
H  46.84700 29.47300 41.00300

