158

Mg 0.79100 42.79400 26.79000
C  2.90600 42.69400 29.61600
C  -1.83200 42.12900 29.09700
C  -1.24700 42.45100 24.21100
C  3.47900 43.37400 24.84000
N  0.62200 42.50700 29.07100
C  1.60800 42.66500 30.05300
C  1.09500 42.60900 31.48100
C  -0.39200 42.22600 31.22300
C  -0.55400 42.27200 29.64600
C  -0.95500 40.90300 31.82300
C  1.41200 43.88900 32.20300
C  1.36400 43.77200 33.74400
H  1.03800 42.49600 34.53000
N  -1.23400 42.19000 26.62000
C  -2.14800 42.13700 27.66800
C  -3.45100 41.86400 27.13700
C  -3.33400 41.90900 25.66100
C  -1.91800 42.18600 25.43500
C  -4.75300 41.72400 27.96000
C  -4.37800 41.64600 24.56100
O  -4.10000 41.44400 23.34400
C  -5.89600 41.39800 24.94600
N  1.07500 42.82900 24.76600
C  0.03700 42.79800 23.85800
C  0.58200 42.88200 22.38200
C  2.14100 43.21300 22.61800
C  2.25300 43.12500 24.14000
C  0.26100 41.61300 21.53900
C  2.70600 44.51200 21.94700
C  2.37800 45.91200 22.64900
N  2.74800 43.05000 27.10400
C  3.74500 43.25900 26.21900
C  5.05000 43.30200 26.87400
C  4.77100 42.97900 28.19000
C  3.36700 42.83600 28.27100
C  6.32500 43.67600 26.23200
C  5.39800 42.82300 29.49100
O  6.58200 42.87200 29.80100
C  4.15900 42.67600 30.52800
C  4.24300 41.46600 31.40600
O  4.12600 40.32000 31.01200
O  4.57400 41.83900 32.68400
C  4.79700 40.68500 33.52700
H  -2.65300 42.05500 29.81400
H  -1.96400 42.62900 23.40600
H  4.33800 43.67200 24.23600
H  1.44300 41.70600 31.98300
H  -0.96000 43.09100 31.56700
H  -1.30100 40.29700 30.98600
H  -1.82700 41.20700 32.40300
H  -0.22600 40.33500 32.40100
H  0.58700 44.56200 31.97200
H  2.36400 44.29000 31.85600
H  0.91600 44.67000 34.17000
H  2.39600 44.07100 33.93200
H  -5.43400 40.97100 27.56300
H  -5.14400 42.73900 28.04000
H  -4.46700 41.40700 28.96300
H  -5.96900 40.39400 25.36500
H  -6.42300 41.41700 23.99300
H  -6.42500 42.17000 25.50500
H  0.11500 43.70800 21.84600
H  2.60000 42.34600 22.14200
H  -0.14400 40.79700 22.13700
H  1.22700 41.37300 21.09300
H  -0.61300 41.79500 20.91500
H  2.32200 44.56800 20.92800
H  3.75500 44.21600 21.97200
H  3.37300 46.24700 22.94100
H  1.81300 45.73600 23.56400
H  1.81800 46.58200 21.99600
H  6.24400 44.55900 25.59900
H  6.73800 42.84300 25.66400
H  6.89900 43.95300 27.11700
H  4.08800 43.50700 31.23000
H  5.81200 40.32300 33.36300
H  4.07500 39.87200 33.44700
H  4.89200 41.02800 34.55800
Mg -6.71800 25.72600 25.40000
C  -5.35000 27.14200 28.39200
C  -8.66300 23.74300 27.39300
C  -7.90500 24.11700 22.61600
C  -4.70600 27.75500 23.51400
N  -6.91100 25.44400 27.62900
C  -6.27500 26.12300 28.69100
C  -6.79800 25.62800 29.98900
C  -7.69700 24.44600 29.60200
C  -7.73200 24.46800 28.10100
C  -7.29900 23.00700 30.21700
C  -7.50200 26.76900 30.88200
C  -8.18300 26.29900 32.19900
H  -7.55500 25.12700 33.03600
N  -8.18700 24.24300 25.01200
C  -8.88600 23.57400 26.00100
C  -9.81200 22.59600 25.39600
C  -9.60100 22.70600 23.96400
C  -8.53400 23.71200 23.80800
C  -10.68400 21.64400 26.21900
C  -10.22300 21.85800 22.84700
O  -9.89200 22.05100 21.63000
C  -11.08500 20.71600 23.13200
N  -6.31100 25.86500 23.37500
C  -6.85000 25.05600 22.38500
C  -6.37100 25.43100 20.95700
C  -5.36800 26.62100 21.25400
C  -5.42500 26.73500 22.80100
C  -5.80100 24.23000 20.09300
C  -5.52800 27.97700 20.47000
C  -6.68900 29.04200 20.93000
N  -5.29600 27.19300 25.85500
C  -4.55300 27.92600 24.96000
C  -3.75200 28.84200 25.73100
C  -3.95400 28.55400 27.05900
C  -4.89500 27.47600 27.12100
C  -2.92900 29.95900 25.13200
C  -3.66100 28.89200 28.46700
O  -2.89800 29.77400 28.91300
C  -4.51600 27.93900 29.41400
C  -3.54100 27.15500 30.24400
O  -2.69800 26.34600 29.90900
O  -3.70900 27.47300 31.55600
C  -2.81100 26.75600 32.47400
H  -9.26200 23.08500 28.02600
H  -8.15200 23.51900 21.73600
H  -3.99300 28.26200 22.86000
H  -5.90900 25.26000 30.50200
H  -8.68000 24.67100 30.01600
H  -6.22200 22.85900 30.28500
H  -7.52900 22.14900 29.58500
H  -7.75900 22.97400 31.20500
H  -8.33700 27.26000 30.38100
H  -6.74900 27.50100 31.17500
H  -9.24600 26.14700 32.01200
H  -8.12300 27.19500 32.81600
H  -10.40900 20.64100 25.89200
H  -11.71400 21.81700 25.90800
H  -10.55700 21.67400 27.30100
H  -11.95700 21.10000 23.66200
H  -10.70500 19.88200 23.72200
H  -11.51700 20.30000 22.22200
H  -7.20100 25.86600 20.39900
H  -4.37200 26.25600 21.00400
H  -5.91200 23.26800 20.59300
H  -4.72300 24.35300 19.99500
H  -6.24900 24.20000 19.09900
H  -5.82800 27.66300 19.47000
H  -4.56200 28.48100 20.43400
H  -7.26700 28.61000 21.74700
H  -7.34800 29.03800 20.06200
H  -6.49600 30.09100 21.15500
H  -3.65000 30.44100 24.47100
H  -2.03100 29.68700 24.57700
H  -2.58200 30.68000 25.87200
H  -4.98800 28.64700 30.09600
H  -2.87800 27.22100 33.45700
H  -1.80400 26.75200 32.05800
H  -3.07200 25.69800 32.44300

