158

Mg -2.72600 16.99300 26.15900
C  -3.17200 14.88700 28.85600
C  -2.99500 19.67400 28.31100
C  -2.40000 19.03600 23.47500
C  -2.52600 14.31900 23.97200
N  -3.09900 17.19000 28.28700
C  -3.24200 16.17000 29.23500
C  -3.27900 16.79600 30.65900
C  -3.57800 18.31100 30.37900
C  -3.12000 18.42500 28.91200
C  -5.03900 18.65700 30.66000
C  -2.03200 16.36400 31.62100
C  -1.68100 17.28800 32.77600
H  -1.04800 16.67200 34.06800
N  -2.66900 19.07600 25.96400
C  -2.75600 20.05000 26.97200
C  -2.85200 21.34400 26.31600
C  -2.49200 21.13800 24.95300
C  -2.49400 19.68500 24.74600
C  -3.06200 22.57800 27.21200
C  -2.19200 22.23000 23.95100
O  -1.70800 21.92400 22.87600
C  -2.38600 23.71300 24.34600
N  -2.48500 16.64800 24.07400
C  -2.41200 17.72000 23.20900
C  -2.37700 17.23700 21.72300
C  -2.55300 15.72800 21.86300
C  -2.38600 15.49900 23.39500
C  -3.34800 17.99200 20.83100
C  -1.82300 14.82700 20.83800
C  -2.74800 14.35100 19.64100
N  -2.85100 14.96800 26.29600
C  -2.69600 14.01900 25.34800
C  -2.87100 12.73900 25.95400
C  -3.07000 13.01300 27.32400
C  -3.02300 14.39200 27.47200
C  -2.68300 11.45100 25.24600
C  -3.24800 12.34400 28.59200
O  -3.38600 11.16600 28.81500
C  -3.34700 13.57700 29.65300
C  -2.22400 13.33900 30.64500
O  -1.04900 13.59600 30.50100
O  -2.76400 12.76500 31.76500
C  -1.86100 12.53600 32.95600
H  -2.90600 20.41400 29.10900
H  -2.44400 19.71500 22.62200
H  -2.58500 13.43500 23.33400
H  -4.08400 16.20300 31.09400
H  -2.92000 18.90300 31.01600
H  -5.56400 17.86200 31.18900
H  -5.50100 18.82300 29.68700
H  -5.26100 19.59600 31.16700
H  -1.07900 16.26500 31.10000
H  -2.33700 15.43100 32.09400
H  -2.67300 17.62100 33.08200
H  -1.11600 18.13600 32.39000
H  -2.15700 23.16700 27.36200
H  -3.43900 22.34100 28.20700
H  -3.79000 23.25000 26.76000
H  -2.37400 24.27700 23.41300
H  -1.53300 24.08600 24.91200
H  -3.30300 24.01900 24.85100
H  -1.36600 17.42000 21.35900
H  -3.60700 15.56700 21.63500
H  -3.98900 18.76300 21.26200
H  -3.83300 17.27700 20.16600
H  -2.82000 18.67500 20.16700
H  -1.26000 14.03400 21.33200
H  -1.06700 15.33500 20.24000
H  -2.54600 15.05700 18.83600
H  -3.76900 14.41700 20.01700
H  -2.53500 13.32800 19.33100
H  -3.34100 11.34200 24.38400
H  -2.87300 10.62700 25.93300
H  -1.62400 11.50700 24.99500
H  -4.35300 13.62900 30.06900
H  -1.37700 11.56700 32.83000
H  -2.40800 12.41500 33.89100
H  -1.01500 13.22200 32.97400
Mg 42.91000 4.24800 46.45600
C  40.90800 7.15900 46.34000
C  39.81600 2.37100 46.45100
C  44.52800 1.54700 45.62700
C  45.63400 6.21300 46.18000
N  40.52000 4.72600 46.58100
C  40.03300 6.00200 46.42200
C  38.42200 5.99400 46.60300
C  38.23900 4.39100 47.01400
C  39.58800 3.75700 46.65800
C  37.89000 4.13600 48.45500
C  37.59700 6.39700 45.31000
C  37.93200 5.63000 44.08600
H  38.51100 6.36700 42.93800
N  42.29100 2.30700 46.01500
C  41.03600 1.75600 46.11600
C  41.11100 0.40000 45.61600
C  42.45400 0.18300 45.19300
C  43.14000 1.38200 45.59500
C  39.86800 -0.49500 45.33700
C  42.97100 -0.98100 44.35600
O  42.28000 -2.01800 44.19800
C  44.35500 -1.06100 43.77000
N  44.83700 3.98000 45.68000
C  45.37100 2.67300 45.77300
C  46.94000 2.61500 45.82000
C  47.17500 4.17800 46.08700
C  45.80300 4.86300 45.96800
C  47.56600 1.60000 46.87500
C  48.27300 4.87000 45.17800
C  49.14800 5.87700 45.89700
N  43.32500 6.30400 46.31100
C  44.48100 6.94900 46.26600
C  44.25400 8.33700 46.50500
C  42.86600 8.53200 46.37600
C  42.35500 7.17000 46.29200
C  45.23400 9.47800 46.62400
C  41.78600 9.47500 46.31100
O  41.80700 10.71700 46.40000
C  40.51600 8.66200 46.32200
C  39.64000 9.04200 47.46000
O  39.89000 8.88000 48.60800
O  38.42400 9.50900 46.98600
C  37.33700 9.74600 47.99600
H  38.88800 1.80200 46.37700
H  45.09900 0.64900 45.38100
H  46.50900 6.86600 46.16000
H  38.09500 6.66700 47.39500
H  37.46600 3.99300 46.35600
H  38.69600 3.74400 49.07500
H  37.03400 3.46500 48.53200
H  37.54400 5.08700 48.85800
H  37.70300 7.46700 45.12900
H  36.53500 6.23400 45.49400
H  37.08000 5.01700 43.79400
H  38.66000 4.83300 44.23600
H  39.88400 -0.75500 44.27800
H  38.95800 -0.03600 45.72300
H  40.05200 -1.46100 45.80600
H  45.11000 -1.25600 44.53000
H  44.60500 -0.10500 43.31100
H  44.43400 -1.80600 42.97800
H  47.26000 2.29500 44.82900
H  47.43000 4.36800 47.13000
H  46.79200 0.90800 47.20800
H  47.76700 2.20300 47.76100
H  48.43500 1.15700 46.38700
H  47.73200 5.40400 44.39800
H  48.87900 4.14600 44.63300
H  50.17400 5.53200 45.76900
H  49.05200 5.97100 46.97900
H  49.03800 6.91800 45.59300
H  45.78300 9.39300 45.68600
H  46.01100 9.29700 47.36700
H  44.70800 10.42800 46.71300
H  40.05300 8.84800 45.35300
H  36.74400 10.57400 47.60700
H  37.73700 10.27600 48.86000
H  36.89700 8.78200 48.24800

