158

Mg 35.81700 1.10000 29.63000
C  33.91700 3.04600 31.96900
C  38.38500 1.25400 31.83600
C  37.71500 -0.20800 27.20000
C  33.23600 1.54800 27.31700
N  36.09400 2.07300 31.65100
C  35.11000 2.64100 32.50100
C  35.61200 2.71800 33.92600
C  37.10600 2.33100 33.79400
C  37.16800 1.72300 32.37400
C  38.09900 3.46900 33.91100
C  34.64300 1.76800 34.74600
C  34.22800 2.12200 36.17900
H  34.68300 3.45300 36.91500
N  37.79600 0.51000 29.54900
C  38.67800 0.80800 30.55100
C  39.97600 0.33600 30.17400
C  39.86700 -0.07500 28.80000
C  38.43200 0.03700 28.42400
C  41.28100 0.49200 30.97400
C  41.00400 -0.45700 27.80500
O  40.66700 -0.72400 26.67700
C  42.48400 -0.58400 28.20600
N  35.55000 0.77800 27.58900
C  36.45900 0.13300 26.78200
C  35.98100 -0.00700 25.30800
C  34.47800 0.24400 25.56100
C  34.42100 0.91900 26.89900
C  36.60900 1.08300 24.38300
C  33.57700 -1.02100 25.46900
C  32.65800 -1.03000 24.23500
N  33.92400 2.04600 29.59600
C  32.99200 2.16100 28.59200
C  31.77200 2.75900 29.13500
C  32.12000 3.16200 30.40800
C  33.42100 2.70000 30.68700
C  30.43700 3.03000 28.41400
C  31.65000 3.94700 31.52500
O  30.53500 4.46200 31.65500
C  32.71900 3.76100 32.64800
C  33.13300 5.05400 33.18800
O  33.78000 5.88700 32.58900
O  32.51300 5.19400 34.34200
C  32.77100 6.52500 34.95000
H  39.14800 1.16300 32.61100
H  38.31900 -0.44200 26.32000
H  32.40800 1.49800 26.60700
H  35.52300 3.71900 34.34700
H  37.35300 1.54800 34.51100
H  37.69000 4.30100 34.48400
H  38.55400 3.65800 32.93900
H  38.91400 3.09100 34.52800
H  35.19000 0.83100 34.85300
H  33.75800 1.50600 34.16500
H  34.51800 1.29200 36.82500
H  33.13900 2.08200 36.15900
H  41.04900 0.82700 31.98500
H  41.71000 1.35300 30.46100
H  41.97300 -0.35000 30.97800
H  42.98400 -1.14300 27.41500
H  42.55800 -1.12600 29.14900
H  42.94300 0.40000 28.29400
H  36.25100 -0.98600 24.91300
H  34.24800 1.01700 24.82800
H  37.65800 0.83700 24.21800
H  36.58900 1.96900 25.01800
H  36.14000 1.24600 23.41300
H  32.85500 -1.09200 26.28300
H  34.15600 -1.93800 25.57200
H  32.52600 0.02100 23.97900
H  31.67900 -1.45000 24.46500
H  33.12700 -1.56200 23.40700
H  30.57100 3.80900 27.66300
H  29.68100 3.25500 29.16600
H  30.19500 2.03400 28.04400
H  32.25200 3.19100 33.45200
H  31.95200 7.20800 34.72300
H  33.69700 7.09500 34.87700
H  32.65200 6.40000 36.02700
Mg 30.28700 57.63400 40.58800
C  27.53900 55.68200 40.01400
C  32.30200 55.16600 39.38200
C  32.87400 59.76700 40.65000
C  28.10500 60.41500 41.16400
N  29.93400 55.64400 39.90300
C  28.70400 55.01000 39.69900
C  28.89400 53.70800 38.93800
C  30.43700 53.41100 39.22900
C  30.96200 54.86300 39.53300
C  30.83200 52.41700 40.25300
C  28.59400 53.84100 37.42900
C  27.43600 53.13400 36.74100
H  26.75500 53.88600 35.56600
N  32.35300 57.43300 40.14200
C  32.99100 56.34800 39.72300
C  34.32200 56.54000 39.48800
C  34.52700 57.91700 39.94200
C  33.20000 58.46000 40.25700
C  35.29500 55.50300 38.84900
C  35.91300 58.50000 39.87900
O  36.90500 57.93800 39.40200
C  36.11500 59.83700 40.29100
N  30.51000 59.86500 40.79500
C  31.72200 60.44100 40.99300
C  31.54800 61.84100 41.38500
C  29.99100 61.93300 41.78300
C  29.49400 60.68700 41.17500
C  32.47100 62.29800 42.49800
C  29.23500 63.17800 41.23100
C  28.66500 63.94900 42.38200
N  28.25300 57.99400 40.73200
C  27.51200 59.15500 40.95000
C  26.13600 58.88500 40.83300
C  26.07400 57.45500 40.54000
C  27.37000 57.00700 40.47500
C  25.09700 59.90500 40.93500
C  25.20600 56.33100 40.31000
O  23.99400 56.32800 40.15600
C  26.09800 55.18200 39.83900
C  25.81300 53.98100 40.71500
O  25.82300 53.95000 41.91300
O  25.41000 52.91300 39.93400
C  24.84100 51.75800 40.66100
H  32.80600 54.34600 38.86600
H  33.70100 60.47800 40.59400
H  27.42500 61.18600 41.53300
H  28.26700 52.96900 39.43600
H  30.87000 53.15500 38.26200
H  31.22100 51.50900 39.79100
H  29.94700 52.21200 40.85500
H  31.49200 52.83300 41.01500
H  29.49100 53.52500 36.89700
H  28.35900 54.88900 37.24200
H  26.71400 52.75500 37.46400
H  27.96100 52.25200 36.37500
H  35.79300 55.99300 38.01200
H  34.77400 54.57100 38.63000
H  36.02400 55.17300 39.58900
H  35.69900 60.00600 41.28500
H  35.97200 60.59900 39.52500
H  37.18600 59.78100 40.48500
H  31.66700 62.40800 40.46200
H  29.87600 61.78700 42.85700
H  33.16900 62.98900 42.02600
H  33.11400 61.48800 42.84400
H  31.86700 62.75100 43.28400
H  28.42700 63.10200 40.50300
H  29.97800 63.85100 40.80200
H  27.70800 63.57400 42.74500
H  28.52300 64.97700 42.04800
H  29.33800 63.88600 43.23700
H  24.15400 59.56600 40.50500
H  25.32900 60.76100 40.30200
H  24.88600 60.14600 41.97800
H  25.81900 54.82400 38.84800
H  23.76800 51.62400 40.52200
H  24.98500 51.80900 41.74000
H  25.28300 50.85700 40.23400

