158

Mg 2.80400 -0.41100 43.73600
C  6.13500 0.00300 42.94200
C  2.09800 2.18200 41.64800
C  -0.43800 -1.45000 43.72800
C  3.73300 -3.25900 45.60200
N  3.99400 1.00400 42.56200
C  5.31500 0.96100 42.35000
C  5.83200 2.10000 41.48800
C  4.53200 3.01200 41.51400
C  3.43600 2.04100 41.94500
C  4.63200 4.21100 42.49900
C  6.20900 1.57400 40.04600
C  7.13100 2.55300 39.32400
H  6.74900 2.89500 37.87700
N  1.02900 0.35200 42.93400
C  0.96100 1.42500 42.04400
C  -0.34600 1.75700 41.64600
C  -1.15400 0.76300 42.30500
C  -0.18900 -0.23300 42.97100
C  -0.76000 2.94100 40.73500
C  -2.62300 0.64800 42.14100
O  -3.24400 1.30400 41.38400
C  -3.31500 -0.29300 42.97300
N  1.77200 -2.38700 44.25300
C  0.42400 -2.36400 44.33000
C  0.01200 -3.60900 45.11400
C  1.27200 -4.03900 45.91400
C  2.35100 -3.23000 45.24100
C  -1.26100 -3.44200 45.99800
C  1.54400 -5.50200 45.94000
C  1.50800 -6.24700 47.30600
N  4.59200 -1.42400 44.20700
C  4.80400 -2.55800 44.96600
C  6.30100 -2.76200 45.04500
C  6.84000 -1.73900 44.27400
C  5.75900 -1.02300 43.80600
C  6.94800 -3.77400 45.93200
C  8.08600 -1.14200 43.79900
O  9.24700 -1.33900 44.12600
C  7.66400 0.03100 42.84900
C  8.23400 1.26900 43.45800
O  7.79500 1.72700 44.52200
O  9.07900 1.88600 42.53400
C  9.35500 3.25300 43.01600
H  1.94600 3.00300 40.94500
H  -1.47200 -1.73400 43.93700
H  3.97100 -4.04300 46.32500
H  6.69600 2.63900 41.87800
H  4.47100 3.44200 40.51400
H  5.51400 4.18600 43.13900
H  3.73200 4.36700 43.09300
H  4.57500 5.07400 41.83500
H  5.36100 1.35600 39.39800
H  6.66400 0.58600 40.12600
H  8.19300 2.32300 39.23400
H  7.15800 3.45800 39.93100
H  -1.37700 3.58300 41.36300
H  -1.31700 2.62300 39.85400
H  0.06500 3.56900 40.39800
H  -4.38800 -0.16000 42.83400
H  -3.13900 -0.20800 44.04600
H  -2.93500 -1.25300 42.62400
H  -0.24200 -4.40600 44.41500
H  1.34100 -3.68800 46.94400
H  -2.14200 -3.85800 45.50800
H  -1.35100 -2.41000 46.33500
H  -1.07700 -3.99200 46.92100
H  2.50800 -5.68000 45.46300
H  0.82000 -5.97300 45.27600
H  1.23900 -5.62300 48.15800
H  2.43600 -6.78600 47.49700
H  0.76300 -7.03600 47.20400
H  8.03800 -3.77200 45.91000
H  6.63800 -4.79400 45.70600
H  6.63900 -3.55700 46.95500
H  8.13800 -0.20600 41.89600
H  9.68400 3.02000 44.02900
H  8.43000 3.82400 43.09700
H  10.16400 3.77500 42.50500
Mg 44.36200 3.62100 47.25300
C  42.28200 6.40500 46.93500
C  41.54100 1.65800 46.66300
C  46.40800 0.88700 46.99600
C  47.11600 5.75500 47.23100
N  42.12400 3.98800 46.78200
C  41.52800 5.23700 46.77100
C  40.04000 5.09800 46.80300
C  39.76100 3.48400 46.79900
C  41.18600 2.95700 46.74300
C  38.95300 2.88300 47.99600
C  39.17700 5.81100 45.73200
C  39.47900 5.49700 44.24400
H  39.74200 6.75300 43.36400
N  44.01800 1.59500 46.88900
C  42.84600 0.97000 46.67900
C  42.93800 -0.46500 46.68600
C  44.31700 -0.66600 46.48300
C  45.02500 0.61200 46.76600
C  41.76000 -1.40600 46.65400
C  44.98200 -1.94700 45.98900
O  44.27600 -2.92700 45.79000
C  46.37100 -2.00400 45.51500
N  46.38300 3.30900 47.11400
C  47.02000 2.11800 47.24600
C  48.56200 2.32000 47.41600
C  48.73600 3.85800 47.34800
C  47.31200 4.33700 47.21700
C  49.12900 1.64600 48.67400
C  49.69300 4.42300 46.23800
C  51.24000 4.06600 46.45300
N  44.64100 5.67700 47.12300
C  45.85700 6.40700 47.21500
C  45.49200 7.85400 47.29700
C  44.13900 7.87900 47.25900
C  43.62300 6.55700 47.04000
C  46.55500 8.94200 47.46100
C  43.04300 8.71400 47.40200
O  42.94800 9.88600 47.79900
C  41.78800 7.83100 47.03200
C  40.82700 8.06600 48.15800
O  40.80700 7.55000 49.26200
O  39.90800 8.95300 47.79700
C  38.91800 9.46800 48.78000
H  40.67200 1.00200 46.58100
H  47.06200 0.01900 47.09900
H  47.96700 6.41800 47.40200
H  39.68300 5.42500 47.78000
H  39.22600 3.05100 45.95300
H  38.60400 3.70200 48.62400
H  39.60000 2.36100 48.70200
H  38.19100 2.14800 47.73700
H  39.14700 6.87500 45.96800
H  38.15900 5.49900 45.96800
H  38.59800 5.04900 43.78300
H  40.24000 4.71900 44.19400
H  42.00300 -2.27400 47.26800
H  41.41300 -1.60900 45.64100
H  40.82900 -1.00100 47.04900
H  46.48300 -1.05400 44.99300
H  46.40100 -2.75300 44.72300
H  47.05700 -2.07600 46.35900
H  48.95400 1.85900 46.51000
H  49.00100 4.17600 48.35600
H  48.47400 1.01200 49.27100
H  49.46200 2.41100 49.37600
H  50.04900 1.19200 48.30600
H  49.57600 5.50500 46.17900
H  49.45200 4.02600 45.25200
H  51.85500 4.96200 46.53300
H  51.51100 3.41600 45.62100
H  51.42500 3.51700 47.37600
H  47.10900 8.78700 48.38600
H  46.10900 9.93400 47.38200
H  47.28000 8.93700 46.64700
H  41.36600 8.13400 46.07400
H  38.96200 9.10200 49.80600
H  37.97800 9.07900 48.38800
H  38.91600 10.53200 49.01500

