158

Mg 41.23000 8.64200 29.92300
C  43.07000 9.66100 32.64600
C  39.01300 7.16500 31.99800
C  39.69100 7.24300 27.25800
C  43.85000 9.54600 27.94500
N  41.13600 8.38200 32.09900
C  41.93400 8.90700 33.03300
C  41.34500 8.70100 34.51000
C  40.29200 7.58500 34.20900
C  40.10200 7.74000 32.65600
C  40.53300 6.05300 34.60100
C  40.75500 10.01000 35.21000
C  40.72000 10.04300 36.82000
H  41.27000 11.31300 37.48600
N  39.58800 7.41900 29.68900
C  38.75900 6.95100 30.65800
C  37.64000 6.26300 30.13600
C  37.73500 6.39000 28.72300
C  39.03700 7.07100 28.48300
C  36.68800 5.41600 30.94700
C  36.71600 6.14900 27.62200
O  36.87200 6.44800 26.43900
C  35.31700 5.75600 28.06500
N  41.77600 8.38200 28.00300
C  40.97200 7.80900 27.11600
C  41.44900 7.96100 25.65600
C  42.82500 8.67900 25.81600
C  42.81900 8.94900 27.31300
C  41.58700 6.58500 24.92100
C  43.02600 9.89500 24.95600
C  42.55400 11.28100 25.39100
N  43.01300 9.57100 30.18100
C  43.97600 9.94600 29.25800
C  44.99800 10.75000 29.87400
C  44.69500 10.67200 31.27400
C  43.47300 9.95300 31.35000
C  46.16900 11.46100 29.22800
C  45.15400 11.04900 32.56900
O  46.12300 11.71300 32.87400
C  44.04700 10.47300 33.53200
C  44.85400 9.58100 34.46000
O  45.52800 8.67000 34.07400
O  44.60800 10.00700 35.73000
C  44.92600 8.97900 36.68200
H  38.42500 6.53500 32.66900
H  39.26500 6.96000 26.29300
H  44.69800 9.86100 27.33300
H  42.10300 8.21100 35.12300
H  39.35000 7.97700 34.59400
H  40.40000 5.47700 33.68500
H  39.75400 5.84200 35.33400
H  41.51000 5.84800 35.03900
H  39.73300 10.15600 34.86000
H  41.38900 10.83400 34.88200
H  41.31600 9.21400 37.20100
H  39.66000 9.94600 37.05700
H  36.89500 5.42700 32.01700
H  36.46400 4.39200 30.65000
H  35.70600 5.87500 30.83400
H  35.12100 6.42200 28.90500
H  35.20700 4.80900 28.59400
H  34.49800 6.06500 27.41500
H  40.75700 8.66000 25.18600
H  43.60200 7.98600 25.49200
H  41.27000 5.80500 25.61300
H  42.58000 6.46700 24.48700
H  40.81800 6.68700 24.15600
H  42.56200 9.65500 23.99900
H  44.08800 10.09600 24.81700
H  42.32600 11.99200 24.59700
H  43.17600 11.79300 26.12500
H  41.62300 11.08400 25.92300
H  46.31900 12.43100 29.70300
H  46.01300 11.51900 28.15100
H  47.15900 11.02400 29.35200
H  43.67400 11.28000 34.16300
H  46.00600 8.84500 36.62300
H  44.41300 8.05500 36.41800
H  44.61900 9.32400 37.66900
Mg -1.99200 34.99300 26.73400
C  -3.99200 33.57400 29.03600
C  -1.07800 37.39200 28.96700
C  -0.23000 36.49400 24.30500
C  -3.16100 32.67800 24.41700
N  -2.47700 35.39400 28.75800
C  -3.23400 34.63600 29.54600
C  -3.30700 35.07900 31.04600
C  -2.52300 36.43800 30.91400
C  -2.01900 36.47400 29.43700
C  -3.36000 37.71800 31.45600
C  -2.60100 33.98300 31.92800
C  -3.35200 33.16000 32.92500
H  -2.82300 32.93400 34.34200
N  -0.77700 36.79000 26.62300
C  -0.53100 37.59400 27.71400
C  0.35600 38.57200 27.23200
C  0.63500 38.35900 25.84600
C  -0.13000 37.17600 25.58400
C  0.90600 39.77800 28.07400
C  1.38800 39.07200 24.74000
O  1.39700 38.74200 23.54600
C  2.18500 40.19800 25.12500
N  -1.85400 34.75000 24.56300
C  -0.91800 35.31800 23.91000
C  -0.66500 34.64900 22.57400
C  -1.59100 33.41300 22.60800
C  -2.23200 33.57100 23.98100
C  -0.94600 35.55400 21.33600
C  -0.79300 32.08600 22.50400
C  0.59300 31.94000 23.22500
N  -3.38500 33.49800 26.60000
C  -3.72500 32.59300 25.68200
C  -4.62700 31.61900 26.17100
C  -4.78700 31.95000 27.53200
C  -4.04300 33.12800 27.72700
C  -5.24300 30.54200 25.36600
C  -5.40700 31.53500 28.78400
O  -6.17200 30.62700 29.12900
C  -4.92200 32.60700 29.80600
C  -6.10200 33.35900 30.36900
O  -6.74000 34.31900 29.85400
O  -6.36200 32.89500 31.60500
C  -7.23600 33.67000 32.45200
H  -0.80900 38.17900 29.67500
H  0.27000 36.80900 23.38700
H  -3.35400 31.87900 23.69800
H  -4.33600 35.20800 31.38000
H  -1.60000 36.52200 31.48800
H  -4.39500 37.46600 31.68300
H  -3.39400 38.49600 30.69400
H  -2.81700 38.08600 32.32700
H  -1.80800 34.53000 32.43900
H  -2.06800 33.29900 31.26800
H  -3.52200 32.16400 32.51700
H  -4.32300 33.63100 33.08100
H  1.99300 39.75300 28.15700
H  0.41700 39.97400 29.02900
H  0.76500 40.70000 27.51000
H  2.98900 40.23300 24.39000
H  2.74200 40.03000 26.04700
H  1.58500 41.10700 25.16500
H  0.38200 34.35800 22.49100
H  -2.32300 33.55600 21.81300
H  -1.42000 35.00200 20.52400
H  -0.00200 35.76600 20.83400
H  -1.37300 36.51100 21.63600
H  -0.67400 31.91400 21.43400
H  -1.47000 31.28800 22.80700
H  0.55800 32.57400 24.11100
H  1.44600 32.12500 22.57200
H  0.57200 30.89700 23.54300
H  -4.44300 29.84800 25.10900
H  -5.75300 30.92800 24.48300
H  -6.00500 30.22000 26.07600
H  -4.44800 31.99200 30.57100
H  -8.27900 33.85500 32.19300
H  -6.81200 34.66800 32.55700
H  -7.09600 33.21000 33.43000

