158

Mg 40.88700 8.83600 29.37600
C  42.59500 10.18800 32.18600
C  38.51300 7.72600 31.54900
C  39.27200 7.81200 26.64200
C  43.48700 10.06400 27.39500
N  40.59600 8.97100 31.62200
C  41.34600 9.66700 32.55000
C  40.70700 9.58200 33.90200
C  39.44100 8.67300 33.68400
C  39.51300 8.43900 32.21900
C  39.37900 7.45200 34.59500
C  40.36400 10.99500 34.49600
C  39.87800 10.97300 35.95900
H  40.69600 11.78000 37.05900
N  39.17800 7.80500 29.13700
C  38.33200 7.45000 30.16200
C  37.05600 6.87100 29.48500
C  37.14100 7.01600 28.06300
C  38.55800 7.52600 27.90600
C  36.14500 6.00100 30.26800
C  36.13300 6.68300 27.01800
O  36.39100 6.76400 25.81600
C  34.78800 6.30800 27.46300
N  41.41900 8.62100 27.36100
C  40.54000 8.22900 26.42000
C  41.12100 8.43200 25.00600
C  42.22200 9.46100 25.26800
C  42.43200 9.37500 26.72800
C  41.64400 7.13200 24.39200
C  41.71600 10.84600 24.90000
C  42.10600 11.36400 23.53900
N  42.75600 9.69200 29.70300
C  43.64500 10.20500 28.76500
C  44.81700 10.75800 29.43000
C  44.49900 10.66900 30.79700
C  43.17300 10.14300 30.89200
C  46.07000 11.32700 28.91500
C  44.88500 11.11000 32.12000
O  45.91500 11.64800 32.51700
C  43.63200 10.84800 33.03100
C  44.14600 9.94800 34.08300
O  44.83400 8.96000 33.92000
O  43.78100 10.41900 35.31300
C  44.21500 9.70200 36.47300
H  37.70300 7.47500 32.23800
H  38.69700 7.50700 25.76600
H  44.13900 10.67000 26.76200
H  41.43400 9.14200 34.58400
H  38.48000 9.16000 33.85100
H  38.40600 7.45400 35.08500
H  40.12600 7.38900 35.38600
H  39.41200 6.66600 33.84100
H  39.61300 11.33200 33.78100
H  41.35800 11.42000 34.35500
H  40.02500 9.92300 36.21000
H  38.83600 11.29000 36.01200
H  36.44100 6.09100 31.31400
H  36.12200 4.95400 29.96700
H  35.13000 6.38900 30.36100
H  34.79200 5.34100 27.96600
H  34.11600 6.30800 26.60400
H  34.47700 7.06400 28.18500
H  40.25100 8.74800 24.43000
H  43.17100 9.23900 24.78000
H  42.71600 6.94700 24.45400
H  41.36200 6.95300 23.35400
H  41.17800 6.29000 24.90500
H  42.00600 11.53700 25.69200
H  40.63500 10.92800 25.01600
H  41.17200 11.56900 23.01600
H  42.59800 10.48100 23.12900
H  42.76800 12.22500 23.63000
H  46.81900 11.18700 29.69500
H  45.97000 12.36700 28.60500
H  46.49200 10.69900 28.13100
H  43.23800 11.78900 33.41500
H  45.25100 10.01700 36.59600
H  44.16800 8.63100 36.27700
H  43.56800 10.15200 37.22600
Mg 47.75200 16.43800 28.29000
C  45.70400 16.05100 31.04800
C  49.86100 18.48400 30.21900
C  49.49400 17.20700 25.55800
C  45.23800 14.83200 26.35200
N  47.74900 17.28200 30.38200
C  46.86000 16.82200 31.32000
C  47.30500 17.25200 32.69600
C  48.45300 18.22700 32.42800
C  48.79700 17.94200 30.91000
C  48.10700 19.69100 32.80800
C  47.83800 16.06600 33.60600
C  47.78000 16.26400 35.14500
H  47.41100 17.57400 35.70000
N  49.56900 17.53200 27.95200
C  50.23200 18.28500 28.83500
C  51.41200 18.78500 28.18100
C  51.39900 18.38600 26.84100
C  50.18600 17.63500 26.72800
C  52.53400 19.39900 28.95600
C  52.33700 18.64400 25.73400
O  52.09900 18.21000 24.59000
C  53.53100 19.58000 25.92600
N  47.42300 16.00700 26.31800
C  48.31900 16.42500 25.39000
C  47.72800 16.10200 23.94600
C  46.56300 14.99400 24.23500
C  46.40300 15.26500 25.74300
C  47.26500 17.34700 23.12200
C  46.78900 13.52800 23.81900
C  45.57400 12.99300 23.06600
N  45.74800 15.71200 28.55000
C  44.91400 15.00600 27.70300
C  43.82100 14.52700 28.41500
C  44.04600 14.90700 29.75100
C  45.24400 15.58600 29.78500
C  42.66900 13.76300 27.83600
C  43.48400 14.89700 31.10000
O  42.44900 14.51500 31.55900
C  44.58200 15.61300 31.99100
C  43.86100 16.74800 32.71900
O  43.47700 17.77400 32.20600
O  43.68700 16.47500 34.02000
C  43.03700 17.55800 34.86400
H  50.46900 19.18400 30.79600
H  49.93400 17.46900 24.59300
H  44.57800 14.28900 25.67300
H  46.46100 17.64800 33.26000
H  49.36000 18.17200 33.03000
H  48.66900 19.92600 33.71200
H  47.06100 19.81600 33.08700
H  48.47200 20.34900 32.01900
H  48.82200 15.70300 33.30800
H  47.27800 15.15500 33.39900
H  48.70100 15.99000 35.66100
H  47.09600 15.47900 35.46800
H  52.61900 20.46800 28.76000
H  53.43600 18.87700 28.63500
H  52.34700 19.18000 30.00700
H  53.16700 20.46000 26.45600
H  53.74000 19.91600 24.91100
H  54.34800 19.04200 26.40700
H  48.46800 15.56100 23.35500
H  45.66300 15.36000 23.74200
H  46.35700 17.36200 22.51900
H  48.07500 17.58800 22.43400
H  47.10000 18.13400 23.85800
H  46.93100 13.01700 24.77100
H  47.76700 13.52800 23.33700
H  44.65700 13.57000 22.95100
H  45.25000 12.01100 23.41000
H  45.96000 12.84500 22.05800
H  42.37200 14.19000 26.87800
H  41.87700 13.74000 28.58500
H  43.02100 12.76500 27.57700
H  44.85200 14.82300 32.69200
H  43.79300 18.33800 34.94500
H  42.81400 17.06700 35.81100
H  42.12900 18.01500 34.47000

