158

Mg 34.74800 2.97900 29.60200
C  32.72000 4.14000 32.23800
C  37.37200 2.69300 31.81700
C  36.80900 2.49500 27.02700
C  32.07400 3.73900 27.50800
N  35.02100 3.45200 31.73500
C  34.03400 3.74600 32.65700
C  34.53900 3.58300 34.12400
C  36.10800 3.43000 33.92900
C  36.19000 3.12200 32.40400
C  37.03600 4.61100 34.23200
C  33.77600 2.43400 34.79500
C  33.13200 2.77100 36.13400
H  33.86900 3.83600 37.15200
N  36.81300 2.60900 29.41400
C  37.71900 2.53600 30.43600
C  39.04000 2.22900 29.89100
C  38.94500 2.10500 28.49600
C  37.49000 2.34500 28.26800
C  40.30400 2.03100 30.81800
C  40.03400 1.94400 27.38400
O  39.79700 1.95000 26.21100
C  41.47600 1.84200 27.88900
N  34.47700 3.14600 27.50700
C  35.48400 2.87300 26.63500
C  35.06100 3.18100 25.16500
C  33.50200 3.53100 25.38900
C  33.27400 3.39300 26.89700
C  35.81000 4.36100 24.47100
C  32.57400 2.69200 24.48600
C  32.18600 1.18200 24.81100
N  32.76200 3.69400 29.75200
C  31.77600 3.89700 28.85300
C  30.62400 4.42000 29.40600
C  30.88200 4.54000 30.78900
C  32.21600 4.13300 30.92100
C  29.35100 4.70400 28.64400
C  30.34000 4.82000 32.11400
O  29.25800 5.21000 32.49900
C  31.53800 4.50100 33.10800
C  31.69800 5.80600 33.91100
O  32.05300 6.90900 33.47900
O  31.19900 5.52600 35.18200
C  31.27800 6.62600 36.12700
H  38.17900 2.70100 32.55300
H  37.52600 2.46400 26.20400
H  31.37100 4.09700 26.75400
H  34.37000 4.58600 34.51600
H  36.49700 2.49200 34.32600
H  37.58000 4.89900 33.33200
H  37.75200 4.15000 34.91300
H  36.51500 5.39300 34.78500
H  34.52500 1.71200 35.12100
H  33.06800 1.84300 34.21300
H  33.14600 1.79000 36.60900
H  32.15100 3.18100 35.89300
H  40.15200 2.15600 31.89000
H  41.12300 2.70600 30.57400
H  40.62500 1.01800 30.57200
H  41.64000 2.77000 28.43700
H  42.11500 1.75500 27.01000
H  41.60000 0.98600 28.55200
H  35.04400 2.20400 24.68300
H  33.36000 4.59500 25.19700
H  36.36400 4.91900 25.22600
H  35.11000 5.06200 24.01700
H  36.42400 3.90500 23.69400
H  33.15500 2.48900 23.58700
H  31.68800 3.25500 24.19100
H  31.09900 1.11500 24.77200
H  32.49000 0.96400 25.83500
H  32.68400 0.43100 24.19800
H  28.85200 3.79900 28.29900
H  29.47100 5.30300 27.74100
H  28.57000 5.24800 29.17500
H  31.44900 3.78800 33.92700
H  31.19700 6.29700 37.16300
H  30.45500 7.32600 35.98300
H  32.23700 7.14100 36.06600
Mg 27.68900 50.51600 27.00700
C  25.52200 51.02400 29.63500
C  30.12900 49.72400 29.19300
C  29.56300 50.03400 24.35800
C  25.07700 51.72200 24.78300
N  27.80300 50.30100 29.19200
C  26.79000 50.55400 30.03200
C  27.23600 50.30500 31.44700
C  28.79300 50.15900 31.39600
C  28.92200 49.96000 29.84100
C  29.55700 51.37200 31.96000
C  26.46900 49.22200 32.36800
C  27.03800 49.08400 33.77600
H  26.10200 49.41100 35.00200
N  29.52600 49.80600 26.84100
C  30.38600 49.50100 27.84500
C  31.57700 49.05200 27.25600
C  31.41900 49.10200 25.88300
C  30.12800 49.61200 25.61700
C  32.85100 48.47100 27.95200
C  32.36600 48.69100 24.83300
O  32.16300 48.78800 23.66700
C  33.77300 48.18600 25.22700
N  27.40500 51.11900 24.89800
C  28.31100 50.61800 24.04100
C  27.88300 50.78100 22.54000
C  26.36300 51.17600 22.69300
C  26.27500 51.35100 24.19400
C  28.79400 51.83300 21.83300
C  25.34800 50.11900 22.11300
C  25.36800 48.68400 22.69600
N  25.76700 51.41700 27.12300
C  24.86200 51.72800 26.14900
C  23.60100 52.15000 26.84200
C  23.80200 51.88300 28.25700
C  25.13900 51.41700 28.31000
C  22.45100 52.65200 26.02900
C  23.14800 51.90700 29.58100
O  22.04300 52.34600 29.96300
C  24.35500 51.42200 30.49500
C  24.61000 52.56200 31.43300
O  25.08600 53.62300 30.94300
O  24.21300 52.38500 32.74100
C  24.63700 53.40400 33.68800
H  30.98400 49.47800 29.82800
H  30.22200 50.08200 23.48800
H  24.25400 51.71100 24.06500
H  26.86100 51.22800 31.89000
H  29.05800 49.21800 31.87900
H  30.17200 51.73400 31.13600
H  30.15100 51.14100 32.84400
H  28.95700 52.26100 32.15800
H  26.45200 48.25400 31.86600
H  25.43900 49.57400 32.43400
H  27.84100 49.80000 33.95300
H  27.48600 48.11000 33.97300
H  33.05400 47.40100 27.98700
H  32.72300 48.80700 28.98100
H  33.77600 49.04700 27.89500
H  34.16300 49.03600 25.78800
H  34.41000 48.06400 24.35100
H  33.63000 47.20700 25.68300
H  28.02700 49.88300 21.94000
H  26.17600 52.18000 22.31200
H  29.53000 52.22100 22.53700
H  28.17400 52.65500 21.47600
H  29.25600 51.39200 20.94900
H  25.59100 49.99600 21.05700
H  24.32500 50.47900 22.21500
H  25.99100 48.70200 23.59100
H  25.83300 48.00100 21.98500
H  24.40900 48.29500 23.03900
H  21.56500 52.59800 26.66200
H  22.25300 52.08600 25.11900
H  22.84200 53.65600 25.86000
H  24.02700 50.50700 30.98800
H  24.19400 54.34000 33.34900
H  25.70700 53.59400 33.60300
H  24.40700 53.27800 34.74600

