158

Mg -1.26500 18.12400 27.08000
C  -1.85900 16.00100 29.80600
C  -1.60500 20.87700 29.26900
C  -1.28800 20.33100 24.43100
C  -1.36300 15.40800 24.89200
N  -1.86600 18.34900 29.30300
C  -1.82200 17.37500 30.21500
C  -1.97400 17.91900 31.65200
C  -1.98300 19.50200 31.41200
C  -1.76100 19.63200 29.93200
C  -3.38900 20.01300 32.00600
C  -0.90600 17.59000 32.71400
C  -1.38500 17.23200 34.13900
H  -0.37800 17.35700 35.33100
N  -1.23800 20.32500 26.87000
C  -1.42100 21.23500 27.89100
C  -1.23900 22.52000 27.31100
C  -1.25300 22.42100 25.88700
C  -1.23500 20.98100 25.64300
C  -1.32200 23.74100 28.26000
C  -1.39700 23.55400 24.83700
O  -1.55500 23.31400 23.60800
C  -1.42800 25.03400 25.27900
N  -1.15900 17.88700 24.97100
C  -1.31400 18.93300 24.09800
C  -1.09800 18.44200 22.66500
C  -0.85600 16.91700 22.84600
C  -1.10500 16.72400 24.29600
C  -2.16300 18.87400 21.62800
C  0.45600 16.37700 22.21800
C  1.78600 16.58700 23.01200
N  -1.53400 16.11500 27.19300
C  -1.52800 15.07600 26.22000
C  -1.70000 13.77800 26.91000
C  -1.79300 14.11000 28.29700
C  -1.72700 15.50700 28.41000
C  -1.67200 12.49600 26.22600
C  -1.91300 13.49600 29.59000
O  -1.92700 12.30900 29.92000
C  -1.81000 14.65300 30.61800
C  -0.53300 14.46900 31.33400
O  0.58000 14.68900 30.87100
O  -0.86600 13.99100 32.57600
C  0.35000 13.81100 33.42400
H  -1.55300 21.69300 29.99200
H  -1.40400 20.92700 23.52300
H  -1.42900 14.57300 24.19100
H  -2.96600 17.54100 31.89700
H  -1.17300 19.99400 31.95000
H  -3.80000 19.51400 32.88400
H  -4.19000 19.89800 31.27500
H  -3.35600 21.07300 32.25500
H  -0.06600 18.28400 32.75600
H  -0.55100 16.62300 32.35600
H  -1.65000 16.18100 34.01700
H  -2.25300 17.86100 34.33800
H  -2.35000 24.02600 28.03700
H  -0.60200 24.54900 28.13200
H  -1.37700 23.66800 29.34600
H  -2.36200 25.19600 25.81600
H  -1.40300 25.53900 24.31300
H  -0.54800 25.21500 25.89600
H  -0.07200 18.78700 22.53300
H  -1.73900 16.40200 22.46900
H  -2.62400 18.00300 21.16400
H  -1.68100 19.60400 20.97800
H  -3.02100 19.42700 22.01200
H  0.53800 16.78800 21.21100
H  0.33700 15.29500 22.27000
H  2.54300 16.88800 22.28800
H  2.02800 15.67800 23.56200
H  1.70100 17.38000 23.75500
H  -0.81700 11.86100 26.45900
H  -1.65000 12.70900 25.15700
H  -2.60400 11.95300 26.38300
H  -2.65500 14.74300 31.30000
H  0.76000 14.80400 33.60900
H  1.14900 13.29900 32.88700
H  -0.00000 13.27100 34.30300
Mg 24.62000 -5.69500 45.88700
C  26.71100 -3.56600 44.12300
C  22.05500 -5.00800 43.54400
C  22.86200 -8.52300 46.75500
C  27.39200 -7.11600 47.45400
N  24.33600 -4.38300 44.21500
C  25.37100 -3.61000 43.66500
C  24.83600 -2.74400 42.47000
C  23.30500 -3.00800 42.48400
C  23.22000 -4.21200 43.44300
C  22.46200 -1.79400 43.04500
C  25.65600 -3.14800 41.19700
C  26.43700 -2.06600 40.40500
H  26.05200 -1.91200 38.86700
N  22.62100 -6.46200 45.43700
C  21.73800 -6.03300 44.42900
C  20.57400 -6.82300 44.44400
C  20.65800 -7.83900 45.54600
C  22.09200 -7.65500 46.01600
C  19.35300 -6.60100 43.47400
C  19.62900 -8.92600 45.93600
O  18.57400 -8.85900 45.34300
C  19.80800 -9.87900 47.01400
N  25.07900 -7.63700 47.00900
C  24.20600 -8.59500 47.15700
C  24.77400 -9.91800 47.74800
C  26.32600 -9.35900 48.06100
C  26.25400 -7.96300 47.45700
C  24.08300 -10.46900 49.06600
C  27.50200 -10.25900 47.38400
C  28.48400 -11.06200 48.26000
N  26.71500 -5.31400 45.95200
C  27.68200 -5.91400 46.73300
C  28.92300 -5.26400 46.45400
C  28.66400 -4.32600 45.44400
C  27.28100 -4.40200 45.13800
C  30.22000 -5.62500 47.08800
C  29.19000 -3.27900 44.54600
O  30.31000 -2.81200 44.54200
C  28.02000 -2.84900 43.66300
C  27.99000 -1.37800 43.80700
O  27.55900 -0.82300 44.79800
O  28.62500 -0.84600 42.70400
C  28.81800 0.62400 42.83100
H  21.37900 -4.78000 42.71700
H  22.37700 -9.49400 46.87300
H  28.24700 -7.53200 47.99200
H  25.23500 -1.76000 42.71900
H  22.82800 -3.25900 41.53600
H  23.08200 -0.90600 43.16300
H  22.07000 -2.04500 44.03100
H  21.69100 -1.54900 42.31500
H  24.85500 -3.51200 40.55400
H  26.34400 -3.97200 41.38700
H  27.51700 -2.20400 40.34800
H  26.24000 -1.06400 40.78500
H  18.78500 -5.74800 43.84500
H  18.87000 -7.56300 43.29900
H  19.78200 -6.29700 42.51900
H  18.84500 -10.15500 47.44300
H  20.54000 -9.49800 47.72700
H  20.27200 -10.71400 46.48900
H  24.70600 -10.60100 46.90100
H  26.38100 -9.24300 49.14400
H  23.16000 -9.91900 49.24700
H  24.75100 -10.35600 49.92000
H  23.78400 -11.49300 48.84100
H  28.13000 -9.62100 46.76200
H  27.02600 -11.06000 46.81800
H  28.36600 -12.12700 48.06300
H  28.19900 -10.84300 49.28900
H  29.51900 -10.87600 47.97300
H  30.11700 -6.02400 48.09700
H  30.96000 -4.83000 47.18000
H  30.72200 -6.39500 46.50300
H  28.25900 -3.12400 42.63600
H  28.12500 1.00300 43.58200
H  28.59200 1.06400 41.86000
H  29.88200 0.72100 43.05100

