158

Mg 25.80700 0.92600 29.52300
C  27.77000 0.69200 32.50400
C  23.02400 0.88000 31.39600
C  24.20300 0.89400 26.70000
C  28.79200 0.18600 27.71300
N  25.48900 0.58100 31.71300
C  26.36800 0.79700 32.74700
C  25.58600 0.93100 34.07700
C  24.10200 0.68800 33.62600
C  24.21500 0.74900 32.12900
C  23.44500 -0.62700 34.16500
C  25.98100 2.28800 34.72200
C  25.17200 2.68800 35.91600
H  25.92900 2.58000 37.26100
N  23.84200 0.90900 29.07900
C  22.83700 0.90900 29.98300
C  21.58900 1.18000 29.31100
C  21.85600 1.09600 27.89200
C  23.32200 0.91200 27.85300
C  20.19600 1.42800 30.02900
C  20.98600 1.00700 26.72000
O  21.41100 0.68900 25.62200
C  19.52600 1.23500 26.86200
N  26.42600 0.73800 27.55500
C  25.59700 0.97500 26.53200
C  26.16300 0.69600 25.16000
C  27.64400 0.42400 25.47900
C  27.63900 0.42700 27.02000
C  25.50500 -0.39400 24.24200
C  28.64400 1.46300 24.85700
C  29.99700 0.83900 24.52000
N  27.88000 0.49400 29.97000
C  28.95200 0.30200 29.12600
C  30.11800 0.09600 29.96500
C  29.74000 0.31100 31.32400
C  28.32800 0.49700 31.23000
C  31.39900 -0.28300 29.50600
C  30.20400 0.40000 32.67600
O  31.31400 0.42500 33.16300
C  28.88300 0.72900 33.51600
C  28.67100 -0.20300 34.61800
O  28.42900 -1.35200 34.49300
O  29.07800 0.42500 35.82100
C  28.93300 -0.26100 37.12900
H  22.10200 0.88100 31.98000
H  23.63900 0.95100 25.76600
H  29.60600 -0.24100 27.12400
H  26.00700 0.22200 34.79000
H  23.56600 1.56800 33.98200
H  23.17700 -1.43100 33.47900
H  22.59300 -0.33600 34.78000
H  24.13100 -1.05000 34.89900
H  25.92900 3.06100 33.95500
H  27.02100 2.19900 35.03600
H  24.24500 2.12300 36.01100
H  24.82000 3.70400 35.73700
H  19.61400 0.51300 29.91300
H  19.65300 2.20200 29.48700
H  20.22400 1.65400 31.09500
H  19.04700 1.05700 25.89900
H  19.24700 2.22300 27.22900
H  19.18000 0.46300 27.55000
H  26.09400 1.64600 24.62900
H  27.94400 -0.60400 25.27800
H  24.63700 -0.90900 24.65400
H  26.26800 -1.09000 23.89400
H  25.11600 0.22900 23.43700
H  28.66700 2.29100 25.56600
H  28.18100 1.87300 23.95900
H  30.28400 0.97900 23.47800
H  30.11400 -0.14000 24.98400
H  30.79000 1.40100 25.01500
H  31.55700 0.20800 28.54600
H  31.47100 -1.34800 29.28400
H  32.13700 -0.01100 30.26100
H  29.00900 1.72700 33.93600
H  28.47100 0.28500 37.95100
H  29.94000 -0.46600 37.49400
H  28.43600 -1.23100 37.10000
Mg 48.37400 34.80000 26.80500
C  46.49100 33.32000 29.49100
C  48.70500 37.60900 28.70800
C  49.87300 36.15800 24.18800
C  47.46900 32.07600 24.99900
N  47.41300 35.40100 28.82200
C  46.90100 34.64600 29.78000
C  47.06400 35.32900 31.17200
C  47.39200 36.77600 30.72900
C  47.88600 36.59400 29.34000
C  46.23700 37.80000 30.99000
C  48.16600 34.47800 31.94000
C  47.98200 34.39800 33.45700
H  46.82000 35.23700 34.02700
N  49.14300 36.65700 26.51700
C  49.27000 37.63500 27.41100
C  50.04300 38.74700 26.80200
C  50.38500 38.29900 25.46800
C  49.77600 36.96800 25.36700
C  50.36200 40.14700 27.49400
C  51.27200 38.97000 24.38200
O  51.51300 38.67100 23.22500
C  52.03000 40.22300 24.82000
N  48.52400 34.30600 24.88100
C  49.24000 34.99700 23.91600
C  49.11100 34.25000 22.60100
C  48.67500 32.85400 22.92900
C  48.17700 33.02700 24.33800
C  48.32700 35.02100 21.59300
C  49.76600 31.75700 22.98700
C  50.53200 31.50700 21.66100
N  47.19900 32.99700 27.08800
C  46.93400 31.96800 26.24200
C  46.15000 30.92000 26.89100
C  45.93800 31.38800 28.13300
C  46.61400 32.67400 28.23500
C  45.74800 29.59000 26.33100
C  45.27700 31.08500 29.40100
O  44.57200 30.15300 29.66000
C  45.61300 32.30000 30.35700
C  46.28800 31.75100 31.51700
O  47.41100 31.28700 31.58200
O  45.31300 31.67900 32.51700
C  45.72600 31.00800 33.74300
H  48.93800 38.55700 29.19700
H  50.35200 36.73500 23.39400
H  47.16400 31.24700 24.35600
H  46.03700 35.23300 31.52300
H  48.13000 37.11000 31.45700
H  45.31000 37.46000 31.45300
H  45.92900 38.15500 30.00700
H  46.63700 38.68800 31.48000
H  49.03900 35.05700 31.63900
H  48.26400 33.46100 31.56000
H  48.92700 34.79100 33.83300
H  47.91400 33.34700 33.73900
H  51.40200 40.45500 27.37800
H  50.22000 40.12700 28.57400
H  49.72600 40.98900 27.22000
H  52.91500 40.40100 24.21000
H  52.59700 40.00400 25.72500
H  51.34900 41.06600 24.93700
H  50.11600 34.16200 22.18800
H  47.82600 32.57800 22.30300
H  47.88800 35.86000 22.13300
H  47.57900 34.35700 21.16000
H  48.80200 35.44700 20.71000
H  49.26900 30.86600 23.37100
H  50.51800 32.00200 23.73800
H  50.65500 30.42800 21.57100
H  51.54100 31.91900 21.64800
H  49.92600 31.90700 20.84900
H  46.47600 29.38300 25.54700
H  44.69600 29.54500 26.05200
H  45.83300 28.92400 27.19000
H  44.72300 32.78800 30.75400
H  45.40400 29.98200 33.56600
H  45.12700 31.45000 34.53900
H  46.79400 31.12600 33.92600

