158

Mg 9.39000 3.69800 26.68300
C  10.41200 1.81100 29.57100
C  7.76000 5.69900 28.78900
C  8.12300 5.02300 24.09700
C  10.87000 1.05500 24.82900
N  9.20800 3.71200 28.98500
C  9.72000 2.97500 29.96600
C  9.41300 3.48000 31.35400
C  8.37400 4.63700 30.99000
C  8.45100 4.69000 29.51000
C  6.93100 4.40900 31.55900
C  10.64000 3.96900 32.28400
C  10.71000 3.23300 33.65500
H  11.40100 4.01800 34.78700
N  7.98000 5.14500 26.51100
C  7.46200 5.94900 27.47200
C  6.80500 7.01700 26.78400
C  6.99300 6.90400 25.45800
C  7.67400 5.62700 25.32400
C  6.11800 8.11200 27.53000
C  6.59700 7.84600 24.24800
O  6.80100 7.50000 23.06400
C  5.94900 9.13600 24.57800
N  9.40900 3.05000 24.83700
C  8.85600 3.82000 23.89200
C  9.16800 3.35800 22.44200
C  10.08300 2.13600 22.70600
C  10.12500 2.04400 24.19500
C  7.81300 3.02100 21.69200
C  11.48900 2.36300 22.02700
C  11.90900 1.48700 20.84800
N  10.42100 1.82000 27.07700
C  10.93200 0.82600 26.21100
C  11.47000 -0.28100 26.87400
C  11.39400 0.14900 28.21000
C  10.68700 1.34900 28.29700
C  12.02700 -1.51100 26.35600
C  11.74900 -0.23800 29.55300
O  12.40800 -1.08300 30.00500
C  11.06800 0.84400 30.49700
C  10.22000 0.09100 31.43200
O  9.09400 -0.30000 31.23900
O  10.94200 -0.08300 32.58800
C  10.38800 -0.98300 33.56600
H  7.16300 6.37800 29.40200
H  7.84800 5.51400 23.16100
H  11.32100 0.37300 24.10500
H  8.93400 2.66300 31.89400
H  8.74900 5.59800 31.34300
H  6.22900 4.12500 30.77500
H  6.62000 5.34600 32.01900
H  6.99000 3.66400 32.35300
H  10.61400 5.03600 32.50400
H  11.61400 3.88400 31.80200
H  11.44700 2.47900 33.37800
H  9.77700 2.74400 33.93300
H  5.20800 8.41300 27.01200
H  6.78200 8.97600 27.54600
H  5.97100 7.89000 28.58700
H  6.54700 9.71800 25.27900
H  4.92300 8.94900 24.89600
H  6.00200 9.80700 23.72000
H  9.65800 4.12700 21.84500
H  9.61600 1.25700 22.26100
H  6.94900 2.89000 22.34400
H  7.90400 2.10700 21.10700
H  7.59800 3.89500 21.07700
H  12.20100 2.13600 22.82000
H  11.58000 3.40400 21.71800
H  12.52100 1.99900 20.10500
H  10.98300 1.27800 20.31200
H  12.56800 0.69000 21.19500
H  12.10200 -1.56400 25.27000
H  11.53400 -2.39400 26.76200
H  13.04400 -1.45700 26.74300
H  11.94500 1.28000 30.97500
H  10.03300 -1.82700 32.97500
H  9.54700 -0.41700 33.96700
H  11.23800 -1.21900 34.20500
Mg 30.52600 58.93000 39.74200
C  27.51000 57.16800 38.97400
C  32.26300 56.19000 38.42000
C  33.25300 60.68900 39.76000
C  28.56000 61.73900 40.50300
N  29.91700 56.95900 38.78300
C  28.67300 56.42900 38.63700
C  28.74100 55.05500 37.95500
C  30.14400 54.59400 38.34600
C  30.85700 56.00300 38.49800
C  30.35200 53.55200 39.54600
C  28.37600 55.15800 36.44600
C  26.98400 54.68400 35.94200
H  26.34800 55.52400 34.82300
N  32.45000 58.50400 39.10200
C  33.02100 57.29900 38.60200
C  34.43100 57.47400 38.46800
C  34.79000 58.73200 38.92700
C  33.51600 59.38700 39.28200
C  35.28600 56.39500 37.79700
C  36.19700 59.21700 39.09400
O  37.13900 58.51000 38.75900
C  36.43800 60.53200 39.61000
N  30.84000 60.96500 39.86000
C  32.12500 61.42600 39.92700
C  32.15000 62.86200 40.53800
C  30.65500 63.21900 40.64300
C  29.99000 61.90900 40.38300
C  32.85000 63.01400 41.87600
C  30.10100 64.46000 39.86500
C  29.14600 65.36200 40.63700
N  28.46600 59.39200 39.81800
C  27.76200 60.59400 40.22800
C  26.32800 60.39100 40.18000
C  26.21000 59.04000 39.77500
C  27.51500 58.55800 39.47800
C  25.31700 61.49700 40.54300
C  25.22900 58.05100 39.40700
O  23.99200 58.06500 39.36500
C  26.04600 56.77000 38.80400
C  25.55700 55.63500 39.63700
O  26.00500 55.31900 40.73300
O  24.58300 54.94700 39.00400
C  23.94100 53.85900 39.82100
H  32.71700 55.23300 38.15700
H  34.10400 61.32800 40.00400
H  28.16100 62.62100 41.00900
H  28.04300 54.36500 38.42900
H  30.58800 54.06400 37.50400
H  29.45400 53.19500 40.05000
H  30.88700 54.23800 40.20300
H  31.04800 52.76900 39.24500
H  29.09600 54.48400 35.98200
H  28.52900 56.18800 36.12300
H  26.33800 54.58300 36.81400
H  27.16900 53.69300 35.52500
H  35.75200 55.66200 38.45600
H  36.11900 56.85800 37.26800
H  34.77600 55.85000 37.00300
H  36.06300 60.65900 40.62500
H  35.95000 61.22700 38.92600
H  37.49800 60.77200 39.52300
H  32.57100 63.45600 39.72600
H  30.25500 63.32600 41.65100
H  32.23800 63.52900 42.61600
H  33.76900 63.50900 41.56000
H  33.07200 62.00200 42.21200
H  29.45000 64.07500 39.08000
H  30.90100 65.03400 39.39800
H  29.68300 66.20100 41.08100
H  28.63500 64.86000 41.45900
H  28.34400 65.74300 40.00600
H  24.40300 61.36400 39.96400
H  25.59300 62.53600 40.36600
H  25.06900 61.39300 41.59900
H  25.64900 56.75600 37.78900
H  24.35600 52.86400 39.66000
H  22.91000 53.95000 39.48000
H  24.01100 54.07300 40.88800

