158

Mg -1.72400 17.30500 26.77000
C  -2.62600 14.99600 29.31600
C  -2.17300 19.75500 29.03200
C  -1.55700 19.49500 24.15700
C  -1.84300 14.68300 24.53600
N  -2.25400 17.29200 28.96200
C  -2.54900 16.27700 29.78900
C  -2.67100 16.83500 31.27500
C  -2.88200 18.34000 30.99100
C  -2.32400 18.49900 29.58100
C  -4.25500 19.09000 31.22300
C  -1.48500 16.46500 32.13600
C  -1.17700 17.27000 33.46800
H  -0.66200 16.58200 34.76300
N  -1.65400 19.34200 26.62100
C  -1.82400 20.16900 27.70400
C  -1.63700 21.52800 27.25400
C  -1.36000 21.51600 25.86300
C  -1.56100 20.02800 25.47800
C  -1.65600 22.70800 28.14600
C  -0.95500 22.54800 24.80500
O  -0.90700 22.32700 23.56000
C  -0.57200 23.96800 25.19600
N  -2.06500 17.12100 24.64700
C  -1.80700 18.15800 23.80400
C  -1.75400 17.79500 22.36900
C  -1.55600 16.17900 22.49000
C  -1.80000 15.96100 23.99600
C  -3.03300 18.19800 21.53200
C  -0.13600 15.71300 22.01700
C  1.03100 16.57000 22.55400
N  -2.22500 15.20600 26.79300
C  -2.19700 14.28700 25.86200
C  -2.64900 13.02700 26.39500
C  -2.76500 13.20900 27.77100
C  -2.56400 14.59600 27.97800
C  -2.75800 11.71100 25.59000
C  -2.93300 12.56100 29.04000
O  -3.06600 11.36000 29.23500
C  -2.88800 13.73000 30.07200
C  -1.81900 13.46300 31.14600
O  -0.59100 13.64900 30.95000
O  -2.37200 13.01900 32.36000
C  -1.42200 12.50000 33.38900
H  -2.39200 20.53900 29.76000
H  -1.50200 20.11500 23.26000
H  -1.73800 13.85000 23.83800
H  -3.53800 16.35000 31.72300
H  -2.33400 18.89200 31.75500
H  -4.86400 18.20400 31.40100
H  -4.41700 19.64900 30.30100
H  -4.35000 19.78400 32.05900
H  -0.59700 16.38100 31.50900
H  -1.67900 15.52100 32.64500
H  -1.97200 17.98300 33.68500
H  -0.27700 17.85700 33.28000
H  -0.75000 23.28300 28.33700
H  -2.23700 22.47200 29.03800
H  -2.26400 23.44100 27.61500
H  0.43800 23.99700 25.60500
H  -1.33800 24.35300 25.87000
H  -0.66800 24.54900 24.27800
H  -0.83900 18.21000 21.94600
H  -2.35100 15.60100 22.01900
H  -3.91000 18.54900 22.07600
H  -3.38100 17.30100 21.01900
H  -2.78900 19.00400 20.84000
H  -0.17600 15.85800 20.93700
H  0.08200 14.64500 22.05500
H  1.29900 17.22400 21.72400
H  1.85700 15.91300 22.82600
H  0.76100 17.21500 23.38900
H  -1.73800 11.34600 25.47000
H  -3.26600 11.77500 24.62700
H  -3.30200 11.02100 26.23500
H  -3.86300 13.70100 30.56000
H  -1.85200 11.61600 33.85900
H  -1.17100 13.20700 34.18100
H  -0.49100 12.09200 32.99400
Mg 54.32500 25.33700 44.10200
C  51.57200 27.63800 43.61700
C  52.45600 22.85300 42.96400
C  57.17700 23.57900 43.81200
C  56.28400 28.30600 44.74200
N  52.29400 25.33300 43.05000
C  51.28500 26.29300 43.16100
C  49.89900 25.69100 42.78100
C  50.26600 24.12600 42.93400
C  51.73600 24.06900 42.98300
C  49.65600 23.43200 44.09200
C  49.44600 26.07900 41.37300
C  50.59100 26.38200 40.28400
H  50.14500 26.58400 38.87700
N  54.81100 23.43800 43.64700
C  53.87800 22.58500 43.16100
C  54.57300 21.32500 42.87200
C  55.91000 21.47200 43.33400
C  56.01300 22.85900 43.54400
C  53.85100 20.08700 42.33000
C  56.95200 20.38100 43.40200
O  56.55200 19.20600 43.24700
C  58.39800 20.60400 43.77800
N  56.42700 25.89400 44.20300
C  57.41700 24.90800 44.14700
C  58.82900 25.55800 44.39500
C  58.52600 27.03100 44.75100
C  56.99800 27.12900 44.66500
C  59.67900 24.77300 45.46200
C  59.19100 27.92100 43.68000
C  59.95800 29.13300 44.22500
N  54.06200 27.52200 44.28500
C  54.90300 28.52700 44.67200
C  54.22100 29.77600 44.87600
C  52.98200 29.43000 44.43200
C  52.87100 28.06100 44.09100
C  54.69800 31.11000 45.21800
C  51.68800 30.05500 44.24700
O  51.33700 31.22600 44.36700
C  50.81700 28.94200 43.54200
C  50.58400 29.43600 42.19000
O  51.45100 29.95800 41.51500
O  49.24500 29.51300 42.00400
C  48.79700 29.97800 40.69400
H  51.86500 21.98300 42.67000
H  58.15500 23.09500 43.76100
H  56.93400 29.09300 45.13000
H  49.16300 26.10400 43.47100
H  50.03800 23.46800 42.09500
H  49.79300 22.35300 44.15900
H  48.58200 23.57500 44.21000
H  50.05600 23.79300 45.04000
H  49.07200 27.08700 41.55000
H  48.73300 25.33600 41.01400
H  51.27600 25.53800 40.36500
H  51.08600 27.29500 40.61500
H  53.60100 19.39300 43.13200
H  54.55800 19.57900 41.67400
H  53.00800 20.29200 41.67000
H  58.90400 19.63900 43.73500
H  58.44900 20.94900 44.81100
H  58.80500 21.17200 42.94200
H  59.27100 25.42400 43.40800
H  58.75700 27.22800 45.79700
H  60.47900 24.17900 45.02000
H  59.18000 23.90100 45.88700
H  60.12500 25.53800 46.09600
H  58.60200 28.41700 42.90900
H  59.86400 27.30200 43.08700
H  59.76700 30.02700 43.63200
H  61.03600 28.96800 44.20900
H  59.74900 29.15800 45.29400
H  55.77000 31.29200 45.14800
H  54.32200 31.47000 46.17500
H  54.24800 31.79300 44.49800
H  49.90400 28.85900 44.13000
H  49.65300 30.14100 40.03900
H  48.13600 30.84400 40.67500
H  48.27000 29.13900 40.24000

