158

Mg 42.76600 42.04500 26.74100
C  42.10400 44.45600 29.15900
C  43.57700 39.84200 29.28800
C  44.01800 39.97100 24.34100
C  42.57500 44.63800 24.29500
N  42.89600 42.14600 28.93900
C  42.50700 43.24500 29.72100
C  42.24000 42.83000 31.17000
C  43.03300 41.49500 31.29900
C  43.14100 41.11700 29.78100
C  44.40500 41.62300 31.99600
C  40.76100 42.68600 31.53600
C  40.41400 43.22900 32.92500
H  41.50700 43.21500 34.04800
N  43.75600 40.22200 26.81200
C  43.98300 39.48100 27.95300
C  44.58200 38.22600 27.50000
C  44.41700 38.11700 26.07800
C  44.06800 39.46000 25.66600
C  45.00200 37.24500 28.51500
C  44.65500 36.92300 25.17100
O  44.58500 36.92400 23.94100
C  44.88700 35.57100 25.76300
N  43.34400 42.35700 24.66500
C  43.78900 41.30000 23.89300
C  43.84100 41.66100 22.42900
C  43.23300 43.11200 22.39300
C  42.97100 43.38300 23.92700
C  45.15700 41.56800 21.72700
C  41.96600 43.15600 21.47500
C  40.82900 42.10100 21.97700
N  42.30700 44.11600 26.62600
C  42.24200 45.07600 25.63800
C  41.71000 46.38100 26.17700
C  41.65600 46.15100 27.52700
C  42.11800 44.82700 27.77600
C  41.21600 47.47800 25.27800
C  41.32900 46.75700 28.84700
O  40.80200 47.82600 29.10600
C  41.56100 45.66200 29.92900
C  42.53700 46.20300 30.96300
O  43.71300 46.06100 30.76600
O  41.94100 46.91200 31.96600
C  42.79700 47.09300 33.14400
H  43.69600 39.01700 29.99400
H  43.98600 39.25500 23.51700
H  42.42400 45.45500 23.58700
H  42.75600 43.55200 31.80300
H  42.34500 40.77500 31.74200
H  45.15600 41.09300 31.41000
H  44.23300 41.14600 32.96100
H  44.78200 42.62200 32.21600
H  40.37900 41.66600 31.55600
H  40.14100 43.17000 30.78200
H  39.57900 42.62200 33.27200
H  40.03000 44.21700 32.66800
H  44.21600 36.53900 28.78200
H  45.35500 37.66500 29.45700
H  45.82800 36.59800 28.22000
H  45.84300 35.58900 26.28600
H  44.88900 34.74400 25.05300
H  44.04600 35.27500 26.39100
H  43.27400 40.96100 21.81600
H  43.92700 43.86500 22.01900
H  45.71800 41.20400 22.58700
H  45.50900 42.49500 21.27400
H  45.07500 40.84400 20.91700
H  42.14400 42.87600 20.43600
H  41.68700 44.20600 21.56300
H  40.62200 41.30800 21.25800
H  39.96600 42.61400 22.40200
H  41.07700 41.63100 22.92900
H  40.92600 47.17700 24.27200
H  41.93500 48.27400 25.08400
H  40.37700 47.97000 25.76900
H  40.58800 45.46900 30.37900
H  43.37400 48.01300 33.23900
H  43.43300 46.23000 33.34200
H  42.10700 47.19000 33.98300
Mg 30.16100 57.98300 40.62000
C  27.31600 56.17800 39.75500
C  32.05600 55.17600 39.98600
C  33.02400 59.98500 40.73900
C  28.20800 60.83800 40.86000
N  29.77600 55.98300 39.85900
C  28.48700 55.46600 39.73800
C  28.55300 53.97800 39.36200
C  30.00400 53.59800 39.82600
C  30.70100 55.02400 39.90300
C  30.10000 52.72500 41.09500
C  28.17100 53.65000 37.88800
C  28.51300 54.73300 36.79400
H  28.39400 54.46100 35.20900
N  32.33700 57.60500 40.38500
C  32.88500 56.36000 40.07500
C  34.30000 56.52800 39.88400
C  34.59400 57.90800 40.17900
C  33.29200 58.58100 40.46800
C  35.19700 55.37600 39.60100
C  35.94700 58.59900 40.09400
O  36.83700 57.89800 39.62900
C  36.18100 60.08300 40.28700
N  30.60000 60.16600 40.69800
C  31.84400 60.72000 40.91800
C  31.73300 62.16600 41.33500
C  30.19900 62.33200 41.48000
C  29.56300 61.09800 40.90200
C  32.58600 62.72300 42.47900
C  29.54400 63.59500 40.79200
C  28.77500 64.62100 41.62400
N  28.18100 58.52100 40.39600
C  27.46100 59.68200 40.60900
C  26.07000 59.39800 40.39900
C  25.97800 58.03200 40.04400
C  27.25600 57.59400 40.07500
C  24.88500 60.28000 40.52500
C  25.04500 56.94100 39.64300
O  23.82500 57.00300 39.48300
C  25.91000 55.63200 39.46500
C  25.25600 54.61300 40.42500
O  25.09200 54.77500 41.63800
O  24.96500 53.52100 39.76300
C  24.72400 52.35900 40.60600
H  32.54800 54.20300 40.04000
H  33.93900 60.50200 41.03600
H  27.55000 61.68000 41.08700
H  27.82200 53.43100 39.95700
H  30.40600 52.84900 39.14300
H  30.78600 51.89300 40.93700
H  29.12400 52.44300 41.48800
H  30.46600 53.38400 41.88200
H  27.10600 53.46900 37.74700
H  28.64500 52.70100 37.63700
H  29.54300 55.02300 37.00000
H  27.95600 55.64100 37.02200
H  35.78700 55.35400 38.68500
H  34.55600 54.49900 39.50700
H  35.81400 55.09700 40.45500
H  36.07700 60.34700 41.33900
H  35.39200 60.52200 39.67700
H  37.12900 60.44500 39.88800
H  32.01700 62.67700 40.41500
H  29.97700 62.30200 42.54700
H  33.52100 62.17900 42.61900
H  31.98300 62.54300 43.36800
H  32.91900 63.73100 42.23300
H  28.84300 63.25200 40.03100
H  30.28600 64.02700 40.12100
H  27.88500 64.92500 41.07200
H  29.44900 65.44000 41.87600
H  28.45800 64.08000 42.51500
H  25.20600 61.31000 40.36900
H  24.54400 60.20500 41.55800
H  24.09700 59.96900 39.84000
H  25.74800 55.32000 38.43300
H  25.11500 51.47400 40.10400
H  23.64000 52.30600 40.50900
H  25.11600 52.35800 41.62300

