158

Mg 16.78800 -2.21600 27.87900
C  15.47100 -0.10800 30.41800
C  18.88500 -3.60100 30.25300
C  18.53500 -3.64600 25.36800
C  15.27900 -0.03800 25.58600
N  17.21200 -1.75500 30.05900
C  16.42200 -1.04200 30.88400
C  16.84700 -1.23700 32.39600
C  18.04400 -2.20400 32.23500
C  18.04300 -2.55700 30.72300
C  19.40900 -1.63600 32.58600
C  15.71300 -1.75700 33.35100
C  15.99400 -1.61600 34.80300
H  17.20400 -0.90300 35.32500
N  18.20500 -3.72100 27.79200
C  18.96600 -4.13100 28.87800
C  19.81500 -5.20600 28.41000
C  19.78500 -5.31900 26.97200
C  18.83000 -4.14800 26.63700
C  20.74900 -5.98100 29.43600
C  20.46900 -6.18600 25.92800
O  20.39800 -5.98500 24.72400
C  21.42200 -7.39300 26.48000
N  17.00700 -1.74600 25.78700
C  17.69400 -2.61200 24.94900
C  17.35800 -2.42500 23.43900
C  16.13800 -1.46000 23.55400
C  16.10300 -1.11200 25.05700
C  18.52400 -1.71100 22.74700
C  14.75600 -1.93600 22.94800
C  13.71700 -2.47500 23.88800
N  15.55100 -0.40000 27.88100
C  15.01100 0.32100 26.86600
C  14.14300 1.26900 27.37900
C  14.30700 1.22400 28.81800
C  15.21100 0.13300 29.05500
C  13.20800 2.13800 26.55800
C  13.86900 1.79700 30.07700
O  13.05100 2.65600 30.30800
C  14.62900 0.98600 31.15300
C  15.39800 1.93000 31.89300
O  16.27500 2.63600 31.47400
O  15.04600 1.92100 33.21100
C  15.87800 2.76500 34.09600
H  19.61700 -3.99500 30.96000
H  19.17100 -4.19700 24.67200
H  14.82100 0.54800 24.78600
H  17.19000 -0.23800 32.66700
H  17.90600 -3.09500 32.84800
H  19.29300 -0.75900 33.22400
H  20.01900 -1.38400 31.71900
H  19.92300 -2.42800 33.13000
H  15.62000 -2.81700 33.11400
H  14.79500 -1.26900 33.02500
H  15.86800 -2.61300 35.22400
H  15.15800 -1.09700 35.27300
H  20.25600 -6.93900 29.59800
H  20.95200 -5.57200 30.42600
H  21.78100 -6.13700 29.12200
H  20.89800 -8.09500 27.12800
H  22.22000 -7.05400 27.14100
H  21.87400 -7.88900 25.62100
H  17.09000 -3.37200 22.97000
H  16.22800 -0.51600 23.01700
H  19.49600 -1.92700 23.19000
H  18.47300 -0.62300 22.70900
H  18.49400 -2.04200 21.70900
H  14.98500 -2.64200 22.14900
H  14.31100 -1.05600 22.48300
H  14.15700 -2.69200 24.86200
H  13.14900 -3.27500 23.41400
H  12.97000 -1.69400 24.02800
H  13.63700 2.77300 25.78200
H  12.75200 2.87200 27.22300
H  12.48900 1.41400 26.17400
H  13.91200 0.62500 31.89000
H  15.74200 2.48400 35.14000
H  15.72400 3.84400 34.06300
H  16.93700 2.76500 33.83700
Mg 7.47100 52.86000 42.07200
C  6.98200 49.44400 41.52100
C  10.48900 52.69700 40.55400
C  7.66600 56.19300 42.36000
C  4.25900 53.05600 43.36500
N  8.50600 51.24600 40.95700
C  8.17100 49.95900 40.93300
C  9.30200 49.17100 40.18000
C  10.53200 50.14600 40.22500
C  9.83300 51.44900 40.64600
C  11.79600 49.69500 41.00500
C  8.81900 48.71900 38.77200
C  7.96200 49.71900 37.92700
H  7.72000 49.37700 36.46400
N  8.88400 54.30900 41.48800
C  10.06900 54.05900 40.84800
C  10.86900 55.23600 40.80400
C  10.08500 56.25200 41.31600
C  8.81700 55.57700 41.81600
C  12.20900 55.28900 40.02000
C  10.44600 57.79200 41.38300
O  11.50100 58.17300 40.87200
C  9.47300 58.82800 41.78300
N  6.11900 54.47300 42.55200
C  6.43100 55.73300 42.70000
C  5.15800 56.65900 42.95500
C  4.15500 55.50600 43.34900
C  4.86900 54.24700 43.06900
C  5.28900 57.90400 43.96300
C  2.75800 55.58000 42.61400
C  1.51600 55.47200 43.53000
N  5.85500 51.59300 42.42500
C  4.66000 51.76500 43.03900
C  3.99400 50.55200 43.12900
C  4.94100 49.57700 42.72800
C  5.98200 50.28900 42.15700
C  2.56800 50.26800 43.58800
C  5.25900 48.15800 42.63300
O  4.66000 47.14200 42.99100
C  6.60700 48.08700 41.75600
C  6.27100 47.38600 40.45600
O  5.57700 47.77800 39.50800
O  6.73500 46.11400 40.53500
C  6.31500 45.13900 39.55400
H  11.52300 52.61100 40.21200
H  7.87700 57.21400 42.68300
H  3.30400 53.00800 43.89200
H  9.53700 48.22000 40.66000
H  10.90600 50.31900 39.21600
H  12.63500 49.51700 40.33300
H  11.62800 48.75200 41.52400
H  11.88100 50.44600 41.79100
H  8.47700 47.68800 38.86100
H  9.72500 48.70400 38.16600
H  8.53600 50.64500 37.87900
H  7.04100 50.03200 38.42000
H  12.07800 55.25100 38.93900
H  12.76500 54.42900 40.39400
H  12.76400 56.21800 40.15000
H  9.19700 58.79000 42.83700
H  8.55800 58.66000 41.21400
H  9.87700 59.80300 41.51000
H  4.85000 57.10600 42.01000
H  4.08000 55.66100 44.42500
H  4.46100 57.76500 44.65800
H  5.31000 58.91400 43.55200
H  6.25400 57.91300 44.47000
H  2.65200 54.72500 41.94700
H  2.74700 56.49300 42.01900
H  0.97600 54.57200 43.23400
H  0.88600 56.36100 43.55000
H  1.92800 55.33900 44.53100
H  1.93800 51.14800 43.45700
H  2.54500 49.90200 44.61500
H  2.15700 49.39000 43.08900
H  7.43000 47.66300 42.33200
H  6.90300 45.34900 38.66100
H  5.26200 45.20500 39.27900
H  6.49100 44.08700 39.78100

