158

Mg 25.68200 0.53400 29.67500
C  27.85900 0.25800 32.30900
C  23.06600 0.84500 31.91100
C  23.61900 0.66900 27.05000
C  28.29500 -0.49700 27.40100
N  25.53100 0.53700 31.86800
C  26.55400 0.53500 32.75100
C  26.02500 0.76100 34.17800
C  24.51100 0.91400 33.99200
C  24.36800 0.81500 32.48500
C  23.72800 -0.14700 34.87100
C  26.66000 1.99300 34.88000
C  27.07200 1.85200 36.32700
H  26.61100 2.96500 37.24600
N  23.63300 0.60500 29.53400
C  22.72100 0.78500 30.55600
C  21.39400 0.79600 30.00400
C  21.51200 0.76000 28.53700
C  23.00600 0.67500 28.36400
C  20.17900 0.80100 30.86000
C  20.38800 0.63700 27.40800
O  20.75800 0.54600 26.24100
C  18.97500 0.74100 27.74600
N  25.92300 0.19200 27.51400
C  24.93300 0.45600 26.64400
C  25.40800 0.21800 25.23800
C  26.88700 -0.12200 25.37800
C  27.00100 -0.23000 26.88600
C  24.56000 -0.82000 24.43000
C  27.78900 0.91000 24.71700
C  28.77900 0.35300 23.67500
N  27.62700 0.05000 29.70300
C  28.54500 -0.40900 28.76800
C  29.86300 -0.55800 29.37600
C  29.64800 -0.25600 30.78200
C  28.22500 -0.00400 30.93800
C  31.13700 -0.86000 28.68200
C  30.30500 -0.14800 32.07100
O  31.46400 -0.12800 32.41900
C  29.18900 0.21300 33.11800
C  29.13200 -0.88900 34.15100
O  28.93500 -2.05900 33.88100
O  29.52200 -0.32800 35.41600
C  29.33800 -1.19500 36.57500
H  22.19800 0.99300 32.55700
H  23.04100 0.87500 26.14700
H  29.06600 -0.81900 26.69800
H  26.33700 -0.14500 34.69600
H  24.23700 1.90600 34.35100
H  22.87000 0.36100 35.31100
H  24.41100 -0.58300 35.59900
H  23.52300 -1.00000 34.22400
H  26.08100 2.90900 34.76600
H  27.52800 2.31500 34.30500
H  28.15600 1.96200 36.37200
H  26.76800 0.85900 36.66000
H  19.85900 1.83600 30.97900
H  20.11300 0.40300 31.87200
H  19.29200 0.34000 30.42400
H  18.52200 -0.24600 27.82800
H  18.43500 1.36500 27.03400
H  18.75000 1.27900 28.66700
H  25.22100 1.24900 24.93700
H  27.02800 -1.14700 25.03400
H  25.18400 -1.64000 24.07500
H  24.16700 -0.31000 23.55100
H  23.70900 -1.13400 25.03400
H  28.32700 1.58700 25.38100
H  27.16900 1.54300 24.08400
H  28.43100 0.53200 22.65800
H  28.90800 -0.71600 23.84800
H  29.72200 0.89900 23.66600
H  31.06300 -0.82700 27.59500
H  31.24100 -1.90100 28.98600
H  31.97400 -0.27200 29.05900
H  29.31100 1.21300 33.53300
H  28.78700 -2.09300 36.29400
H  28.95300 -0.61800 37.41600
H  30.34300 -1.53600 36.82400
Mg 36.12600 49.12900 24.98800
C  36.43100 47.57600 28.02900
C  35.20800 52.08200 26.64300
C  35.65100 50.65300 22.09900
C  37.25200 46.19500 23.42200
N  35.96100 49.77200 27.09500
C  36.12100 48.94800 28.16400
C  36.21700 49.82200 29.45800
C  35.71500 51.22600 29.00600
C  35.63600 51.01600 27.46600
C  34.35100 51.63400 29.67500
C  37.56000 49.77300 30.16900
C  37.39400 49.31500 31.63500
H  36.03200 49.43000 32.51100
N  35.51700 51.08300 24.48700
C  35.11900 52.13000 25.27800
C  34.75000 53.30000 24.42600
C  34.80400 52.87400 23.11000
C  35.34000 51.47500 23.16600
C  34.51600 54.64100 25.01600
C  34.51700 53.69200 21.85200
O  34.62100 53.25200 20.72200
C  33.94200 55.00600 22.00400
N  36.33400 48.52300 23.08500
C  36.14600 49.35500 22.00900
C  36.61600 48.80300 20.68500
C  37.23900 47.46000 21.08700
C  36.96500 47.34300 22.65600
C  35.52100 48.59800 19.57100
C  38.72000 47.20500 20.86800
C  38.99900 45.98200 19.95700
N  36.60800 47.25500 25.51600
C  37.02500 46.12700 24.83000
C  37.20900 45.00200 25.67600
C  37.05600 45.59400 26.98400
C  36.64400 46.93100 26.83700
C  37.56500 43.65700 25.20800
C  37.13700 45.26000 28.39900
O  37.47000 44.17900 28.90500
C  36.83200 46.56800 29.17600
C  35.67600 46.31400 30.08400
O  34.52700 46.10100 29.66600
O  35.99800 46.00600 31.37900
C  35.08600 45.25400 32.22900
H  34.81900 52.96300 27.15800
H  35.60700 51.13100 21.11900
H  37.77300 45.35500 22.95800
H  35.48800 49.30300 30.08100
H  36.42800 52.03000 29.18800
H  33.40900 51.35700 29.20100
H  34.27300 52.70300 29.87000
H  34.40200 51.18000 30.66400
H  38.02500 50.75800 30.17500
H  38.27500 49.18300 29.59600
H  38.20500 49.87200 32.10300
H  37.54800 48.23600 31.67100
H  33.45700 54.89800 24.99200
H  35.11200 55.34000 24.42900
H  34.89300 54.72400 26.03500
H  33.00500 54.89500 22.55100
H  33.67200 55.43500 21.04000
H  34.70600 55.65800 22.42800
H  37.31300 49.59600 20.41500
H  36.60500 46.67600 20.67400
H  34.59600 48.22700 20.01200
H  35.84100 47.82000 18.87700
H  35.42200 49.54700 19.04300
H  39.21300 47.10700 21.83500
H  39.09200 48.12000 20.40600
H  39.76600 45.39400 20.46100
H  39.33500 46.54400 19.08600
H  38.10700 45.44200 19.64100
H  38.60500 43.51000 24.91600
H  36.93500 43.26700 24.40900
H  37.31700 43.06500 26.08900
H  37.71000 46.92000 29.71800
H  34.85600 44.34800 31.66800
H  34.20200 45.87600 32.37000
H  35.60400 45.00900 33.15600

