158

Mg 26.11400 0.45300 29.31900
C  27.67500 0.11900 32.46500
C  23.26000 1.16500 30.92000
C  24.70900 0.85700 26.31600
C  29.13300 -0.26800 27.81900
N  25.48200 0.46600 31.42100
C  26.34400 0.46500 32.48600
C  25.61000 0.84000 33.75300
C  24.15700 1.10200 33.31200
C  24.27400 0.88500 31.78400
C  22.99100 0.27300 33.92800
C  26.17600 2.14200 34.49000
C  25.26800 2.70400 35.62800
H  25.79800 2.95800 36.99600
N  24.20000 0.88300 28.68400
C  23.11800 1.06100 29.50800
C  21.93700 1.25800 28.63400
C  22.37400 1.15000 27.33700
C  23.76200 0.90500 27.41400
C  20.57700 1.44200 29.23800
C  21.66100 1.26400 25.99200
O  22.18400 0.94700 24.95700
C  20.18200 1.64700 25.96900
N  26.90800 0.54200 27.33900
C  26.03100 0.63700 26.24100
C  26.77000 0.65400 24.92700
C  28.28700 0.39900 25.36900
C  28.13900 0.22800 26.95500
C  26.24900 -0.47100 23.86200
C  29.26900 1.54400 25.09500
C  29.39900 1.89400 23.65300
N  28.03400 -0.15300 29.98700
C  29.13900 -0.34800 29.24100
C  30.18500 -0.61900 30.14700
C  29.71700 -0.41500 31.42100
C  28.38800 -0.20500 31.32000
C  31.51700 -0.92100 29.69200
C  30.10700 -0.34100 32.78600
O  31.21100 -0.46300 33.26400
C  28.72500 0.10200 33.51000
C  28.45300 -0.84000 34.72200
O  27.90200 -1.91800 34.73300
O  28.94500 -0.28000 35.87700
C  28.85600 -1.01000 37.11400
H  22.45600 1.51800 31.56900
H  24.37400 0.97600 25.28400
H  30.08500 -0.38200 27.29600
H  25.68400 -0.00700 34.43400
H  24.00200 2.17700 33.39400
H  22.73900 -0.46100 33.16300
H  22.14100 0.91300 34.16800
H  23.31500 -0.20800 34.85100
H  26.41100 2.85900 33.70400
H  27.13600 1.84300 34.90900
H  24.40600 2.04200 35.70700
H  24.93500 3.66100 35.22500
H  20.46300 1.50300 30.32000
H  19.82200 0.68100 29.03900
H  20.23500 2.36500 28.76900
H  19.83800 1.68100 24.93500
H  20.07700 2.66600 26.34100
H  19.61400 0.90100 26.52400
H  26.66800 1.57500 24.35200
H  28.64800 -0.55400 24.98200
H  25.58500 -1.18700 24.34800
H  27.16100 -0.94900 23.50500
H  25.76600 -0.01000 23.00000
H  30.27100 1.19300 25.34300
H  29.03500 2.44900 25.65600
H  28.72100 1.36000 22.98700
H  30.40700 1.66000 23.30900
H  29.13300 2.92000 23.40100
H  32.14700 -0.45400 30.44900
H  31.72000 -0.46700 28.72200
H  31.71200 -1.97900 29.51900
H  29.00900 1.09400 33.86300
H  28.70000 -0.23200 37.86100
H  29.82000 -1.41000 37.43100
H  28.03700 -1.72900 37.07200
Mg 36.03800 0.95300 30.33700
C  33.96500 2.35500 32.83800
C  38.56700 1.14000 32.66300
C  38.15900 0.16500 27.92100
C  33.45500 1.51400 28.01900
N  36.18500 1.45200 32.54500
C  35.24400 2.05500 33.33000
C  35.70500 2.27600 34.76900
C  37.22800 2.05300 34.58900
C  37.29400 1.41700 33.21100
C  38.07600 3.34200 34.81000
C  34.98000 1.21000 35.60600
C  34.57600 1.62900 37.04700
H  35.33000 2.84000 37.63100
N  38.15800 0.61600 30.27200
C  39.03500 0.73900 31.34700
C  40.31400 0.34400 30.98200
C  40.17900 0.01900 29.59400
C  38.79500 0.25200 29.19800
C  41.50700 0.24800 31.92700
C  41.25300 -0.53100 28.65000
O  41.01100 -0.81100 27.47700
C  42.69300 -0.75000 29.10300
N  35.73500 0.73000 28.25400
C  36.80900 0.39700 27.44800
C  36.40800 0.33000 26.01700
C  34.88500 0.63900 26.03100
C  34.60000 0.89500 27.53900
C  37.20000 1.35700 25.18600
C  33.85200 -0.41800 25.37300
C  32.94800 -0.01200 24.20200
N  34.10900 1.74200 30.33100
C  33.19800 1.92300 29.28100
C  31.98100 2.47900 29.87100
C  32.25000 2.70700 31.23400
C  33.56400 2.26800 31.45400
C  30.68100 2.84000 29.08200
C  31.71200 3.17300 32.46200
O  30.63200 3.67500 32.56600
C  32.78200 3.02200 33.55500
C  33.11500 4.38800 34.14700
O  33.99000 5.12100 33.79600
O  32.42300 4.56900 35.29900
C  32.74400 5.58800 36.20900
H  39.34400 1.36600 33.39500
H  38.82300 0.02400 27.06500
H  32.72100 1.86700 27.29200
H  35.35700 3.29300 34.94900
H  37.70300 1.38300 35.30600
H  38.84000 3.21900 35.57800
H  37.41800 4.18600 35.01800
H  38.66100 3.60000 33.92800
H  35.74200 0.43700 35.70400
H  34.15400 0.73900 35.07500
H  34.74300 0.72400 37.63100
H  33.51700 1.89000 37.05800
H  42.27300 -0.46400 31.62000
H  41.10600 -0.19100 32.84100
H  42.00900 1.19800 32.10700
H  43.33100 -1.09800 28.29100
H  42.59600 -1.51500 29.87400
H  43.11000 0.21600 29.38900
H  36.64100 -0.66100 25.62800
H  34.72800 1.55700 25.46600
H  37.85600 1.97000 25.80500
H  36.56200 2.03500 24.62000
H  37.89300 0.85600 24.51000
H  33.17400 -0.75600 26.15700
H  34.46300 -1.24600 25.01600
H  33.10600 1.04900 24.01300
H  31.90100 -0.30200 24.29200
H  33.30100 -0.56900 23.33300
H  30.84400 2.84100 28.00400
H  30.24400 3.81600 29.29200
H  29.92700 2.11200 29.38300
H  32.27000 2.50800 34.36900
H  33.74400 6.00200 36.07500
H  32.62500 5.02100 37.13300
H  32.01700 6.39500 36.12100

