158

Mg 48.42300 15.62600 28.32300
C  46.54000 15.52300 31.30100
C  50.70600 17.60300 30.07200
C  50.01800 15.98700 25.30600
C  45.79500 14.06800 26.64400
N  48.62000 16.43400 30.42400
C  47.67900 16.24100 31.50500
C  48.29000 16.90000 32.78800
C  49.44600 17.77400 32.25100
C  49.58000 17.30700 30.79300
C  49.26600 19.31100 32.43800
C  48.73100 15.80300 33.85200
C  48.06500 15.75500 35.22000
H  47.85300 17.16500 35.81000
N  50.15700 16.56800 27.79600
C  50.94200 17.33700 28.64400
C  52.03500 17.77100 27.88300
C  51.84600 17.49900 26.49100
C  50.58700 16.67300 26.48900
C  53.11600 18.52300 28.53400
C  52.73000 17.91100 25.25000
O  52.50000 17.58700 24.06800
C  53.90300 18.83100 25.43100
N  47.97200 15.08600 26.24100
C  48.86500 15.24000 25.26900
C  48.44700 14.56800 23.93200
C  46.99100 13.99500 24.29200
C  46.89200 14.37800 25.78600
C  48.32800 15.51000 22.65500
C  46.80600 12.49700 24.19800
C  47.54300 11.61300 25.22000
N  46.60300 14.92700 28.79800
C  45.61300 14.31000 28.02800
C  44.44100 13.97600 28.79500
C  44.77000 14.49900 30.06500
C  46.08500 15.06300 30.04200
C  43.25400 13.23000 28.34200
C  44.29500 14.51800 31.41300
O  43.24200 14.05800 31.85800
C  45.36500 15.23000 32.26100
C  44.86600 16.52600 32.80500
O  44.55500 17.51000 32.20100
O  44.66400 16.34900 34.16800
C  43.77300 17.39000 34.73300
H  51.47000 18.17600 30.60300
H  50.48400 16.10000 24.32500
H  44.94100 13.56600 26.18700
H  47.49800 17.56900 33.12700
H  50.32800 17.45200 32.80500
H  48.48300 19.69300 33.09300
H  49.21100 19.84700 31.49000
H  50.19100 19.67900 32.88200
H  49.81000 15.84500 34.00000
H  48.60300 14.83100 33.37400
H  48.67200 15.16600 35.90800
H  47.11500 15.27400 34.98600
H  52.96100 19.59600 28.41300
H  54.04400 18.36000 27.98600
H  53.29900 18.22300 29.56600
H  53.69800 19.82500 25.83000
H  54.44400 18.84300 24.48600
H  54.60300 18.37600 26.13100
H  49.23400 13.85600 23.68500
H  46.10100 14.34300 23.76800
H  47.27100 15.56800 22.39900
H  48.93100 15.11000 21.84000
H  48.56000 16.55200 22.87500
H  47.14700 12.24400 23.19400
H  45.75800 12.23200 24.06100
H  48.03000 10.76000 24.74800
H  46.77600 11.26100 25.91000
H  48.28400 12.15000 25.81300
H  42.36900 13.37500 28.96100
H  43.58400 12.19200 28.30900
H  43.09100 13.57700 27.32200
H  45.77300 14.58200 33.03700
H  44.43200 18.25400 34.82000
H  43.53000 16.95500 35.70200
H  42.86700 17.49400 34.13600
Mg 48.74200 34.61500 26.15600
C  46.59700 33.35400 28.75100
C  49.00600 37.38100 27.98200
C  50.36400 35.95100 23.59600
C  47.74200 31.89800 24.16500
N  48.06300 35.20700 28.15000
C  47.33100 34.49500 29.05100
C  47.57700 35.02700 30.46200
C  47.95200 36.53300 30.15100
C  48.43700 36.37000 28.67200
C  46.64400 37.44400 30.14400
C  48.68400 34.28300 31.32800
C  48.67200 34.51300 32.89400
H  47.49600 35.38800 33.45100
N  49.60800 36.38100 25.84900
C  49.57500 37.41500 26.71600
C  50.29500 38.54500 26.16000
C  50.64400 38.12700 24.84100
C  50.24000 36.76300 24.73700
C  50.51600 39.88900 26.89300
C  51.39500 38.91500 23.75100
O  51.79500 38.44400 22.72700
C  51.27700 40.36700 23.89200
N  49.01500 33.97900 24.14400
C  49.81900 34.68700 23.35100
C  50.11800 33.87400 22.04300
C  49.22900 32.63500 22.21000
C  48.67500 32.81200 23.60800
C  49.89600 34.68900 20.81000
C  49.95200 31.19500 22.16500
C  49.34900 30.16000 21.16700
N  47.47400 32.96700 26.35900
C  47.19900 31.94300 25.46800
C  46.24000 31.04600 26.14600
C  45.96200 31.54700 27.38100
C  46.74500 32.71500 27.45400
C  45.77300 29.79900 25.48600
C  45.27500 31.34500 28.60000
O  44.47300 30.46400 28.85400
C  45.77800 32.48500 29.62300
C  46.48200 31.77200 30.68800
O  47.32300 30.94300 30.47900
O  46.08400 32.17100 31.96300
C  46.66300 31.25500 32.95500
H  49.23200 38.27600 28.56700
H  50.91500 36.45000 22.79600
H  47.42300 31.10600 23.48300
H  46.62700 35.04500 30.99600
H  48.74200 36.93800 30.78300
H  46.04400 37.12800 30.99800
H  46.09700 37.29200 29.21300
H  46.96800 38.48300 30.20300
H  49.65600 34.56100 30.92000
H  48.58300 33.20600 31.19800
H  49.60200 35.05700 33.05500
H  48.72600 33.54900 33.40000
H  51.55900 40.20200 26.94200
H  50.20600 39.88700 27.93800
H  49.91400 40.66100 26.41300
H  51.93400 40.83100 24.62800
H  50.25200 40.66100 24.11600
H  51.57800 40.74300 22.91400
H  51.15400 33.55200 22.15400
H  48.37600 32.63400 21.53200
H  49.79300 34.05600 19.92900
H  50.84000 35.22200 20.70200
H  49.08700 35.42000 20.79900
H  50.08800 30.63600 23.09100
H  50.93400 31.52500 21.82500
H  50.03600 30.17700 20.32100
H  48.37200 30.47700 20.80200
H  49.25400 29.16900 21.61300
H  45.41500 30.21300 24.54300
H  44.84300 29.44800 25.93300
H  46.50900 28.99600 25.44500
H  44.79600 32.87600 29.88900
H  46.58200 31.82100 33.88300
H  47.71600 30.98500 32.87200
H  46.18700 30.27700 33.03000

