158

Mg 25.52800 -8.42100 47.28800
C  27.87500 -6.05800 46.54500
C  23.43600 -6.95700 44.92900
C  23.23200 -10.83700 47.95100
C  28.00500 -10.26900 48.98500
N  25.61200 -6.68200 45.91400
C  26.72200 -5.87200 45.77300
C  26.59000 -4.86900 44.66800
C  25.09200 -4.96900 44.34800
C  24.61400 -6.26200 45.12600
C  24.23400 -3.66200 44.77600
C  27.46500 -5.25900 43.46900
C  28.37400 -4.25300 42.77600
H  27.96500 -3.67700 41.41000
N  23.54800 -8.81200 46.62100
C  22.86900 -8.07700 45.57800
C  21.61600 -8.77000 45.33400
C  21.49400 -9.71800 46.33400
C  22.77200 -9.83200 47.02100
C  20.60900 -8.23200 44.31800
C  20.25800 -10.49600 46.61400
O  19.31900 -10.42400 45.83800
C  20.07500 -11.33500 47.89400
N  25.59700 -10.27200 48.27900
C  24.50700 -11.03900 48.55500
C  24.93100 -12.35600 49.25700
C  26.47500 -12.30600 49.23700
C  26.76800 -10.87400 48.77100
C  24.19300 -12.51300 50.60200
C  27.35000 -13.34100 48.49100
C  27.74500 -14.56000 49.30300
N  27.53100 -8.29400 47.71900
C  28.40000 -9.05900 48.42800
C  29.71300 -8.44300 48.43500
C  29.56500 -7.19700 47.81600
C  28.18800 -7.15300 47.39500
C  30.99100 -9.05500 48.90400
C  30.28000 -6.03900 47.30100
O  31.45300 -5.65600 47.45800
C  29.22800 -5.25300 46.46400
C  29.04600 -3.83300 46.93600
O  28.55500 -3.51200 48.00600
O  29.49400 -2.96200 45.94700
C  29.12500 -1.59000 46.02100
H  22.89600 -6.38600 44.17100
H  22.52900 -11.65900 48.10100
H  28.76700 -10.86700 49.48900
H  26.91100 -3.91000 45.07600
H  24.88500 -5.16400 43.29600
H  23.67400 -3.78100 45.70300
H  23.48100 -3.44400 44.01900
H  24.85400 -2.77400 44.90200
H  26.80500 -5.58400 42.66400
H  28.00000 -6.16600 43.74900
H  29.27400 -4.82600 42.55300
H  28.71800 -3.42700 43.39900
H  21.00200 -7.34400 43.82500
H  19.76500 -7.73700 44.79900
H  20.31200 -9.02200 43.62800
H  20.52200 -12.26600 47.54500
H  19.01400 -11.44600 48.11900
H  20.62500 -10.90600 48.73200
H  24.51700 -13.09900 48.57500
H  26.65800 -12.24800 50.31000
H  24.55400 -13.34400 51.20700
H  23.12500 -12.50200 50.38500
H  24.47600 -11.61700 51.15400
H  28.18600 -12.86700 47.97700
H  26.65500 -13.75200 47.75800
H  28.73800 -14.80600 48.92600
H  27.02300 -15.31100 48.98200
H  27.68200 -14.41100 50.38100
H  31.55300 -8.30100 49.45500
H  31.56500 -9.50100 48.09100
H  30.82600 -9.94600 49.50900
H  29.46000 -5.27400 45.39900
H  28.13200 -1.54600 45.57400
H  29.82800 -0.92400 45.52200
H  29.11200 -1.16700 47.02600
Mg 36.16600 49.48200 25.98500
C  35.67600 47.61300 28.97700
C  35.84200 52.34500 27.65200
C  35.90900 51.00600 23.06700
C  36.54700 46.47200 24.26100
N  35.76500 49.93300 28.06300
C  35.64300 49.04000 29.14300
C  35.38800 49.82700 30.44100
C  35.70300 51.37800 30.01600
C  35.89200 51.17400 28.48800
C  34.53900 52.35600 30.47500
C  36.33100 49.37600 31.64000
C  35.70200 48.82000 32.86900
H  34.23700 49.17700 33.17900
N  35.85500 51.42200 25.42000
C  35.79400 52.45200 26.28900
C  35.64400 53.66800 25.55400
C  35.60100 53.34900 24.15000
C  35.83500 51.86200 24.16400
C  35.47500 55.01500 26.13700
C  35.41300 54.17600 22.90600
O  35.53800 53.78100 21.77900
C  35.33100 55.71300 23.05400
N  36.00800 48.78500 23.94700
C  35.89000 49.65500 22.94700
C  36.09000 48.97000 21.57300
C  36.50900 47.51200 21.96300
C  36.26700 47.58700 23.46500
C  34.92500 49.01800 20.50900
C  38.00400 47.15800 21.61200
C  38.12300 45.97700 20.60000
N  36.16400 47.38500 26.48200
C  36.39600 46.30900 25.65500
C  36.42600 45.10800 26.45800
C  36.13500 45.56500 27.83000
C  36.01000 46.97900 27.75000
C  36.67100 43.68300 26.08300
C  36.06200 45.12000 29.21100
O  36.27400 44.01600 29.75600
C  35.62500 46.53000 30.01600
C  34.33400 46.28700 30.66700
O  33.29300 46.69200 30.17000
O  34.49700 45.48600 31.78100
C  33.32600 45.18000 32.50000
H  35.92600 53.26500 28.23400
H  35.94400 51.52600 22.10700
H  36.75300 45.63400 23.59100
H  34.34200 49.77500 30.74500
H  36.61600 51.83500 30.39700
H  34.98900 53.16900 31.04600
H  33.93400 51.81200 31.20100
H  33.88500 52.70600 29.67700
H  36.94800 50.19900 31.99900
H  36.86700 48.52700 31.21500
H  36.23800 49.22300 33.72900
H  35.76400 47.73200 32.90100
H  36.29700 55.68100 25.87600
H  35.37700 55.02500 27.22200
H  34.59200 55.45500 25.67400
H  36.26500 56.04600 23.50500
H  34.43600 56.10500 23.53600
H  35.33900 56.05000 22.01700
H  36.94600 49.50600 21.16300
H  35.79700 46.83500 21.49000
H  34.96200 49.86600 19.82400
H  33.92200 49.07000 20.93200
H  35.00900 48.11400 19.90500
H  38.58500 46.90700 22.50000
H  38.42800 48.06600 21.18200
H  38.80700 46.36000 19.84200
H  37.20200 45.81400 20.04000
H  38.39700 45.03500 21.07700
H  37.70300 43.53200 26.40000
H  36.52900 43.48700 25.02100
H  36.04400 43.06200 26.72400
H  36.35700 46.56300 30.82300
H  32.82900 46.12100 32.73500
H  33.54300 44.59300 33.39300
H  32.60800 44.57500 31.94700

