158

Mg 7.85500 3.23500 27.37500
C  9.37300 1.96100 30.16300
C  6.01600 5.34300 29.41200
C  6.17100 4.06800 24.67400
C  9.21500 0.38900 25.56300
N  7.88300 3.73900 29.50400
C  8.58400 3.04900 30.40900
C  8.28900 3.54100 31.84800
C  7.25700 4.71500 31.55800
C  7.07400 4.61200 30.05300
C  5.87800 4.67800 32.32300
C  9.55900 3.90400 32.74800
C  9.33900 4.82300 33.98000
H  10.27600 4.90500 35.23000
N  6.50800 4.66400 27.03500
C  5.79600 5.38600 28.01700
C  4.88200 6.27600 27.34700
C  5.05700 6.02700 25.92800
C  5.95600 4.90300 25.80800
C  3.96600 7.30500 27.94700
C  4.55100 6.83900 24.79400
O  4.94300 6.63600 23.60800
C  3.63000 7.93500 24.92900
N  7.90000 2.43700 25.31100
C  7.03300 3.03300 24.40700
C  7.06800 2.26400 23.06500
C  8.15600 1.18600 23.33800
C  8.43100 1.30500 24.78400
C  5.70900 1.76000 22.59100
C  9.37700 1.25900 22.41900
C  9.69200 0.09200 21.44600
N  9.03200 1.58000 27.71300
C  9.51700 0.56100 26.90900
C  10.37900 -0.37400 27.63800
C  10.32800 0.16100 28.93100
C  9.48700 1.28800 28.94000
C  11.11000 -1.58800 27.15200
C  10.75500 -0.03700 30.31600
O  11.45300 -0.92600 30.77800
C  10.17400 1.12500 31.10000
C  9.41700 0.51200 32.19900
O  8.28700 0.04700 32.14100
O  10.04900 0.69000 33.43500
C  9.39900 0.30900 34.65100
H  5.28100 5.96400 29.92900
H  5.55200 4.37000 23.82700
H  9.60900 -0.44500 24.97900
H  7.74400 2.87900 32.52000
H  7.74500 5.67600 31.72600
H  5.54900 5.66600 32.64500
H  5.93000 4.25500 33.32600
H  4.93900 4.38500 31.85200
H  10.29300 4.43700 32.14400
H  10.08700 3.00700 33.07300
H  8.40500 4.48800 34.43200
H  9.32100 5.84500 33.60000
H  4.30700 8.28900 27.62700
H  4.01200 7.21200 29.03200
H  3.01800 6.99700 27.50600
H  4.16100 8.69900 25.49700
H  2.72300 7.71400 25.49100
H  3.30200 8.43200 24.01600
H  7.40400 2.91200 22.25600
H  7.74600 0.18400 23.21200
H  4.93900 2.10000 23.28300
H  5.80000 0.67400 22.56400
H  5.46000 2.05600 21.57200
H  10.26800 1.33200 23.04100
H  9.36000 2.14800 21.78800
H  8.74900 -0.38400 21.17900
H  10.47300 -0.50800 21.91400
H  10.21500 0.49600 20.57900
H  11.55600 -1.28900 26.20300
H  10.39300 -2.39700 27.01000
H  11.86500 -1.92600 27.86100
H  10.99700 1.76100 31.42500
H  10.00800 -0.13500 35.43900
H  8.58300 -0.39000 34.46600
H  8.97300 1.23400 35.04000
Mg 36.13400 49.92600 25.01700
C  36.39200 47.86700 28.04000
C  34.60800 52.28800 26.92900
C  35.27100 51.32700 22.23100
C  37.02000 46.97200 23.22400
N  35.70400 50.05200 27.24400
C  35.90100 49.12000 28.28500
C  35.61500 49.80200 29.68100
C  34.87900 51.15600 29.28100
C  35.13000 51.16700 27.71800
C  33.39300 51.10600 29.71800
C  36.92200 50.13300 30.41700
C  37.00000 49.80900 31.93300
H  35.70900 49.40900 32.70800
N  35.24800 51.72600 24.65500
C  34.64600 52.52300 25.57500
C  33.92200 53.60200 24.83200
C  34.11900 53.38700 23.43000
C  34.94100 52.11900 23.38200
C  33.05700 54.65300 25.47600
C  33.58700 54.10100 22.17400
O  33.63100 53.68900 21.00900
C  33.03100 55.50900 22.25600
N  36.23400 49.23800 22.96000
C  35.85300 50.06900 22.00400
C  36.07300 49.54800 20.58300
C  36.54000 48.05800 20.91300
C  36.56400 47.99100 22.45200
C  34.88500 49.62400 19.62700
C  37.99600 47.67100 20.43900
C  39.32800 48.28500 21.05700
N  36.77200 47.84700 25.45500
C  37.15000 46.76600 24.63600
C  37.49800 45.60300 25.37800
C  37.20500 45.93600 26.77500
C  36.74700 47.31500 26.71200
C  38.20900 44.38100 24.93700
C  37.17800 45.51100 28.10400
O  37.39500 44.40600 28.55000
C  36.71000 46.74100 29.04000
C  35.55700 46.23100 29.79800
O  34.35400 46.44600 29.51500
O  35.91600 45.41300 30.88800
C  34.77500 45.08700 31.74500
H  34.22200 53.14500 27.48400
H  34.97400 51.74500 21.26700
H  37.25100 46.12300 22.57900
H  34.95600 49.19600 30.30300
H  35.35600 51.97600 29.81900
H  33.13900 50.19200 30.25400
H  32.83300 51.17800 28.78600
H  33.09900 52.05100 30.17500
H  37.17200 51.18000 30.24900
H  37.69300 49.52100 29.94800
H  37.40600 50.69200 32.42600
H  37.74500 49.01900 32.02300
H  31.97200 54.55800 25.42700
H  33.28000 55.60500 24.99600
H  33.37000 54.82800 26.50500
H  33.82600 56.23800 22.41300
H  32.19000 55.55400 22.94900
H  32.67500 55.71200 21.24600
H  36.85900 50.13200 20.10200
H  35.80000 47.34800 20.54300
H  34.93500 48.83900 18.87200
H  34.71800 50.52700 19.04000
H  34.07400 49.33500 20.29500
H  38.08400 47.93400 19.38500
H  38.07100 46.58500 20.38500
H  39.76800 47.43000 21.57100
H  39.08900 49.11100 21.72700
H  40.01100 48.75300 20.34900
H  38.37300 44.42000 23.86000
H  37.64700 43.45100 25.02800
H  39.18100 44.50300 25.41400
H  37.42900 46.97800 29.82400
H  34.18300 44.35300 31.19900
H  34.14100 45.92500 32.03400
H  35.22400 44.72300 32.66900

