158

Mg 36.15400 3.11400 29.84600
C  33.45600 3.83500 32.04000
C  38.18500 3.11600 32.56000
C  38.47000 2.88600 27.59000
C  33.71800 3.20400 27.18500
N  35.87100 3.40100 32.05300
C  34.65600 3.61800 32.73200
C  34.85000 3.69200 34.23400
C  36.41800 3.64300 34.34300
C  36.87100 3.38500 32.91400
C  37.11300 4.91100 34.90200
C  34.09700 2.51300 34.93300
C  33.71700 2.89500 36.41500
H  34.38000 3.98700 37.36000
N  38.09200 2.91000 30.06500
C  38.79800 2.93300 31.28000
C  40.15800 2.62100 30.96000
C  40.28100 2.54100 29.50900
C  38.90900 2.82500 28.97300
C  41.24100 2.36100 31.95600
C  41.50300 2.24100 28.54300
O  41.39400 2.08200 27.33900
C  42.93000 2.12600 29.15800
N  36.14300 2.88600 27.68800
C  37.24400 2.75100 26.98200
C  36.89400 2.62200 25.41200
C  35.35200 2.32000 25.43100
C  35.03000 2.75500 26.90200
C  37.20100 3.93800 24.64900
C  35.04500 0.82200 25.06300
C  34.04200 0.51600 23.92400
N  34.05300 3.60500 29.58500
C  33.23400 3.58900 28.47400
C  31.83100 3.92300 28.87900
C  31.90800 4.10000 30.30900
C  33.23800 3.83700 30.62800
C  30.65900 4.24900 27.95900
C  31.14500 4.41400 31.48000
O  29.95600 4.69000 31.59300
C  32.12000 4.13400 32.63100
C  32.01200 5.40400 33.38200
O  32.30500 6.50500 32.90600
O  31.45600 5.18000 34.62600
C  31.29900 6.36800 35.41600
H  38.81700 2.93900 33.43300
H  39.22800 2.85300 26.80500
H  33.03900 3.18400 26.33000
H  34.49600 4.68300 34.51900
H  36.78800 2.78000 34.89700
H  37.78700 5.28400 34.13200
H  37.78900 4.49300 35.64800
H  36.42800 5.69800 35.21900
H  34.59900 1.54600 34.89800
H  33.18200 2.33100 34.37000
H  33.75400 1.95100 36.95800
H  32.69800 3.28200 36.45000
H  42.04200 3.09200 31.84400
H  41.74300 1.43100 31.68900
H  40.79900 2.23600 32.94500
H  43.01500 2.80500 30.00700
H  43.61000 2.48200 28.38500
H  43.22700 1.10200 29.38200
H  37.48500 1.77200 25.07200
H  34.88000 2.95100 24.67800
H  36.29100 4.47000 24.37000
H  37.81500 3.73000 23.77300
H  37.79900 4.60000 25.27600
H  34.68000 0.51700 26.04400
H  35.87400 0.15000 24.84000
H  33.55600 1.37300 23.45900
H  33.23300 -0.15500 24.21500
H  34.63700 0.01400 23.16100
H  29.67500 4.23700 28.42700
H  30.55300 3.57700 27.10800
H  30.73700 5.29600 27.66500
H  31.60900 3.36400 33.21000
H  30.90200 7.21900 34.86200
H  32.14100 6.49000 36.09800
H  30.50400 6.13400 36.12400
Mg -10.48100 39.18400 41.15800
C  -9.06800 35.85000 40.39100
C  -7.65900 40.45300 39.76100
C  -12.02800 42.01700 41.15800
C  -13.41500 37.39100 42.19600
N  -8.79300 38.23000 39.85300
C  -8.35300 36.92400 39.87200
C  -7.04600 36.81200 39.18700
C  -6.46300 38.28000 39.32700
C  -7.70800 39.02200 39.72900
C  -5.38200 38.46500 40.41200
C  -7.20900 36.16300 37.79600
C  -6.00500 35.43200 37.21800
H  -5.39900 36.18100 35.97000
N  -9.94500 41.05000 40.54500
C  -8.66300 41.33900 40.07500
C  -8.73100 42.76900 39.70300
C  -9.92200 43.35500 40.25200
C  -10.66500 42.16700 40.74400
C  -7.70400 43.57100 38.95400
C  -10.33000 44.74200 40.32300
O  -9.77700 45.59100 39.68300
C  -11.42400 45.18200 41.16400
N  -12.41700 39.62300 41.66800
C  -12.82200 40.91800 41.57900
C  -14.31700 40.95600 41.94000
C  -14.66300 39.55100 42.38900
C  -13.43300 38.80500 42.13200
C  -14.94300 42.16400 42.73000
C  -15.91600 38.98600 41.63100
C  -16.91100 38.18900 42.43500
N  -11.15200 37.05700 41.35200
C  -12.26300 36.56300 41.89300
C  -12.13400 35.18000 42.11000
C  -10.88500 34.85800 41.53700
C  -10.35600 35.98200 40.99300
C  -13.17000 34.30500 42.64000
C  -10.00300 33.77000 41.24900
O  -10.04400 32.56100 41.60300
C  -8.85000 34.39700 40.32500
C  -7.51400 33.88300 40.72900
O  -6.67900 33.49600 39.95800
O  -7.36600 33.95100 42.07300
C  -6.12600 33.60600 42.68600
H  -6.79900 40.92800 39.28500
H  -12.60200 42.93200 40.99400
H  -14.27500 36.85100 42.59900
H  -6.30200 36.21000 39.70900
H  -6.07300 38.58100 38.35500
H  -5.65200 39.07900 41.27000
H  -4.40600 38.77400 40.03600
H  -5.25900 37.50000 40.90400
H  -7.49000 36.89500 37.03900
H  -7.94800 35.36700 37.88400
H  -6.29600 34.41600 36.95000
H  -5.22800 35.50000 37.98000
H  -7.33100 44.51800 39.34600
H  -7.89600 43.80900 37.90800
H  -6.80200 42.98500 38.77900
H  -11.21600 46.18300 41.54300
H  -11.39200 44.50100 42.01400
H  -12.33500 45.21500 40.56600
H  -14.65500 41.10000 40.91400
H  -14.86600 39.53500 43.46000
H  -15.72300 42.51900 42.05700
H  -14.11400 42.85100 42.89600
H  -15.52900 41.89100 43.60800
H  -15.49700 38.44900 40.78000
H  -16.42500 39.77200 41.07300
H  -16.74000 38.11400 43.50900
H  -16.82300 37.20700 41.97200
H  -17.91900 38.59500 42.35900
H  -14.12800 34.33800 42.12000
H  -13.34600 34.43200 43.70800
H  -12.73800 33.31200 42.51400
H  -9.06100 34.16000 39.28200
H  -5.58500 32.73000 42.32700
H  -6.31700 33.47000 43.75100
H  -5.43700 34.43700 42.53600

