158

Mg 25.61600 1.58800 29.57100
C  27.40800 1.46500 32.56800
C  22.69800 1.67000 31.52200
C  23.89700 1.76900 26.88300
C  28.55200 0.94300 27.87500
N  25.08900 1.45500 31.79400
C  26.03000 1.64400 32.79100
C  25.33000 1.73500 34.17600
C  23.80900 1.44200 33.84100
C  23.83800 1.49100 32.32100
C  23.05900 0.12700 34.28900
C  25.62600 3.09500 34.93100
C  26.11000 2.91300 36.41000
H  25.86200 3.97300 37.43200
N  23.59200 1.72300 29.24400
C  22.59500 1.81500 30.13900
C  21.34300 1.96200 29.41600
C  21.69700 1.89600 28.05700
C  23.11200 1.85100 28.00400
C  19.96800 2.12100 30.00500
C  20.77700 1.81800 26.87600
O  21.18000 1.79100 25.70800
C  19.25800 1.68700 27.02700
N  26.20700 1.45100 27.65700
C  25.27400 1.71600 26.66800
C  25.91800 1.73800 25.25400
C  27.49400 1.64700 25.62000
C  27.42700 1.34200 27.14900
C  25.47100 0.49800 24.40100
C  28.29200 2.88600 25.25000
C  27.96800 4.21000 25.96800
N  27.56500 1.17100 30.05900
C  28.66700 0.82300 29.28800
C  29.82000 0.46500 30.10200
C  29.39700 0.81900 31.38000
C  28.01700 1.19700 31.31900
C  31.09300 -0.07900 29.56200
C  29.77500 0.93100 32.79100
O  30.84400 0.66500 33.30300
C  28.51900 1.43800 33.56700
C  28.39600 0.48800 34.65700
O  27.92700 -0.64000 34.59500
O  29.11100 0.98900 35.72800
C  28.93000 0.13100 36.90900
H  21.72600 1.84500 31.98700
H  23.51300 1.88000 25.86700
H  29.45600 0.71600 27.30400
H  25.55900 0.84800 34.76800
H  23.24500 2.30700 34.19100
H  22.05400 0.38200 34.62500
H  23.57000 -0.26100 35.17000
H  22.99300 -0.68100 33.56100
H  24.81400 3.82000 34.98200
H  26.44100 3.55300 34.37000
H  27.11000 2.50000 36.28500
H  25.62400 2.04400 36.85400
H  19.25500 2.81900 29.56600
H  20.08300 2.38500 31.05700
H  19.51200 1.13200 30.03600
H  18.80400 1.40600 26.07600
H  18.96000 2.69300 27.32300
H  19.00500 1.01100 27.84400
H  25.69500 2.64700 24.69500
H  27.88300 0.77300 25.09800
H  24.38500 0.43300 24.33200
H  25.64900 -0.35300 25.05900
H  25.94100 0.49200 23.41800
H  28.03800 3.08800 24.20900
H  29.35500 2.69600 25.40100
H  27.37800 4.88600 25.34900
H  28.74700 4.84500 26.39100
H  27.28800 3.94700 26.77800
H  31.73500 0.60800 29.01100
H  30.84700 -1.01900 29.06800
H  31.48600 -0.37200 30.53600
H  28.71200 2.47300 33.85000
H  29.05300 -0.93700 36.73100
H  28.06100 0.44200 37.48800
H  29.75000 0.37100 37.58600
Mg 45.95700 4.72100 48.19800
C  44.23500 7.62700 47.31600
C  43.11800 2.95300 47.46700
C  47.71600 1.75100 48.48700
C  48.91900 6.63400 48.52700
N  43.99400 5.26400 47.30600
C  43.45300 6.51100 47.07700
C  41.97600 6.50800 46.57200
C  41.65200 5.01900 46.82100
C  43.01200 4.35900 47.16400
C  40.57900 4.60800 47.92900
C  41.73700 7.01000 45.12200
C  40.67100 8.05500 44.73400
H  39.54000 7.66100 43.71600
N  45.50000 2.68200 48.05600
C  44.27900 2.15900 47.73600
C  44.32700 0.73900 47.87900
C  45.68700 0.34100 48.18500
C  46.36400 1.63300 48.32200
C  43.19900 -0.25000 47.72600
C  46.29900 -1.06800 48.28400
O  45.61100 -2.06800 48.28300
C  47.77400 -1.28000 48.41900
N  48.08200 4.22100 48.51700
C  48.52700 2.94000 48.52400
C  50.02600 2.93200 48.84700
C  50.47100 4.50500 48.66400
C  49.08500 5.19000 48.63300
C  50.39300 2.43800 50.29600
C  51.31800 4.96400 47.47700
C  52.56100 5.84500 47.65300
N  46.52600 6.74700 48.15400
C  47.77400 7.40900 48.27100
C  47.57700 8.80200 48.16000
C  46.23300 8.98000 47.82200
C  45.62900 7.68000 47.80200
C  48.65200 9.80200 48.15000
C  45.23300 9.90000 47.30000
O  45.30300 11.12300 47.07100
C  43.81600 9.07500 47.03200
C  42.72500 9.53800 47.90500
O  42.53600 9.11900 49.02100
O  42.02800 10.51100 47.27700
C  40.79500 10.96700 47.95800
H  42.18700 2.38400 47.41700
H  48.34100 0.89300 48.74500
H  49.87600 7.15700 48.59000
H  41.46100 7.17400 47.26400
H  41.24100 4.58600 45.91000
H  39.74000 4.09000 47.46500
H  40.14800 5.56200 48.23400
H  41.03100 4.12800 48.79700
H  41.52000 6.18500 44.44300
H  42.74400 7.37900 44.92400
H  41.30600 8.82000 44.28700
H  40.37100 8.47300 45.69500
H  42.74900 -0.41600 48.70400
H  43.52900 -1.24900 47.44100
H  42.49500 0.08900 46.96600
H  48.02600 -2.34000 48.46500
H  47.93400 -0.88300 49.42100
H  48.22900 -0.79400 47.55600
H  50.44200 2.33300 48.03700
H  51.01200 4.76900 49.57300
H  51.31000 2.98200 50.52300
H  50.51700 1.35500 50.29100
H  49.59700 2.68200 51.00000
H  50.67700 5.65500 46.93000
H  51.54800 4.11800 46.83000
H  52.89000 5.94700 48.68700
H  52.31200 6.88800 47.45700
H  53.41200 5.51600 47.05700
H  48.39000 10.70300 48.70400
H  48.93800 10.02800 47.12300
H  49.57000 9.35500 48.53200
H  43.48800 9.16200 45.99600
H  40.68800 10.48900 48.93100
H  39.99900 10.70000 47.26300
H  40.94200 12.04400 48.04200

