158

Mg 3.03800 -1.55100 44.33100
C  6.56800 -1.50700 44.09600
C  2.91100 1.16600 42.53400
C  -0.24500 -2.29700 43.66000
C  3.41800 -4.84500 45.55300
N  4.60900 -0.38400 43.30600
C  5.96300 -0.49700 43.34200
C  6.70200 0.53900 42.52400
C  5.48100 1.48800 42.16400
C  4.19600 0.74100 42.77200
C  5.51400 2.99800 42.62700
C  7.58900 -0.04200 41.32200
C  8.91100 0.63600 40.95700
H  8.99200 1.03300 39.47900
N  1.49100 -0.58000 43.31700
C  1.66900 0.56400 42.70500
C  0.41500 1.03100 42.15500
C  -0.53300 -0.01300 42.39800
C  0.18500 -1.02100 43.12900
C  0.24600 2.29600 41.34800
C  -2.02700 -0.04800 41.89100
O  -2.53300 0.91000 41.39600
C  -2.89300 -1.27400 42.07800
N  1.77800 -3.32100 44.57800
C  0.46800 -3.33500 44.25800
C  -0.23300 -4.70300 44.64300
C  1.03200 -5.54000 45.22800
C  2.13500 -4.46200 45.15100
C  -1.45900 -4.54300 45.63900
C  1.31300 -6.92700 44.46200
C  1.00000 -8.20400 45.22300
N  4.61300 -2.87500 44.97900
C  4.60000 -4.15800 45.30800
C  5.92600 -4.68100 45.55400
C  6.70200 -3.57600 45.27000
C  5.91500 -2.55800 44.73000
C  6.26600 -6.05500 46.09700
C  8.08200 -3.13600 45.29900
O  9.01400 -3.73100 45.70300
C  8.07500 -1.78200 44.43800
C  8.57200 -0.77600 45.41500
O  8.35100 -0.71400 46.58800
O  9.31700 0.12300 44.72600
C  9.54600 1.42900 45.30300
H  2.90400 2.09400 41.95800
H  -1.27600 -2.63300 43.52600
H  3.51000 -5.88600 45.86800
H  7.43600 1.01900 43.17000
H  5.29600 1.53600 41.09100
H  5.51700 3.57500 41.70300
H  6.38700 3.36000 43.17000
H  4.59000 3.22800 43.15700
H  6.92500 0.06300 40.46300
H  7.73200 -1.10800 41.49700
H  9.63200 -0.16800 41.10800
H  9.21800 1.51400 41.52600
H  0.59100 3.18200 41.88200
H  -0.80600 2.32200 41.06300
H  0.82900 2.18400 40.43400
H  -3.95500 -1.20400 41.84300
H  -2.85000 -1.48400 43.14700
H  -2.44200 -2.12000 41.56100
H  -0.53900 -5.09100 43.67100
H  0.83400 -5.77100 46.27500
H  -1.55100 -3.52600 46.02100
H  -1.40000 -5.22700 46.48500
H  -2.35800 -4.78700 45.07400
H  2.33500 -7.10400 44.12600
H  0.78700 -7.03400 43.51400
H  0.08900 -8.62700 44.79900
H  0.82600 -7.96300 46.27200
H  1.83500 -8.90300 45.18700
H  6.57900 -6.64300 45.23400
H  5.38800 -6.49200 46.57400
H  7.02000 -5.94000 46.87600
H  8.58100 -1.85600 43.47500
H  9.15800 2.14300 44.57700
H  10.56700 1.71400 45.55600
H  8.91200 1.57700 46.17700
Mg 48.32300 45.39400 42.14500
C  44.95100 46.16100 41.16000
C  47.80100 42.26500 40.82600
C  51.50500 44.85500 42.32100
C  48.82000 48.88000 42.50100
N  46.63200 44.46300 41.06300
C  45.38400 44.94700 40.75100
C  44.52500 43.92600 40.06600
C  45.31400 42.61600 40.32900
C  46.67500 43.17400 40.73800
C  44.72800 41.68700 41.42600
C  44.22100 44.08400 38.55700
C  43.05900 43.24700 37.99800
H  43.34500 42.51000 36.64500
N  49.49900 43.77800 41.80100
C  49.08300 42.54000 41.25000
C  50.22300 41.62900 41.17700
C  51.35200 42.37500 41.66800
C  50.79900 43.73000 42.06900
C  50.11200 40.20300 40.67600
C  52.67400 41.78100 42.01300
O  52.91000 40.59700 41.80600
C  53.73300 42.49600 42.73200
N  49.95500 46.67600 42.42200
C  51.21600 46.15600 42.48600
C  52.25400 47.21100 42.54300
C  51.40300 48.54500 42.46200
C  49.96100 48.00600 42.55100
C  53.44800 47.26300 43.58100
C  51.61000 49.56800 41.26500
C  51.57800 51.10100 41.60900
N  47.09300 47.16500 42.10700
C  47.45600 48.45000 42.42100
C  46.20300 49.17000 42.54700
C  45.18000 48.37400 41.98900
C  45.80300 47.15100 41.70200
C  46.01900 50.52100 43.12600
C  43.80300 48.24400 41.67500
O  42.85600 48.95300 41.75900
C  43.66600 46.84800 40.88100
C  42.51400 45.96700 41.39300
O  41.52700 45.61300 40.74600
O  42.81000 45.52400 42.66800
C  41.97100 44.54200 43.24900
H  47.67800 41.25200 40.43700
H  52.59200 44.74600 42.30600
H  48.74700 49.94700 42.72500
H  43.56300 43.95800 40.57700
H  45.29700 42.00800 39.42400
H  45.30500 41.69000 42.35100
H  44.53300 40.72100 40.96000
H  43.70000 42.02500 41.55400
H  45.08300 43.76100 37.97300
H  43.96200 45.12400 38.36100
H  42.21400 43.87100 37.70600
H  42.81700 42.52000 38.77400
H  49.26300 39.93300 40.04900
H  49.85200 39.63200 41.56700
H  50.95900 39.76000 40.15200
H  53.36600 43.02800 43.61000
H  54.15100 43.24200 42.05700
H  54.50000 41.78500 43.03800
H  52.70800 47.06300 41.56300
H  51.48200 49.05300 43.42300
H  54.41800 47.14300 43.09900
H  53.31700 46.39400 44.22600
H  53.51000 48.11200 44.26200
H  50.72400 49.35500 40.66700
H  52.48000 49.23400 40.69900
H  52.58100 51.47400 41.40100
H  51.22600 51.16400 42.63900
H  50.85400 51.61400 40.97500
H  46.53400 50.63700 44.08000
H  44.96800 50.75200 43.29700
H  46.44000 51.23700 42.42000
H  43.43600 47.08500 39.84200
H  42.03100 44.42600 44.33100
H  42.18500 43.58400 42.77500
H  40.91600 44.80400 43.16300

