158

Mg 43.85100 4.21000 47.57900
C  41.52400 6.93100 47.25200
C  41.26200 2.08000 47.26800
C  45.94700 1.64600 47.55100
C  46.44500 6.53900 47.49900
N  41.60800 4.46800 47.36100
C  40.91400 5.64900 47.16800
C  39.45800 5.34000 47.21300
C  39.36900 3.82800 47.51300
C  40.86500 3.39800 47.50700
C  38.67600 3.49200 48.90000
C  38.51900 5.94700 46.04000
C  38.68900 5.34600 44.64500
H  39.51300 6.15600 43.63400
N  43.55400 2.07700 47.20500
C  42.46900 1.37800 47.14000
C  42.68000 -0.04300 46.85900
C  44.15600 -0.13900 46.83200
C  44.64600 1.24800 47.12200
C  41.77900 -1.06800 46.54300
C  44.91700 -1.39400 46.61000
O  44.29800 -2.38600 46.38200
C  46.39000 -1.55900 46.57000
N  45.92200 4.11200 47.36000
C  46.56800 2.93200 47.66600
C  48.05800 3.16400 47.93600
C  48.18400 4.69900 47.82700
C  46.78300 5.15700 47.42800
C  48.58200 2.48400 49.25600
C  49.34100 5.24800 46.86200
C  50.68300 5.63900 47.57300
N  43.97800 6.34100 47.36300
C  45.15500 7.11400 47.46000
C  44.67700 8.50500 47.55100
C  43.23900 8.44600 47.56700
C  42.87600 7.16300 47.34600
C  45.50900 9.73300 47.57900
C  42.07600 9.31200 47.63300
O  41.92500 10.49000 47.81300
C  40.88300 8.26200 47.35800
C  39.96700 8.41200 48.56100
O  40.07600 7.77700 49.56000
O  38.99900 9.40200 48.27500
C  37.87800 9.51600 49.20300
H  40.33300 1.51300 47.35300
H  46.58300 0.80400 47.83400
H  47.26200 7.23400 47.70600
H  39.09300 5.75500 48.15300
H  38.85600 3.27700 46.72500
H  39.47600 3.22500 49.59100
H  38.07900 2.60700 48.68100
H  38.00300 4.25000 49.29900
H  38.80900 6.99700 46.07800
H  37.47800 5.90200 46.36100
H  37.68600 5.25800 44.22700
H  39.12700 4.35100 44.73300
H  41.79400 -1.07500 45.45300
H  40.77900 -0.78400 46.87000
H  42.01400 -2.02400 47.00900
H  46.85100 -1.13900 47.46300
H  46.72900 -1.04500 45.67100
H  46.72600 -2.59600 46.57900
H  48.63600 2.71600 47.12700
H  48.35800 5.16800 48.79600
H  49.57600 2.08100 49.06000
H  47.80700 1.89100 49.74300
H  48.92100 3.23600 49.96800
H  48.89500 6.09100 46.33500
H  49.45000 4.44700 46.13200
H  50.52400 6.61000 48.04300
H  51.45800 5.73300 46.81200
H  50.97100 4.86700 48.28600
H  46.50600 9.50200 47.20300
H  45.68700 10.12600 48.58000
H  44.98900 10.52800 47.04400
H  40.30200 8.50400 46.46800
H  37.18300 10.30800 48.92600
H  38.21100 9.78600 50.20500
H  37.22400 8.65000 49.09900
Mg 10.48700 47.25900 26.25900
C  8.45000 47.79400 29.04800
C  13.06800 48.83700 27.95500
C  12.38400 46.89600 23.49700
C  7.55100 46.62300 24.30600
N  10.69400 48.28000 28.24700
C  9.79800 48.07700 29.28000
C  10.46200 48.56800 30.60200
C  11.57000 49.46600 30.04600
C  11.85600 48.85000 28.67000
C  11.28700 50.97500 29.96600
C  10.91600 47.45600 31.49600
C  11.09900 47.70500 33.02900
H  10.77000 46.50300 33.98900
N  12.49900 47.65700 25.85900
C  13.38000 48.29900 26.70300
C  14.74800 48.28500 26.04100
C  14.53700 47.65200 24.77500
C  13.09300 47.37700 24.61400
C  15.92600 48.84100 26.68800
C  15.51900 47.16400 23.79400
O  15.28600 46.41900 22.81100
C  16.88300 47.64400 23.93500
N  9.98500 46.94600 24.11900
C  11.01200 46.63600 23.26000
C  10.40400 46.11000 21.95100
C  8.96200 45.82300 22.34000
C  8.79800 46.52900 23.65300
C  10.54000 47.03600 20.70100
C  8.53800 44.35100 22.37300
C  9.26800 43.51700 23.36100
N  8.34800 47.18300 26.59600
C  7.32600 46.95000 25.75200
C  6.08300 47.16400 26.45500
C  6.47800 47.41800 27.84300
C  7.88900 47.47600 27.78500
C  4.59300 47.12600 25.95100
C  6.07500 47.61000 29.19200
O  4.93800 47.68400 29.62800
C  7.35100 47.77600 30.07000
C  7.45400 46.56700 30.92900
O  7.94400 45.47600 30.60000
O  6.94200 46.82200 32.14700
C  6.85400 45.71200 33.13200
H  13.85900 49.31000 28.54000
H  12.96600 46.59700 22.62300
H  6.67000 46.29300 23.75100
H  9.81900 49.29600 31.09700
H  12.54700 49.32600 30.50900
H  10.23100 51.22000 30.07900
H  11.51500 51.46800 29.02100
H  11.69100 51.49800 30.83300
H  11.84700 47.11300 31.04300
H  10.22300 46.62700 31.34900
H  10.39700 48.49800 33.28700
H  12.12300 47.94000 33.32200
H  15.77200 49.28500 27.67100
H  16.33000 49.61600 26.03600
H  16.69100 48.07900 26.83700
H  16.78500 48.72800 23.98400
H  17.52400 47.26600 23.13800
H  17.21800 47.25600 24.89700
H  10.96600 45.19200 21.78300
H  8.18200 46.25100 21.71100
H  10.35700 48.10000 20.84600
H  9.86100 46.70700 19.91400
H  11.55400 47.05200 20.30100
H  8.54900 43.91900 21.37200
H  7.46100 44.33300 22.54000
H  8.75600 43.30300 24.29800
H  10.24300 43.91200 23.64700
H  9.59000 42.62400 22.82500
H  4.42200 48.07000 25.43400
H  3.94900 46.97800 26.81800
H  4.47100 46.23600 25.33300
H  7.27500 48.61100 30.76600
H  7.57100 44.91800 32.92300
H  5.84000 45.32400 33.23300
H  7.12400 45.98300 34.15200

