158

Mg 0.80900 8.01900 27.04600
C  1.70100 10.05200 29.73400
C  0.71900 5.37100 29.25000
C  0.58600 6.02900 24.32300
C  1.09100 10.72500 24.92000
N  1.17300 7.78100 29.18900
C  1.31000 8.76000 30.11600
C  1.08200 8.28200 31.57800
C  1.17400 6.72900 31.29000
C  0.95900 6.65000 29.78400
C  2.49100 6.03400 31.79600
C  -0.20100 8.79700 32.31200
C  -0.22000 8.91700 33.81800
H  1.00700 8.55400 34.66100
N  0.72600 5.94400 26.81400
C  0.68100 5.06100 27.87200
C  0.73000 3.70700 27.23500
C  0.62100 3.86300 25.83000
C  0.64000 5.33500 25.61900
C  0.72000 2.40600 27.98700
C  0.46400 2.90700 24.75400
O  0.45100 3.31200 23.60700
C  0.30400 1.43100 24.96600
N  1.01200 8.33200 24.88900
C  0.63900 7.39800 24.00300
C  0.61100 7.93800 22.53300
C  0.38300 9.49200 22.88400
C  0.78600 9.50700 24.33200
C  1.91000 7.69400 21.72100
C  -1.05800 9.87300 22.45000
C  -1.21500 10.86100 21.23200
N  1.45200 10.01400 27.20100
C  1.50600 10.98500 26.31000
C  1.99100 12.15300 26.90900
C  2.14000 11.83600 28.30600
C  1.78800 10.53500 28.42800
C  1.99800 13.57000 26.33700
C  2.44000 12.44300 29.58000
O  2.83300 13.51900 30.05700
C  2.10800 11.30500 30.59000
C  3.33900 11.16400 31.45700
O  4.34300 10.58200 31.16400
O  3.05600 11.79000 32.61300
C  4.04400 11.80300 33.67900
H  0.66600 4.57500 29.99500
H  0.38600 5.42700 23.43400
H  0.95300 11.58800 24.26600
H  1.99600 8.50600 32.12900
H  0.35500 6.18000 31.75400
H  3.06600 6.77200 32.35600
H  3.14800 5.85800 30.94500
H  2.19900 5.14200 32.35000
H  -1.00200 8.13000 31.99500
H  -0.39100 9.79200 31.91000
H  -0.99300 8.20000 34.09300
H  -0.63100 9.89600 34.06500
H  0.95300 2.63800 29.02600
H  1.47900 1.78400 27.51200
H  -0.25700 1.92300 27.99400
H  -0.04200 0.88600 24.08700
H  -0.37500 1.22100 25.79200
H  1.25900 1.02700 25.30200
H  -0.25200 7.51700 22.01600
H  1.15000 10.01200 22.31000
H  2.41200 8.62400 21.45200
H  1.69100 7.23700 20.75600
H  2.61600 7.12500 22.32600
H  -1.53900 10.25700 23.34900
H  -1.68000 9.02200 22.17100
H  -0.28500 10.92300 20.66700
H  -1.64400 11.83400 21.46900
H  -1.98900 10.36900 20.64300
H  2.65700 14.30700 26.79500
H  0.97700 13.93900 26.43800
H  2.20100 13.55300 25.26600
H  1.21400 11.64600 31.11300
H  4.53600 12.77500 33.72200
H  4.83600 11.05500 33.67000
H  3.52400 11.73400 34.63400
Mg 6.69300 53.86600 40.22200
C  6.39000 50.45300 39.84800
C  9.94900 53.63100 38.84900
C  6.89700 57.24300 39.91400
C  3.25700 54.02200 40.70600
N  7.93800 52.25600 39.18300
C  7.64400 50.92000 39.34800
C  8.83000 50.00300 39.00800
C  10.03300 51.06300 39.01600
C  9.26100 52.41700 38.94700
C  10.99000 50.93300 40.21600
C  8.74900 49.20300 37.65400
C  8.10400 49.99000 36.42400
H  7.13800 49.47600 35.44500
N  8.26900 55.22400 39.49200
C  9.53200 54.96800 39.04300
C  10.26800 56.13500 38.94200
C  9.40800 57.26700 39.18600
C  8.12400 56.60700 39.60700
C  11.76300 56.17400 38.70900
C  9.70700 58.69900 39.21000
O  10.83500 59.04300 38.89100
C  8.69800 59.73400 39.77000
N  5.24200 55.42100 40.13700
C  5.62000 56.75200 40.20600
C  4.38700 57.64300 40.46000
C  3.22800 56.57200 40.64500
C  3.88400 55.21200 40.41400
C  4.57600 58.59200 41.73700
C  1.96900 56.81600 39.76600
C  1.61000 58.30800 39.30100
N  5.12400 52.55400 40.42200
C  3.80300 52.71800 40.71000
C  3.14700 51.42700 40.95500
C  4.13400 50.54600 40.64600
C  5.26200 51.21900 40.24700
C  1.65900 51.13100 41.21400
C  4.47700 49.10100 40.57300
O  3.72900 48.13500 40.89300
C  5.88000 49.01700 40.15600
C  5.80700 48.21800 38.98400
O  5.23300 48.62800 37.97400
O  6.53400 47.06000 39.06900
C  6.37400 46.09100 37.98600
H  11.01300 53.56100 38.61300
H  6.78200 58.31700 40.07400
H  2.18800 54.16700 40.87600
H  8.93900 49.27900 39.81500
H  10.65500 50.98900 38.12400
H  10.50100 50.34100 40.98900
H  11.24200 51.92000 40.60600
H  11.89400 50.33700 40.09500
H  8.31900 48.20200 37.70600
H  9.73600 49.17700 37.19100
H  8.85900 50.27800 35.69200
H  7.72500 50.91500 36.85700
H  12.02600 56.95900 38.00100
H  12.13200 55.25400 38.25500
H  12.28000 56.33400 39.65500
H  7.86600 59.88100 39.08000
H  9.26900 60.66100 39.81400
H  8.37000 59.51800 40.78700
H  4.20500 58.21000 39.54700
H  2.83000 56.63800 41.65800
H  3.59500 58.76900 42.17800
H  4.93400 59.56600 41.40400
H  5.22700 58.08200 42.44700
H  1.22900 56.54600 40.52000
H  1.97600 56.25700 38.83000
H  2.25700 58.56300 38.46100
H  1.74700 59.01800 40.11600
H  0.55400 58.27300 39.03300
H  1.58100 50.07300 41.46500
H  1.12300 51.29200 40.27900
H  1.21100 51.83300 41.91700
H  6.40300 48.34900 40.84000
H  7.19400 46.02900 37.27100
H  5.47900 46.34600 37.41800
H  6.27800 45.05100 38.29800

