158

Mg 0.39000 7.25800 25.93800
C  1.16600 9.35800 28.73200
C  0.67500 4.55900 28.11500
C  -0.27500 5.38900 23.35200
C  0.92000 10.11900 23.85900
N  0.73300 7.04200 28.24800
C  1.06700 8.04700 29.14000
C  1.27600 7.42300 30.50500
C  1.35100 5.88900 30.25700
C  0.86100 5.75500 28.76300
C  2.76100 5.28100 30.35000
C  0.14100 7.81000 31.40200
C  0.42500 7.91800 32.88000
H  1.65500 7.08200 33.44700
N  0.09600 5.22900 25.78400
C  0.36500 4.31600 26.81800
C  0.23500 3.02700 26.23500
C  -0.10600 3.18400 24.82000
C  -0.08100 4.63000 24.55600
C  0.58900 1.85700 27.12800
C  -0.36700 2.20100 23.81900
O  -0.69700 2.47300 22.64600
C  -0.47900 0.77200 24.30500
N  0.60600 7.65300 23.86000
C  0.07900 6.73400 23.00400
C  -0.11000 7.36900 21.62500
C  0.08200 8.92900 21.81600
C  0.55700 8.91700 23.26600
C  0.85300 6.85300 20.50700
C  -1.15100 9.85300 21.63400
C  -1.41400 10.54100 20.21500
N  0.93000 9.35800 26.22500
C  1.05900 10.35800 25.25900
C  1.47900 11.55800 25.93500
C  1.50100 11.26600 27.29100
C  1.10100 9.88100 27.37400
C  1.71500 12.89000 25.21600
C  1.68800 11.83400 28.64000
O  2.13400 12.91600 28.96500
C  1.44600 10.50100 29.63700
C  2.67800 10.56600 30.44600
O  3.82700 10.27500 30.07500
O  2.30500 10.74500 31.74200
C  3.37200 10.69900 32.70000
H  1.00400 3.68400 28.67900
H  -0.74500 4.77500 22.58100
H  0.97100 11.09500 23.37300
H  2.19500 7.89000 30.86000
H  0.72100 5.27700 30.90300
H  2.73000 4.62900 31.22300
H  3.35900 6.13900 30.65400
H  3.03200 4.88800 29.37000
H  -0.58300 7.00500 31.27300
H  -0.36700 8.66900 30.96400
H  -0.47600 7.62100 33.41700
H  0.51700 8.99000 33.05200
H  0.53100 0.95700 26.51600
H  -0.12600 1.78000 27.94600
H  1.60800 1.86500 27.51600
H  0.43700 0.25000 24.58000
H  -0.89100 0.10600 23.54700
H  -1.13700 0.74100 25.17300
H  -1.16600 7.22600 21.39500
H  0.88000 9.34900 21.20400
H  1.46300 6.05000 20.92000
H  1.44800 7.67300 20.10600
H  0.30900 6.35800 19.70300
H  -1.04200 10.74000 22.25900
H  -1.98500 9.20500 21.90400
H  -2.47700 10.47500 19.98500
H  -0.84000 10.11800 19.39100
H  -1.05500 11.56500 20.32100
H  0.79700 13.47300 25.28100
H  2.05600 12.86900 24.18000
H  2.53200 13.41200 25.71500
H  0.55100 10.66500 30.23700
H  3.61600 11.75700 32.80300
H  4.28800 10.14200 32.50600
H  3.12600 10.37500 33.71100
Mg -10.42000 16.68000 42.95200
C  -7.06200 17.41700 43.39700
C  -11.00400 20.24300 42.45000
C  -13.75100 16.13300 42.39300
C  -9.79400 13.40000 42.84600
N  -9.23000 18.55200 42.84400
C  -7.86200 18.55800 43.11800
C  -7.28500 19.98300 42.82800
C  -8.57700 20.83700 42.90500
C  -9.69800 19.83000 42.72700
C  -8.75900 21.53500 44.26700
C  -6.56800 19.93900 41.44400
C  -5.20500 20.70400 41.50300
H  -4.09700 20.05700 40.70400
N  -12.17000 18.02600 42.46800
C  -12.19800 19.41100 42.42300
C  -13.55700 19.77200 42.19300
C  -14.35700 18.63600 42.03100
C  -13.43100 17.51900 42.26300
C  -13.87300 21.24700 42.06000
C  -15.82500 18.54600 41.65800
O  -16.49000 19.56200 41.69500
C  -16.60700 17.20400 41.33200
N  -11.61400 15.05900 42.64400
C  -12.98200 15.03900 42.62600
C  -13.54500 13.65600 42.66300
C  -12.22900 12.77000 42.47100
C  -11.13800 13.78400 42.64400
C  -14.38000 13.28100 44.02900
C  -12.10300 12.16300 41.02700
C  -11.36300 10.83100 40.99700
N  -8.77600 15.51300 43.07800
C  -8.64400 14.16900 43.12800
C  -7.22600 13.85100 43.38100
C  -6.58900 15.11800 43.50400
C  -7.58000 16.09900 43.25700
C  -6.61500 12.45100 43.49200
C  -5.30400 15.77200 43.66000
O  -4.23400 15.25100 43.78800
C  -5.57000 17.28300 43.58000
C  -5.02600 17.86500 44.83500
O  -5.44400 17.58000 45.93600
O  -4.05600 18.77100 44.58900
C  -3.77200 19.68900 45.68300
H  -11.15200 21.32200 42.37800
H  -14.80400 15.85400 42.31800
H  -9.43200 12.37000 42.82100
H  -6.67000 20.10100 43.72000
H  -8.67000 21.51700 42.05800
H  -9.16600 20.79600 44.95700
H  -9.49600 22.32900 44.14600
H  -7.85200 21.93000 44.72400
H  -7.18200 20.53700 40.77000
H  -6.51600 18.91400 41.07700
H  -4.83200 20.91400 42.50500
H  -5.56200 21.66800 41.14200
H  -14.59700 21.53200 41.29700
H  -13.09700 21.92300 41.70100
H  -14.33800 21.61000 42.97600
H  -17.45400 17.55500 40.74300
H  -16.96300 16.82600 42.29000
H  -16.07500 16.44600 40.75700
H  -14.20800 13.36800 41.84600
H  -12.08300 11.98700 43.21500
H  -14.22000 12.37100 44.60700
H  -15.40600 13.28700 43.66000
H  -14.33200 14.09000 44.75800
H  -11.62100 12.90700 40.39200
H  -13.10400 11.88600 40.69700
H  -12.13400 10.06200 40.96800
H  -10.60500 10.70800 41.77000
H  -10.82100 10.71700 40.05800
H  -7.24500 11.76100 42.93100
H  -6.50300 12.06700 44.50600
H  -5.62200 12.39800 43.04500
H  -5.19500 17.80800 42.70100
H  -4.22100 20.60900 45.30800
H  -2.70500 19.87800 45.80000
H  -4.17600 19.50300 46.67800

