158

Mg 1.01000 7.99300 26.59700
C  1.68200 10.13000 29.38800
C  1.57100 5.38700 28.67200
C  0.85600 6.07000 23.82300
C  0.89700 10.87900 24.59600
N  1.48600 7.84800 28.76900
C  1.69300 8.79700 29.73700
C  1.80500 8.33500 31.12500
C  2.03500 6.79300 30.76500
C  1.68500 6.62900 29.29800
C  3.55400 6.16000 30.97900
C  0.60200 8.54000 31.96100
C  0.69000 8.38500 33.54300
H  1.94000 7.77500 34.23000
N  1.06900 5.99700 26.36500
C  1.35100 5.09300 27.30100
C  1.41200 3.78500 26.63300
C  1.09800 3.91000 25.31100
C  0.97300 5.44300 25.07800
C  1.82300 2.58800 27.42400
C  0.85600 2.87000 24.18100
O  0.29000 3.22400 23.17900
C  1.18800 1.41500 24.33400
N  0.74300 8.38000 24.52000
C  0.74900 7.41800 23.53400
C  0.49500 8.00700 22.15800
C  0.46300 9.57500 22.49000
C  0.55400 9.64800 24.04000
C  1.38600 7.58300 21.05100
C  -0.76500 10.34000 21.98000
C  -0.50100 11.70500 21.27800
N  1.19400 10.09500 26.85500
C  1.13500 11.13000 25.95800
C  1.41600 12.40600 26.63100
C  1.61200 12.02400 27.98400
C  1.41500 10.64600 28.09600
C  1.52700 13.64700 25.96800
C  1.87700 12.57000 29.26900
O  2.14900 13.70900 29.60800
C  1.79300 11.36600 30.28500
C  2.97300 11.48300 31.21900
O  4.07900 11.00400 31.00900
O  2.50400 12.20800 32.29900
C  3.43400 12.22500 33.37000
H  1.64100 4.57900 29.40300
H  0.77300 5.59800 22.84200
H  0.89800 11.76600 23.95900
H  2.60100 8.94300 31.55400
H  1.39000 6.33400 31.51400
H  4.26700 6.91000 31.32000
H  3.97000 5.67800 30.09400
H  3.57000 5.48200 31.83300
H  -0.14500 7.83000 31.60700
H  0.21400 9.53000 31.71900
H  -0.18100 7.78700 33.81200
H  0.48300 9.37600 33.94700
H  2.60800 2.70900 28.17100
H  2.16200 1.80300 26.74700
H  0.96900 2.22900 27.99700
H  0.66000 1.03000 25.20600
H  2.25800 1.54800 24.49500
H  1.07200 0.83900 23.41600
H  -0.50100 7.74300 21.80100
H  1.34000 9.92100 21.94200
H  0.81800 6.74700 20.64100
H  2.39500 7.27400 21.32200
H  1.52500 8.33400 20.27400
H  -1.43400 10.51600 22.82200
H  -1.31500 9.83000 21.18900
H  -0.65600 12.58000 21.90900
H  -1.17600 11.83300 20.43200
H  0.57300 11.78600 21.10600
H  1.06900 14.53200 26.41000
H  1.30900 13.58300 24.90200
H  2.53600 14.04400 26.07700
H  0.87300 11.51200 30.85100
H  3.21900 13.01700 34.08800
H  4.47800 12.25300 33.05900
H  3.37200 11.25700 33.86700
Mg 40.92500 7.66100 28.74900
C  42.59100 8.94200 31.55300
C  38.45700 6.15000 30.80100
C  39.23100 6.60100 26.00100
C  43.62700 8.60100 26.74300
N  40.65300 7.50100 30.92700
C  41.38500 8.22000 31.84600
C  40.73700 8.05000 33.17400
C  39.55400 6.96300 32.97400
C  39.55800 6.79700 31.45300
C  39.92100 5.50000 33.56400
C  40.19000 9.39800 33.81000
C  40.89300 9.85400 35.12700
H  40.27600 10.71900 36.17700
N  39.12600 6.56000 28.42400
C  38.23800 6.06200 29.44200
C  37.02900 5.41000 28.76800
C  37.19200 5.74500 27.39700
C  38.52200 6.37700 27.21700
C  36.01700 4.60800 29.53500
C  36.23500 5.40900 26.36500
O  36.36100 5.71300 25.19800
C  34.90300 4.86800 26.75000
N  41.29500 7.71200 26.69700
C  40.46700 7.14800 25.71300
C  41.17700 7.02600 24.30700
C  42.56600 7.70900 24.55700
C  42.53700 8.01600 26.09400
C  41.22400 5.53500 23.76300
C  42.87600 8.96400 23.66100
C  42.00100 10.17500 24.09200
N  42.71300 8.58300 29.05900
C  43.69500 8.89100 28.18100
C  44.82000 9.50000 28.89800
C  44.33200 9.59200 30.18400
C  43.10000 8.98300 30.24000
C  46.11800 9.96600 28.34200
C  44.68800 10.07300 31.54200
O  45.67200 10.62600 31.89200
C  43.50300 9.69100 32.53600
C  44.04900 8.95700 33.63600
O  44.00100 7.74300 33.69500
O  44.41800 9.89300 34.57100
C  44.82200 9.22100 35.80000
H  37.68600 5.82700 31.50400
H  38.68100 6.25100 25.12400
H  44.48800 8.85600 26.12200
H  41.42200 7.42500 33.74700
H  38.61800 7.26100 33.44600
H  40.20300 4.89600 32.70100
H  39.03900 5.10500 34.06900
H  40.61700 5.60400 34.39500
H  39.12500 9.25100 33.98500
H  40.33100 10.22200 33.11000
H  41.76700 10.43500 34.83500
H  41.29700 8.95700 35.59600
H  36.42900 4.56700 30.54400
H  35.84800 3.67500 28.99900
H  35.05100 5.10800 29.59600
H  34.35300 5.62800 27.30400
H  34.97400 3.92800 27.29700
H  34.30600 4.68300 25.85700
H  40.60700 7.51400 23.51600
H  43.26400 6.89100 24.37600
H  42.20100 5.07500 23.91400
H  41.01600 5.39000 22.70300
H  40.43400 4.94600 24.22900
H  42.73200 8.73100 22.60700
H  43.91900 9.21500 23.85800
H  42.62800 11.03100 24.34100
H  41.21900 9.92400 24.80900
H  41.59100 10.43900 23.11700
H  46.04600 10.91700 27.81400
H  46.58000 9.20000 27.71800
H  46.76900 10.01400 29.21500
H  42.91400 10.58900 32.72200
H  43.93700 8.75000 36.22800
H  45.13500 9.93500 36.56100
H  45.54700 8.40800 35.74400

