158

Mg 48.20800 34.92400 26.43400
C  46.16700 34.21100 29.14500
C  48.93800 38.00300 27.95900
C  49.65000 35.95900 23.67500
C  46.98800 32.04000 24.82500
N  47.51900 36.01500 28.32400
C  46.80300 35.42800 29.33800
C  46.84600 36.35700 30.58400
C  47.33000 37.80200 30.00200
C  47.96500 37.27700 28.66000
C  46.27000 38.90500 29.92300
C  47.51800 35.64600 31.79900
C  48.23700 36.56000 32.79600
H  47.51600 37.54100 33.70700
N  49.37300 36.58600 25.94800
C  49.56500 37.74400 26.69600
C  50.60700 38.57400 25.98900
C  50.71500 38.04500 24.73600
C  49.84200 36.79100 24.75600
C  51.10100 39.83300 26.56600
C  51.54500 38.46400 23.55200
O  51.62100 37.85000 22.50900
C  52.35200 39.74400 23.59200
N  48.24600 34.08500 24.55700
C  48.89700 34.79800 23.54400
C  48.83000 33.98200 22.23100
C  48.29600 32.58300 22.65100
C  47.79200 32.84400 24.08800
C  48.07500 34.69800 21.14200
C  49.35900 31.43400 22.59800
C  49.03700 30.30400 21.58500
N  46.80900 33.46100 26.81600
C  46.53300 32.30300 26.11500
C  45.63200 31.48700 26.91600
C  45.40700 32.21700 28.11800
C  46.22600 33.33900 28.02600
C  45.02500 30.14500 26.57800
C  44.69200 32.39000 29.36900
O  43.80800 31.71200 29.84900
C  45.26100 33.49200 30.14300
C  46.01600 32.92700 31.28200
O  47.23000 32.61500 31.10600
O  45.29500 32.81200 32.41800
C  46.01400 32.13800 33.52000
H  49.28500 38.95300 28.37100
H  50.11000 36.27000 22.73500
H  46.66900 31.11500 24.33900
H  45.81200 36.51000 30.89200
H  48.07800 38.18400 30.69700
H  45.82900 38.83800 28.92900
H  46.58000 39.92600 30.14500
H  45.44300 38.63200 30.57800
H  48.28200 34.96600 31.42100
H  46.78900 35.08500 32.38300
H  49.13100 37.11800 32.52000
H  48.73600 35.80800 33.40700
H  52.18900 39.86800 26.51200
H  50.78800 39.90700 27.60800
H  50.64400 40.59000 25.92800
H  51.82300 40.65800 23.86200
H  52.69800 39.90200 22.57100
H  53.18900 39.64000 24.28300
H  49.83000 33.83500 21.82500
H  47.45500 32.25600 22.03900
H  48.76700 34.54600 20.31400
H  48.10500 35.77500 21.30200
H  47.05500 34.32300 21.06600
H  49.43700 30.99400 23.59200
H  50.34300 31.79700 22.30000
H  49.74300 30.19900 20.76000
H  48.07600 30.46100 21.09600
H  49.14700 29.39000 22.16800
H  44.58600 30.14600 25.58100
H  44.15300 29.97100 27.20800
H  45.77700 29.37400 26.74900
H  44.46600 34.12600 30.53500
H  46.65100 31.36100 33.09900
H  45.37500 31.84400 34.35200
H  46.67800 32.94900 33.81900
Mg 29.83500 57.45200 40.95100
C  26.91700 55.87800 39.67500
C  31.62400 55.03500 39.24700
C  32.57700 59.46400 40.79700
C  27.79100 60.18000 41.74900
N  29.26900 55.55600 39.69800
C  28.07000 55.15900 39.29600
C  28.18300 53.91600 38.38900
C  29.63400 53.57000 38.51500
C  30.22700 54.84600 39.14700
C  29.92600 52.35500 39.43000
C  27.62700 54.05500 36.93600
C  27.88800 55.37900 36.17800
H  27.03300 55.55500 34.93900
N  31.87000 57.15600 40.45100
C  32.38200 56.11400 39.73100
C  33.83500 56.21300 39.70100
C  34.16500 57.52800 40.19200
C  32.86100 58.17300 40.46900
C  34.70900 55.26200 38.95100
C  35.58500 58.03100 40.30600
O  36.54900 57.38200 39.95600
C  35.85300 59.36000 40.96600
N  30.08400 59.43500 41.29600
C  31.33300 60.03000 41.22300
C  31.29300 61.59700 41.33800
C  29.83400 61.77800 42.00000
C  29.15100 60.38800 41.71400
C  32.36600 62.18700 42.27800
C  29.08900 63.01300 41.41700
C  28.88600 64.20900 42.43200
N  27.73800 57.94300 40.97200
C  27.07700 59.01900 41.44900
C  25.67400 58.79900 41.29100
C  25.55900 57.51200 40.75600
C  26.86800 57.11600 40.41600
C  24.56500 59.79200 41.63900
C  24.62500 56.46200 40.22700
O  23.42100 56.37700 40.30000
C  25.46300 55.48200 39.41100
C  25.27500 54.08100 39.92700
O  25.66600 53.65300 41.04100
O  24.51600 53.34100 39.04300
C  24.27200 51.91500 39.48800
H  32.28800 54.23300 38.91900
H  33.43300 60.10300 40.57000
H  27.21000 60.97100 42.22600
H  27.51000 53.15600 38.78700
H  30.15700 53.49800 37.56200
H  29.47800 51.49600 38.93000
H  29.36300 52.51200 40.35000
H  31.00000 52.28700 39.60500
H  26.62200 53.63600 36.89300
H  28.33100 53.39900 36.42400
H  28.95700 55.39600 35.96900
H  27.67500 56.16500 36.90400
H  35.37400 55.80300 38.27700
H  34.20000 54.52000 38.33600
H  35.37600 54.89100 39.73000
H  35.62900 60.08800 40.18700
H  36.88300 59.56900 41.25300
H  35.12800 59.52500 41.76400
H  31.24500 62.03300 40.34000
H  29.84800 61.76700 43.09000
H  33.04100 62.93300 41.85800
H  33.11100 61.42900 42.52100
H  31.88500 62.60200 43.16400
H  28.13800 62.77000 40.94300
H  29.66000 63.41600 40.58000
H  29.05500 65.15800 41.92400
H  29.68000 64.15600 43.17700
H  27.91800 64.29800 42.92500
H  24.39800 60.48800 40.81700
H  24.98700 60.45100 42.39800
H  23.58900 59.45700 41.99000
H  25.27500 55.47600 38.33800
H  25.29400 51.53500 39.50200
H  23.87500 51.36900 38.63200
H  23.77500 51.64300 40.42000

