158

Mg 26.43800 50.28900 27.14500
C  24.27700 51.27500 29.68200
C  28.53700 49.02400 29.48800
C  28.31600 49.13400 24.68200
C  24.23400 51.76600 24.85800
N  26.37100 50.12800 29.32400
C  25.37000 50.58000 30.19700
C  25.69500 50.26400 31.63600
C  27.13500 49.66600 31.52400
C  27.38400 49.58800 30.03200
C  28.21200 50.42000 32.41700
C  24.67100 49.33500 32.40700
C  24.08200 49.83800 33.73300
H  24.22400 48.82200 34.90600
N  28.19200 49.12400 27.11200
C  28.94700 48.73200 28.18400
C  30.16900 48.10800 27.69300
C  30.06000 48.18900 26.26700
C  28.77300 48.81100 25.98700
C  31.31100 47.51200 28.52400
C  31.10200 47.73300 25.23100
O  30.95200 47.88700 24.00500
C  32.34800 46.97500 25.66000
N  26.34400 50.56600 25.06700
C  27.24600 49.86400 24.25200
C  26.92200 50.15600 22.77100
C  25.45100 50.72000 22.86000
C  25.29600 51.06300 24.34100
C  28.04300 51.11300 22.11800
C  24.32400 49.80800 22.29000
C  23.56200 48.88400 23.25300
N  24.72700 51.43800 27.21300
C  23.86000 51.87500 26.21300
C  22.73700 52.48300 26.77300
C  22.85400 52.19800 28.13200
C  24.07200 51.64100 28.38100
C  21.64000 53.15700 26.06600
C  22.21200 52.36500 29.38000
O  21.07800 52.77600 29.59600
C  23.08600 51.83600 30.48300
C  23.47600 52.90400 31.44900
O  24.27200 53.72800 31.10000
O  22.73700 52.79800 32.58400
C  22.67900 53.94700 33.56200
H  29.22800 48.69400 30.26700
H  28.86100 48.65800 23.86400
H  23.52200 52.15100 24.12400
H  25.74700 51.19000 32.21000
H  27.17500 48.63900 31.88700
H  28.88900 49.76600 32.96600
H  27.79900 50.98200 33.25500
H  28.64600 51.16500 31.75000
H  25.13500 48.37300 32.62500
H  23.96400 48.98400 31.65500
H  23.01100 50.02600 33.65900
H  24.51500 50.81100 33.96400
H  31.18000 46.43500 28.62300
H  31.23300 47.92800 29.52900
H  32.28800 47.81400 28.14700
H  32.78600 46.80300 24.67700
H  32.18000 45.98200 26.07700
H  33.04400 47.41800 26.37200
H  26.95300 49.18700 22.27300
H  25.44400 51.62900 22.25900
H  28.77200 51.44500 22.85800
H  27.65500 52.03800 21.69000
H  28.53100 50.56200 21.31400
H  24.80600 49.16500 21.55400
H  23.61500 50.47000 21.79300
H  24.26800 48.57000 24.02200
H  23.11000 48.08900 22.66000
H  22.67300 49.38900 23.63200
H  21.98100 54.05800 25.55400
H  20.76000 53.48700 26.61900
H  21.19500 52.46600 25.35000
H  22.49100 51.06900 30.97700
H  22.90900 54.89300 33.07400
H  23.41300 53.64700 34.31000
H  21.70000 53.95500 34.04200
Mg 16.48100 52.31900 26.32800
C  17.93100 50.66500 29.20200
C  13.95800 53.39100 28.52800
C  15.25100 53.84500 23.76400
C  19.11500 50.91000 24.34900
N  16.06200 52.06500 28.58500
C  16.85100 51.44700 29.59800
C  16.34600 51.71400 31.06300
C  15.06200 52.46800 30.73900
C  14.99900 52.68200 29.17300
C  13.79200 51.67100 31.29200
C  17.44700 52.66700 31.82000
C  17.77600 52.27300 33.25800
H  16.87000 51.16700 33.87900
N  14.80700 53.35100 26.13700
C  13.82300 53.71600 27.10800
C  12.79900 54.59000 26.46100
C  13.24600 54.79800 25.06400
C  14.46900 53.95700 24.95700
C  11.58700 55.21000 27.17000
C  12.54700 55.64000 23.91500
O  13.02500 55.67400 22.82200
C  11.30700 56.44800 24.21800
N  17.03100 52.25300 24.26300
C  16.41100 53.11000 23.37900
C  17.16600 53.17900 22.04400
C  18.46100 52.32000 22.31600
C  18.18700 51.78000 23.70500
C  16.27000 52.50000 20.94700
C  19.79300 53.16800 22.37900
C  20.73200 52.83600 21.21100
N  18.04900 50.93100 26.58200
C  19.07400 50.56800 25.73100
C  20.05600 49.78300 26.39300
C  19.65600 49.82300 27.79100
C  18.41700 50.45800 27.85000
C  21.21900 48.96900 25.74400
C  20.19400 49.49900 29.14900
O  21.20900 48.91800 29.51300
C  19.02600 49.93600 30.11800
C  18.49000 48.65200 30.70100
O  17.64800 47.91800 30.20000
O  19.19000 48.39000 31.82700
C  18.76700 47.18800 32.59900
H  13.23900 53.75800 29.26300
H  14.89100 54.38300 22.88500
H  20.04600 50.66100 23.83500
H  16.20300 50.81100 31.65500
H  15.16900 53.43900 31.22200
H  13.90800 50.59100 31.37300
H  12.92900 51.79300 30.63700
H  13.50400 52.00200 32.29000
H  17.08600 53.68500 31.67200
H  18.30600 52.71400 31.15000
H  17.85200 53.17800 33.86100
H  18.79400 51.89100 33.19000
H  11.89400 56.17600 27.57100
H  11.29100 54.54200 27.97900
H  10.67300 55.32000 26.58600
H  10.95600 56.99200 23.34100
H  11.60000 57.24000 24.90700
H  10.41000 55.85200 24.38500
H  17.34900 54.21500 21.75600
H  18.50300 51.59700 21.50200
H  16.24700 53.22400 20.13200
H  15.26300 52.45900 21.36300
H  16.58600 51.52100 20.58900
H  20.29500 53.14700 23.34600
H  19.50200 54.21500 22.29400
H  20.96800 53.78600 20.73100
H  20.30900 52.07700 20.55200
H  21.56500 52.29400 21.65900
H  20.86200 48.70300 24.74900
H  21.24400 48.08000 26.37400
H  22.13300 49.56300 25.74900
H  19.45600 50.55900 30.90200
H  17.69700 46.98100 32.58400
H  19.01400 47.38900 33.64100
H  19.21100 46.28700 32.17400

