158

Mg 43.31900 3.56200 47.32100
C  41.44400 6.57400 47.26300
C  40.44100 1.81000 47.27000
C  45.25200 0.94500 46.57800
C  46.26200 5.69000 46.88700
N  41.16700 4.19300 47.17200
C  40.63300 5.42600 47.25500
C  39.11000 5.26900 47.38600
C  38.87500 3.73700 47.60200
C  40.23900 3.20600 47.30500
C  38.29400 3.31700 48.98200
C  38.23500 5.97200 46.27600
C  38.93400 5.93200 44.90700
H  37.99300 6.38500 43.72800
N  42.90200 1.67500 46.92700
C  41.66800 1.07900 47.05400
C  41.82300 -0.36100 46.94700
C  43.18400 -0.65400 46.56700
C  43.84800 0.69200 46.67600
C  40.61000 -1.27700 47.09000
C  43.83100 -2.00200 46.24200
O  43.11700 -3.01500 46.28700
C  45.32700 -2.18900 45.85500
N  45.47700 3.43900 46.53200
C  45.99100 2.10100 46.65300
C  47.55000 2.20200 46.62500
C  47.85100 3.66900 46.49300
C  46.46800 4.32600 46.64400
C  48.17400 1.60900 47.95000
C  48.64600 3.98100 45.24000
C  49.92400 4.73300 45.40200
N  43.81600 5.62000 47.23900
C  45.03000 6.30800 47.12900
C  44.79300 7.76000 47.36600
C  43.38000 7.89200 47.32600
C  42.83900 6.59800 47.21200
C  45.79100 8.89100 47.51900
C  42.31900 8.86400 47.37900
O  42.31500 10.03000 47.66700
C  41.01000 8.03800 47.29400
C  40.13500 8.34400 48.51300
O  40.27300 7.95000 49.65000
O  39.21100 9.23800 48.04100
C  38.14100 9.43300 49.05600
H  39.47100 1.33800 47.43700
H  45.90500 0.07500 46.68500
H  47.13300 6.34400 46.81500
H  38.76000 5.80600 48.26800
H  38.20500 3.33800 46.84100
H  39.05800 2.99100 49.68900
H  37.52200 2.58600 48.74400
H  37.82900 4.23700 49.33700
H  38.23400 7.04200 46.48400
H  37.25500 5.51000 46.16100
H  39.20200 4.90800 44.64800
H  39.73000 6.67200 44.98600
H  40.28900 -1.63300 46.11100
H  39.75000 -0.77500 47.53400
H  40.72800 -2.14200 47.74200
H  45.90700 -2.09900 46.77400
H  45.61300 -1.52000 45.04400
H  45.46400 -3.19500 45.45800
H  47.89200 1.62800 45.76400
H  48.48400 4.00000 47.31600
H  48.53000 0.59200 47.78700
H  47.49700 1.73300 48.79600
H  49.03100 2.19800 48.27800
H  47.93300 4.56500 44.65800
H  48.99300 3.10800 44.68700
H  50.74300 4.17700 44.94700
H  50.21700 4.89500 46.43900
H  50.10900 5.67300 44.88200
H  45.27100 9.80100 47.81900
H  46.20300 8.92500 46.51100
H  46.55700 8.64900 48.25500
H  40.42500 8.34200 46.42600
H  38.44000 9.75000 50.05500
H  37.52300 8.54900 49.21300
H  37.38000 10.11000 48.66900
Mg 48.27600 35.37000 27.95500
C  46.15400 33.80200 30.41500
C  48.22600 38.20700 29.85700
C  49.43600 37.22400 25.29800
C  47.57800 32.74400 25.73400
N  47.43200 35.80800 30.03400
C  46.64000 35.07200 30.79200
C  46.56500 35.80600 32.16200
C  46.69100 37.27000 31.71700
C  47.45100 37.10000 30.41800
C  45.40800 37.98500 31.52200
C  47.63100 35.26900 33.16800
C  48.70100 36.11400 33.88700
H  48.39400 36.58000 35.33900
N  49.08500 37.31900 27.73000
C  49.04600 38.31800 28.70100
C  49.62200 39.51200 28.19100
C  50.13900 39.19300 26.87600
C  49.52100 37.84900 26.60600
C  49.79700 40.81700 28.92600
C  50.98800 40.04500 25.93600
O  51.25900 39.56400 24.86500
C  51.35800 41.49700 26.17900
N  48.59500 34.95900 25.87600
C  49.09700 35.88800 25.01300
C  49.07600 35.33700 23.57000
C  48.70700 33.78400 23.71700
C  48.21900 33.82700 25.20200
C  48.24300 36.14600 22.50000
C  49.81500 32.73400 23.37200
C  49.24300 31.39200 22.90500
N  47.19200 33.56100 28.04000
C  46.97100 32.60900 27.03300
C  46.13500 31.47600 27.60900
C  45.80200 31.95200 28.90300
C  46.45900 33.18500 29.15300
C  45.80100 30.12900 26.98600
C  45.11400 31.53800 30.14600
O  44.43300 30.51900 30.32400
C  45.24200 32.82700 31.11000
C  45.78700 32.40800 32.44700
O  46.89900 32.03900 32.67700
O  44.78100 32.46700 33.36800
C  45.13100 32.24400 34.78700
H  48.15300 39.12700 30.44100
H  49.69200 37.76400 24.38400
H  47.41100 31.89200 25.07200
H  45.60700 35.40200 32.49000
H  47.20800 37.85400 32.47800
H  45.12300 38.53600 32.41800
H  44.59600 37.28200 31.33800
H  45.49900 38.75200 30.75100
H  48.21700 34.56500 32.57700
H  47.12100 34.75400 33.98200
H  49.02300 36.95300 33.27100
H  49.60700 35.52500 34.02800
H  49.44900 41.70300 28.39400
H  50.84400 40.95600 29.19400
H  49.18500 40.78200 29.82700
H  50.49400 42.13900 26.35300
H  51.71200 41.81400 25.19800
H  52.14400 41.57900 26.92900
H  50.10800 35.38500 23.22400
H  47.82200 33.62600 23.10200
H  48.76800 36.42300 21.58600
H  47.69200 36.98700 22.92000
H  47.49100 35.57400 21.95600
H  50.35700 32.59700 24.30700
H  50.52500 33.12900 22.64600
H  48.15400 31.43300 22.90600
H  49.59300 30.52200 23.46100
H  49.54500 31.31700 21.86000
H  46.41800 29.35000 27.43300
H  45.83200 30.10800 25.89700
H  44.78500 29.81700 27.22800
H  44.19600 33.13100 31.08300
H  46.16100 32.54000 34.98900
H  45.01600 31.20100 35.08200
H  44.38800 32.79600 35.36300

