158

Mg 1.59400 8.36000 26.17300
C  1.74500 10.54400 28.86500
C  2.34300 5.77800 28.31900
C  1.50000 6.43300 23.47400
C  1.72500 11.16900 24.05200
N  2.02900 8.17900 28.32400
C  1.91400 9.20800 29.26900
C  1.84300 8.68400 30.74000
C  2.12100 7.14900 30.54500
C  2.17200 6.97700 28.97600
C  3.44400 6.65200 31.16300
C  0.51500 9.02500 31.37500
C  0.35500 8.94900 32.86700
H  1.51600 8.30300 33.67500
N  1.96100 6.39800 25.94900
C  2.32300 5.52800 26.91900
C  2.56900 4.22700 26.20800
C  2.45000 4.43300 24.79100
C  1.90500 5.76400 24.67100
C  2.79200 2.99300 26.98200
C  2.64700 3.51100 23.67100
O  2.54100 3.75400 22.46100
C  3.08700 2.10800 24.01900
N  1.43400 8.76100 24.08100
C  1.37000 7.76500 23.16900
C  1.25700 8.23200 21.72500
C  1.25600 9.84500 21.94800
C  1.46600 9.95300 23.47900
C  2.38500 7.77100 20.73900
C  -0.08400 10.59200 21.54800
C  0.00100 12.04200 20.91400
N  1.64500 10.46500 26.40600
C  1.79400 11.47700 25.46000
C  1.87600 12.72500 26.11500
C  1.83400 12.44700 27.49000
C  1.75700 11.03000 27.58300
C  2.03700 14.08100 25.50400
C  1.90300 13.01800 28.79600
O  2.03000 14.21600 29.05500
C  1.70900 11.81100 29.77400
C  2.88900 11.96100 30.64000
O  4.05200 12.21900 30.38600
O  2.49600 11.75100 31.97700
C  3.49400 12.01500 33.06400
H  2.60700 4.97900 29.01600
H  1.48600 5.87000 22.53800
H  1.91000 11.97000 23.33300
H  2.69000 9.15400 31.24000
H  1.37800 6.52600 31.04300
H  3.99400 7.46600 31.63500
H  4.06900 6.13700 30.43300
H  3.25300 5.84100 31.86500
H  -0.25000 8.40900 30.90300
H  0.19600 10.04500 31.16000
H  -0.64800 8.55600 33.03800
H  0.20600 9.90500 33.36800
H  2.62500 3.28800 28.01800
H  3.81300 2.61100 26.99100
H  2.07400 2.22300 26.69900
H  3.21800 1.53900 23.09900
H  2.27000 1.66300 24.58800
H  3.99800 2.12600 24.61700
H  0.26200 7.94600 21.38500
H  2.06900 10.41900 21.50200
H  3.23700 7.30200 21.23000
H  2.69900 8.56600 20.06300
H  1.82300 7.06300 20.12900
H  -0.84300 10.48500 22.32300
H  -0.50200 10.02900 20.71300
H  0.83800 12.12800 20.22100
H  0.25600 12.69000 21.75300
H  -0.93300 12.37600 20.46200
H  2.73500 14.70200 26.06600
H  1.08500 14.60600 25.57700
H  2.41000 13.99900 24.48300
H  0.72200 11.77300 30.23700
H  3.08500 12.51800 33.94000
H  4.42900 12.53700 32.86000
H  3.80300 11.03400 33.42300
Mg 46.70000 16.32600 28.46300
C  44.64700 15.51400 31.22500
C  48.47400 18.18500 30.40100
C  48.69100 16.63400 25.84000
C  44.45300 14.36100 26.47900
N  46.63700 16.74700 30.55300
C  45.69600 16.37500 31.53300
C  46.13100 16.94000 32.89800
C  47.18000 17.95900 32.50000
C  47.51000 17.56300 31.13600
C  46.72400 19.47600 32.41600
C  46.67100 15.77700 33.77600
C  46.58500 16.02000 35.27400
H  47.96300 16.01600 36.04000
N  48.40900 17.35100 28.20700
C  49.01600 18.10300 29.13200
C  50.26600 18.65600 28.63300
C  50.37900 18.18400 27.27900
C  49.18600 17.29800 27.07300
C  51.18300 19.58700 29.42800
C  51.47300 18.48400 26.25600
O  51.49600 17.91500 25.19100
C  52.62600 19.44000 26.59200
N  46.54800 15.50700 26.48400
C  47.57100 15.86100 25.62100
C  47.24800 15.44400 24.23100
C  45.86400 14.75300 24.40600
C  45.56800 14.86400 25.87600
C  47.26400 16.60400 23.24100
C  45.77500 13.34400 23.83300
C  46.39000 12.15500 24.70200
N  44.85600 15.20000 28.76900
C  44.11900 14.46300 27.84100
C  43.03200 13.87800 28.52300
C  43.22600 14.16800 29.86700
C  44.34200 14.98900 29.93700
C  41.85700 13.28300 27.81900
C  42.66600 14.09400 31.23200
O  41.65600 13.53900 31.64500
C  43.62400 14.85500 32.15500
C  42.86700 15.90300 32.96200
O  42.65100 17.07200 32.63200
O  42.38100 15.41100 34.18900
C  41.49600 16.27900 35.04400
H  49.10200 18.75500 31.08900
H  49.38200 16.72300 25.00000
H  43.78600 13.80500 25.81700
H  45.29100 17.40500 33.41500
H  48.08500 17.99100 33.10700
H  47.34000 20.10800 33.05600
H  45.75700 19.48200 32.91700
H  46.68400 19.95500 31.43700
H  47.67500 15.55800 33.41300
H  46.19000 14.81800 33.58400
H  45.95400 15.23100 35.68400
H  46.12300 17.00200 35.37100
H  52.18600 19.17400 29.53400
H  50.65700 19.77900 30.36300
H  51.28600 20.54900 28.92500
H  52.24400 20.36800 27.01500
H  53.11500 19.63600 25.63800
H  53.18500 18.98600 27.41000
H  48.04700 14.72000 24.07200
H  45.07900 15.30300 23.88700
H  46.65400 17.41700 23.63300
H  46.83400 16.30000 22.28700
H  48.30300 16.89800 23.08900
H  46.45300 13.34300 22.97900
H  44.75500 13.17600 23.48500
H  47.24800 11.70400 24.20200
H  45.67000 11.33900 24.76300
H  46.79800 12.41600 25.67900
H  42.29400 12.43000 27.30100
H  41.29100 13.97300 27.19200
H  41.23200 13.01200 28.67000
H  44.05000 14.11400 32.83200
H  42.23400 16.91000 35.53800
H  40.73900 15.85100 35.70100
H  40.94600 16.85000 34.29600

