158

Mg 8.93200 3.81300 27.08900
C  10.02900 2.33800 30.01800
C  6.86700 5.81100 29.08700
C  7.68600 5.07400 24.27700
C  10.66100 1.39100 25.26000
N  8.41400 3.94300 29.30100
C  9.15200 3.34300 30.29900
C  8.73800 3.88800 31.66400
C  7.55200 4.78900 31.30700
C  7.57000 4.85600 29.86200
C  6.14100 4.27000 31.74700
C  9.97100 4.62300 32.25800
C  10.39700 4.05400 33.60000
H  10.84100 4.96500 34.73100
N  7.53800 5.25400 26.76800
C  6.86600 6.03700 27.67500
C  6.03900 7.03300 26.97700
C  6.48100 6.96800 25.64900
C  7.26600 5.73800 25.51700
C  5.11100 7.99300 27.62000
C  6.18600 7.93400 24.57000
O  6.55800 7.75000 23.41800
C  5.51500 9.16100 24.93500
N  9.18500 3.37200 25.05900
C  8.61700 4.05000 24.10200
C  9.10800 3.52800 22.75100
C  10.18900 2.54300 23.03700
C  9.96400 2.33900 24.58600
C  7.82100 3.01800 22.05500
C  11.68500 3.02600 22.70500
C  12.55900 2.08100 21.89800
N  10.05000 2.04500 27.51500
C  10.79400 1.23400 26.69500
C  11.67400 0.33800 27.44200
C  11.31000 0.64300 28.79900
C  10.37200 1.73500 28.78300
C  12.66200 -0.56200 26.88800
C  11.62300 0.46000 30.16700
O  12.48500 -0.30100 30.58600
C  10.85500 1.53300 31.03200
C  10.02800 0.69400 31.91700
O  8.83300 0.33000 31.72700
O  10.78200 0.51500 33.08900
C  9.99400 -0.30200 34.05300
H  6.33000 6.49900 29.74300
H  7.28400 5.51800 23.36400
H  11.12500 0.69300 24.56000
H  8.42100 3.11200 32.36200
H  7.68600 5.76900 31.76400
H  5.95500 4.69300 32.73400
H  6.37400 3.22200 31.93500
H  5.24400 4.39400 31.14000
H  9.83400 5.70400 32.22900
H  10.80200 4.43500 31.57800
H  11.30600 3.47200 33.44800
H  9.62700 3.37200 33.96100
H  4.86300 7.60200 28.60700
H  4.17400 8.10100 27.07400
H  5.55600 8.98200 27.73700
H  4.48600 8.91700 25.19900
H  5.49800 9.80700 24.05800
H  6.06100 9.70200 25.70800
H  9.39800 4.39600 22.15900
H  9.93600 1.56900 22.61700
H  6.92900 2.98000 22.68000
H  7.93300 2.06500 21.53900
H  7.63900 3.76500 21.28300
H  12.23800 3.29700 23.60400
H  11.58800 3.91500 22.08200
H  12.89000 2.59200 20.99300
H  11.99700 1.18700 21.62900
H  13.40900 1.73100 22.48400
H  12.21700 -1.22900 26.15000
H  13.06400 -1.20200 27.67300
H  13.48100 -0.02100 26.41300
H  11.51700 2.18200 31.60600
H  9.39700 -1.06900 33.55900
H  9.37700 0.29100 34.72800
H  10.75500 -0.75300 34.69000
Mg 9.29200 48.78900 26.00100
C  7.31000 49.00500 28.97400
C  12.07300 49.54600 27.99200
C  11.23300 48.55200 23.36700
C  6.45100 48.17200 24.22800
N  9.57600 49.29900 28.18800
C  8.66000 49.21200 29.21800
C  9.30800 49.55700 30.50700
C  10.65100 50.20900 30.01600
C  10.83500 49.64300 28.61600
C  10.74300 51.79800 29.96900
C  9.53800 48.38000 31.40400
C  8.98200 48.60000 32.84200
H  8.89900 47.44500 33.83500
N  11.41000 49.00400 25.74800
C  12.41200 49.34700 26.65200
C  13.71500 49.21100 26.08100
C  13.45900 48.77200 24.71100
C  11.98700 48.73800 24.54400
C  15.05500 49.48000 26.82600
C  14.50400 48.36900 23.56200
O  14.07100 47.93900 22.46900
C  15.97900 48.44500 23.84600
N  8.91700 48.47100 24.08300
C  9.85900 48.39100 23.10400
C  9.27500 48.03600 21.73600
C  7.76700 47.76500 22.03400
C  7.68700 48.20100 23.54000
C  9.47500 48.97300 20.60700
C  7.25400 46.29700 21.79500
C  8.11600 45.19100 22.41200
N  7.31600 48.53800 26.47200
C  6.25300 48.28700 25.59900
C  5.04200 48.21300 26.38100
C  5.40800 48.53400 27.65800
C  6.80600 48.71400 27.68600
C  3.56300 47.97000 25.85600
C  4.86500 48.72200 28.98000
O  3.72500 48.69100 29.34200
C  6.09200 49.12800 29.89900
C  5.91600 48.14100 31.01300
O  6.36500 47.03700 31.04000
O  5.03800 48.66900 31.98700
C  4.56400 47.67800 32.96900
H  12.86300 49.86200 28.67700
H  11.85700 48.47300 22.47400
H  5.58500 47.91000 23.61700
H  8.69100 50.30400 31.00500
H  11.53400 49.99700 30.61900
H  9.75500 52.25800 29.97700
H  11.17200 52.06800 29.00400
H  11.22800 52.20500 30.85600
H  10.60200 48.14300 31.42000
H  9.16200 47.45200 30.97200
H  8.00200 49.07600 32.80700
H  9.54700 49.39300 33.33200
H  15.57500 48.52500 26.91000
H  14.92700 49.76700 27.87000
H  15.61400 50.24400 26.28600
H  16.26100 47.84200 24.70900
H  16.11900 49.50500 24.05600
H  16.48100 48.12700 22.93200
H  9.73600 47.07400 21.50900
H  7.19100 48.43900 21.40000
H  9.13600 49.98300 20.83800
H  9.09500 48.49200 19.70600
H  10.55100 48.91100 20.44600
H  7.23700 46.24300 20.70700
H  6.20100 46.21100 22.06300
H  7.56800 44.36500 22.86500
H  8.78900 45.60200 23.16500
H  8.76200 44.79400 21.62900
H  3.40300 48.25800 24.81700
H  2.84100 48.49400 26.48100
H  3.32000 46.91900 26.01200
H  5.91900 50.14500 30.25100
H  5.41200 47.11200 33.35300
H  3.92100 46.96100 32.45800
H  3.96000 48.13400 33.75400

