158

Mg 54.69600 24.55100 44.63700
C  51.95900 26.69000 43.71300
C  53.07700 22.00500 43.04800
C  57.66300 22.91900 44.41300
C  56.24800 27.39900 45.99500
N  52.77200 24.46400 43.53800
C  51.88400 25.41300 43.11600
C  50.84700 24.93400 42.17600
C  50.98500 23.33400 42.37300
C  52.38000 23.22600 43.04000
C  49.81300 22.68700 43.27400
C  51.14800 25.28000 40.62100
C  50.08200 25.97200 39.60900
H  49.70000 25.29000 38.26400
N  55.26100 22.54700 44.08800
C  54.40900 21.65500 43.42100
C  55.24200 20.41400 43.19200
C  56.61100 20.73600 43.55500
C  56.56000 22.12700 44.05600
C  54.62300 19.15800 42.63000
C  57.78300 19.81200 43.45300
O  57.65400 18.73500 42.88000
C  59.13200 20.10500 43.99200
N  56.71400 25.11600 45.15500
C  57.74200 24.25900 44.92600
C  59.06000 24.90600 45.35100
C  58.62300 26.33600 45.79800
C  57.11600 26.28000 45.71400
C  59.87600 24.08500 46.38400
C  59.25700 27.46400 44.94400
C  59.63900 28.61700 45.85100
N  54.22000 26.61500 44.90000
C  54.92900 27.57300 45.58200
C  54.12600 28.78600 45.65200
C  52.97000 28.52900 44.89700
C  53.02700 27.16100 44.50400
C  54.41000 30.02400 46.42900
C  51.78100 29.04200 44.26400
O  51.36100 30.22000 44.14200
C  51.13500 27.86500 43.55800
C  50.76800 28.22900 42.18700
O  51.44400 28.80100 41.32200
O  49.43600 28.14600 42.11700
C  48.68900 28.78500 41.01100
H  52.48100 21.18900 42.63500
H  58.71600 22.63200 44.43300
H  56.72900 28.34000 46.27100
H  49.84400 25.30400 42.38600
H  51.07100 22.79700 41.42800
H  50.14600 22.39300 44.27000
H  49.45800 21.74400 42.85700
H  48.99300 23.40200 43.34200
H  51.44200 24.38900 40.06600
H  52.00800 25.94300 40.71600
H  50.52900 26.95700 39.47700
H  49.17600 26.08000 40.20400
H  53.69600 19.45600 42.14000
H  54.50200 18.40700 43.41100
H  55.28300 18.73500 41.87300
H  59.76200 19.22600 43.85100
H  59.10300 20.48100 45.01400
H  59.46100 20.96400 43.40600
H  59.66900 25.13100 44.47600
H  58.83500 26.49800 46.85500
H  59.27400 23.22900 46.69100
H  60.05700 24.68700 47.27500
H  60.76500 23.65700 45.92000
H  58.58300 27.91600 44.21700
H  60.12400 27.04400 44.43400
H  59.12100 29.53900 45.58600
H  60.70500 28.73300 45.65800
H  59.30700 28.54700 46.88700
H  55.11800 30.61300 45.84700
H  54.85100 29.84000 47.40900
H  53.46700 30.56800 46.47400
H  50.23800 27.92800 44.17400
H  47.94400 28.09100 40.62200
H  49.28900 29.06200 40.14500
H  48.28200 29.69400 41.45500
Mg 28.94400 57.50200 40.56000
C  26.07600 55.70600 39.65300
C  30.83800 55.03300 39.24900
C  31.52600 59.64400 40.25200
C  26.91800 60.30900 41.16400
N  28.42000 55.60800 39.38700
C  27.22000 55.10500 39.14000
C  27.29100 53.75600 38.52600
C  28.84700 53.51900 38.44900
C  29.43200 54.76700 39.15500
C  29.43800 52.23200 39.02800
C  26.54500 53.50400 37.18100
C  26.50200 54.61000 36.09800
H  26.72000 54.32800 34.55200
N  30.98700 57.27700 40.00600
C  31.56000 56.17300 39.57300
C  32.97500 56.38600 39.47800
C  33.26300 57.72300 39.85600
C  31.87400 58.25900 40.03300
C  33.95700 55.24600 39.11300
C  34.58100 58.39600 39.96800
O  35.61300 57.89600 39.55400
C  34.70800 59.72700 40.51500
N  29.21300 59.70900 40.81600
C  30.37600 60.32100 40.58000
C  30.37900 61.81800 40.96100
C  28.86100 61.97900 41.38300
C  28.27900 60.61000 41.09300
C  31.39500 62.21800 42.00100
C  28.12000 63.19400 40.74000
C  27.68200 64.27500 41.79100
N  27.05800 57.87600 40.79700
C  26.37900 59.03300 41.06800
C  24.96100 58.70300 41.28100
C  24.82000 57.41000 40.77000
C  26.10200 56.96300 40.39000
C  23.95100 59.59800 41.82400
C  23.80200 56.40700 40.43700
O  22.60700 56.34200 40.65500
C  24.60400 55.36700 39.53600
C  24.10400 53.98700 40.07700
O  23.32000 53.17400 39.54800
O  24.65000 53.79700 41.30200
C  24.31500 52.58800 41.94800
H  31.53400 54.24000 38.96800
H  32.34200 60.35500 40.10900
H  26.29300 61.17900 41.37600
H  26.93600 52.97400 39.19700
H  29.18000 53.54100 37.41100
H  30.33000 52.53700 39.57500
H  29.66500 51.49500 38.25700
H  28.73200 51.73700 39.69400
H  25.49500 53.30700 37.39700
H  27.02300 52.59300 36.82200
H  27.33400 55.29600 36.25700
H  25.57600 55.15500 36.27700
H  33.96000 54.51900 39.92400
H  34.98700 55.59900 39.05500
H  33.73900 54.80700 38.13900
H  34.09200 60.10500 41.33100
H  34.44000 60.35900 39.66800
H  35.78200 59.83200 40.66500
H  30.52200 62.26400 39.97700
H  28.70100 61.94800 42.46100
H  31.88000 61.32600 42.39700
H  30.96300 62.88600 42.74600
H  32.03500 62.93100 41.48000
H  27.28200 62.98000 40.07700
H  28.88900 63.74900 40.20300
H  27.34500 63.81100 42.71700
H  26.77100 64.74000 41.41300
H  28.51100 64.96500 41.94800
H  23.47300 60.16700 41.02700
H  24.38100 60.34300 42.49400
H  23.13200 59.09200 42.33500
H  24.34900 55.43000 38.47800
H  25.21900 52.24300 42.45000
H  23.91800 51.77300 41.34200
H  23.61900 52.95400 42.70300

