158

Mg -8.67900 40.60400 42.10300
C  -7.90100 37.24800 41.07200
C  -5.97000 41.64600 40.46200
C  -9.99100 43.69200 42.07700
C  -11.74900 39.33800 43.23300
N  -7.29800 39.55000 40.78500
C  -6.99000 38.22600 40.68600
C  -5.68200 38.00200 39.99400
C  -4.87000 39.38000 40.23900
C  -6.08900 40.25800 40.55300
C  -3.98500 39.30900 41.45200
C  -5.90500 37.55900 38.52400
C  -5.44200 36.13900 38.02300
H  -4.52100 36.07800 36.73800
N  -8.06600 42.48800 41.41000
C  -6.85700 42.66500 40.80500
C  -6.64300 44.07400 40.66100
C  -7.73100 44.75900 41.10900
C  -8.68500 43.64200 41.54800
C  -5.44700 44.66000 39.91600
C  -8.01400 46.24300 41.09300
O  -7.17000 47.06800 40.65300
C  -9.33500 46.80300 41.64900
N  -10.68700 41.37200 42.61200
C  -10.89100 42.72200 42.67000
C  -12.20900 43.05700 43.27400
C  -12.83300 41.65900 43.49000
C  -11.70500 40.69200 43.05300
C  -12.28200 44.11700 44.43700
C  -14.14200 41.37800 42.69800
C  -15.33300 42.32000 42.85000
N  -9.63700 38.69800 42.36500
C  -10.86600 38.38500 42.83400
C  -10.94100 36.94900 42.86500
C  -9.85300 36.48100 42.12300
C  -9.09100 37.55800 41.81400
C  -12.10700 36.12000 43.45600
C  -9.14300 35.30700 41.68700
O  -9.39000 34.10500 41.74900
C  -7.88000 35.74900 40.92700
C  -6.75200 35.05300 41.44200
O  -6.29400 35.21700 42.53000
O  -6.35100 34.17400 40.52400
C  -5.12000 33.47200 40.78700
H  -5.01100 42.06000 40.14400
H  -10.41800 44.69200 42.18300
H  -12.64000 38.93300 43.71800
H  -4.98200 37.23900 40.33700
H  -4.22000 39.77100 39.45600
H  -4.45700 39.67800 42.36300
H  -3.07000 39.89200 41.34400
H  -3.64900 38.28800 41.63500
H  -5.30100 38.13300 37.82000
H  -6.95700 37.72800 38.29700
H  -6.32700 35.52500 37.85800
H  -4.81700 35.63100 38.75700
H  -5.94400 45.38000 39.26600
H  -4.97600 43.96000 39.22500
H  -4.75500 45.21800 40.54600
H  -10.20100 46.44100 41.09700
H  -9.29800 47.88900 41.56000
H  -9.30000 46.55400 42.71000
H  -12.85000 43.41900 42.47000
H  -13.05300 41.35300 44.51300
H  -11.35200 44.63600 44.66700
H  -12.67800 43.69900 45.36200
H  -12.93300 44.88700 44.02100
H  -14.40600 40.35000 42.94700
H  -13.87800 41.41100 41.64100
H  -15.64900 42.82000 41.93400
H  -15.22400 43.01100 43.68600
H  -16.22700 41.74800 43.09600
H  -11.68100 35.39800 44.15300
H  -12.52000 35.54300 42.62900
H  -12.90900 36.75300 43.83500
H  -8.06400 35.47600 39.88800
H  -4.61800 33.23400 39.84900
H  -5.36000 32.63000 41.43800
H  -4.42100 34.09300 41.34700
Mg -5.82500 25.36000 26.51600
C  -3.90400 26.95700 28.89800
C  -6.73500 22.99600 28.95400
C  -7.42200 23.57200 24.13500
C  -4.21300 27.20800 23.96000
N  -5.35500 25.02700 28.66600
C  -4.77700 26.00500 29.44700
C  -5.02200 25.68300 30.91100
C  -5.45100 24.18900 30.90900
C  -5.89200 24.03800 29.40000
C  -4.32400 23.24900 31.24800
C  -5.92400 26.78600 31.55800
C  -5.50200 27.15300 33.01700
H  -5.09800 25.99300 33.95500
N  -6.96200 23.59000 26.60800
C  -7.24600 22.77100 27.63700
C  -7.91100 21.49200 27.24800
C  -8.19200 21.74000 25.88700
C  -7.51600 22.99800 25.47500
C  -8.38400 20.41100 28.18200
C  -9.00700 20.89000 24.88400
O  -9.15200 21.19200 23.73100
C  -9.53800 19.56900 25.38800
N  -5.67600 25.34800 24.36500
C  -6.65300 24.63900 23.64100
C  -6.64000 24.97200 22.20400
C  -5.50700 26.06400 22.08800
C  -5.20400 26.33100 23.55300
C  -6.32900 23.73000 21.24800
C  -5.95600 27.33100 21.36200
C  -5.63500 27.33100 19.84900
N  -4.34100 26.81500 26.41600
C  -3.79800 27.43200 25.34500
C  -2.76400 28.36700 25.79900
C  -2.74900 28.27400 27.16000
C  -3.71700 27.19300 27.48600
C  -2.05700 29.32600 24.84400
C  -2.15400 28.67700 28.45000
O  -1.25200 29.46800 28.78400
C  -2.84600 27.75200 29.62200
C  -1.66000 26.95900 30.20900
O  -0.89700 26.34300 29.48800
O  -1.67800 26.94300 31.58200
C  -0.82600 25.93500 32.18700
H  -7.09800 22.32300 29.73400
H  -7.94900 23.06300 23.32500
H  -3.71800 27.79300 23.18200
H  -4.04800 25.77900 31.39100
H  -6.25200 24.21200 31.64800
H  -3.59700 23.65400 31.95200
H  -3.80800 23.04300 30.31100
H  -4.65600 22.35900 31.78200
H  -6.92000 26.37300 31.72000
H  -5.98200 27.72900 31.01400
H  -6.33500 27.62600 33.53700
H  -4.56900 27.70900 32.92800
H  -8.28500 20.77900 29.20300
H  -7.83100 19.50700 27.92900
H  -9.43400 20.19700 27.98200
H  -9.91800 18.93900 24.58400
H  -10.42500 19.80200 25.97700
H  -8.75100 19.00400 25.88700
H  -7.65600 25.31800 22.01700
H  -4.66500 25.57000 21.60500
H  -6.35400 22.78300 21.78800
H  -5.44600 23.71700 20.61000
H  -7.13000 23.55200 20.53100
H  -5.57000 28.21900 21.86300
H  -7.03700 27.44900 21.42900
H  -6.60200 27.51300 19.38000
H  -5.09200 26.47500 19.44800
H  -5.02600 28.21400 19.65700
H  -2.83400 29.66600 24.16000
H  -1.36200 28.67500 24.31400
H  -1.59700 30.19700 25.31100
H  -3.24400 28.38000 30.41900
H  0.19600 26.30400 32.09600
H  -0.96900 25.02000 31.61200
H  -0.99200 25.75200 33.24800

