158

Mg 41.96700 41.23600 27.51500
C  41.14500 43.60600 30.04300
C  43.41800 39.35500 30.05800
C  42.58500 39.13100 25.34300
C  41.20800 43.76400 25.11100
N  42.32300 41.52700 29.80000
C  41.74300 42.47000 30.66200
C  41.93400 42.14300 32.13700
C  42.65100 40.76700 32.04200
C  42.79300 40.51900 30.48800
C  44.00100 40.64800 32.77800
C  40.66400 42.18400 32.99100
C  40.82500 41.49800 34.34400
H  39.87300 41.92500 35.46600
N  42.94900 39.51400 27.67900
C  43.46000 38.85400 28.77500
C  43.93700 37.55700 28.32800
C  43.60000 37.46700 26.97000
C  43.03500 38.73600 26.60400
C  44.48900 36.46800 29.19400
C  43.75800 36.27800 25.92500
O  43.73400 36.31600 24.71300
C  44.13900 34.95100 26.48100
N  42.06300 41.40300 25.56200
C  42.28400 40.35200 24.80900
C  42.25100 40.62600 23.29500
C  41.77000 42.07800 23.27000
C  41.57500 42.46800 24.77700
C  43.57000 40.23100 22.65600
C  40.73900 42.51800 22.22500
C  39.41600 41.74100 22.43600
N  41.41200 43.32500 27.45700
C  41.03600 44.19000 26.41900
C  40.68900 45.48100 26.89000
C  40.66700 45.28100 28.30500
C  41.08200 43.93600 28.59400
C  40.51200 46.77600 26.17100
C  40.52400 46.01900 29.53800
O  40.23900 47.22800 29.64800
C  40.81300 44.94400 30.74600
C  41.97800 45.53600 31.49800
O  43.07800 45.70100 31.02700
O  41.58000 45.87000 32.74300
C  42.60600 46.51800 33.58000
H  43.71800 38.62200 30.81000
H  42.80700 38.34700 24.61500
H  40.87000 44.50500 24.38500
H  42.60200 42.92100 32.50600
H  41.98200 40.00900 32.45100
H  43.90200 39.79900 33.45400
H  44.06000 41.45600 33.50800
H  44.88000 40.59300 32.13600
H  39.86700 41.80100 32.35400
H  40.39400 43.21100 33.23900
H  41.87400 41.54300 34.63900
H  40.66200 40.42400 34.25700
H  45.24300 35.87900 28.67200
H  43.65700 35.89000 29.59800
H  45.02800 36.96000 30.00400
H  43.50500 34.61900 27.30400
H  45.21000 34.95100 26.68500
H  43.87400 34.33800 25.61900
H  41.50900 40.00600 22.79200
H  42.66000 42.61100 22.93500
H  44.40500 40.65800 23.21200
H  43.64800 40.60600 21.63500
H  43.74200 39.15700 22.71600
H  41.07600 42.30100 21.21200
H  40.68600 43.59500 22.38300
H  39.59700 41.31900 23.42500
H  39.26600 40.98900 21.66100
H  38.65300 42.51900 22.42700
H  39.44700 46.96800 26.04100
H  40.95700 46.89500 25.18200
H  40.82000 47.60000 26.81400
H  40.00200 44.78400 31.45700
H  43.52000 46.79500 33.05500
H  43.00700 45.89000 34.37500
H  42.15900 47.38200 34.07200
Mg -10.05200 39.22700 40.89700
C  -8.81300 35.96800 40.20900
C  -7.25000 40.44100 39.59900
C  -11.61100 42.10900 40.70700
C  -13.02800 37.59000 42.02000
N  -8.21200 38.28200 40.10900
C  -7.94900 36.96300 39.83000
C  -6.63800 36.83200 38.94700
C  -5.96400 38.15400 39.54100
C  -7.19800 39.05400 39.76000
C  -5.10600 38.02900 40.68400
C  -7.01000 36.92700 37.42200
C  -6.73400 35.61500 36.69000
H  -6.02000 36.01900 35.36200
N  -9.56600 41.05000 40.10700
C  -8.32700 41.37500 39.70200
C  -8.23600 42.78500 39.38300
C  -9.48100 43.36500 39.78400
C  -10.32500 42.13100 40.19500
C  -7.00400 43.42400 38.74100
C  -9.84500 44.71600 39.63500
O  -9.04700 45.57100 39.44800
C  -11.22500 45.19800 39.80500
N  -12.02700 39.71300 41.30100
C  -12.40400 41.07600 41.17500
C  -13.98500 41.24200 41.36200
C  -14.35700 39.76100 41.91000
C  -13.09300 38.94100 41.64300
C  -14.27700 42.34200 42.39800
C  -15.56000 39.11700 41.26900
C  -16.39800 38.25700 42.29400
N  -10.74500 37.15700 41.33700
C  -11.97400 36.71200 41.76600
C  -11.97300 35.31900 41.76700
C  -10.77900 34.93000 41.12600
C  -10.09600 36.05400 40.90900
C  -12.99700 34.46900 42.37600
C  -9.97500 33.80500 40.71100
O  -10.23000 32.63100 40.61800
C  -8.66800 34.46900 39.95700
C  -7.44500 33.80900 40.46300
O  -6.58800 33.19800 39.84700
O  -7.28700 34.13700 41.79900
C  -6.19100 33.49300 42.60300
H  -6.27900 40.77600 39.22700
H  -12.11300 43.07700 40.65700
H  -13.89100 37.07400 42.44700
H  -6.18200 35.87900 39.21700
H  -5.48500 38.54700 38.64300
H  -5.01500 37.04300 41.14000
H  -5.36300 38.82000 41.38800
H  -4.12200 38.17000 40.23600
H  -6.40400 37.71400 36.97200
H  -8.08500 37.08500 37.32800
H  -7.63900 35.01000 36.64300
H  -5.94300 35.05200 37.18500
H  -6.68600 42.90600 37.83600
H  -6.17900 43.64400 39.41900
H  -7.29500 44.43000 38.44000
H  -11.78300 44.57700 39.10300
H  -11.25900 46.23000 39.45500
H  -11.59300 45.17600 40.83000
H  -14.30200 41.43800 40.33800
H  -14.54500 39.81300 42.98300
H  -14.76500 41.84800 43.23800
H  -14.88500 43.19100 42.08700
H  -13.30100 42.68100 42.74700
H  -15.14500 38.51200 40.46400
H  -16.32300 39.81900 40.93300
H  -16.54900 37.26400 41.86800
H  -17.33600 38.80300 42.39700
H  -15.91800 38.18400 43.26900
H  -12.82300 33.46000 42.00200
H  -14.00900 34.83900 42.21400
H  -12.88000 34.56600 43.45600
H  -8.84600 34.33000 38.89100
H  -6.72400 33.11000 43.47300
H  -5.38500 34.12900 42.97100
H  -5.73400 32.62600 42.12600

