158

Mg -2.54900 34.67300 26.61700
C  -4.39100 33.45200 29.19900
C  -1.41500 37.27100 28.62400
C  -0.94200 36.04100 23.96200
C  -4.00100 32.30000 24.43200
N  -2.96300 35.25500 28.61100
C  -3.59700 34.54800 29.53800
C  -3.27300 35.05000 30.92600
C  -2.63000 36.48100 30.63300
C  -2.29800 36.31200 29.21800
C  -3.55800 37.71000 30.89400
C  -2.41000 34.15100 31.86000
C  -3.10000 33.81900 33.20600
H  -2.90700 34.85000 34.32300
N  -1.29600 36.35800 26.31300
C  -0.89800 37.23900 27.28800
C  -0.00100 38.17900 26.74500
C  0.15600 37.93000 25.34600
C  -0.69500 36.73200 25.15300
C  0.58700 39.42800 27.50000
C  0.85700 38.65200 24.28700
O  0.81500 38.34400 23.10400
C  1.78700 39.81200 24.58300
N  -2.52800 34.23200 24.42300
C  -1.76600 34.95100 23.55500
C  -1.85700 34.42600 22.11800
C  -2.59900 33.03100 22.31500
C  -3.08300 33.16900 23.84400
C  -2.40200 35.47700 21.13700
C  -1.83000 31.68200 22.05700
C  -2.74100 30.58700 21.57900
N  -3.88800 33.11800 26.77000
C  -4.35000 32.22000 25.85000
C  -5.23600 31.28700 26.49900
C  -5.35100 31.72500 27.83300
C  -4.41100 32.81800 27.91000
C  -5.95100 30.01900 25.93500
C  -5.95000 31.57800 29.18400
O  -6.85200 30.83100 29.48800
C  -5.17900 32.54100 30.12300
C  -6.09700 33.38800 30.99500
O  -6.76700 34.43000 30.73300
O  -6.33900 32.53900 32.10200
C  -7.34400 32.96600 33.08100
H  -1.03900 37.97800 29.36700
H  -0.29300 36.37400 23.14900
H  -4.36200 31.45000 23.84900
H  -4.21400 35.32100 31.40400
H  -1.71600 36.62700 31.21000
H  -3.89800 38.10500 29.93600
H  -3.04100 38.52300 31.40500
H  -4.49800 37.47600 31.39300
H  -1.40700 34.53500 32.04400
H  -2.32800 33.18900 31.35400
H  -2.77500 32.82000 33.49700
H  -4.13800 33.58700 32.96900
H  0.31200 39.61200 28.53800
H  0.06200 40.21900 26.96400
H  1.67100 39.49700 27.40700
H  1.18300 40.61500 25.00400
H  2.08200 40.07400 23.56700
H  2.65200 39.47700 25.15600
H  -0.78600 34.30600 21.95300
H  -3.49100 33.06400 21.69000
H  -1.56100 35.51800 20.44400
H  -2.73200 36.38000 21.65100
H  -3.27800 35.12800 20.59000
H  -1.40000 31.33400 22.99700
H  -0.99800 31.85800 21.37600
H  -2.37000 30.10000 20.67700
H  -3.78300 30.83800 21.38200
H  -2.85500 29.96400 22.46600
H  -5.19800 29.23300 25.88500
H  -6.20400 30.18100 24.88800
H  -6.74800 29.70800 26.61100
H  -4.47800 31.98400 30.74400
H  -8.13900 32.99200 32.33600
H  -7.09100 33.95800 33.45300
H  -7.64600 32.29500 33.88500
Mg -11.19600 16.32300 42.95600
C  -8.08400 14.70700 42.76300
C  -9.54400 19.24900 41.89300
C  -14.14800 17.64800 41.96400
C  -12.62700 13.36000 43.77500
N  -9.12100 16.85200 42.14100
C  -8.03000 16.04500 42.27700
C  -6.72500 16.69900 41.76800
C  -7.20000 18.28200 42.01500
C  -8.70900 18.11900 41.91400
C  -6.78900 18.91700 43.32400
C  -6.40900 16.37400 40.32500
C  -5.20500 15.38100 40.02000
H  -5.52700 14.40400 38.88400
N  -11.75800 18.16300 42.16300
C  -10.92100 19.26000 41.85700
C  -11.75400 20.31000 41.33400
C  -13.12100 19.91700 41.38500
C  -13.05200 18.47000 41.79800
C  -11.05900 21.52100 40.77600
C  -14.27200 20.70600 40.88800
O  -14.12900 21.82300 40.43000
C  -15.69400 20.26500 40.80600
N  -13.10700 15.63200 42.78900
C  -14.19600 16.30300 42.37700
C  -15.49300 15.37300 42.39200
C  -14.97700 14.13900 43.17600
C  -13.46300 14.39700 43.26300
C  -16.71600 16.03300 43.05800
C  -15.48500 12.81700 42.55300
C  -15.83500 11.65400 43.54500
N  -10.53800 14.43700 43.43500
C  -11.20800 13.30600 43.81700
C  -10.27600 12.24400 44.06100
C  -9.00000 12.77300 43.68200
C  -9.23700 14.07300 43.26300
C  -10.71000 10.86000 44.44600
C  -7.62000 12.51700 43.63000
O  -6.98100 11.50300 43.99000
C  -6.94900 13.76200 43.01600
C  -6.05000 14.20800 44.07500
O  -6.43100 14.57500 45.20700
O  -4.83100 14.19900 43.60600
C  -3.83000 14.85900 44.47100
H  -9.04500 20.19500 41.67500
H  -15.10100 18.03100 41.59200
H  -13.03400 12.42200 44.15900
H  -5.88000 16.56100 42.44300
H  -6.86400 18.89500 41.17800
H  -6.23800 19.84100 43.15000
H  -6.20100 18.27600 43.98000
H  -7.62000 19.09600 44.00700
H  -6.08800 17.28100 39.81300
H  -7.27200 15.92100 39.83800
H  -4.93300 14.82300 40.91600
H  -4.29300 15.94900 39.84000
H  -11.81000 22.31100 40.80000
H  -10.61500 21.39300 39.78900
H  -10.40000 21.96800 41.52100
H  -15.78000 19.46800 40.06700
H  -16.36900 21.02600 40.41300
H  -15.96700 19.96400 41.81700
H  -15.69900 15.17400 41.34100
H  -15.39400 14.24700 44.17800
H  -16.29400 16.84800 43.64500
H  -17.34600 15.32400 43.59600
H  -17.37100 16.46300 42.30000
H  -14.79700 12.33200 41.86000
H  -16.40800 13.06800 42.03100
H  -16.67500 11.01600 43.27000
H  -15.73700 11.99700 44.57500
H  -15.04800 10.92100 43.37000
H  -10.75100 10.25500 43.54000
H  -11.70300 10.81900 44.89600
H  -9.96200 10.43400 45.11500
H  -6.39300 13.43800 42.13600
H  -3.14300 15.40500 43.82400
H  -3.33600 14.16400 45.14900
H  -4.29200 15.60100 45.12300

