158

Mg 53.64700 24.24900 44.18400
C  50.89400 26.53900 43.87700
C  51.53600 21.79900 43.12300
C  56.33800 22.28200 43.90400
C  55.63700 26.98600 45.03400
N  51.54500 24.24800 43.29800
C  50.58600 25.26200 43.42900
C  49.19000 24.72700 43.17600
C  49.36400 23.18900 43.42100
C  50.91800 23.04900 43.32900
C  48.68100 22.77200 44.76500
C  48.64500 25.23500 41.82700
C  48.56500 24.28200 40.59900
H  48.60700 24.84200 39.18800
N  53.91200 22.25300 43.61500
C  52.91800 21.43700 43.20500
C  53.50700 20.10200 43.01000
C  54.94000 20.22300 43.03800
C  55.13400 21.65000 43.51800
C  52.75300 18.91300 42.70900
C  55.98700 19.13600 42.81600
O  55.61900 17.97900 42.40900
C  57.38800 19.47800 42.87200
N  55.70600 24.66200 44.28300
C  56.66200 23.62600 44.21500
C  58.02200 24.12600 44.65700
C  57.74800 25.63100 45.01100
C  56.31000 25.79600 44.72500
C  58.84800 23.30400 45.66400
C  58.57000 26.67900 44.22100
C  59.53400 27.46800 45.12800
N  53.36800 26.27100 44.53700
C  54.28900 27.24100 44.89900
C  53.61200 28.46100 45.17200
C  52.26400 28.16300 44.90800
C  52.17500 26.86100 44.34000
C  54.16700 29.77600 45.72700
C  50.97100 28.73100 44.75300
O  50.59400 29.88500 45.03400
C  50.02800 27.73500 44.05500
C  49.49200 28.34600 42.75100
O  50.17700 28.58800 41.73700
O  48.17600 28.46900 42.92500
C  47.45400 28.98000 41.70600
H  50.92400 20.92700 42.88400
H  57.18300 21.61500 44.09200
H  56.28500 27.74700 45.47300
H  48.60700 25.16900 43.98300
H  48.97600 22.52000 42.65300
H  47.95700 23.50800 45.11300
H  49.53100 22.61700 45.43000
H  48.08300 21.87900 44.58600
H  49.39200 25.94000 41.46000
H  47.83400 25.94700 41.98100
H  47.70100 23.65100 40.80400
H  49.35900 23.53500 40.58200
H  53.04100 18.64300 41.69300
H  51.68600 19.12800 42.77600
H  53.09300 18.12100 43.37500
H  57.60500 20.46000 42.45200
H  57.88600 18.68800 42.31000
H  57.75200 19.38800 43.89500
H  58.55700 24.17500 43.70900
H  57.89600 25.65400 46.09100
H  59.91400 23.17200 45.47400
H  58.58500 22.25700 45.81400
H  58.81100 23.84400 46.61000
H  57.90700 27.40600 43.75100
H  59.15100 26.17700 43.44700
H  59.34400 27.14900 46.15300
H  59.33800 28.53900 45.07500
H  60.55100 27.22500 44.82100
H  53.40100 30.51700 45.50100
H  55.12800 29.87100 45.22000
H  54.26100 29.70200 46.81000
H  49.19200 27.66000 44.75100
H  47.72400 30.01200 41.47700
H  46.39800 28.71900 41.78200
H  47.70800 28.51000 40.75600
Mg 47.56000 34.32600 28.22400
C  45.76500 32.48300 30.47900
C  47.49600 37.02800 30.33700
C  48.59600 36.46600 25.62400
C  47.11000 31.82000 25.82700
N  46.61400 34.74500 30.04100
C  46.06300 33.75700 30.89500
C  45.98500 34.29400 32.30100
C  46.12800 35.86300 32.01900
C  46.83300 35.87400 30.74200
C  44.70900 36.55900 31.95700
C  47.04900 33.67400 33.32700
C  47.88200 34.59700 34.18300
H  47.06800 35.34600 35.31400
N  48.17200 36.38000 28.07100
C  48.13400 37.26400 29.11800
C  48.80300 38.50400 28.77200
C  49.11100 38.37600 27.38700
C  48.61400 37.03700 26.93800
C  49.06700 39.71100 29.80500
C  49.74300 39.40100 26.50500
O  50.04800 39.16200 25.35400
C  50.11900 40.70200 27.00700
N  47.67400 34.23300 25.99100
C  48.17300 35.17500 25.18600
C  48.36600 34.74400 23.73700
C  48.28100 33.16900 23.91400
C  47.66200 33.02800 25.36600
C  47.27200 35.29400 22.82200
C  49.57600 32.37000 23.78800
C  49.50400 31.03700 23.02300
N  46.69400 32.42100 28.11900
C  46.60500 31.54200 27.10100
C  45.89000 30.35200 27.53300
C  45.50200 30.68000 28.88400
C  46.09700 31.92000 29.14200
C  45.46500 29.23500 26.64700
C  44.84200 30.22800 30.13300
O  44.34800 29.18400 30.41100
C  44.82600 31.50400 31.14600
C  45.18300 31.14400 32.57900
O  46.08300 30.42800 32.96700
O  44.20500 31.68500 33.42700
C  44.21000 31.27600 34.82000
H  47.54100 37.87500 31.02500
H  49.14200 37.00500 24.84700
H  47.13200 30.94600 25.17200
H  45.03500 33.96500 32.72200
H  46.83800 36.32100 32.70800
H  44.85200 37.31700 31.18700
H  44.46500 37.01600 32.91700
H  43.92600 35.87600 31.62900
H  47.73400 33.05200 32.75100
H  46.53200 33.00700 34.01700
H  48.58500 35.15100 33.56000
H  48.59500 34.03900 34.79100
H  48.74400 40.69700 29.46900
H  50.14300 39.85800 29.90400
H  48.67100 39.49300 30.79700
H  50.82700 40.55000 27.82200
H  49.26900 41.26600 27.39000
H  50.59500 41.29000 26.22200
H  49.32500 35.11700 23.37600
H  47.58900 32.77600 23.17000
H  46.71000 36.05400 23.36600
H  46.54600 34.62400 22.36200
H  47.63800 35.71600 21.88700
H  49.86200 32.16400 24.82000
H  50.37000 32.98300 23.36400
H  50.03100 31.10100 22.07100
H  48.45200 30.79100 22.87700
H  49.83300 30.23800 23.68800
H  45.56900 28.27100 27.14400
H  45.93500 29.28000 25.66400
H  44.43300 29.32300 26.30700
H  43.86500 32.01800 31.12300
H  43.77300 32.14100 35.31700
H  45.19500 31.23000 35.28500
H  43.72100 30.36400 35.16400

