158

Mg 1.73000 8.16000 25.70800
C  1.79300 10.13800 28.67000
C  1.93700 5.46400 27.65000
C  1.67200 6.37500 22.90100
C  2.11900 11.09600 23.78800
N  1.57900 7.82300 27.97700
C  1.66500 8.73500 28.92300
C  1.57100 8.06100 30.27700
C  1.88200 6.54800 29.95700
C  1.87000 6.63800 28.41700
C  3.21700 5.91400 30.55900
C  0.25100 8.40300 31.07900
C  0.27400 8.49200 32.66000
H  1.60400 7.95700 33.39800
N  1.72300 6.19600 25.38900
C  1.85800 5.20300 26.29000
C  1.98500 3.92200 25.55300
C  1.80100 4.16800 24.14400
C  1.77200 5.65100 24.09100
C  2.16300 2.62400 26.30300
C  1.81200 3.18400 22.97100
O  1.70100 3.59000 21.84000
C  1.91600 1.81900 23.20700
N  1.85300 8.74100 23.59700
C  1.71400 7.78000 22.59700
C  1.71600 8.43500 21.16900
C  1.70100 10.00000 21.50500
C  1.88200 9.98000 23.00300
C  2.96300 7.99700 20.28100
C  0.32000 10.70700 21.05100
C  0.20600 11.08800 19.58400
N  1.84600 10.18300 26.10000
C  2.04400 11.25300 25.22800
C  2.04200 12.50100 26.05200
C  1.93700 12.10100 27.40800
C  1.84700 10.69000 27.35000
C  2.25400 13.87400 25.52900
C  2.00300 12.64000 28.77400
O  2.20900 13.74900 29.17300
C  1.83300 11.30800 29.68800
C  3.06600 11.14800 30.52500
O  4.13800 10.90000 30.13600
O  2.82300 11.53200 31.78300
C  3.80600 11.37200 32.87300
H  1.99600 4.59400 28.30800
H  1.69500 5.92800 21.90500
H  2.04500 11.97700 23.14800
H  2.43400 8.27100 30.90800
H  1.02600 5.97800 30.31900
H  2.96000 4.92200 30.93100
H  3.55800 6.57700 31.35400
H  4.04500 5.83900 29.85400
H  -0.50200 7.64000 30.88800
H  -0.23400 9.31500 30.73100
H  -0.63300 7.96500 32.95600
H  0.27800 9.55800 32.88400
H  2.86100 1.91900 25.85100
H  1.18500 2.27100 26.62700
H  2.65000 2.73100 27.27200
H  2.91100 1.50400 23.52200
H  1.67400 1.25000 22.30900
H  1.10100 1.65500 23.91200
H  0.75600 8.18700 20.71700
H  2.50500 10.52400 20.99000
H  2.56300 7.63900 19.33200
H  3.47100 7.18400 20.79900
H  3.56300 8.86200 19.99700
H  0.20200 11.67700 21.53300
H  -0.53700 10.04400 21.16700
H  -0.18600 12.09900 19.46800
H  -0.50400 10.39900 19.12600
H  1.20000 10.96600 19.15500
H  2.49000 13.87700 24.46500
H  3.10200 14.30500 26.06000
H  1.43200 14.50900 25.86100
H  0.93700 11.29200 30.30800
H  4.55500 10.61600 32.63600
H  3.14800 11.03000 33.67200
H  4.22400 12.32800 33.19100
Mg 36.07700 48.93400 25.45600
C  36.15500 47.26800 28.43400
C  35.34700 51.88000 27.10800
C  36.14100 50.45300 22.36200
C  36.66000 45.82300 23.78900
N  35.62500 49.46800 27.49800
C  35.90500 48.64300 28.52700
C  35.76200 49.32400 29.87800
C  35.28800 50.70400 29.47900
C  35.46700 50.74300 27.93500
C  33.93700 51.13400 29.94800
C  37.13500 49.27800 30.63900
C  37.14200 48.96500 32.06300
H  36.04100 49.47800 32.95000
N  35.68300 50.90300 24.79600
C  35.46900 51.96400 25.64400
C  35.35900 53.15300 24.81400
C  35.54200 52.78700 23.46400
C  35.76000 51.26900 23.46000
C  35.16000 54.55000 25.41500
C  35.35200 53.65300 22.27200
O  35.28300 53.10600 21.16300
C  35.23200 55.14500 22.26500
N  36.25900 48.22300 23.28600
C  36.35100 49.08400 22.28200
C  36.70700 48.36700 20.97600
C  37.14800 46.99300 21.53900
C  36.63400 46.97500 22.92400
C  35.42200 48.38200 20.07000
C  38.64200 46.73700 21.46600
C  39.12700 45.34100 21.11800
N  36.25400 46.96500 25.94000
C  36.50200 45.80900 25.20400
C  36.60200 44.64300 26.06400
C  36.50400 45.19200 27.33000
C  36.33100 46.57800 27.20600
C  36.83800 43.19000 25.65300
C  36.54400 44.85000 28.73900
O  36.61400 43.77200 29.28100
C  36.16500 46.14900 29.49400
C  34.85100 45.85500 30.19200
O  33.74300 45.94800 29.71500
O  35.11600 45.56100 31.46300
C  33.97500 45.65200 32.32600
H  35.20800 52.79300 27.69000
H  36.34400 50.91000 21.39200
H  37.08900 44.93100 23.32800
H  34.98200 48.79300 30.42400
H  35.96800 51.45800 29.87400
H  33.53500 50.35400 30.59400
H  33.30400 51.49900 29.13900
H  34.08700 52.03500 30.54400
H  37.53900 50.29000 30.62700
H  37.84600 48.61900 30.14100
H  38.11000 49.30200 32.43200
H  37.22400 47.89200 32.23600
H  34.35700 55.03500 24.86000
H  36.06300 55.15800 25.45400
H  34.86900 54.54800 26.46600
H  34.32800 55.58600 22.68500
H  35.35000 55.43600 21.22100
H  36.00200 55.73700 22.76000
H  37.54200 48.94200 20.57600
H  36.58200 46.18700 21.07200
H  35.62900 48.91200 19.14000
H  34.60700 48.97000 20.49200
H  35.13000 47.45500 19.57600
H  39.00300 46.88600 22.48400
H  39.17700 47.46600 20.85700
H  38.43000 44.81400 20.46700
H  39.34200 44.73300 21.99700
H  40.03500 45.35900 20.51400
H  36.70900 43.12000 24.57300
H  36.33400 42.37400 26.17300
H  37.89600 43.00000 25.83200
H  36.91200 46.38500 30.25200
H  33.45700 44.69900 32.21400
H  33.43900 46.58000 32.12500
H  34.23400 45.69200 33.38400

