158

Mg 43.85900 4.92500 47.00300
C  41.93700 7.80500 47.00300
C  40.94700 3.02800 47.06400
C  45.68200 2.24100 46.24000
C  46.70400 6.93800 46.96900
N  41.67500 5.39400 46.79800
C  41.15300 6.61500 46.97600
C  39.59700 6.61800 47.16800
C  39.38800 4.99300 47.24000
C  40.76800 4.43500 47.04700
C  38.79900 4.50300 48.53900
C  38.59300 7.32900 46.21500
C  39.17300 7.71800 44.86900
H  38.81500 6.87000 43.69900
N  43.43600 2.91500 46.68700
C  42.16900 2.31600 46.74900
C  42.29000 0.96600 46.39900
C  43.57900 0.74400 45.88900
C  44.32700 2.01200 46.23600
C  41.12000 0.02300 46.43300
C  44.19300 -0.56000 45.19800
O  43.60600 -1.65200 45.22200
C  45.41300 -0.45900 44.37600
N  45.97900 4.59100 46.76700
C  46.46700 3.32100 46.48200
C  47.94800 3.37200 46.13100
C  48.31300 4.94300 46.52300
C  46.92800 5.54000 46.76700
C  48.69900 2.26100 46.80800
C  49.42000 5.68100 45.69000
C  50.57800 6.22000 46.51800
N  44.31100 6.95400 47.11200
C  45.47700 7.62800 47.01400
C  45.23600 9.11400 46.95300
C  43.82300 9.17700 46.95500
C  43.35100 7.89500 47.02900
C  46.26500 10.17700 46.74200
C  42.72200 10.07100 46.97300
O  42.68000 11.27100 46.86800
C  41.37700 9.26000 47.06300
C  40.56900 9.67800 48.25200
O  40.65300 9.29000 49.41700
O  39.65700 10.66600 47.90600
C  38.88000 11.21000 48.98400
H  40.07000 2.39200 47.19300
H  46.27600 1.34900 46.03300
H  47.60800 7.54400 47.05700
H  39.42700 7.01300 48.17000
H  38.82200 4.66400 46.36800
H  38.06800 3.72600 48.31600
H  38.29300 5.26800 49.12800
H  39.56600 4.09700 49.19800
H  38.31800 8.27800 46.67500
H  37.70500 6.69500 46.21700
H  40.25700 7.61500 44.89700
H  38.81100 8.71700 44.62500
H  41.49300 -0.98100 46.63800
H  40.57900 0.05700 45.48700
H  40.43600 0.40500 47.19200
H  45.43600 -1.43200 43.88600
H  46.28600 -0.33600 45.01600
H  45.25900 0.30500 43.61300
H  48.08100 3.36600 45.04900
H  48.78100 4.83600 47.50100
H  48.76200 1.44200 46.09100
H  48.18100 1.89700 47.69600
H  49.70600 2.59500 47.05900
H  48.98600 6.57900 45.25100
H  49.86700 5.10100 44.88200
H  51.51500 5.69100 46.34000
H  50.50000 6.21200 47.60500
H  50.74600 7.26400 46.25500
H  46.35200 10.75300 47.66400
H  45.91200 10.77000 45.89900
H  47.22200 9.75000 46.44200
H  40.78100 9.40900 46.16300
H  39.50400 11.81400 49.64200
H  38.29700 10.39600 49.41400
H  38.21400 11.97100 48.57500
Mg -12.23000 15.92600 41.77700
C  -9.22200 14.05200 41.27600
C  -10.81200 18.44800 39.89900
C  -15.22100 17.34200 41.59500
C  -13.69900 12.94800 43.10400
N  -10.27200 16.09300 40.44000
C  -9.19500 15.27900 40.54700
C  -7.93900 15.94900 39.95400
C  -8.47900 17.35700 39.59900
C  -9.93200 17.34200 40.08000
C  -7.67200 18.58900 40.23400
C  -7.44100 15.12600 38.71000
C  -5.97200 15.09100 38.49800
H  -5.61000 15.66800 37.18400
N  -12.94700 17.69300 40.98100
C  -12.19500 18.61200 40.22600
C  -13.05600 19.74400 39.80200
C  -14.31000 19.47200 40.31100
C  -14.21500 18.17600 41.05100
C  -12.52000 20.85500 38.93200
C  -15.55500 20.33400 40.04200
O  -15.53500 21.28200 39.24400
C  -16.78000 20.12300 40.84900
N  -14.14600 15.23400 42.29400
C  -15.19700 16.09000 42.16200
C  -16.48700 15.23500 42.39600
C  -16.01200 13.96800 43.06900
C  -14.53000 14.04200 42.85200
C  -17.49900 15.97300 43.37400
C  -16.74900 12.60300 42.74500
C  -16.96900 11.67600 43.89000
N  -11.60600 14.00600 42.28100
C  -12.29300 12.90500 42.80000
C  -11.43700 11.80900 42.97900
C  -10.22400 12.21600 42.43500
C  -10.36300 13.54200 41.97400
C  -11.77100 10.50800 43.60100
C  -8.85900 11.78600 42.20500
O  -8.31000 10.71300 42.49100
C  -8.11800 12.95500 41.50100
C  -7.14300 13.45600 42.47800
O  -7.34000 13.68900 43.66000
O  -5.94200 13.76100 41.86500
C  -5.00000 14.53600 42.75100
H  -10.25600 19.18900 39.32100
H  -16.17700 17.63000 41.15300
H  -14.28000 12.11400 43.50500
H  -7.15200 16.00600 40.70500
H  -8.59400 17.51400 38.52700
H  -6.64100 18.24700 40.13600
H  -7.88300 18.75800 41.29000
H  -7.81700 19.59200 39.83400
H  -7.87000 15.62400 37.84000
H  -7.85500 14.11800 38.70800
H  -5.66700 14.05300 38.62900
H  -5.39900 15.71800 39.18100
H  -13.28200 21.49200 38.48300
H  -11.88000 20.35800 38.20300
H  -11.84700 21.52000 39.47400
H  -16.54000 19.80400 41.86300
H  -17.30800 19.35900 40.27900
H  -17.42500 20.99800 40.93100
H  -16.91500 14.93700 41.43900
H  -16.17400 14.13300 44.13400
H  -17.91300 15.21000 44.03200
H  -18.31200 16.47200 42.84600
H  -16.95700 16.72900 43.94300
H  -16.17000 12.08000 41.98300
H  -17.78600 12.66900 42.41500
H  -16.58000 10.70300 43.58900
H  -18.04500 11.52900 43.98900
H  -16.44300 11.94800 44.80500
H  -11.93300 10.73600 44.65400
H  -10.92400 9.83500 43.47400
H  -12.71900 10.13800 43.20800
H  -7.62100 12.63100 40.58700
H  -5.16800 14.43500 43.82300
H  -5.09700 15.60600 42.56900
H  -4.01900 14.10000 42.56000

