158

Mg 1.18200 8.27200 25.71100
C  1.90000 10.29400 28.46800
C  1.57200 5.53500 27.66700
C  0.96400 6.41300 22.88500
C  1.42800 11.20500 23.74600
N  2.01000 7.96500 27.77300
C  1.93100 8.92400 28.76200
C  1.95200 8.28600 30.17400
C  2.07700 6.76600 29.83100
C  1.91500 6.75600 28.35100
C  3.38800 6.02400 30.27900
C  0.67600 8.57000 31.02400
C  1.04100 9.16200 32.39700
H  2.25400 8.82900 33.21200
N  1.10800 6.29400 25.29500
C  1.29900 5.31400 26.24600
C  1.14500 4.03300 25.66800
C  0.79700 4.26000 24.26100
C  0.91700 5.75300 24.07800
C  1.28400 2.78200 26.50000
C  0.46500 3.30500 23.15800
O  0.42300 3.54800 21.93500
C  0.25000 1.87200 23.58900
N  1.12400 8.75200 23.59500
C  0.97800 7.73700 22.62500
C  0.92000 8.35500 21.25800
C  0.83700 9.91400 21.53100
C  1.17600 9.98500 23.05600
C  2.16900 7.89500 20.42300
C  -0.50700 10.55600 21.24300
C  -0.48100 12.00300 20.66700
N  1.53300 10.34400 26.02400
C  1.62100 11.40100 25.13900
C  1.91200 12.61700 25.78300
C  1.96800 12.23200 27.14300
C  1.77200 10.82300 27.23500
C  2.01200 13.92300 25.11900
C  2.07100 12.73600 28.46300
O  2.15100 13.93900 28.73700
C  1.95200 11.53300 29.39100
C  3.13600 11.72700 30.27000
O  4.16900 11.11300 30.10900
O  2.96100 12.64300 31.27400
C  4.22100 12.75900 32.07700
H  1.51000 4.69500 28.36100
H  0.97400 5.86200 21.94200
H  1.54400 12.06200 23.08000
H  2.84800 8.71400 30.62300
H  1.24500 6.21400 30.26800
H  3.88700 6.61400 31.04800
H  4.10600 6.06200 29.46000
H  3.10600 5.00700 30.55100
H  0.16800 7.64200 31.28500
H  -0.00500 9.13100 30.38500
H  0.19900 8.97200 33.06200
H  1.02900 10.21300 32.10900
H  2.24200 2.70200 27.01400
H  1.04100 1.81200 26.06600
H  0.55500 2.98000 27.28600
H  1.23200 1.42000 23.73200
H  -0.22100 1.32400 22.77300
H  -0.44800 1.90000 24.42600
H  0.01500 8.03200 20.74300
H  1.55400 10.36800 20.84700
H  2.89100 7.35000 21.03000
H  2.51900 8.75000 19.84300
H  1.76000 7.13000 19.76300
H  -0.99500 10.72400 22.20300
H  -1.19400 9.90600 20.70100
H  -1.07300 11.98500 19.75200
H  0.52600 12.25300 20.33200
H  -0.82900 12.78400 21.34300
H  2.34300 13.80400 24.08700
H  2.68000 14.57600 25.68000
H  1.02700 14.38600 25.06700
H  1.02200 11.72200 29.92700
H  4.01700 13.51600 32.83300
H  5.14400 13.02500 31.56200
H  4.38000 11.82400 32.61500
Mg 47.07100 24.47200 28.61700
C  47.47500 26.79100 31.19400
C  46.27200 22.06800 30.91600
C  47.55800 22.19500 26.18400
C  48.62900 26.85400 26.33200
N  46.86100 24.46700 30.82400
C  47.09100 25.51100 31.67600
C  46.75700 25.12700 33.12900
C  46.42100 23.61800 33.04100
C  46.52300 23.35200 31.54200
C  47.20700 22.69400 33.95100
C  45.59300 25.96500 33.78600
C  45.72100 26.65500 35.20400
H  44.55300 26.52300 36.24400
N  46.62000 22.55000 28.51700
C  46.25100 21.71500 29.55300
C  46.04500 20.43100 29.01800
C  46.46800 20.39500 27.67000
C  46.90700 21.79000 27.40500
C  45.55300 19.36300 29.89200
C  46.63500 19.27100 26.74800
O  46.96000 19.46200 25.56100
C  46.52500 17.84700 27.22200
N  47.88400 24.53300 26.56200
C  47.98200 23.42300 25.76800
C  48.63100 23.71500 24.44700
C  48.49800 25.27100 24.37700
C  48.39800 25.59900 25.88300
C  50.18200 23.19200 24.46800
C  47.09900 25.61700 23.57100
C  46.45600 27.05300 23.71400
N  47.89900 26.40200 28.71300
C  48.50000 27.26000 27.71700
C  48.75400 28.48800 28.27600
C  48.38900 28.30800 29.62500
C  47.83100 27.08500 29.87200
C  49.12500 29.78800 27.48200
C  48.45600 29.01800 30.88500
O  48.93300 30.08700 31.16900
C  47.84500 28.03200 31.96800
C  48.90400 27.72000 33.05300
O  49.99600 27.26500 32.77300
O  48.49600 28.06800 34.38200
C  49.35900 27.78600 35.55600
H  46.01100 21.27400 31.61900
H  47.76000 21.49300 25.37300
H  49.13800 27.48100 25.59600
H  47.68700 25.28200 33.67800
H  45.38600 23.34000 33.24200
H  47.88100 22.03300 33.40800
H  46.49400 22.16000 34.58000
H  47.87700 23.24700 34.60900
H  44.67300 25.40200 33.94300
H  45.25800 26.74400 33.10100
H  45.91700 27.70700 34.99700
H  46.58100 26.21200 35.70600
H  44.95600 18.74700 29.21900
H  44.93200 19.62800 30.74800
H  46.44200 18.79100 30.15700
H  47.28500 17.67300 27.98300
H  46.74000 17.24500 26.33800
H  45.50600 17.64700 27.55400
H  48.02000 23.20100 23.70600
H  49.24800 25.79300 23.78300
H  50.64800 23.16200 25.45300
H  50.81100 23.85000 23.86900
H  50.18400 22.16400 24.10500
H  46.33300 24.89900 23.86400
H  47.24500 25.46900 22.50100
H  45.53900 26.91000 24.28600
H  46.15300 27.57900 22.80900
H  47.23300 27.64200 24.20200
H  48.41900 29.97700 26.67300
H  50.03900 29.55000 26.93600
H  49.25200 30.69500 28.07200
H  47.05700 28.59400 32.47000
H  49.92900 26.85700 35.55000
H  48.74100 27.66500 36.44600
H  50.06800 28.61500 35.54200

