158

Mg 17.44600 52.46500 25.58000
C  19.16200 50.89100 28.17600
C  15.32300 53.76600 27.96900
C  15.82700 53.99400 23.12300
C  19.56500 50.94000 23.37900
N  17.20200 52.17400 27.80400
C  18.11700 51.60000 28.62300
C  17.72800 52.04800 30.10300
C  16.36500 52.76600 30.05100
C  16.23600 52.87200 28.49900
C  15.18100 52.08100 30.81100
C  18.92300 52.90700 30.72000
C  19.16000 52.78300 32.25600
H  18.09200 52.07900 33.15500
N  15.67900 53.56500 25.50300
C  15.06100 54.02800 26.62300
C  13.84800 54.74300 26.18500
C  13.92800 54.87900 24.78300
C  15.18300 54.11200 24.42700
C  12.73600 55.05200 27.18400
C  13.03000 55.71700 23.86200
O  13.23400 55.77900 22.63500
C  11.88500 56.56900 24.44300
N  17.46200 52.18900 23.59100
C  16.85500 53.09300 22.77600
C  17.12800 52.94900 21.34600
C  18.53900 52.21800 21.40400
C  18.53200 51.68000 22.86200
C  16.03900 52.12600 20.56000
C  19.78300 52.96300 20.86300
C  20.89600 52.10100 20.39000
N  18.99900 51.13000 25.70200
C  19.84600 50.66100 24.70800
C  20.98300 49.97100 25.24800
C  20.67800 49.95400 26.61500
C  19.47500 50.70400 26.84700
C  22.03000 49.12300 24.40000
C  21.19100 49.59800 27.88500
O  22.18200 49.05900 28.21200
C  20.23400 50.22500 28.99600
C  19.72100 49.19300 29.86500
O  18.95700 48.33900 29.53900
O  20.17600 49.39800 31.14600
C  19.46400 48.43500 32.06400
H  14.77000 54.42400 28.64300
H  15.40500 54.62400 22.33700
H  20.46200 50.83400 22.76500
H  17.58700 51.13700 30.68500
H  16.36000 53.76200 30.49400
H  14.60200 52.71800 31.48100
H  15.62200 51.38000 31.52000
H  14.62300 51.72000 29.94800
H  18.55600 53.92600 30.59400
H  19.78400 52.72300 30.07800
H  19.33300 53.78000 32.66200
H  20.10000 52.34200 32.58600
H  12.98800 55.95400 27.74200
H  12.61800 54.36600 28.02300
H  11.77300 55.17400 26.68800
H  12.28500 57.05100 25.33600
H  11.19100 55.73200 24.50500
H  11.45000 57.31400 23.77700
H  17.34100 53.85800 20.78300
H  18.57700 51.25600 20.89300
H  15.35300 51.77400 21.33100
H  16.55800 51.29900 20.07600
H  15.61000 52.87200 19.89100
H  20.14900 53.52700 21.72100
H  19.38600 53.56900 20.04800
H  20.57500 51.06100 20.32400
H  21.75600 52.27900 21.03600
H  21.02800 52.45100 19.36600
H  21.85100 49.20000 23.32700
H  21.93300 48.07700 24.69100
H  23.06400 49.35800 24.65200
H  20.88900 50.77100 29.67600
H  18.38700 48.60200 32.04500
H  19.82200 48.44400 33.09300
H  19.66900 47.42900 31.69900
Mg 9.72700 48.37600 25.63700
C  7.93000 48.62600 28.64500
C  12.50000 49.52300 27.21500
C  11.27900 48.30200 22.72400
C  6.60500 47.49900 23.94800
N  10.09700 49.03900 27.62000
C  9.28300 48.96500 28.72600
C  10.06600 49.29000 29.89300
C  11.31900 50.03400 29.37300
C  11.28900 49.53500 27.96900
C  11.17700 51.56900 29.46900
C  10.31300 48.17600 30.90700
C  9.72200 48.47200 32.24600
H  9.79000 47.29700 33.22300
N  11.71300 48.70300 25.09200
C  12.72600 49.07700 25.88200
C  13.96900 49.11000 25.15800
C  13.60000 48.88000 23.76400
C  12.14900 48.62500 23.80300
C  15.30500 49.26300 25.93400
C  14.45900 48.87600 22.59200
O  14.02900 48.59600 21.43700
C  15.94200 49.04600 22.79600
N  8.97200 48.01400 23.66400
C  9.91200 48.00900 22.59100
C  9.15900 47.80900 21.22200
C  7.84700 47.14100 21.80100
C  7.78000 47.63900 23.18400
C  8.82000 49.02600 20.34400
C  7.85500 45.56400 21.76600
C  8.93800 44.85100 22.61800
N  7.67300 48.21600 26.11200
C  6.52800 47.80000 25.35600
C  5.33900 47.87600 26.20200
C  5.84600 48.15400 27.50800
C  7.29200 48.33700 27.40200
C  3.86500 47.69700 25.81900
C  5.49100 48.29100 28.93400
O  4.48300 48.08600 29.56000
C  6.82500 48.66700 29.68100
C  7.06300 47.57300 30.68400
O  7.49700 46.47900 30.49000
O  6.60300 47.95200 31.92200
C  6.48700 46.90200 32.99200
H  13.35200 49.88100 27.79700
H  11.68800 48.40400 21.71700
H  5.69900 47.08600 23.49900
H  9.42500 50.02500 30.37800
H  12.21200 49.94900 29.99100
H  10.44700 51.97800 30.16700
H  11.02600 51.97200 28.46800
H  12.14500 52.03600 29.65100
H  11.37400 48.09400 31.14200
H  9.97800 47.18400 30.60400
H  8.82500 49.09100 32.22200
H  10.40400 49.21400 32.66100
H  15.88700 48.37500 25.68800
H  15.17200 49.40600 27.00600
H  15.82300 50.16000 25.59400
H  16.55700 48.78400 21.93600
H  16.22500 48.32900 23.56700
H  16.15300 50.06400 23.12400
H  9.80800 47.14800 20.64700
H  7.01000 47.56900 21.24900
H  9.44500 49.87500 20.62100
H  7.79700 49.38600 20.46100
H  9.06600 48.87800 19.29300
H  8.12400 45.34800 20.73200
H  6.86700 45.17200 22.00700
H  9.55900 45.56700 23.15700
H  9.52100 44.20000 21.96800
H  8.50100 44.20800 23.38200
H  3.56900 48.10100 24.85000
H  3.30000 48.25000 26.56900
H  3.54800 46.66200 25.94500
H  6.74300 49.62500 30.19400
H  7.03700 47.15100 33.89900
H  6.69200 45.90500 32.60300
H  5.43400 47.02400 33.24700

