158

Mg 25.52900 0.08700 29.27100
C  27.28900 -0.12400 32.26300
C  22.68600 0.14900 31.09500
C  23.86900 0.54400 26.26900
C  28.46800 -0.06400 27.47500
N  25.08600 -0.05500 31.42700
C  25.94600 0.00600 32.50000
C  25.24400 0.06900 33.88100
C  23.72600 -0.14400 33.43500
C  23.81500 0.00700 31.91600
C  23.03600 -1.43000 33.96100
C  25.57700 1.33900 34.77800
C  26.11900 1.06200 36.19600
H  25.07400 0.64200 37.27400
N  23.54100 0.25900 28.80000
C  22.50100 0.20300 29.68500
C  21.28700 0.24800 28.92500
C  21.60900 0.39600 27.49900
C  23.07000 0.45500 27.46200
C  19.85400 0.17200 29.60800
C  20.70700 0.46500 26.24100
O  21.15600 0.62400 25.08800
C  19.24300 0.36000 26.51300
N  26.08200 -0.07000 27.11800
C  25.25100 0.25300 26.10100
C  25.95400 0.37000 24.72000
C  27.46900 0.18700 25.16900
C  27.33400 0.06300 26.71200
C  25.38700 -0.55000 23.65200
C  28.45700 1.35100 24.80600
C  29.87100 0.95100 24.28800
N  27.49400 -0.09500 29.74000
C  28.61100 -0.13300 28.88700
C  29.79700 -0.40300 29.70600
C  29.33700 -0.38800 31.04000
C  27.92100 -0.24100 31.04000
C  31.16600 -0.59300 29.17300
C  29.80300 -0.49800 32.40300
O  30.92200 -0.66700 32.83100
C  28.51500 -0.17600 33.28300
C  28.42300 -1.29600 34.26900
O  27.69900 -2.28400 34.15500
O  29.22600 -1.11200 35.33500
C  28.99900 -2.02500 36.41700
H  21.88900 0.18500 31.84100
H  23.27400 0.80500 25.39200
H  29.32200 -0.14400 26.79900
H  25.43400 -0.81400 34.49100
H  23.02800 0.62100 33.77800
H  23.64400 -2.07200 34.59900
H  22.62800 -2.08500 33.19200
H  22.24600 -1.09600 34.63300
H  24.70600 1.98900 34.86900
H  26.29800 1.93300 34.21800
H  26.65800 1.89700 36.64300
H  26.72200 0.15500 36.15700
H  19.92300 0.10700 30.69400
H  19.41700 -0.79600 29.36600
H  19.18300 0.96300 29.27200
H  18.80200 1.27900 26.89900
H  19.15300 -0.46900 27.21500
H  18.78000 0.08300 25.56600
H  25.80900 1.34500 24.25500
H  27.83700 -0.80300 24.90300
H  25.52500 -0.14100 22.65100
H  24.31500 -0.42700 23.80900
H  25.69200 -1.59500 23.69900
H  28.61100 1.92000 25.72300
H  28.03500 2.06100 24.09600
H  29.84900 -0.10600 24.02500
H  30.52500 1.11100 25.14500
H  30.12300 1.55700 23.41800
H  31.79400 -0.56300 30.06300
H  31.31700 0.09400 28.34000
H  31.24500 -1.64100 28.88400
H  28.64700 0.73800 33.86100
H  28.02900 -1.61700 36.69800
H  29.78300 -1.86200 37.15600
H  28.71500 -3.05100 36.18000
Mg 9.04300 47.84300 24.85500
C  6.90200 47.70200 27.76200
C  11.38800 49.11600 26.88700
C  11.01000 47.80100 22.31800
C  6.20200 47.72200 22.90700
N  9.15900 48.36800 27.05400
C  8.20000 48.18600 28.05400
C  8.74400 48.83100 29.37100
C  9.90100 49.67200 28.86900
C  10.22200 49.11500 27.52900
C  9.57800 51.16600 28.76900
C  9.06600 47.79100 30.46200
C  9.17900 48.44200 31.88100
H  8.35100 47.74900 33.06100
N  10.95400 48.29300 24.65600
C  11.81700 48.69500 25.64900
C  13.17000 48.66600 25.16000
C  13.05200 48.14300 23.84300
C  11.62900 48.10700 23.55700
C  14.43600 49.04300 25.96700
C  14.14400 47.65900 22.82100
O  13.91500 47.15600 21.76000
C  15.53500 47.74000 23.20900
N  8.57100 47.97700 22.80100
C  9.63000 47.68200 21.99800
C  9.13000 47.56000 20.51300
C  7.61500 47.93300 20.70300
C  7.39500 47.76300 22.19600
C  9.96000 48.37600 19.42200
C  6.77100 47.06400 19.68200
C  6.44700 47.76900 18.33600
N  6.98900 47.73000 25.13500
C  5.99500 47.65000 24.27900
C  4.72000 47.34400 24.95800
C  5.03700 47.27500 26.32400
C  6.44500 47.57200 26.41700
C  3.35200 47.41700 24.30600
C  4.41000 47.12800 27.65700
O  3.29200 46.89300 28.08900
C  5.67100 47.54500 28.59900
C  5.83300 46.44500 29.55500
O  6.33100 45.39000 29.35100
O  5.11400 46.78600 30.65700
C  4.75900 45.73900 31.59900
H  12.20800 49.60700 27.41600
H  11.70000 47.71700 21.47600
H  5.36800 47.80300 22.20600
H  7.95100 49.50500 29.69400
H  10.77100 49.61000 29.52400
H  9.67600 51.52400 27.74400
H  10.17800 51.71900 29.49200
H  8.59900 51.46700 29.14300
H  9.99900 47.30400 30.18000
H  8.33900 46.98400 30.55700
H  9.05900 49.52400 31.83200
H  10.23900 48.31200 32.10100
H  14.12300 49.44800 26.92900
H  14.97800 49.86500 25.49800
H  15.16300 48.23600 26.05300
H  15.83700 46.84100 23.74700
H  15.84100 48.66700 23.69500
H  16.16700 47.70900 22.32200
H  9.26300 46.48900 20.35600
H  7.52200 49.00500 20.52900
H  10.65800 49.01600 19.96300
H  9.27700 48.94200 18.78800
H  10.60300 47.77800 18.77600
H  5.80800 46.81300 20.12800
H  7.15500 46.08100 19.41200
H  5.37000 47.93900 18.33000
H  6.60900 47.08400 17.50400
H  7.01900 48.69500 18.29400
H  2.57100 47.01500 24.95100
H  3.35000 46.89900 23.34700
H  3.10500 48.47100 24.17500
H  5.46600 48.45400 29.16300
H  5.63800 45.42300 32.16000
H  4.23600 44.88000 31.17800
H  4.05200 46.17200 32.30700

