158

Mg 0.63200 8.10500 26.61100
C  1.28600 9.95800 29.50400
C  0.48100 5.27000 28.70700
C  0.22800 6.30700 23.95100
C  1.28700 10.98700 24.67700
N  0.74600 7.72900 28.88100
C  0.94200 8.63200 29.82900
C  0.83200 8.03500 31.25400
C  0.69900 6.54000 30.98400
C  0.60100 6.46300 29.42300
C  1.83800 5.74400 31.67400
C  -0.28200 8.69500 32.14300
C  0.17100 9.04800 33.61700
H  -0.37200 8.32900 34.85700
N  0.35400 6.00500 26.39500
C  0.37000 5.03600 27.30500
C  0.15400 3.74800 26.58000
C  -0.02600 4.00700 25.16300
C  0.22300 5.49900 25.15500
C  -0.14600 2.41800 27.29700
C  -0.23800 3.08700 24.05900
O  -0.14900 3.45900 22.90000
C  -0.55500 1.64200 24.29600
N  0.61400 8.62900 24.58900
C  0.45200 7.67700 23.69400
C  0.48000 8.24500 22.27900
C  0.59500 9.82700 22.51300
C  0.81100 9.86900 23.98900
C  1.50400 7.57200 21.30900
C  -0.61200 10.85100 22.09300
C  -2.08000 10.37500 22.36700
N  1.22200 10.05500 26.93500
C  1.41600 11.13300 26.08000
C  1.79200 12.30600 26.77800
C  1.77900 11.87900 28.12400
C  1.37800 10.53300 28.16600
C  2.10900 13.62200 26.25100
C  2.03900 12.26800 29.48100
O  2.32500 13.35400 30.01800
C  1.49300 11.13200 30.40700
C  2.49800 10.91900 31.47600
O  3.50000 10.20500 31.37100
O  2.22000 11.70200 32.63500
C  3.04400 11.64800 33.85900
H  0.36000 4.41600 29.37700
H  0.02800 5.67500 23.08400
H  1.38100 11.81500 23.97000
H  1.79300 8.08600 31.76600
H  -0.16900 6.11100 31.48500
H  1.57700 4.71100 31.90400
H  1.92800 6.16100 32.67600
H  2.76400 5.66500 31.10300
H  -1.12000 8.00700 32.26000
H  -0.59100 9.64100 31.69900
H  -0.06200 10.09300 33.82000
H  1.25600 8.96600 33.68700
H  -1.06700 2.00000 26.88800
H  -0.27600 2.57000 28.36800
H  0.68700 1.72200 27.19800
H  0.21900 1.21600 24.93400
H  -0.59400 1.07400 23.36600
H  -1.55800 1.53300 24.70800
H  -0.52300 8.00400 21.92800
H  1.45700 10.16400 21.93800
H  2.42600 7.32900 21.83600
H  1.58300 8.12700 20.37400
H  1.04700 6.62100 21.03500
H  -0.44300 10.94600 21.02100
H  -0.42800 11.79100 22.61400
H  -2.62100 10.31800 21.42300
H  -2.60600 11.03300 23.05900
H  -2.06500 9.37100 22.79300
H  1.25700 14.27700 26.43000
H  2.39900 13.62000 25.20100
H  2.87800 13.90600 26.97000
H  0.61100 11.44100 30.96900
H  3.22400 12.70100 34.07700
H  3.96100 11.08400 33.68700
H  2.38900 11.15900 34.58000
Mg -1.82200 33.90000 27.24100
C  -3.46700 32.23000 29.96600
C  -0.04300 35.68000 29.56900
C  -0.81100 36.06600 24.73300
C  -3.85700 32.30000 25.11700
N  -1.94900 34.08200 29.46900
C  -2.56100 33.21900 30.35300
C  -2.27200 33.60000 31.84800
C  -1.23300 34.74400 31.67500
C  -0.99400 34.77600 30.13500
C  -1.71000 36.05200 32.30200
C  -1.74600 32.38800 32.72600
C  -2.34700 32.21100 34.12600
H  -1.42500 32.19600 35.36700
N  -0.54200 35.57500 27.14100
C  0.18700 36.00200 28.19300
C  1.17300 36.98500 27.69400
C  0.79100 37.30500 26.32600
C  -0.22000 36.25000 25.97600
C  2.32200 37.53900 28.51400
C  1.24900 38.37000 25.34100
O  0.99900 38.47300 24.20400
C  2.24500 39.36600 25.97200
N  -2.34400 34.31100 25.34800
C  -1.80200 35.12400 24.43700
C  -2.02000 34.72100 22.96200
C  -2.67100 33.31000 23.17200
C  -2.96300 33.27400 24.66600
C  -2.91200 35.68000 22.17700
C  -1.72300 32.19300 22.71300
C  -2.39300 31.22600 21.75500
N  -3.36200 32.50500 27.47100
C  -4.12100 31.95700 26.45000
C  -5.05100 31.03000 27.04800
C  -4.88200 31.14200 28.44000
C  -3.81600 32.01000 28.65500
C  -6.13900 30.26300 26.30100
C  -5.34300 30.73400 29.67000
O  -6.27600 29.97000 29.90300
C  -4.44600 31.37600 30.82300
C  -5.37500 32.15500 31.56800
O  -5.76100 33.32600 31.28300
O  -5.98600 31.52200 32.66300
C  -7.02500 32.11800 33.49300
H  0.61600 36.23500 30.24000
H  -0.33800 36.57500 23.89000
H  -4.42000 31.72800 24.37700
H  -3.17600 33.97700 32.32500
H  -0.30400 34.49700 32.18900
H  -2.15600 36.79500 31.64000
H  -0.90300 36.50800 32.87500
H  -2.45900 35.84300 33.06600
H  -0.68500 32.53400 32.92700
H  -1.96800 31.42300 32.27100
H  -2.88200 31.26100 34.14300
H  -3.18400 32.88600 34.30300
H  2.34800 36.93900 29.42400
H  2.04100 38.54500 28.82300
H  3.26300 37.43700 27.97300
H  3.18700 38.86900 26.20300
H  1.78800 39.71700 26.89700
H  2.41900 40.21600 25.31300
H  -1.03900 34.67300 22.48900
H  -3.61400 33.27200 22.62800
H  -3.42800 36.32200 22.89000
H  -3.69900 35.15200 21.63800
H  -2.38400 36.37800 21.52800
H  -1.44600 31.51300 23.51900
H  -0.78600 32.52100 22.26300
H  -3.48100 31.16700 21.77000
H  -2.05700 30.21400 21.97900
H  -2.11900 31.41800 20.71700
H  -7.04400 30.02500 26.86100
H  -5.82400 29.33800 25.81800
H  -6.50700 30.99300 25.58000
H  -4.08200 30.53100 31.40700
H  -7.44800 32.98200 32.98000
H  -6.51400 32.51600 34.37000
H  -7.71900 31.33100 33.78700

