158

Mg 0.73900 8.16200 25.84300
C  1.56500 10.10300 28.63000
C  0.68400 5.44700 27.93200
C  0.10200 6.18100 23.10600
C  1.01200 10.90700 23.76400
N  1.30900 7.79100 28.05800
C  1.47500 8.71600 29.02000
C  1.40200 8.19500 30.50300
C  1.32400 6.64700 30.18000
C  1.12100 6.60300 28.61700
C  2.43200 5.68000 30.72200
C  0.30000 8.78500 31.40900
C  0.61500 8.84700 32.87700
H  1.61100 7.90100 33.53700
N  0.37200 6.08400 25.57300
C  0.34800 5.16100 26.60600
C  -0.05300 3.88100 26.09100
C  -0.31500 4.10200 24.67100
C  0.10200 5.48400 24.37800
C  -0.25700 2.66300 26.93900
C  -0.81500 3.11400 23.71800
O  -1.11000 3.38400 22.58200
C  -0.95900 1.62000 24.08500
N  0.45000 8.52400 23.68500
C  0.23000 7.52900 22.79100
C  0.32500 8.04400 21.37400
C  0.25800 9.59900 21.63800
C  0.56700 9.72000 23.11000
C  1.57300 7.46900 20.61500
C  -1.14300 10.34100 21.33900
C  -0.99100 11.47900 20.28500
N  1.22300 10.03800 26.04200
C  1.27800 11.12500 25.08500
C  1.60700 12.34300 25.73900
C  1.72300 11.95700 27.10000
C  1.48900 10.57900 27.22800
C  1.62800 13.77100 25.07500
C  1.92500 12.52000 28.45500
O  2.13700 13.69800 28.73100
C  1.85700 11.29000 29.46600
C  3.22300 11.11400 29.89500
O  4.32300 11.13900 29.29400
O  3.06700 10.84100 31.20900
C  4.36500 10.48800 31.92300
H  0.55900 4.53100 28.51300
H  -0.07700 5.50600 22.26600
H  0.90500 11.80100 23.14600
H  2.40200 8.40700 30.88100
H  0.41600 6.22000 30.60500
H  2.98500 6.05600 31.58300
H  3.14600 5.50900 29.91700
H  1.97200 4.69300 30.76000
H  -0.58200 8.18100 31.19400
H  0.11500 9.83100 31.16200
H  -0.33800 8.81400 33.40500
H  1.06000 9.83900 32.96600
H  -1.33900 2.63200 26.81200
H  -0.02000 2.81900 27.99200
H  0.18500 1.74500 26.55200
H  -0.00200 1.27900 24.48000
H  -1.01300 0.96700 23.21400
H  -1.79700 1.37800 24.73900
H  -0.51400 7.65000 20.80100
H  1.05800 10.05100 21.05100
H  2.15400 6.78200 21.22900
H  2.30000 8.22800 20.32300
H  1.17600 7.01400 19.70700
H  -1.58500 10.72200 22.26000
H  -1.81000 9.56400 20.96800
H  0.03300 11.81800 20.13000
H  -1.50400 12.37000 20.64600
H  -1.42300 11.19600 19.32500
H  0.88400 14.45200 25.48900
H  1.16000 13.69000 24.09400
H  2.63100 14.18500 24.97300
H  1.12300 11.51100 30.24100
H  5.15500 11.20900 31.71400
H  4.67300 9.49400 31.59700
H  4.29400 10.46900 33.01000
Mg 31.22500 59.66200 38.88400
C  28.34000 57.72000 37.80000
C  33.19300 57.04800 37.95400
C  33.82300 61.78700 39.08100
C  29.02700 62.28000 39.64900
N  30.81400 57.72100 37.90200
C  29.61400 57.08000 37.74500
C  29.81600 55.76200 37.03300
C  31.29000 55.41300 37.40800
C  31.82100 56.85900 37.79500
C  31.51800 54.32900 38.48600
C  29.45600 55.61000 35.53600
C  28.33900 54.67100 35.08100
H  27.24000 55.27800 34.14500
N  33.29400 59.46400 38.67900
C  33.85500 58.27300 38.37700
C  35.33400 58.46800 38.42900
C  35.53300 59.81200 38.75800
C  34.22400 60.44800 38.84600
C  36.36400 57.42000 38.19300
C  36.87500 60.49400 38.98300
O  37.93300 59.88700 39.00300
C  36.96300 61.98100 39.34300
N  31.36700 61.82700 39.17700
C  32.59100 62.42100 39.29000
C  32.43800 63.89000 39.59200
C  30.90700 64.05300 39.95500
C  30.38400 62.68200 39.55500
C  33.36800 64.46900 40.71600
C  30.30900 65.18200 39.15900
C  29.37500 66.24200 39.84900
N  29.12200 59.98600 38.75400
C  28.37600 61.07500 39.18100
C  26.96300 60.77600 39.06700
C  26.94200 59.44200 38.55800
C  28.26600 59.05900 38.31600
C  25.80100 61.62300 39.59000
C  26.05800 58.29700 38.22000
O  24.87300 58.14500 38.26200
C  26.89900 57.15100 37.65300
C  26.55400 55.88000 38.40200
O  27.19300 55.47700 39.33700
O  25.58000 55.15300 37.78800
C  25.25700 53.84700 38.26900
H  33.81200 56.23100 37.57700
H  34.61000 62.54400 39.09200
H  28.37300 63.04200 40.07800
H  29.13000 55.13400 37.60200
H  31.78200 55.09700 36.48800
H  30.66800 53.64600 38.48700
H  31.55000 54.82100 39.45800
H  32.42100 53.74500 38.30800
H  30.32200 55.36600 34.92100
H  29.08700 56.60200 35.27700
H  27.81900 54.25400 35.94300
H  28.78200 53.84000 34.53100
H  35.98200 56.59800 37.58700
H  36.56100 56.98900 39.17500
H  37.36300 57.71600 37.87200
H  38.01300 62.27200 39.37300
H  36.46200 62.18000 40.29000
H  36.49600 62.51800 38.51800
H  32.63800 64.48400 38.70100
H  30.72500 64.17400 41.02300
H  34.17600 63.86400 41.12800
H  32.83400 64.84800 41.58700
H  33.85400 65.32500 40.24700
H  29.76000 64.87600 38.26800
H  31.12500 65.86000 38.90800
H  29.77300 67.25100 39.74100
H  29.27800 65.98400 40.90400
H  28.39600 66.22900 39.37100
H  26.02200 61.86700 40.62900
H  24.86700 61.06800 39.50600
H  25.80600 62.58200 39.07100
H  26.77300 57.00300 36.58000
H  25.90800 53.04300 37.92800
H  24.27200 53.53100 37.92300
H  25.16800 53.79900 39.35500

