158

Mg 45.14400 4.29000 47.74800
C  43.31300 7.27400 46.95300
C  42.27400 2.56500 46.94100
C  46.93700 1.60300 47.23500
C  48.04300 6.42700 47.88000
N  43.04600 4.84200 46.87600
C  42.58300 6.10300 46.67000
C  41.16900 6.03000 46.13900
C  40.69900 4.57500 46.40600
C  42.03800 3.97800 46.88200
C  39.47900 4.42000 47.33900
C  41.15700 6.42600 44.64100
C  40.66000 7.85900 44.33200
H  39.59100 7.88200 43.18600
N  44.62400 2.21600 47.44100
C  43.40200 1.70000 47.20000
C  43.47700 0.27900 47.11900
C  44.89500 -0.08200 47.30000
C  45.56600 1.21800 47.40100
C  42.19400 -0.59200 46.85000
C  45.48400 -1.48900 47.17800
O  44.81000 -2.48200 46.91800
C  46.97600 -1.74400 47.35700
N  47.22900 4.10700 47.56300
C  47.66500 2.81100 47.33600
C  49.23200 2.84900 47.31400
C  49.57700 4.41000 47.54000
C  48.20200 5.03500 47.71900
C  49.79500 1.92900 48.41000
C  50.41000 4.98700 46.36200
C  51.80100 5.66700 46.63200
N  45.60500 6.46400 47.61100
C  46.79600 7.09600 47.69700
C  46.56600 8.54800 47.53700
C  45.21300 8.69100 47.36200
C  44.64800 7.38500 47.29600
C  47.56400 9.59300 47.60300
C  44.04800 9.60800 47.14600
O  43.98800 10.83100 47.15700
C  42.83600 8.73400 46.79200
C  41.87900 9.09000 47.90200
O  41.71500 8.48800 48.96000
O  40.98900 10.02400 47.39000
C  39.84000 10.35200 48.25200
H  41.33300 2.05700 46.71800
H  47.69400 0.81900 47.16800
H  48.89000 7.10600 47.99900
H  40.59300 6.76300 46.70600
H  40.40300 4.03200 45.50900
H  39.06900 5.40900 47.54100
H  39.85000 3.99900 48.27400
H  38.73600 3.72300 46.95100
H  40.63500 5.76200 43.95100
H  42.18900 6.37200 44.29600
H  41.49600 8.47400 43.99700
H  40.14300 8.26500 45.20100
H  42.51700 -1.40100 46.19300
H  41.37400 -0.14400 46.28900
H  41.73300 -1.02800 47.73600
H  47.10600 -2.80700 47.56100
H  47.21400 -1.21600 48.28000
H  47.59500 -1.45700 46.50700
H  49.50500 2.58100 46.29300
H  49.97200 4.65100 48.52700
H  50.57000 2.48900 48.93300
H  50.28400 1.07200 47.94700
H  49.06800 1.47900 49.08700
H  49.79200 5.73600 45.86700
H  50.71200 4.21100 45.65900
H  52.22600 5.42000 47.60500
H  51.72600 6.73300 46.41500
H  52.58600 5.32200 45.95900
H  48.14700 9.73600 48.51300
H  47.11300 10.53400 47.28700
H  48.26200 9.27200 46.83000
H  42.52300 8.89500 45.76100
H  40.01100 10.21200 49.31900
H  38.99200 9.72000 47.98700
H  39.66900 11.41900 48.10800
Mg 48.18900 34.91000 27.81900
C  46.29700 33.28500 30.22900
C  48.34800 37.66800 30.07400
C  49.37100 36.99900 25.39700
C  47.62700 32.44800 25.60800
N  47.39800 35.35200 29.92100
C  46.79400 34.45500 30.74600
C  46.86300 35.02800 32.20600
C  47.06000 36.50600 31.93300
C  47.68100 36.50600 30.55300
C  45.80600 37.41500 32.22300
C  48.14700 34.34800 32.87600
C  48.44700 34.51700 34.36700
H  47.54100 35.48600 35.20300
N  48.84800 36.98100 27.74900
C  48.90000 37.88900 28.81400
C  49.66300 39.02000 28.43500
C  49.91000 38.93600 27.02700
C  49.28500 37.61400 26.63200
C  49.95600 40.16800 29.39200
C  50.65100 39.92300 26.02900
O  50.80500 39.62700 24.86200
C  51.12300 41.29000 26.50800
N  48.22200 34.89100 25.73700
C  48.88300 35.74900 24.94400
C  48.99300 35.21900 23.51400
C  48.63900 33.69600 23.69900
C  48.16500 33.66900 25.12900
C  48.07500 36.07100 22.54600
C  49.83900 32.82700 23.33600
C  49.39400 31.58200 22.52900
N  47.23800 33.09500 27.87700
C  47.04300 32.17500 26.94100
C  46.41100 30.96700 27.43800
C  46.08600 31.36800 28.72900
C  46.58700 32.71900 28.95900
C  45.93600 29.69800 26.76000
C  45.31600 31.07100 29.99100
O  44.61800 30.08700 30.24500
C  45.38500 32.29200 30.93200
C  45.76200 31.74800 32.33100
O  46.66700 31.00500 32.59300
O  44.82400 32.12300 33.21900
C  45.11100 31.79400 34.62700
H  48.48500 38.39600 30.87600
H  49.75300 37.54700 24.53300
H  47.49000 31.71300 24.81100
H  45.98400 34.69200 32.75600
H  47.71000 36.95500 32.68400
H  44.92100 36.87200 32.55400
H  45.40600 38.05900 31.44100
H  45.91900 38.04400 33.10600
H  49.07500 34.66700 32.40100
H  48.18100 33.26400 32.77200
H  49.44700 34.89800 34.57300
H  48.43500 33.58200 34.92800
H  50.97000 40.54500 29.25400
H  49.92700 39.87900 30.44200
H  49.27100 41.00400 29.25300
H  50.43200 41.71800 27.23400
H  51.13300 41.91000 25.61100
H  52.13900 41.23400 26.89900
H  50.04000 35.34900 23.24000
H  47.75000 33.39600 23.14400
H  47.18400 35.44600 22.50300
H  48.47400 36.42300 21.59500
H  47.98200 37.00300 23.10400
H  50.34500 32.48400 24.23800
H  50.62300 33.38200 22.82000
H  48.82100 31.83200 21.63600
H  48.71800 31.02600 23.17800
H  50.18800 30.91400 22.19600
H  44.98200 29.56600 26.25000
H  45.73300 28.92700 27.50300
H  46.71400 29.35600 26.07700
H  44.44100 32.82700 31.03800
H  46.05300 31.28400 34.82800
H  44.25700 31.14100 34.80700
H  45.14400 32.74800 35.15400

