158

Mg 16.78300 51.67600 26.08600
C  18.62700 50.22100 28.66300
C  14.28100 52.45000 28.40900
C  15.02200 52.94000 23.66300
C  19.45800 50.89300 23.96600
N  16.51600 51.37300 28.27400
C  17.44300 50.85500 29.12700
C  17.07600 51.22000 30.56600
C  15.60200 51.57800 30.41900
C  15.42100 51.84500 28.93000
C  14.70200 50.42600 31.00800
C  17.99400 52.27900 31.15300
C  18.20200 52.33100 32.63100
H  17.07200 51.70800 33.49400
N  14.93100 52.53800 26.01700
C  14.04800 52.76800 27.04900
C  12.84300 53.47200 26.60900
C  13.08300 53.73700 25.21700
C  14.35900 53.05100 24.89100
C  11.81700 54.20700 27.48900
C  12.41800 54.62500 24.19500
O  12.85900 54.84900 23.09000
C  11.09700 55.30300 24.53200
N  17.09200 51.76300 24.06800
C  16.26900 52.43000 23.30000
C  16.80700 52.70700 21.94400
C  18.39000 52.36600 22.21300
C  18.34500 51.62700 23.49400
C  16.09800 51.86700 20.83100
C  19.31500 53.57100 22.31400
C  20.68700 53.53500 21.52000
N  18.62900 50.68600 26.22200
C  19.53600 50.37500 25.27000
C  20.55000 49.50400 25.85900
C  20.23500 49.46200 27.18600
C  19.06400 50.11000 27.33700
C  21.75900 49.06700 25.09600
C  20.68500 49.04000 28.52000
O  21.71500 48.49800 28.89900
C  19.65000 49.56500 29.55700
C  19.10900 48.49400 30.41800
O  18.60000 47.44200 30.00600
O  19.19000 48.83000 31.74900
C  18.63900 47.80600 32.68700
H  13.46400 52.71900 29.08100
H  14.50800 53.23700 22.74700
H  20.33600 50.66700 23.35800
H  17.13000 50.28700 31.12700
H  15.32500 52.50700 30.91700
H  14.25900 49.92100 30.15000
H  13.85900 50.74400 31.62100
H  15.20400 49.67600 31.61900
H  17.70700 53.22000 30.68400
H  19.01000 52.13000 30.78700
H  18.39700 53.35200 32.96000
H  19.05700 51.70700 32.89100
H  10.82400 54.17300 27.04100
H  12.11200 55.25600 27.48000
H  11.72700 53.94800 28.54400
H  11.24500 55.82000 25.48000
H  10.39400 54.49600 24.74000
H  10.72300 56.00200 23.78400
H  16.74900 53.76800 21.70200
H  18.82700 51.66700 21.49900
H  16.74500 51.01700 20.61200
H  15.90700 52.45500 19.93300
H  15.09900 51.60900 21.18100
H  19.64900 53.64500 23.34900
H  18.78900 54.48400 22.03500
H  21.03800 54.52700 21.23400
H  20.59900 53.00600 20.57100
H  21.41900 53.01500 22.13800
H  22.18900 49.65300 24.28300
H  21.51600 48.06300 24.74800
H  22.45800 48.87400 25.90900
H  20.11900 50.21900 30.29300
H  19.46900 47.44400 33.29500
H  18.14300 46.94700 32.23600
H  17.99800 48.21000 33.47000
Mg -11.74500 16.36300 41.69600
C  -8.78100 14.48700 41.49600
C  -10.20700 18.90300 39.95800
C  -14.87100 17.82500 41.26600
C  -13.32300 13.50100 42.86100
N  -9.74700 16.63600 40.78600
C  -8.70600 15.64900 40.75100
C  -7.53800 16.23900 39.97500
C  -7.92000 17.66400 39.65700
C  -9.32500 17.79500 40.23600
C  -7.01500 18.75500 40.31000
C  -7.14200 15.40700 38.70200
C  -5.63500 15.17100 38.50900
H  -5.02000 15.55000 37.07700
N  -12.39000 18.18600 40.90600
C  -11.59200 19.14100 40.28200
C  -12.40100 20.29500 39.95900
C  -13.74100 20.05700 40.44400
C  -13.72900 18.60500 40.90700
C  -11.91300 21.61600 39.35700
C  -14.81600 21.09800 40.48100
O  -14.48900 22.23000 40.10400
C  -16.24100 20.80800 40.90400
N  -13.87300 15.74900 42.09700
C  -14.96600 16.55600 41.87800
C  -16.22000 15.80100 42.17700
C  -15.71500 14.43000 42.76700
C  -14.19000 14.52300 42.57200
C  -17.29100 16.48400 43.10500
C  -16.34200 13.09700 42.29300
C  -16.98600 12.15800 43.34400
N  -11.20400 14.40900 42.30800
C  -11.93700 13.40300 42.74900
C  -11.13700 12.31200 43.11600
C  -9.81400 12.69600 42.77400
C  -9.90300 14.01600 42.19700
C  -11.67100 10.99100 43.54000
C  -8.45800 12.29800 42.72800
O  -7.83900 11.32800 43.21500
C  -7.72600 13.43600 41.89000
C  -6.79100 14.02900 42.80500
O  -6.80200 14.20300 44.02000
O  -5.67600 14.40500 42.07000
C  -4.65700 15.04400 42.86700
H  -9.81000 19.66300 39.28300
H  -15.84500 18.28100 41.07800
H  -13.87900 12.72600 43.39100
H  -6.78300 16.21600 40.76100
H  -7.95800 17.85900 38.58500
H  -6.46500 18.22700 41.08900
H  -7.64600 19.46100 40.84900
H  -6.42800 19.24900 39.53500
H  -7.38800 15.93600 37.78200
H  -7.66000 14.44900 38.66300
H  -5.58700 14.08700 38.61100
H  -4.98400 15.57800 39.28300
H  -12.54000 21.95900 38.53400
H  -10.90200 21.51200 38.96400
H  -11.87000 22.36000 40.15300
H  -16.20500 20.31600 41.87600
H  -16.54000 20.13700 40.09900
H  -16.93800 21.62800 40.73000
H  -16.56800 15.61700 41.16100
H  -15.68100 14.51800 43.85300
H  -18.25100 16.43200 42.59100
H  -17.07700 17.53600 43.29400
H  -17.37800 15.97500 44.06500
H  -15.52200 12.47700 41.93000
H  -17.16800 13.19900 41.59100
H  -17.18200 12.75100 44.23800
H  -16.40200 11.26800 43.57800
H  -17.99000 11.79500 43.12100
H  -12.18500 10.52700 42.69800
H  -12.29900 11.12300 44.42100
H  -10.84300 10.35400 43.85100
H  -7.30000 12.99900 40.98700
H  -4.85300 16.11100 42.75400
H  -3.72500 14.65300 42.45800
H  -4.57600 14.81400 43.92900

