158

Mg 40.58400 8.67700 29.81400
C  42.19300 10.28400 32.48600
C  38.29100 7.34600 32.13200
C  39.15800 6.88600 27.47000
C  43.30100 9.46300 27.81000
N  40.29800 8.76600 32.08100
C  41.10000 9.54300 32.95100
C  40.50000 9.53600 34.40300
C  39.36200 8.47400 34.27900
C  39.35000 8.10500 32.74900
C  39.56900 7.24300 35.23200
C  39.97200 10.87200 34.88900
C  39.15800 10.82800 36.19500
H  39.59400 11.70000 37.31000
N  38.82800 7.40700 29.77400
C  38.03400 7.01000 30.82000
C  36.96200 6.20000 30.34200
C  37.18600 6.13800 28.93800
C  38.39900 6.82700 28.63800
C  35.89400 5.65800 31.24500
C  36.36000 5.44800 27.84800
O  36.55300 5.58200 26.66500
C  35.18100 4.62700 28.34700
N  41.11300 8.29800 27.85700
C  40.34600 7.51300 27.04300
C  41.02600 7.37700 25.62500
C  42.34200 8.27000 25.78800
C  42.27700 8.72700 27.24700
C  41.36200 5.89100 25.28100
C  42.42900 9.44700 24.77100
C  42.00900 10.93500 25.25300
N  42.32400 9.73200 29.98200
C  43.32900 9.97400 29.10900
C  44.29500 10.94100 29.67100
C  43.92500 11.03100 31.00000
C  42.73900 10.26200 31.11800
C  45.48100 11.52500 29.10700
C  44.24600 11.55800 32.33800
O  45.33200 11.97900 32.72000
C  43.09000 11.13500 33.31400
C  43.74300 10.30300 34.37200
O  44.25400 9.20100 34.23600
O  43.53400 10.94600 35.56000
C  43.74800 10.21400 36.80700
H  37.55900 6.93000 32.82700
H  38.73300 6.25600 26.68600
H  44.18500 9.62400 27.18900
H  41.19500 9.13200 35.13900
H  38.37200 8.90700 34.42100
H  40.40600 7.40500 35.91100
H  39.80600 6.43600 34.53800
H  38.68600 7.00100 35.82400
H  39.24800 11.22600 34.15600
H  40.79600 11.58200 34.95600
H  38.94200 9.83400 36.58700
H  38.15900 11.25400 36.11300
H  35.08900 6.38500 31.35200
H  36.35400 5.49600 32.22000
H  35.38800 4.72000 31.01900
H  35.62900 3.89700 29.02100
H  34.86100 4.23300 27.38200
H  34.34100 5.23300 28.68600
H  40.35300 7.74300 24.85000
H  43.14100 7.62900 25.41400
H  40.64700 5.51100 24.55100
H  41.25100 5.31100 26.19700
H  42.38400 5.68600 24.96300
H  41.83500 9.25800 23.87700
H  43.47200 9.55300 24.47300
H  41.16100 11.26100 24.65000
H  42.78200 11.69100 25.11600
H  41.62800 10.83800 26.27000
H  45.40700 11.52600 28.01900
H  46.34500 10.93000 29.40500
H  45.65000 12.52600 29.50200
H  42.57500 12.00100 33.72900
H  43.44900 9.17900 36.64100
H  43.00400 10.45700 37.56500
H  44.72200 10.29800 37.29000
Mg 53.69500 23.91800 44.65500
C  51.40200 26.46000 43.54800
C  51.50300 21.58900 43.36400
C  56.15800 21.59000 44.96700
C  55.89800 26.41100 45.64500
N  51.79700 24.07100 43.37700
C  51.01600 25.16700 43.15200
C  49.63700 24.73900 42.54300
C  49.52700 23.28200 43.20100
C  51.01200 22.89800 43.26700
C  48.76900 23.33800 44.62700
C  49.66900 24.70900 41.01200
C  50.92000 25.03100 40.21100
H  50.79900 25.59500 38.81500
N  53.84900 21.85600 44.10900
C  52.83300 21.06200 43.61400
C  53.25500 19.64300 43.47900
C  54.67800 19.64900 43.80200
C  54.99500 21.08500 44.35300
C  52.31900 18.53100 43.03700
C  55.59600 18.47300 43.63200
O  55.21400 17.38900 43.17300
C  57.07700 18.62800 43.86900
N  55.73100 23.92800 45.27300
C  56.50300 22.83300 45.36100
C  58.00400 23.20000 45.67100
C  57.88300 24.78300 45.94100
C  56.38500 25.09900 45.61800
C  58.62500 22.32700 46.73900
C  58.94200 25.65600 45.18200
C  59.63600 26.71100 46.03500
N  53.69600 26.01500 44.74600
C  54.63000 26.86600 45.26200
C  54.12900 28.19000 45.13600
C  52.90700 28.08100 44.54400
C  52.64700 26.69700 44.26200
C  54.59900 29.30500 45.87300
C  51.69000 28.80400 44.17600
O  51.40700 30.00400 44.22600
C  50.63600 27.73800 43.55200
C  50.13900 28.25000 42.28500
O  50.75300 28.55100 41.29100
O  48.78800 28.31500 42.35000
C  48.16300 28.70900 41.08900
H  50.68300 20.93900 43.05000
H  56.94300 20.83700 45.06200
H  56.50500 27.21800 46.06000
H  48.87300 25.42400 42.91100
H  49.06300 22.64700 42.44600
H  47.92400 22.66100 44.75400
H  48.29100 24.30200 44.80200
H  49.60800 23.23300 45.31500
H  48.90700 25.45900 40.80000
H  49.18300 23.83800 40.57300
H  51.54700 24.14000 40.23500
H  51.46900 25.77300 40.79100
H  51.32000 18.93200 42.86500
H  52.37100 17.80000 43.84300
H  52.60500 18.25600 42.02200
H  57.26000 18.67500 44.94200
H  57.51100 19.46900 43.32900
H  57.61900 17.90400 43.26000
H  58.60000 23.02000 44.77600
H  58.14600 24.84800 46.99700
H  58.11600 21.36500 46.78800
H  58.77500 22.82200 47.69900
H  59.63700 22.17800 46.36100
H  58.46400 26.06300 44.29100
H  59.75600 25.04200 44.79700
H  59.21800 26.79600 47.03800
H  59.53000 27.65100 45.49300
H  60.68400 26.41300 46.05700
H  55.35600 29.91300 45.37600
H  54.98600 28.97000 46.83500
H  53.73600 29.94200 46.06500
H  49.87800 27.68500 44.33300
H  48.35000 29.73400 40.77100
H  47.08200 28.61500 41.18900
H  48.42200 28.09300 40.22800

