158

Mg 47.13600 16.43800 28.75000
C  45.23500 16.29000 31.71700
C  49.24900 18.46900 30.27900
C  48.54700 17.01000 25.65800
C  44.34800 15.20800 26.99500
N  47.21000 17.28800 30.79100
C  46.44500 16.95600 31.92800
C  47.05700 17.58300 33.09800
C  48.19400 18.50300 32.59500
C  48.25000 18.03400 31.12700
C  48.17100 20.07900 32.83000
C  47.44700 16.53700 34.20500
C  47.16000 16.92400 35.68500
H  47.21300 18.47000 36.20200
N  48.76700 17.38500 28.09000
C  49.55500 18.16600 28.92400
C  50.71200 18.64900 28.18900
C  50.60000 18.06900 26.87100
C  49.25900 17.41400 26.79100
C  51.79100 19.49900 28.74500
C  51.67800 18.07300 25.71100
O  51.48100 17.60500 24.62400
C  52.97500 18.84800 25.90200
N  46.58900 16.08000 26.58700
C  47.34600 16.43000 25.55300
C  46.55800 16.24900 24.25200
C  45.28500 15.43700 24.66300
C  45.43400 15.61500 26.17100
C  46.31300 17.72300 23.68100
C  45.27600 13.85900 24.22500
C  44.30500 13.53800 23.07900
N  45.26100 15.71700 29.15500
C  44.30200 15.18600 28.41500
C  43.17300 14.73000 29.28600
C  43.53700 15.24300 30.52300
C  44.76800 15.80400 30.48900
C  41.84100 14.05600 28.79800
C  43.02900 15.31200 31.83800
O  41.96900 14.96800 32.29700
C  44.16900 15.87300 32.68500
C  43.53100 16.95400 33.52600
O  42.90100 17.92600 33.13100
O  43.81100 16.69400 34.85600
C  43.26000 17.58500 35.91700
H  49.89200 19.10700 30.88900
H  49.09500 17.13500 24.72200
H  43.52000 14.85100 26.37800
H  46.35100 18.20100 33.65300
H  49.12700 18.10900 32.99800
H  47.91800 20.54500 31.87800
H  49.07700 20.48900 33.27600
H  47.40600 20.24300 33.58900
H  48.52500 16.38300 34.27100
H  47.05500 15.54700 33.97300
H  47.83400 16.35600 36.32500
H  46.16700 16.52800 35.89800
H  51.58100 19.68400 29.79900
H  51.67900 20.39200 28.13000
H  52.76100 19.02700 28.58800
H  52.80200 19.81500 26.37500
H  53.44400 18.96000 24.92500
H  53.52800 18.11600 26.49100
H  47.27800 15.73800 23.61300
H  44.33900 15.92100 24.41900
H  45.28700 17.70700 23.31600
H  47.01200 17.96900 22.88100
H  46.30600 18.42700 24.51300
H  45.16000 13.31300 25.16100
H  46.30000 13.61300 23.94700
H  43.96000 14.43500 22.56500
H  43.37000 13.11100 23.44000
H  44.73300 12.83200 22.36800
H  42.10500 13.00300 28.70000
H  41.34600 14.51700 27.94400
H  41.19600 14.16200 29.67000
H  44.55900 15.15000 33.40200
H  42.17300 17.51800 35.92100
H  43.66800 18.56600 35.67200
H  43.66100 17.37700 36.91000
Mg 16.73400 51.68100 26.27400
C  18.79700 50.06900 28.43600
C  14.82200 52.55600 29.02700
C  14.69700 53.34600 24.16200
C  18.72000 50.59900 23.49100
N  16.97800 51.53200 28.51100
C  17.94500 50.82100 29.16800
C  17.78600 50.85300 30.68200
C  16.26600 51.28100 30.73100
C  15.97500 51.83800 29.33800
C  15.26200 50.18100 31.21600
C  18.74500 51.91200 31.28000
C  19.02800 51.76300 32.81300
H  18.19500 50.92500 33.74000
N  14.88900 52.66100 26.55700
C  14.31600 53.00200 27.76600
C  13.23100 53.76700 27.49200
C  13.09800 53.93900 26.07700
C  14.24900 53.26500 25.51500
C  12.19800 54.17800 28.56200
C  11.94500 54.61700 25.30600
O  11.84000 54.63500 24.11200
C  10.98800 55.44800 25.98900
N  16.79200 51.93600 24.16200
C  15.84100 52.67900 23.58100
C  16.00100 52.75900 22.01900
C  17.41100 52.04600 21.82800
C  17.69700 51.56100 23.24600
C  14.92500 52.00300 21.15600
C  18.44500 53.10000 21.40200
C  18.45500 53.46700 19.85000
N  18.43800 50.56300 25.97000
C  19.03700 50.08000 24.76200
C  19.95900 49.05700 25.06100
C  19.89400 48.98800 26.52400
C  19.03400 50.01000 27.02300
C  20.82600 48.35300 24.06300
C  20.49800 48.44400 27.69900
O  21.36500 47.60500 27.83400
C  19.78200 49.11200 29.03400
C  19.10200 48.10500 29.84000
O  18.02500 47.63400 29.57800
O  19.97200 47.76200 30.84600
C  19.38300 46.80700 31.83700
H  14.19400 52.76700 29.89600
H  14.00900 53.77900 23.43300
H  19.26600 50.21300 22.62800
H  18.02300 49.93300 31.21500
H  16.20100 52.08600 31.46300
H  14.54700 49.87900 30.45100
H  14.68500 50.59200 32.04400
H  15.87900 49.30800 31.43000
H  18.35500 52.91700 31.11700
H  19.72700 51.85700 30.81200
H  19.05500 52.73600 33.30400
H  20.08000 51.48700 32.88900
H  11.17400 53.86500 28.35600
H  12.29100 55.25200 28.72700
H  12.49400 53.69600 29.49400
H  10.76200 56.32400 25.38000
H  11.49300 55.87600 26.85500
H  10.11500 54.83300 26.20500
H  15.94100 53.80500 21.71900
H  17.44600 51.41500 20.93900
H  14.28300 51.46000 21.84800
H  15.45200 51.26400 20.55200
H  14.43400 52.80000 20.59800
H  19.45100 52.74500 21.62400
H  18.28600 53.97300 22.03600
H  19.47200 53.20000 19.56300
H  18.37300 54.53500 19.64700
H  17.67200 52.98000 19.27000
H  21.35700 47.55700 24.58500
H  21.46500 49.10500 23.60000
H  20.09000 47.93300 23.37600
H  20.57300 49.59000 29.61300
H  18.42900 46.34200 31.58700
H  19.38800 47.42500 32.73600
H  20.11500 46.00800 31.95000

