158

Mg 41.22000 8.13300 29.71400
C  43.19600 9.62900 32.32000
C  39.05500 7.02400 32.11100
C  39.69600 6.46000 27.22900
C  43.88200 8.81500 27.57700
N  41.12800 8.36800 31.92000
C  42.00200 9.01300 32.78900
C  41.45700 9.06200 34.20500
C  40.26800 8.00900 34.14900
C  40.15400 7.73600 32.61700
C  40.48600 6.70300 34.96000
C  41.13700 10.51900 34.59200
C  40.44400 10.59200 35.94000
H  40.81400 11.52000 37.03400
N  39.55800 7.01400 29.64500
C  38.71200 6.65900 30.77500
C  37.55600 5.86100 30.29800
C  37.61700 5.90600 28.87200
C  39.00900 6.46500 28.52300
C  36.54600 5.19200 31.26300
C  36.69100 5.53200 27.78500
O  36.87600 5.58700 26.57000
C  35.35300 5.08300 28.16700
N  41.64700 7.84200 27.65000
C  40.93500 6.98500 26.84200
C  41.52400 6.86700 25.43500
C  42.86900 7.64400 25.54600
C  42.85000 8.11400 27.04000
C  41.61300 5.34900 24.94100
C  43.21000 8.69600 24.45800
C  42.53700 8.79400 23.09200
N  43.11600 9.07500 29.83800
C  44.01900 9.31700 28.87400
C  45.06300 10.12100 29.38800
C  44.73800 10.33200 30.69500
C  43.59800 9.61700 30.96900
C  46.21000 10.58800 28.60300
C  45.13700 11.03100 31.88500
O  46.06500 11.84900 32.02300
C  44.23500 10.51100 32.98100
C  44.95300 9.74800 34.02800
O  45.17000 8.52600 34.07500
O  45.14800 10.62500 35.03900
C  45.22900 10.10400 36.38800
H  38.35200 6.61300 32.83900
H  39.27100 5.80100 26.46900
H  44.74900 9.07300 26.96600
H  42.22500 8.73400 34.90500
H  39.34100 8.40000 34.56900
H  40.67700 5.83200 34.33400
H  39.65200 6.64800 35.66000
H  41.36700 6.85700 35.58200
H  40.66300 11.00700 33.74000
H  42.01500 11.14900 34.73300
H  40.34400 9.57100 36.30900
H  39.44600 10.90800 35.63500
H  36.09500 4.32300 30.78300
H  35.74700 5.88100 31.53600
H  37.01300 4.84200 32.18400
H  34.69300 5.02200 27.30100
H  34.93700 5.84400 28.82700
H  35.40800 4.10100 28.63800
H  40.77700 7.52600 24.99400
H  43.69000 6.93400 25.45100
H  42.58600 5.10000 24.51800
H  40.85900 5.11300 24.19000
H  41.44600 4.74300 25.83200
H  44.28800 8.85100 24.48400
H  42.85100 9.61800 24.91600
H  43.38400 8.93400 22.42000
H  41.92400 9.67100 22.88800
H  42.03200 7.84500 22.90900
H  46.05400 10.90800 27.57300
H  47.03300 9.87700 28.52400
H  46.50000 11.45200 29.20000
H  43.76200 11.41800 33.35700
H  44.25600 10.33900 36.81900
H  46.08500 10.59700 36.84900
H  45.29200 9.01700 36.42000
Mg 16.42700 51.85700 25.42300
C  18.24300 50.82900 28.34500
C  13.68100 52.37900 27.46800
C  14.64500 52.20700 22.71100
C  19.18900 50.72000 23.58800
N  16.05300 51.64900 27.66700
C  16.98800 51.32400 28.65100
C  16.34500 51.54900 30.00200
C  14.83600 51.84000 29.66100
C  14.82300 51.90900 28.17000
C  13.78100 50.76600 30.15300
C  16.99800 52.69200 30.77500
C  17.58000 52.48800 32.18500
H  16.88400 51.39800 33.04200
N  14.37800 52.29300 25.10000
C  13.43500 52.51000 26.09300
C  12.16800 52.76800 25.35100
C  12.39400 52.82300 23.93700
C  13.83900 52.36900 23.86400
C  10.91200 53.08900 26.18200
C  11.48000 53.21100 22.84800
O  11.73700 53.19300 21.61700
C  10.16000 53.68800 23.20500
N  16.91500 51.55400 23.50300
C  15.92200 51.68900 22.56400
C  16.45400 51.23800 21.18100
C  18.00400 51.12000 21.35500
C  18.05300 51.13100 22.88900
C  15.73800 49.91200 20.69900
C  18.80800 52.23500 20.59600
C  19.83000 51.86600 19.54000
N  18.32900 51.06300 25.84500
C  19.30700 50.66400 24.96000
C  20.43800 50.15800 25.69300
C  20.09200 50.24500 27.04700
C  18.79200 50.75200 27.04400
C  21.74800 49.78100 25.12300
C  20.50200 49.99800 28.39200
O  21.57000 49.51300 28.81100
C  19.29500 50.40400 29.33600
C  18.90000 49.27300 30.09800
O  17.98000 48.53000 29.75600
O  19.65300 49.22100 31.27000
C  19.48200 48.02100 32.13500
H  12.78400 52.48100 28.08300
H  13.99600 52.47600 21.87500
H  20.00300 50.44900 22.91200
H  16.39600 50.61400 30.56100
H  14.51800 52.77700 30.11800
H  13.34900 51.08900 31.10000
H  14.39000 49.90300 30.42100
H  12.90700 50.59000 29.52600
H  16.25100 53.48100 30.86600
H  17.89100 53.11600 30.31600
H  17.50900 53.39700 32.78300
H  18.63900 52.24400 32.25800
H  10.86800 54.02300 26.74300
H  10.88500 52.22200 26.84200
H  9.98800 52.94800 25.62100
H  10.16500 54.50300 23.92900
H  9.60100 52.82100 23.55600
H  9.70200 54.03400 22.27900
H  16.21000 52.10400 20.56600
H  18.25700 50.09500 21.08400
H  15.42900 49.32500 21.56400
H  16.38900 49.21500 20.17000
H  14.90800 50.29400 20.10400
H  19.39900 52.71900 21.37300
H  18.28200 53.06500 20.12500
H  19.82200 50.79400 19.34200
H  20.83400 52.22900 19.76000
H  19.58000 52.37700 18.61100
H  22.04000 48.75500 25.34600
H  22.61300 50.32800 25.50200
H  21.71300 49.92400 24.04300
H  19.70500 51.16300 30.00200
H  18.93000 47.29300 31.54000
H  18.87700 48.28300 33.00300
H  20.41700 47.62300 32.52800

