158

Mg 25.75900 -6.81200 47.90300
C  27.72100 -4.20300 46.81900
C  23.63100 -6.11700 45.20100
C  24.04200 -9.53200 48.62800
C  28.39100 -7.77000 49.94200
N  25.77400 -5.40900 46.05300
C  26.67400 -4.38600 45.91800
C  26.34500 -3.49700 44.72800
C  25.00600 -4.12700 44.24700
C  24.72400 -5.26300 45.19100
C  23.80100 -3.23100 44.16400
C  27.39100 -3.50900 43.61700
C  27.80200 -2.04200 43.25000
H  27.96700 -1.74400 41.76500
N  24.01000 -7.65400 47.09900
C  23.25900 -7.18600 46.05700
C  22.09600 -8.06500 46.00400
C  22.14300 -9.08400 46.96800
C  23.36300 -8.75800 47.63500
C  21.02300 -7.81000 44.95500
C  21.00600 -10.15300 47.22000
O  19.92700 -10.18900 46.60000
C  21.20000 -11.00100 48.43200
N  26.22600 -8.48300 48.93500
C  25.28700 -9.41000 49.29700
C  25.81300 -10.37700 50.39800
C  27.18000 -9.80400 50.79800
C  27.29300 -8.61500 49.80700
C  24.76500 -10.42600 51.53300
C  28.35200 -10.86100 50.71700
C  29.39500 -10.65700 51.78100
N  27.63400 -6.14200 48.44800
C  28.58000 -6.64400 49.23000
C  29.66400 -5.76500 49.26600
C  29.29000 -4.73200 48.45100
C  28.09000 -5.05500 47.89200
C  30.98600 -6.01800 49.99100
C  29.76700 -3.49700 47.94500
O  30.75600 -2.89400 48.30300
C  28.70900 -3.13100 46.86100
C  28.11900 -1.86400 47.25100
O  27.40300 -1.63500 48.22400
O  28.28300 -0.98700 46.23500
C  27.52900 0.32900 46.38200
H  22.96400 -5.84000 44.38200
H  23.61600 -10.53100 48.73600
H  29.23100 -8.08300 50.56500
H  26.25800 -2.46500 45.06900
H  25.19200 -4.58100 43.27400
H  23.50100 -2.82800 43.19700
H  24.01300 -2.39900 44.83500
H  22.92700 -3.66000 44.65400
H  26.89400 -4.07400 42.82700
H  28.19500 -4.18200 43.91400
H  28.66000 -1.74400 43.85200
H  27.01500 -1.34900 43.54400
H  20.04500 -8.06700 45.36000
H  21.20500 -8.48800 44.12100
H  21.06600 -6.83500 44.47000
H  21.90900 -11.82700 48.38700
H  20.22400 -11.46800 48.56100
H  21.38600 -10.38500 49.31100
H  25.98100 -11.40500 50.07500
H  27.03400 -9.41200 51.80400
H  25.18700 -10.83500 52.45000
H  24.05300 -11.15000 51.13600
H  24.24900 -9.47500 51.66800
H  28.92800 -10.83600 49.79200
H  28.05800 -11.90800 50.64900
H  29.19700 -11.35700 52.59300
H  29.42100 -9.71500 52.32800
H  30.42100 -10.80200 51.44100
H  31.48100 -5.04800 49.94200
H  31.43000 -6.83700 49.42600
H  30.67100 -6.18700 51.02100
H  29.31400 -3.03800 45.95900
H  26.46800 0.17200 46.18800
H  28.02700 0.96300 45.64800
H  27.62500 0.92800 47.28800
Mg -9.71400 39.55000 41.29200
C  -8.88000 36.20500 40.16000
C  -6.84200 40.58900 39.84900
C  -10.98400 42.76200 41.31300
C  -12.92900 38.30400 41.88300
N  -8.05600 38.44900 40.18600
C  -7.92300 37.18200 39.84400
C  -6.61200 36.95600 39.11800
C  -5.86500 38.20700 39.36900
C  -6.97700 39.17100 39.79000
C  -4.70600 37.99300 40.36400
C  -6.92800 36.66700 37.60000
C  -6.22600 35.49200 36.89500
H  -5.37100 35.85600 35.69200
N  -8.94300 41.39800 40.83200
C  -7.67400 41.66500 40.30500
C  -7.44800 43.05400 40.16500
C  -8.64700 43.64900 40.49500
C  -9.61900 42.61000 40.90900
C  -6.09600 43.61900 39.75700
C  -8.90700 45.13500 40.40000
O  -7.99400 45.90900 40.17200
C  -10.21000 45.87300 40.75200
N  -11.72000 40.41900 41.49200
C  -11.92900 41.74500 41.52400
C  -13.41300 42.07400 41.78200
C  -14.05900 40.67000 41.97400
C  -12.87400 39.72600 41.77600
C  -13.65900 43.06900 42.93600
C  -15.30100 40.22100 41.10200
C  -16.53100 39.73200 41.82400
N  -10.65300 37.64900 41.36500
C  -11.95000 37.33900 41.64600
C  -12.11700 35.89300 41.56000
C  -10.92200 35.42000 40.94700
C  -10.11400 36.52800 40.79600
C  -13.22000 35.06100 42.00100
C  -10.22800 34.24200 40.48900
O  -10.50000 33.08600 40.63200
C  -8.89900 34.69800 39.86900
C  -7.72200 33.84500 40.43900
O  -7.36100 33.78500 41.62500
O  -6.97900 33.43200 39.44100
C  -5.63900 32.91900 39.63700
H  -5.86400 40.93300 39.50600
H  -11.39200 43.77400 41.34800
H  -13.90000 37.87900 42.14500
H  -6.25700 36.03400 39.58000
H  -5.48500 38.62600 38.43700
H  -5.13500 37.49400 41.23300
H  -4.26600 38.95600 40.62300
H  -3.98200 37.27500 39.97900
H  -6.70200 37.62600 37.13500
H  -8.00500 36.57200 37.46100
H  -6.99600 34.80500 36.54600
H  -5.48400 35.10900 37.59600
H  -6.19400 44.40600 39.01000
H  -5.48400 42.95600 39.14600
H  -5.45700 43.97600 40.56500
H  -10.33000 45.78700 41.83200
H  -11.10000 45.51400 40.23500
H  -10.19200 46.89600 40.37600
H  -13.83100 42.36100 40.81700
H  -14.39700 40.56300 43.00400
H  -14.21400 43.95500 42.62600
H  -12.71200 43.34000 43.40300
H  -14.20000 42.52400 43.70900
H  -14.87000 39.41400 40.50900
H  -15.52800 40.91100 40.28900
H  -16.62900 38.64700 41.84500
H  -17.34600 40.08900 41.19400
H  -16.78400 40.07800 42.82600
H  -13.61000 35.36500 42.97300
H  -12.86900 34.03000 41.96300
H  -14.01900 35.24700 41.28300
H  -8.84100 34.44000 38.81100
H  -5.11400 32.86700 38.68300
H  -5.65700 31.91900 40.07100
H  -5.12100 33.56800 40.34200

