158

Mg 40.95000 7.82700 29.50800
C  42.68500 9.28200 32.20100
C  38.72000 6.56600 31.70000
C  39.66700 6.20900 26.98000
C  43.62000 8.84200 27.49400
N  40.70900 7.99800 31.71100
C  41.54900 8.60900 32.59600
C  41.05000 8.49800 33.99800
C  39.99300 7.36300 33.87300
C  39.74300 7.36900 32.28600
C  40.35900 5.91800 34.33300
C  40.45700 9.84900 34.54100
C  40.00200 9.92700 36.03700
H  40.80000 10.50600 37.15500
N  39.45900 6.56100 29.38200
C  38.54600 6.26900 30.36500
C  37.38300 5.57800 29.90500
C  37.58200 5.49700 28.47800
C  39.00200 6.09600 28.21600
C  36.25900 4.91000 30.72800
C  36.58200 5.00400 27.35200
O  36.88300 4.93500 26.21800
C  35.21000 4.62000 27.77400
N  41.63900 7.34700 27.58500
C  40.76500 6.86500 26.68700
C  41.30900 6.92900 25.30900
C  42.39000 8.07100 25.45300
C  42.58700 8.07800 26.90700
C  41.86700 5.55300 24.79500
C  41.89700 9.39000 24.69200
C  40.83800 10.25500 25.37200
N  42.73100 8.89400 29.69700
C  43.77100 9.22200 28.79700
C  44.83000 9.99200 29.42600
C  44.39400 10.12600 30.77200
C  43.20700 9.38300 30.89200
C  46.10000 10.51900 28.80000
C  44.76800 10.62600 32.03100
O  45.85200 11.19100 32.36900
C  43.66400 10.20500 33.04200
C  44.38100 9.41000 34.07600
O  45.18600 8.53600 33.93600
O  44.01300 9.87200 35.31900
C  44.55600 9.11800 36.44600
H  37.96500 6.19800 32.39800
H  39.12600 5.76900 26.14000
H  44.42100 9.07600 26.79000
H  41.91600 8.15500 34.56500
H  39.01100 7.59400 34.28600
H  40.26500 5.28000 33.45400
H  39.69600 5.57300 35.12700
H  41.39700 5.92900 34.66500
H  39.50600 10.04100 34.04500
H  41.03500 10.76100 34.38800
H  39.69000 8.94400 36.38900
H  39.12800 10.56200 36.18700
H  35.34400 5.45500 30.49500
H  36.44300 4.84100 31.80000
H  36.10700 3.88600 30.38600
H  35.14000 3.57100 28.05900
H  34.64400 4.63500 26.84200
H  34.68500 5.33300 28.40900
H  40.50200 7.33200 24.69700
H  43.30400 7.88600 24.89000
H  42.95500 5.56900 24.73400
H  41.28000 5.40800 23.88800
H  41.52200 4.83500 25.54000
H  41.39900 9.02700 23.79300
H  42.74900 10.03300 24.47000
H  40.19900 9.70400 26.06200
H  40.12800 10.49700 24.58200
H  41.27600 11.14500 25.82500
H  46.83300 9.72200 28.92600
H  46.55900 11.24300 29.47400
H  45.87800 10.79400 27.76900
H  43.23700 11.08400 33.52600
H  43.99100 8.19600 36.31100
H  44.47100 9.60000 37.42000
H  45.63000 8.93000 36.42900
Mg 25.33700 50.88100 26.43700
C  23.35900 51.99100 29.14400
C  27.51200 49.54500 28.64200
C  27.45900 50.24800 23.88400
C  23.11700 52.39500 24.31300
N  25.57300 51.00100 28.69800
C  24.59400 51.45100 29.57100
C  25.01100 51.15100 31.01900
C  26.40700 50.30500 30.86300
C  26.55200 50.35400 29.30700
C  27.61600 50.77100 31.71300
C  23.84800 50.50300 31.86800
C  24.37000 49.92900 33.20600
H  24.28200 50.79900 34.48300
N  27.11800 49.89500 26.28600
C  27.80700 49.32500 27.31000
C  28.86300 48.49000 26.78900
C  28.87400 48.74100 25.38700
C  27.80100 49.70400 25.11700
C  29.80400 47.70300 27.72100
C  29.64700 48.14700 24.37000
O  29.66700 48.40500 23.14000
C  30.66200 47.11600 24.78800
N  25.36300 51.43800 24.38300
C  26.28400 50.98200 23.56200
C  26.00800 51.38400 22.10900
C  24.55500 51.95100 22.24100
C  24.26500 51.87600 23.71500
C  27.04800 52.36300 21.45800
C  23.58700 51.14500 21.39000
C  23.15800 49.67700 21.81900
N  23.64300 51.97300 26.63600
C  22.78500 52.49300 25.66000
C  21.56000 52.97500 26.19700
C  21.66400 52.67700 27.58100
C  23.03100 52.21300 27.79800
C  20.39800 53.47000 25.42800
C  21.07200 52.92000 28.85100
O  19.94800 53.36300 29.08300
C  22.07300 52.39300 29.94700
C  22.27000 53.50700 30.86600
O  23.29100 54.14900 30.85100
O  21.18100 53.80300 31.64000
C  21.48600 54.76000 32.66300
H  28.14800 49.08200 29.39900
H  28.02300 49.99600 22.98400
H  22.43200 52.82400 23.58000
H  25.17000 52.18400 31.32800
H  26.17700 49.24900 31.00400
H  27.21900 51.55800 32.35400
H  28.35600 51.25500 31.07500
H  28.08100 49.93700 32.23700
H  23.32400 49.72500 31.31400
H  23.13700 51.28200 32.14600
H  25.42900 49.67000 33.22600
H  23.93400 48.93200 33.26000
H  29.64600 46.65100 27.48200
H  29.47900 47.75200 28.76000
H  30.79000 48.04600 27.40700
H  31.42300 47.59800 25.40200
H  31.03400 46.69200 23.85600
H  30.12000 46.29700 25.26200
H  26.09800 50.50100 21.47500
H  24.55500 52.93100 21.76300
H  27.87900 52.53800 22.14100
H  26.71100 53.37500 21.23400
H  27.50400 51.94100 20.56200
H  23.92400 51.13400 20.35300
H  22.65900 51.71300 21.32100
H  22.18900 49.78800 22.30700
H  23.97700 49.34600 22.45700
H  23.17600 49.06400 20.91800
H  19.47800 53.65500 25.98300
H  20.05800 52.70400 24.73100
H  20.63400 54.28300 24.74200
H  21.66000 51.51700 30.44600
H  21.77100 55.73100 32.25800
H  22.28400 54.54100 33.37300
H  20.60500 54.89000 33.29100

