158

Mg 47.31500 44.69300 42.72900
C  43.85600 44.15500 42.69500
C  47.74600 41.20300 42.31600
C  50.62300 45.14100 42.88000
C  46.79900 48.02700 42.56500
N  45.97000 42.94000 42.30000
C  44.54700 42.93400 42.39000
C  43.98300 41.52200 42.34200
C  45.29400 40.63300 42.07200
C  46.43000 41.62400 42.28600
C  45.40200 39.31000 42.92200
C  42.92700 41.32300 41.17600
C  43.22800 42.03200 39.76500
H  43.21300 41.16600 38.50000
N  49.00800 43.38000 42.63500
C  48.92400 42.04500 42.38400
C  50.28200 41.47400 42.23800
C  51.18700 42.58100 42.36400
C  50.28900 43.77000 42.61900
C  50.55600 39.98300 42.03700
C  52.64600 42.52100 42.32200
O  53.24200 41.48800 42.04700
C  53.53300 43.66500 42.64400
N  48.58200 46.29100 42.33700
C  49.89100 46.22900 42.64700
C  50.53900 47.60100 42.75400
C  49.29100 48.57200 42.55600
C  48.12000 47.58400 42.46000
C  51.51000 47.98600 43.99900
C  49.43100 49.59400 41.31300
C  49.46500 51.04900 41.63500
N  45.65400 45.91600 42.72400
C  45.57000 47.27900 42.70500
C  44.23700 47.71200 42.78600
C  43.45000 46.51200 42.85800
C  44.42900 45.44300 42.82900
C  43.79900 49.13800 42.81300
C  42.15000 45.89400 42.99300
O  41.04700 46.29000 43.11000
C  42.44100 44.29600 42.87200
C  41.95300 43.58800 44.14700
O  42.47600 43.65800 45.21600
O  40.80200 42.81500 43.92400
C  40.43200 41.85200 45.01300
H  47.92400 40.16100 42.04600
H  51.70200 45.29900 42.92300
H  46.74400 49.11400 42.47600
H  43.65900 41.29300 43.35700
H  45.18100 40.19100 41.08200
H  44.60800 39.32200 43.66900
H  46.32500 39.17000 43.48400
H  45.36000 38.50800 42.18500
H  41.94500 41.69800 41.46200
H  42.94700 40.23300 41.17600
H  44.18200 42.52900 39.94400
H  42.50600 42.84300 39.67000
H  50.06800 39.50800 41.18500
H  50.34200 39.42800 42.95000
H  51.62700 39.79700 41.94900
H  53.36100 44.52300 41.99400
H  54.57500 43.38700 42.48200
H  53.48600 43.95900 43.69200
H  51.12000 47.68800 41.83600
H  49.14800 49.08300 43.50800
H  51.22100 47.43400 44.89300
H  51.27100 49.02800 44.21300
H  52.55100 47.86900 43.69900
H  48.61700 49.42100 40.60900
H  50.33300 49.41100 40.72900
H  49.47500 51.26300 42.70400
H  48.55700 51.56700 41.32700
H  50.30700 51.48400 41.09700
H  42.85400 49.17300 43.35500
H  43.57700 49.61500 41.85800
H  44.53300 49.79100 43.28600
H  41.93600 43.90400 41.99000
H  39.56800 41.32900 44.60300
H  40.09300 42.40000 45.89200
H  41.33500 41.30500 45.28400
Mg 7.23800 53.47600 40.05200
C  6.57200 50.03100 40.09900
C  10.49300 52.74600 39.70600
C  7.74800 56.74600 39.14500
C  3.77300 54.23800 40.25000
N  8.35900 51.50600 39.79300
C  7.92600 50.28700 40.10500
C  9.05200 49.31900 40.06600
C  10.28500 50.27700 40.37800
C  9.66400 51.61800 39.97000
C  11.01200 50.00800 41.65600
C  9.20200 48.37400 38.81900
C  9.19800 49.12300 37.50700
H  8.08600 48.86800 36.42100
N  8.98500 54.62900 39.53900
C  10.19900 54.05700 39.35500
C  11.15700 55.05100 38.99500
C  10.34200 56.27700 38.71300
C  8.96100 55.94800 39.16000
C  12.61000 54.87000 38.85200
C  10.81800 57.56000 38.03800
O  11.99700 57.70600 37.76300
C  9.89300 58.70000 37.71000
N  6.01600 55.19000 39.78000
C  6.48200 56.42900 39.52400
C  5.37900 57.53200 39.53200
C  4.04600 56.72600 39.61700
C  4.59400 55.26600 39.95600
C  5.58900 58.57600 40.65500
C  3.09200 56.77400 38.41700
C  2.66300 58.22900 37.95700
N  5.51300 52.42000 40.20100
C  4.20700 52.89200 40.29700
C  3.36200 51.68000 40.40000
C  4.23600 50.61300 40.40200
C  5.52200 51.08700 40.20600
C  1.77900 51.65400 40.43600
C  4.25900 49.13400 40.56100
O  3.42100 48.31000 40.82900
C  5.71700 48.76600 40.20300
C  5.70100 47.93800 38.96000
O  5.51900 48.43600 37.86100
O  5.82000 46.58000 39.23000
C  5.67700 45.67800 38.13100
H  11.54500 52.56100 39.93200
H  7.89700 57.75900 38.76800
H  2.72300 54.45000 40.46300
H  8.80100 48.74500 40.95800
H  11.05700 50.16400 39.61700
H  12.03000 49.77600 41.34300
H  10.50500 49.15400 42.10600
H  10.98400 50.90400 42.27600
H  8.39700 47.64600 38.91500
H  10.18100 47.89800 38.88000
H  10.18100 48.89800 37.09500
H  9.12600 50.19300 37.69900
H  12.88600 54.61400 37.82900
H  13.04900 54.16200 39.55400
H  13.15300 55.80100 39.01300
H  9.10800 58.09900 37.25100
H  10.25300 59.43900 36.99500
H  9.65200 59.06000 38.71000
H  5.61500 57.96400 38.55900
H  3.49100 57.00700 40.51200
H  6.33900 59.26500 40.26600
H  5.91400 58.10600 41.58400
H  4.67600 59.13200 40.87000
H  2.21900 56.27100 38.83200
H  3.48800 56.25700 37.54300
H  3.43500 58.97200 38.15700
H  1.65600 58.30900 38.36900
H  2.53400 58.27300 36.87600
H  1.36700 50.65100 40.54400
H  1.38800 52.03900 39.49400
H  1.35100 52.08700 41.34000
H  6.14400 48.06900 40.92400
H  6.46000 44.93300 38.27300
H  5.53600 46.02700 37.10800
H  4.73300 45.17700 38.34400

