158

Mg 2.39700 -1.65800 44.76600
C  5.63900 -0.41200 44.30300
C  1.19900 0.69700 42.63500
C  -0.64200 -3.33100 44.82500
C  3.87800 -4.47900 46.29300
N  3.34100 -0.01400 43.54800
C  4.61800 0.33500 43.59000
C  4.91100 1.57500 42.75000
C  3.44000 2.08400 42.37800
C  2.60400 0.88500 42.88600
C  2.98900 3.45300 43.01200
C  5.67800 1.19100 41.34100
C  6.84600 2.15800 40.93700
H  6.34900 3.32400 40.05300
N  0.47600 -1.29600 44.03600
C  0.26500 -0.32500 43.08100
C  -1.14600 -0.33600 42.82700
C  -1.74400 -1.45300 43.51000
C  -0.64600 -2.04800 44.22700
C  -1.84500 0.78200 42.07600
C  -3.21700 -1.77000 43.48900
O  -4.01600 -1.22100 42.75400
C  -3.80000 -2.76200 44.30700
N  1.67200 -3.59800 45.61800
C  0.39200 -4.02800 45.48100
C  0.36100 -5.52200 45.97300
C  1.85100 -5.84000 46.34500
C  2.51000 -4.53100 46.09600
C  -0.71900 -6.00000 47.04200
C  2.42200 -7.06900 45.52800
C  1.48300 -8.21700 45.33200
N  4.36200 -2.32700 45.31200
C  4.77100 -3.46600 45.91700
C  6.24600 -3.37600 46.06100
C  6.61900 -2.19200 45.44000
C  5.46100 -1.57000 44.99900
C  7.18600 -4.49100 46.62000
C  7.77500 -1.42100 45.06000
O  8.97200 -1.55000 45.30300
C  7.19300 -0.22900 44.20800
C  7.58200 1.00500 44.84200
O  7.06400 1.47400 45.85900
O  8.42500 1.70600 44.07200
C  8.61700 3.06900 44.54200
H  0.72100 1.52400 42.10700
H  -1.56300 -3.90500 44.70800
H  4.33000 -5.33600 46.79600
H  5.47600 2.34000 43.28400
H  3.40700 2.06300 41.28800
H  3.92800 3.95200 43.25100
H  2.41100 3.33100 43.92800
H  2.43200 4.12400 42.35800
H  5.06900 1.30200 40.44400
H  6.12500 0.20800 41.49300
H  7.80500 1.75800 40.60900
H  7.09600 2.63800 41.88400
H  -2.77300 0.51500 41.57000
H  -1.17300 1.20500 41.32800
H  -2.18400 1.49700 42.82500
H  -4.88300 -2.66100 44.36600
H  -3.32200 -2.46600 45.24100
H  -3.51100 -3.78800 44.08000
H  0.08400 -6.02200 45.04500
H  2.03400 -5.99500 47.40800
H  -1.07500 -5.14300 47.61400
H  -0.22700 -6.75200 47.65800
H  -1.51400 -6.49300 46.48200
H  3.32800 -7.41600 46.02600
H  2.85100 -6.80200 44.56300
H  0.70100 -8.22700 46.09200
H  2.03000 -9.15400 45.43700
H  1.04000 -8.30000 44.34000
H  7.31200 -4.68600 47.68500
H  8.17000 -4.32200 46.18200
H  6.76400 -5.38500 46.16100
H  7.47100 -0.22300 43.15400
H  9.01700 3.13300 45.55400
H  7.69000 3.63500 44.45100
H  9.30200 3.58300 43.86700
Mg 16.96100 51.78300 26.32300
C  18.73200 50.49000 29.03300
C  14.49700 52.77500 28.53000
C  14.91100 52.48700 23.69400
C  19.16700 50.18900 24.17900
N  16.73200 51.54000 28.53400
C  17.60100 51.10400 29.51400
C  17.11200 51.56200 30.95700
C  15.62500 51.87300 30.64900
C  15.65300 52.19000 29.13600
C  14.64100 50.69700 31.02700
C  17.87400 52.78000 31.50000
C  18.21800 52.61400 33.00900
H  17.19500 51.80900 33.86200
N  15.08100 52.62300 26.16700
C  14.24200 52.99100 27.17600
C  12.97600 53.63400 26.62700
C  13.14900 53.58100 25.21500
C  14.35300 52.82500 24.95100
C  11.93400 54.28900 27.44300
C  12.24500 54.16200 24.06700
O  12.47500 54.12400 22.91900
C  10.88900 54.80400 24.47800
N  17.03200 51.52700 24.24400
C  16.14500 51.94800 23.33200
C  16.59100 51.78400 21.94300
C  17.96400 51.05500 22.07700
C  18.06300 50.83800 23.59400
C  15.62800 50.88700 21.12800
C  19.16800 51.81300 21.43400
C  20.37500 50.85100 20.91900
N  18.72200 50.71300 26.48300
C  19.55300 50.06700 25.56300
C  20.66300 49.41200 26.21800
C  20.41800 49.62600 27.55000
C  19.15900 50.31800 27.69600
C  21.79400 48.59300 25.69000
C  20.88200 49.29200 28.85000
O  21.87400 48.64500 29.16500
C  19.88300 49.86900 29.82900
C  19.47100 48.80000 30.85600
O  18.96600 47.69400 30.60900
O  19.82400 49.26600 32.13500
C  19.57400 48.48100 33.40500
H  13.76600 53.10600 29.27100
H  14.17300 52.47600 22.88900
H  19.86800 49.58800 23.59600
H  17.28500 50.67000 31.55900
H  15.26200 52.72400 31.22500
H  15.06100 50.11900 31.84900
H  14.55100 50.13300 30.09800
H  13.67600 51.03900 31.40200
H  17.37500 53.72700 31.29500
H  18.86700 52.77500 31.05100
H  18.25900 53.61200 33.44700
H  19.22700 52.22300 33.14100
H  12.14600 54.31900 28.51200
H  11.10900 53.57700 27.46400
H  11.69600 55.27200 27.03500
H  10.95500 55.78600 24.94800
H  10.39000 54.02200 25.05000
H  10.42200 54.80100 23.49300
H  16.72400 52.72900 21.41700
H  17.97800 50.07100 21.61000
H  14.86300 50.40300 21.73500
H  16.20300 50.24900 20.45700
H  15.08700 51.47600 20.38700
H  19.68900 52.44400 22.15400
H  18.91100 52.31300 20.50000
H  20.28900 49.86900 21.38400
H  21.32400 51.33200 21.15700
H  20.30900 50.80300 19.83200
H  22.43500 49.39200 25.31600
H  21.47600 47.95000 24.86900
H  22.14400 47.95300 26.49900
H  20.42200 50.62800 30.39700
H  18.55100 48.14500 33.23400
H  19.57000 49.12800 34.28200
H  20.31400 47.68100 33.43300

