158

Mg 41.20700 8.45800 29.82300
C  43.20600 9.57900 32.49900
C  39.17500 6.84500 32.27200
C  39.30200 7.32700 27.34300
C  43.63800 9.54800 27.60100
N  41.14500 8.33400 32.09600
C  42.00400 8.97300 32.95200
C  41.68000 8.60900 34.38000
C  40.66900 7.51400 34.23700
C  40.32400 7.57100 32.76500
C  41.01500 6.05600 34.70100
C  41.20000 9.87600 35.16000
C  41.83900 10.05100 36.56100
H  41.87700 11.48800 37.11700
N  39.41500 7.35200 29.76900
C  38.71000 6.86100 30.90400
C  37.48800 6.30400 30.36800
C  37.43300 6.51800 28.92000
C  38.72400 7.13800 28.59200
C  36.44500 5.65500 31.21600
C  36.44700 6.25000 27.89300
O  36.49500 6.58500 26.71800
C  35.17400 5.50400 28.30500
N  41.63400 8.13800 27.76900
C  40.59900 7.85100 26.96800
C  40.90300 8.11100 25.54900
C  42.40200 8.55200 25.56200
C  42.55700 8.89700 27.03700
C  40.56100 6.98700 24.49200
C  42.62700 9.76600 24.57700
C  41.96400 11.11000 24.89900
N  43.00500 9.46400 29.95300
C  43.90700 9.83600 28.98900
C  45.17000 10.33200 29.57800
C  44.86800 10.32900 30.95800
C  43.52000 9.77600 31.12900
C  46.41500 10.71100 28.82600
C  45.38800 10.72500 32.29200
O  46.43800 11.28700 32.52400
C  44.33300 10.30000 33.32400
C  45.02400 9.26700 34.13600
O  45.56000 8.24600 33.72800
O  45.14300 9.73000 35.45800
C  46.23000 9.18700 36.27700
H  38.42900 6.58200 33.02500
H  38.77600 6.90600 26.48400
H  44.50800 9.89400 27.04100
H  42.58300 8.26400 34.88300
H  39.78400 7.79500 34.80800
H  40.41000 5.93000 35.59900
H  42.02000 6.08500 35.12400
H  40.80700 5.23600 34.01400
H  40.14200 9.92400 35.41700
H  41.47000 10.78500 34.62300
H  42.84000 9.62300 36.51700
H  41.24500 9.42700 37.22800
H  36.79800 5.56400 32.24400
H  36.04000 4.71400 30.84500
H  35.53900 6.26200 31.23000
H  35.28200 4.43200 28.47200
H  34.61700 5.41600 27.37200
H  34.66400 6.00600 29.12700
H  40.16200 8.85300 25.25100
H  42.99300 7.64700 25.41800
H  39.52900 7.03300 24.14200
H  40.74500 6.05000 25.01800
H  41.31200 7.02200 23.70300
H  42.22100 9.39000 23.63800
H  43.71400 9.81600 24.50200
H  42.74800 11.86700 24.86100
H  41.49800 11.15800 25.88300
H  41.16800 11.23400 24.16500
H  46.71600 9.95300 28.10200
H  47.31800 10.97500 29.37700
H  46.22500 11.58700 28.20600
H  43.89800 11.04300 33.99200
H  46.90000 10.00100 36.55500
H  46.82100 8.44300 35.74400
H  46.00800 8.71700 37.23500
Mg 47.99300 35.22600 26.43800
C  46.54500 33.65200 29.35400
C  48.29600 38.09500 28.53800
C  49.37900 36.82000 23.90300
C  47.41300 32.38000 24.61400
N  47.33900 35.80100 28.71300
C  46.99700 34.93400 29.73100
C  47.19900 35.60600 31.04900
C  47.17200 37.11200 30.65600
C  47.59800 37.03000 29.18600
C  45.85100 37.93500 30.88800
C  48.50300 35.17500 31.82100
C  48.38600 34.93300 33.35800
H  47.20800 35.73800 33.95100
N  48.82800 37.08800 26.24100
C  48.82700 38.07000 27.24100
C  49.48300 39.24100 26.63900
C  49.88300 38.88500 25.29600
C  49.33300 37.55200 25.10600
C  49.67200 40.57200 27.36500
C  50.76900 39.64800 24.24000
O  51.19600 39.25800 23.17000
C  50.98400 41.10500 24.46700
N  48.27900 34.69300 24.58700
C  48.91800 35.52200 23.63100
C  49.05100 34.84300 22.33100
C  48.88700 33.36000 22.79300
C  48.11000 33.46000 24.09800
C  48.02800 35.34600 21.28200
C  50.18800 32.51500 22.94900
C  50.06800 31.09900 22.46700
N  47.04500 33.45600 26.75900
C  46.88000 32.35300 25.87300
C  46.15400 31.32000 26.59800
C  46.10700 31.79500 27.94700
C  46.60100 33.10100 28.01600
C  45.71300 30.00900 25.94700
C  45.72500 31.32200 29.25600
O  45.22200 30.31100 29.65000
C  45.79200 32.62700 30.19300
C  46.19300 32.33400 31.59500
O  47.36500 32.28200 31.93400
O  45.14600 32.13000 32.45200
C  45.41600 31.80600 33.86700
H  48.67100 38.89100 29.18600
H  49.83700 37.28500 23.02800
H  47.21300 31.46300 24.05600
H  46.26400 35.46000 31.58900
H  47.92700 37.69200 31.18800
H  45.20800 37.57700 31.69200
H  45.41600 38.06900 29.89700
H  46.20800 38.93600 31.12700
H  49.31000 35.88800 31.65100
H  48.78100 34.23900 31.33700
H  49.31300 35.39500 33.69500
H  48.46800 33.87000 33.58400
H  50.71300 40.81900 27.57000
H  49.16400 40.67400 28.32500
H  49.37300 41.33900 26.65000
H  50.09500 41.73400 24.40500
H  51.76700 41.50300 23.82200
H  51.53100 41.11100 25.41000
H  50.07600 34.99900 21.99600
H  48.24200 32.79600 22.11900
H  48.60300 35.73700 20.44300
H  47.24100 36.04100 21.57800
H  47.47300 34.51400 20.85000
H  50.67100 32.54500 23.92500
H  50.99600 32.99000 22.39200
H  49.24700 31.06500 21.75100
H  49.84400 30.29900 23.17200
H  51.02500 30.84300 22.01200
H  46.20800 29.76700 25.00700
H  44.63600 30.14000 25.84600
H  45.89300 29.18000 26.63100
H  44.77200 32.99000 30.31700
H  44.67800 31.11700 34.27800
H  45.53000 32.72900 34.43500
H  46.36300 31.35600 34.16400

