158

Mg 5.97200 54.35100 40.81300
C  5.05100 51.01900 40.36600
C  9.11400 53.63100 39.39200
C  6.63500 57.55500 41.02500
C  2.58200 55.03700 41.85000
N  6.93600 52.56700 40.03800
C  6.38400 51.33600 39.89600
C  7.42000 50.30000 39.40500
C  8.81300 51.06000 39.52300
C  8.25700 52.49900 39.52100
C  9.56700 50.60700 40.81000
C  7.04700 49.99400 37.96300
C  7.67600 48.77800 37.28400
H  6.86300 48.13800 36.11100
N  7.55800 55.43100 40.22500
C  8.78200 54.96400 39.73900
C  9.63800 56.08300 39.53700
C  9.08900 57.23700 40.05800
C  7.69000 56.78600 40.48600
C  10.91900 56.00800 38.78400
C  9.72700 58.53300 40.09700
O  10.85700 58.71600 39.60800
C  9.07400 59.59000 40.79900
N  4.79100 56.06800 41.28200
C  5.33400 57.26300 41.39500
C  4.34600 58.37100 41.85400
C  3.03000 57.59200 41.88400
C  3.45600 56.10500 41.64200
C  4.64600 59.03400 43.27200
C  1.97900 57.96800 40.83200
C  0.93000 59.08200 41.20100
N  4.17200 53.26600 41.08200
C  2.94100 53.64400 41.58500
C  2.17800 52.44800 41.84800
C  3.00400 51.38500 41.34300
C  4.16100 51.91800 40.88800
C  0.85900 52.40000 42.50200
C  3.03300 49.94600 41.25300
O  2.31200 49.03800 41.65400
C  4.42500 49.70800 40.66300
C  4.36100 48.69200 39.56100
O  3.81400 48.75500 38.43900
O  5.09100 47.57800 39.98000
C  4.75200 46.35800 39.18100
H  10.16800 53.40500 39.21700
H  6.69200 58.64100 41.13400
H  1.62200 55.37000 42.25000
H  7.30400 49.39200 39.99600
H  9.36000 50.99200 38.58200
H  9.17900 49.72200 41.31300
H  9.45300 51.43400 41.51100
H  10.63200 50.60000 40.57500
H  7.26500 50.87500 37.35800
H  5.96800 49.90800 37.84000
H  8.00000 48.04400 38.02200
H  8.55000 49.18900 36.77700
H  11.79000 56.13900 39.42600
H  10.93300 56.83800 38.07700
H  11.01000 55.07200 38.23300
H  8.28700 59.97800 40.15200
H  9.72000 60.38200 41.17700
H  8.69200 59.02100 41.64700
H  4.55500 59.14700 41.11800
H  2.56000 57.58500 42.86700
H  3.66300 59.33100 43.63900
H  5.15500 59.94400 42.95300
H  5.35100 58.55800 43.95300
H  1.40600 57.16800 40.36400
H  2.56100 58.36200 39.99900
H  0.94100 59.79600 40.37700
H  1.26800 59.54900 42.12600
H  -0.06800 58.67000 41.35300
H  0.15700 52.32200 41.67200
H  0.66600 53.31900 43.05500
H  0.94300 51.48100 43.08300
H  5.05300 49.27400 41.44100
H  3.70000 46.08200 39.25100
H  5.38900 45.58400 39.61000
H  5.01300 46.51600 38.13400
Mg 10.65500 48.27500 26.01800
C  8.37200 48.04700 28.86100
C  12.92900 49.53000 28.19900
C  12.42000 48.71000 23.39300
C  7.75300 48.04500 24.02300
N  10.58800 48.63300 28.35200
C  9.57200 48.52700 29.24900
C  10.13300 48.95100 30.65200
C  11.41100 49.79700 30.29700
C  11.67400 49.40700 28.84400
C  11.41400 51.35200 30.62700
C  10.34200 47.71400 31.53900
C  9.55000 47.68800 32.85000
H  9.81000 46.47500 33.63700
N  12.47300 48.98400 25.90300
C  13.38400 49.36200 26.88900
C  14.63700 49.46000 26.21700
C  14.53300 49.23100 24.85300
C  13.06400 48.98200 24.64200
C  15.91600 49.79200 27.00400
C  15.65000 49.03800 23.74500
O  15.37200 48.73600 22.58200
C  17.04500 48.96700 24.13400
N  10.18900 48.37400 23.91100
C  11.13700 48.47700 23.00200
C  10.59300 48.44700 21.49700
C  8.97200 48.31100 21.78500
C  8.93400 48.20600 23.34100
C  10.88300 49.69200 20.65800
C  8.44900 46.91600 21.04300
C  7.58600 47.17700 19.77100
N  8.55200 47.87200 26.29200
C  7.49900 47.83000 25.40400
C  6.29700 47.50600 26.03700
C  6.59000 47.55600 27.42600
C  7.95200 47.80600 27.54100
C  4.97900 47.24100 25.36600
C  5.96400 47.46000 28.73900
O  4.84600 47.16800 29.03500
C  7.10600 47.71000 29.71500
C  7.32800 46.42900 30.42700
O  8.08600 45.52100 30.11300
O  6.51600 46.28700 31.51900
C  6.61800 45.00200 32.27500
H  13.62800 49.92700 28.93800
H  12.96500 48.60400 22.45300
H  6.94700 47.98100 23.29000
H  9.45400 49.63800 31.15700
H  12.21300 49.44400 30.94600
H  10.67700 51.72300 31.33900
H  11.28400 51.77700 29.63200
H  12.35500 51.71100 31.04400
H  11.39900 47.73200 31.80700
H  10.12600 46.77600 31.02700
H  8.47700 47.80000 32.69200
H  9.99200 48.45300 33.48800
H  15.65700 49.64000 28.05200
H  16.27100 50.80700 26.82500
H  16.55100 49.02900 26.55400
H  17.68400 48.76500 23.27400
H  17.15300 48.07700 24.75500
H  17.34500 49.89100 24.62900
H  11.01900 47.49700 21.17600
H  8.58300 49.26200 21.42100
H  11.75100 50.22400 21.04700
H  10.06500 50.40800 20.73300
H  11.14300 49.35100 19.65600
H  7.83500 46.25600 21.65600
H  9.37100 46.41000 20.75700
H  7.22100 48.18900 19.95000
H  6.81800 46.43300 19.56100
H  8.19300 47.13800 18.86600
H  4.56500 48.19300 25.03400
H  4.23600 46.75200 25.99600
H  4.99500 46.59400 24.48900
H  6.85400 48.52000 30.39900
H  6.40600 45.19200 33.32700
H  7.51100 44.39300 32.13700
H  5.72700 44.40300 32.08600

