158

Mg 34.97400 49.15300 24.43100
C  35.17600 47.20900 27.33000
C  33.62700 51.65400 26.46500
C  34.68600 51.02700 21.67400
C  35.97500 46.33000 22.52800
N  34.27900 49.34000 26.65500
C  34.76800 48.51500 27.62300
C  34.42900 49.06500 29.06700
C  33.63300 50.38600 28.75700
C  33.79100 50.45300 27.17300
C  32.17200 50.59200 29.19400
C  35.66100 49.07100 30.01100
C  35.45700 48.42900 31.40500
H  34.00500 48.60500 32.02400
N  34.23200 51.07200 24.13300
C  33.80900 51.98500 25.07900
C  33.44000 53.20700 24.42700
C  33.75400 53.02700 23.03900
C  34.22800 51.65800 22.89200
C  32.99100 54.41400 25.32400
C  33.64800 54.10300 21.89900
O  33.98200 53.87600 20.73300
C  33.02900 55.50300 22.26900
N  35.27900 48.78600 22.41100
C  35.20500 49.75800 21.49500
C  35.60800 49.24800 20.06400
C  36.20700 47.81600 20.41800
C  35.83000 47.62700 21.83700
C  34.46500 49.34100 19.02300
C  37.75600 47.62600 20.37000
C  38.23600 46.18100 20.05900
N  35.33500 47.18500 24.74500
C  35.75200 46.19500 23.89000
C  35.87700 45.02300 24.62400
C  35.73000 45.35500 25.96300
C  35.34600 46.68200 26.00200
C  36.25900 43.73200 24.06700
C  35.74300 44.86000 27.34200
O  36.08000 43.82100 27.88900
C  35.35700 46.05900 28.25600
C  34.15500 45.73300 29.08000
O  33.04500 46.00100 28.69400
O  34.41300 44.95800 30.19100
C  33.33600 44.50600 31.05800
H  33.22300 52.43700 27.11000
H  34.54600 51.57300 20.73800
H  36.43100 45.54000 21.92700
H  33.70600 48.38200 29.51200
H  34.11700 51.18100 29.32500
H  31.95500 49.75700 29.86000
H  31.41000 50.64000 28.41700
H  32.01600 51.37000 29.94200
H  35.92500 50.12900 30.02000
H  36.47800 48.53600 29.52600
H  36.13000 48.73700 32.20500
H  35.68200 47.39100 31.16200
H  33.68200 55.22200 25.08200
H  32.93000 54.33800 26.41000
H  32.01300 54.81000 25.05000
H  33.13800 56.14000 21.39200
H  33.75700 55.86100 22.99700
H  31.98900 55.43100 22.58400
H  36.47700 49.81700 19.73400
H  35.67700 47.12400 19.76300
H  33.58900 49.73500 19.53900
H  34.09100 48.34900 18.77000
H  34.60400 50.00100 18.16700
H  38.00300 47.89400 21.39700
H  38.32100 48.23900 19.66700
H  38.83400 45.72100 20.84600
H  38.85600 46.21400 19.16400
H  37.44300 45.49000 19.77200
H  35.91700 43.00500 24.80400
H  37.30200 43.59700 23.78200
H  35.71200 43.56700 23.13900
H  36.26100 46.15100 28.85900
H  32.46700 45.16200 31.11700
H  33.69600 44.46000 32.08600
H  32.84000 43.58400 30.75300
Mg 16.21200 52.37600 25.13700
C  17.48300 50.84500 27.87600
C  13.57700 53.45400 27.02500
C  14.61700 53.24600 22.31400
C  18.66800 50.79000 23.16300
N  15.75900 52.43700 27.24000
C  16.42700 51.72200 28.22000
C  15.86500 52.07600 29.63900
C  14.58600 52.95400 29.29100
C  14.59400 52.90400 27.76200
C  13.21100 52.45900 29.93100
C  16.95200 52.72000 30.52400
C  17.11200 52.16900 31.96000
H  15.96300 51.40600 32.59500
N  14.49800 53.43100 24.77300
C  13.46300 53.69400 25.64300
C  12.49200 54.46500 24.96700
C  12.68100 54.32400 23.58200
C  13.94200 53.62100 23.49100
C  11.21700 55.14500 25.69300
C  11.85100 54.67500 22.35900
O  12.17800 54.40900 21.19400
C  10.50900 55.36100 22.55100
N  16.63200 52.12500 23.02600
C  15.80500 52.57800 22.11600
C  16.39300 52.19600 20.76500
C  17.91800 51.86400 20.98800
C  17.75200 51.53200 22.46700
C  15.65100 51.08200 19.88900
C  18.91400 53.09500 20.94700
C  20.14200 52.83000 20.16000
N  17.75600 51.10500 25.44300
C  18.73100 50.62100 24.56000
C  19.65900 49.78400 25.28400
C  19.20100 49.94300 26.61100
C  18.02200 50.68400 26.60900
C  20.81900 48.99300 24.74300
C  19.47600 49.48500 27.92200
O  20.35200 48.74900 28.31600
C  18.42700 50.16200 28.83600
C  17.81600 49.11800 29.80100
O  16.64900 48.77500 29.87600
O  18.75000 48.73600 30.70500
C  18.28300 47.93600 31.84400
H  12.84400 53.86100 27.72500
H  14.27000 53.47800 21.30500
H  19.49200 50.46000 22.52600
H  15.50200 51.17000 30.12400
H  14.77400 54.01300 29.47200
H  12.63100 52.16600 29.05600
H  12.68600 53.26600 30.44300
H  13.31900 51.60500 30.59800
H  16.67700 53.73500 30.81000
H  17.97000 52.79300 30.14400
H  17.36400 53.00900 32.60800
H  17.94600 51.46600 31.96900
H  10.24200 55.06100 25.21300
H  11.51400 56.16900 25.92000
H  11.24600 54.74100 26.70500
H  9.63300 54.78400 22.84800
H  10.34100 55.61300 21.50400
H  10.65600 56.21600 23.21000
H  16.19900 53.11100 20.20500
H  18.28600 50.93800 20.54600
H  14.81900 50.84200 20.55000
H  16.37000 50.26400 19.84100
H  15.33900 51.37600 18.88600
H  19.26700 53.46400 21.90900
H  18.39700 53.96500 20.54300
H  19.98100 52.84600 19.08200
H  20.50600 51.85900 20.49400
H  20.98600 53.48100 20.38900
H  20.63700 48.64300 23.72700
H  21.11000 48.13800 25.35400
H  21.65500 49.67200 24.57400
H  18.94300 50.79900 29.55400
H  17.90900 48.48200 32.71000
H  19.02600 47.22800 32.21200
H  17.51200 47.23400 31.52800

