158

Mg 47.93900 16.89700 28.56000
C  45.70600 16.59200 31.36800
C  50.18400 18.16800 30.63700
C  49.53600 17.48800 25.86900
C  45.16500 15.67900 26.55600
N  47.88400 17.43200 30.69900
C  46.95600 17.17600 31.71700
C  47.42300 17.50100 33.13800
C  48.72800 18.25500 32.77300
C  48.97200 17.92500 31.26000
C  48.83400 19.77100 33.10300
C  47.67400 16.18700 33.87500
C  47.44800 16.15700 35.33300
H  47.41900 17.38200 36.25600
N  49.68900 17.63800 28.29800
C  50.50300 18.07200 29.25600
C  51.78200 18.35900 28.68100
C  51.62500 18.10700 27.24600
C  50.27800 17.67100 27.10300
C  53.00700 18.91100 29.49600
C  52.60100 18.10900 26.07000
O  52.26900 17.93000 24.89200
C  54.10000 18.34300 26.26600
N  47.28500 16.90700 26.39700
C  48.25900 17.14900 25.52200
C  47.83900 16.79500 24.06200
C  46.49800 16.04000 24.35200
C  46.23300 16.25800 25.91300
C  47.71700 17.94000 23.09400
C  46.49800 14.53900 24.01800
C  45.25100 14.00400 23.25000
N  45.86800 16.18900 28.85200
C  44.89700 15.72700 27.97600
C  43.71900 15.44200 28.72700
C  43.97800 15.72600 30.09700
C  45.27900 16.24400 30.05800
C  42.56000 14.70200 28.16100
C  43.44800 15.62100 31.41500
O  42.47100 15.14400 31.87300
C  44.59400 16.12900 32.38000
C  43.95400 17.18000 33.21800
O  43.42100 18.18800 32.80100
O  43.89400 16.70100 34.51300
C  43.19100 17.53700 35.43900
H  51.01500 18.38600 31.31000
H  50.06900 17.61400 24.92500
H  44.37500 15.27100 25.92200
H  46.70800 18.16900 33.61900
H  49.53300 17.83900 33.37800
H  47.87200 20.11500 33.48400
H  48.96900 20.34800 32.18800
H  49.65400 20.06200 33.76000
H  48.69000 15.84100 33.68800
H  47.06500 15.42200 33.39400
H  48.22000 15.57300 35.83300
H  46.52300 15.62000 35.54700
H  53.59700 19.60600 28.89900
H  53.40000 17.89600 29.56500
H  52.52200 19.45700 30.30500
H  54.65300 17.60700 25.68300
H  54.31500 18.09300 27.30500
H  54.36100 19.37600 26.03800
H  48.49300 16.00300 23.69800
H  45.56500 16.47700 23.99800
H  46.91000 17.77000 22.38100
H  48.69100 17.95700 22.60500
H  47.56400 18.86200 23.65400
H  46.71500 14.04600 24.96600
H  47.37800 14.30400 23.41800
H  45.70000 13.48400 22.40400
H  44.54600 14.80800 23.03800
H  44.82700 13.23800 23.89900
H  42.13400 15.13100 27.25400
H  41.78000 14.43300 28.87300
H  43.01900 13.75300 27.88600
H  44.86700 15.27900 33.00600
H  42.31200 18.14700 35.22900
H  43.83800 18.14200 36.07400
H  42.70900 16.74200 36.00800
Mg 1.94400 41.64700 24.97600
C  2.57900 41.98300 28.44700
C  -1.14000 40.65500 25.83900
C  1.43700 40.90700 21.79800
C  5.31100 42.40700 24.39600
N  0.79200 41.47900 26.95100
C  1.28400 41.68500 28.23000
C  0.18700 41.58000 29.28300
C  -1.02600 40.92500 28.44000
C  -0.43200 40.97500 26.98000
C  -1.51800 39.47800 28.92600
C  -0.10800 42.98600 29.82600
C  -0.13600 43.04900 31.39500
H  -0.87500 41.91300 32.17200
N  0.31800 41.03400 23.93400
C  -0.84800 40.69300 24.44600
C  -1.75800 40.29100 23.36500
C  -1.04900 40.25500 22.15800
C  0.27700 40.69600 22.54600
C  -3.24400 40.09000 23.57700
C  -1.50600 39.89700 20.78000
O  -0.69400 39.84200 19.84100
C  -2.98000 39.68500 20.43700
N  3.18600 41.68100 23.35600
C  2.72600 41.34300 22.13300
C  3.86600 41.57800 21.04900
C  5.02300 42.21500 21.85500
C  4.47100 42.14500 23.25400
C  4.37200 40.30500 20.21400
C  5.36200 43.69200 21.45500
C  5.86000 43.81300 20.02000
N  3.66000 42.14800 26.10600
C  4.94100 42.46900 25.72700
C  5.74300 42.78300 26.93100
C  4.86400 42.53200 27.97200
C  3.63200 42.24400 27.49800
C  7.19300 43.15600 26.93700
C  4.77900 42.55700 29.44600
O  5.59200 42.59500 30.36800
C  3.30700 42.08100 29.79200
C  3.28600 40.78400 30.49400
O  3.90700 39.75900 30.15300
O  2.45600 40.85500 31.54000
C  2.26400 39.56300 32.27600
H  -2.14300 40.27900 26.05400
H  1.45700 40.70700 20.72400
H  6.35400 42.65200 24.18100
H  0.40200 40.78900 30.00100
H  -1.89600 41.57500 28.53300
H  -2.45400 39.67400 29.45000
H  -0.76700 39.01500 29.56700
H  -1.71500 38.88900 28.03000
H  -1.04100 43.43100 29.48000
H  0.78600 43.51900 29.50200
H  -0.63600 43.98000 31.65900
H  0.86900 43.11000 31.81200
H  -3.84500 40.82400 23.03900
H  -3.49000 40.00700 24.63500
H  -3.59100 39.14300 23.16400
H  -3.25100 38.68900 20.78400
H  -3.01300 39.66200 19.34800
H  -3.64100 40.46900 20.80600
H  3.56900 42.28300 20.27300
H  5.89400 41.57200 21.73400
H  4.16100 39.39600 20.77700
H  5.43700 40.39400 19.99600
H  3.99800 40.14800 19.20200
H  6.09600 44.13700 22.12700
H  4.48600 44.29900 21.68300
H  5.04100 44.37100 19.56500
H  5.99600 42.86900 19.49300
H  6.67700 44.51100 19.83700
H  7.74800 42.37900 27.46200
H  7.38100 44.02100 27.57200
H  7.58700 43.16800 25.92000
H  2.85600 42.83300 30.44100
H  2.94400 39.38600 33.10900
H  2.42300 38.67200 31.67000
H  1.29000 39.53900 32.76500

