158

Mg 10.27400 48.78900 25.05900
C  8.24900 48.83000 27.84300
C  12.63600 50.29100 26.79900
C  12.27400 48.59000 22.26700
C  7.46600 48.01500 22.97000
N  10.39300 49.54000 27.09400
C  9.54100 49.28700 28.11300
C  10.11600 49.75700 29.42300
C  11.34900 50.56200 28.97800
C  11.48000 50.16500 27.50100
C  11.28900 52.11100 29.23100
C  10.31700 48.50500 30.43100
C  9.67600 48.58500 31.87400
H  10.37700 49.43500 32.93100
N  12.15600 49.43500 24.59200
C  12.98600 49.91200 25.53700
C  14.39900 49.85600 25.03400
C  14.35300 49.32600 23.72500
C  12.93700 49.15200 23.49300
C  15.54400 50.26000 25.95000
C  15.42000 49.01700 22.76500
O  15.16000 48.72000 21.60000
C  16.88200 49.11800 23.15500
N  9.87100 48.58100 22.86000
C  10.91500 48.39400 21.96500
C  10.40900 47.77900 20.63400
C  8.91000 47.40900 20.98800
C  8.68500 48.11400 22.33100
C  10.72700 48.61500 19.39800
C  8.65400 45.80900 21.06200
C  9.37100 45.03400 22.23300
N  8.23300 48.58600 25.26900
C  7.25500 48.20300 24.34800
C  5.99000 48.05400 25.10200
C  6.39100 48.32500 26.45700
C  7.72500 48.66600 26.53900
C  4.66600 47.64100 24.66200
C  5.82300 48.35800 27.81100
O  4.69700 48.15500 28.24000
C  7.10500 48.70000 28.80300
C  7.15800 47.51100 29.72800
O  7.38100 46.34300 29.40600
O  6.74000 47.81300 30.99800
C  6.62800 46.59700 31.87500
H  13.46600 50.62800 27.42400
H  12.97400 48.23900 21.50500
H  6.74500 47.50200 22.33000
H  9.31900 50.39500 29.80400
H  12.18500 50.09500 29.49700
H  10.25300 52.32500 29.49300
H  11.48400 52.60100 28.27700
H  11.96000 52.36600 30.05200
H  11.32400 48.48600 30.84900
H  10.22000 47.51900 29.97700
H  9.34700 47.60300 32.21400
H  8.84800 49.21900 31.55800
H  16.40200 49.59900 25.83200
H  15.39700 50.24100 27.03000
H  15.88100 51.27700 25.74700
H  17.05400 50.05000 23.69500
H  17.41400 48.94000 22.22100
H  17.09200 48.25300 23.78300
H  11.00100 46.86500 20.58500
H  8.25900 47.82000 20.21700
H  9.80000 48.82700 18.86600
H  11.40800 48.12000 18.70500
H  11.23000 49.50100 19.78400
H  9.08000 45.27800 20.21200
H  7.58100 45.64900 20.96000
H  8.56600 44.78800 22.92600
H  10.14200 45.62300 22.72900
H  9.86700 44.16000 21.81000
H  4.06000 47.20800 25.45800
H  4.93200 46.87800 23.93000
H  4.04100 48.40700 24.20300
H  7.02200 49.58100 29.44000
H  5.80800 45.96600 31.53400
H  6.38000 46.94700 32.87700
H  7.54500 46.02100 32.00100
Mg -10.97800 16.56000 40.99200
C  -7.53900 15.68000 40.93600
C  -10.04900 19.79000 40.46700
C  -14.21900 17.20600 40.35900
C  -11.71700 13.09000 40.99600
N  -8.96100 17.66300 40.87100
C  -7.72300 17.04000 40.90600
C  -6.64000 18.10200 40.74200
C  -7.42800 19.49300 40.91100
C  -8.89400 18.96200 40.72000
C  -7.28600 20.15600 42.23300
C  -5.85900 17.91400 39.48200
C  -4.35000 17.76700 39.48500
H  -3.83000 16.56500 38.68300
N  -11.99100 18.29400 40.55800
C  -11.41300 19.52900 40.43100
C  -12.51200 20.42200 40.10300
C  -13.78100 19.72100 40.14300
C  -13.39000 18.32000 40.31600
C  -12.19200 21.84700 39.91400
C  -15.16400 20.32200 40.01500
O  -15.26600 21.50900 39.92200
C  -16.43800 19.56100 40.13800
N  -12.69700 15.33200 40.63900
C  -13.91200 15.87500 40.48200
C  -14.97500 14.86400 40.45800
C  -14.24100 13.48100 40.66200
C  -12.77500 13.97700 40.73900
C  -16.16700 15.09300 41.38700
C  -14.45100 12.47600 39.48100
C  -14.81500 10.93900 39.65800
N  -9.90200 14.73700 41.03400
C  -10.35900 13.41100 41.07900
C  -9.25700 12.48200 41.19000
C  -8.13100 13.27400 41.09900
C  -8.53900 14.67900 40.92800
C  -9.36900 10.99100 41.27800
C  -6.73500 13.28900 41.09300
O  -5.96100 12.36900 41.17300
C  -6.30000 14.84700 41.07600
C  -5.62100 14.98300 42.32400
O  -6.15700 15.48900 43.33200
O  -4.25900 14.62400 42.26100
C  -3.53300 14.61900 43.49800
H  -9.87400 20.85200 40.28500
H  -15.30800 17.27300 40.33900
H  -12.02700 12.04600 41.07400
H  -5.97800 17.96100 41.59600
H  -7.04900 20.23000 40.20300
H  -6.80100 19.54600 42.99600
H  -8.13300 20.66600 42.69300
H  -6.64700 21.01900 42.04600
H  -6.02500 18.79300 38.85900
H  -6.27000 17.03900 38.97800
H  -4.03000 17.74900 40.52700
H  -3.86900 18.60100 38.97300
H  -11.66100 21.96300 38.97000
H  -11.41300 22.08600 40.63900
H  -12.95700 22.62400 39.93100
H  -16.48200 19.07800 39.16200
H  -17.34800 20.15800 40.19100
H  -16.50900 18.83800 40.95100
H  -15.41600 14.93100 39.46300
H  -14.52800 13.09000 41.63800
H  -16.46000 14.20500 41.94800
H  -16.95300 15.57600 40.80600
H  -15.87700 15.81700 42.14800
H  -13.47500 12.46100 38.99700
H  -15.16600 12.84200 38.74400
H  -15.11200 10.73800 40.68800
H  -13.98700 10.26000 39.45400
H  -15.61100 10.66200 38.96600
H  -10.26400 10.68900 41.82200
H  -8.52700 10.61000 41.85500
H  -9.31800 10.57300 40.27200
H  -5.63500 14.91300 40.21400
H  -3.27200 15.65700 43.70500
H  -2.65800 14.01900 43.24700
H  -4.02700 14.10800 44.32400

