158

Mg 28.99600 58.92000 41.74700
C  26.13700 57.41200 40.37200
C  30.82000 56.45200 40.19400
C  31.71700 60.90200 41.90500
C  26.86200 61.73800 42.60900
N  28.49700 57.09700 40.55100
C  27.27100 56.73200 40.07900
C  27.31500 55.42600 39.26600
C  28.80500 54.98600 39.44200
C  29.48200 56.19800 40.18100
C  29.08700 53.61800 40.14300
C  26.86200 55.66800 37.78700
C  26.25500 54.44300 37.14700
H  25.67900 54.65400 35.69900
N  31.02400 58.63700 41.24500
C  31.52900 57.56700 40.66000
C  33.00200 57.68200 40.68400
C  33.31400 59.00100 41.13400
C  32.00200 59.57500 41.50900
C  33.98500 56.68000 40.12800
C  34.76800 59.75600 40.97800
O  35.77500 59.11600 40.58400
C  35.00000 61.17400 41.33200
N  29.24400 60.91800 42.35300
C  30.48900 61.49000 42.27100
C  30.42100 62.97500 42.59700
C  28.90400 63.30300 42.75900
C  28.27000 61.93000 42.57000
C  31.31500 63.49800 43.69400
C  28.34400 64.39900 41.73500
C  27.14400 65.23000 42.28100
N  26.90800 59.38200 41.76000
C  26.20600 60.55800 42.16400
C  24.74700 60.33600 41.87000
C  24.68800 59.11700 41.23500
C  26.03200 58.60700 41.12300
C  23.70000 61.33100 42.04400
C  23.78300 58.17500 40.66300
O  22.58500 58.27700 40.71900
C  24.71300 57.05700 39.87100
C  24.22600 55.79300 40.30200
O  24.28700 55.41700 41.46800
O  23.70700 55.06300 39.26300
C  23.20400 53.75100 39.59400
H  31.42300 55.72200 39.65000
H  32.53100 61.62600 41.97100
H  26.19300 62.53000 42.95400
H  26.65000 54.76600 39.82400
H  29.33500 54.89300 38.49400
H  28.58300 53.53000 41.10600
H  30.16400 53.52200 40.27800
H  28.85500 52.74900 39.52700
H  27.78100 55.76700 37.20900
H  26.27100 56.56000 37.58300
H  25.45500 54.00600 37.74500
H  27.04200 53.68900 37.18500
H  34.40700 56.42600 41.10000
H  34.73500 56.98500 39.39800
H  33.46600 55.84500 39.65800
H  34.24200 61.84500 40.92900
H  35.94500 61.57300 40.96100
H  35.14200 61.16800 42.41300
H  30.72400 63.42800 41.65300
H  28.62400 63.47100 43.79900
H  31.78900 62.60700 44.10600
H  30.76100 64.12200 44.39600
H  32.06600 64.14000 43.23400
H  27.85700 63.96300 40.86300
H  29.10400 65.13500 41.47300
H  26.31600 65.16100 41.57400
H  27.39900 66.28400 42.17000
H  26.93200 65.13300 43.34600
H  23.82400 62.13000 41.31300
H  23.68500 61.71300 43.06500
H  22.74300 60.83800 41.87700
H  24.61300 57.18800 38.79400
H  22.81900 53.30500 38.67700
H  22.52100 53.67200 40.44000
H  24.01900 53.04800 39.76500
Mg 0.17600 43.73600 24.85900
C  2.41700 43.06300 27.47100
C  -2.38800 42.94700 27.09400
C  -2.16400 44.06800 22.28200
C  2.68000 43.98100 22.74100
N  0.08700 42.96200 27.05900
C  1.11400 42.98400 27.95700
C  0.65400 42.81400 29.38200
C  -0.85100 42.56600 29.23600
C  -1.09100 42.74900 27.68000
C  -1.46600 41.26700 29.76300
C  1.01000 44.08100 30.24000
C  1.26100 43.84500 31.78700
H  1.22900 42.49000 32.47800
N  -1.88900 43.52700 24.71600
C  -2.73100 43.13400 25.76100
C  -4.10500 43.14300 25.26700
C  -4.06300 43.48900 23.84500
C  -2.63200 43.75500 23.57000
C  -5.38200 42.95600 26.12300
C  -5.20200 43.59300 22.82000
O  -5.03600 43.91300 21.63800
C  -6.64100 43.31200 23.18400
N  0.28400 44.26100 22.89000
C  -0.77500 44.30300 21.95500
C  -0.27400 44.58000 20.51500
C  1.21600 44.85600 20.79400
C  1.41600 44.33000 22.23700
C  -0.50900 43.58600 19.30600
C  1.67100 46.24000 20.41300
C  0.90600 47.42500 21.12900
N  2.19000 43.52000 24.96800
C  3.14700 43.61400 24.01200
C  4.45500 43.36100 24.52800
C  4.24400 43.19900 25.90300
C  2.87500 43.26100 26.12400
C  5.78000 43.60800 23.69100
C  4.88400 42.96800 27.15100
O  6.07200 42.84700 27.46200
C  3.67200 42.88100 28.23600
C  3.88300 41.54900 28.94000
O  4.06600 40.44700 28.46800
O  3.94700 41.90800 30.25000
C  4.26200 40.69600 31.10100
H  -3.15300 42.83400 27.86500
H  -2.75500 44.01700 21.36500
H  3.48300 44.12800 22.01600
H  1.11500 41.91900 29.79900
H  -1.46800 43.35600 29.66500
H  -2.33100 41.44600 30.40200
H  -0.84400 40.75600 30.49700
H  -1.81900 40.67800 28.91600
H  0.11700 44.70500 30.27800
H  1.87800 44.55700 29.78300
H  0.51300 44.48100 32.26000
H  2.27500 44.18700 31.99400
H  -5.84300 43.90200 26.40900
H  -5.11500 42.53300 27.09200
H  -6.20400 42.31900 25.79600
H  -6.88700 43.93700 24.04300
H  -6.75900 42.29300 23.55200
H  -7.35500 43.67200 22.44400
H  -0.75300 45.53800 20.31100
H  1.83200 44.20200 20.17700
H  -1.01000 44.23000 18.58400
H  -1.19100 42.76800 19.53500
H  0.37200 43.21800 18.78000
H  1.70100 46.44500 19.34300
H  2.69000 46.26000 20.80000
H  1.56700 48.10600 21.66500
H  0.19800 47.19500 21.92500
H  0.29800 47.88000 20.34700
H  6.40600 42.76400 23.98100
H  6.33900 44.49600 23.98800
H  5.67300 43.64700 22.60700
H  3.70600 43.65200 29.00500
H  4.83000 39.91900 30.58900
H  3.31000 40.29200 31.44400
H  4.84300 41.08700 31.93700

