158

Mg 50.10300 47.05700 42.61700
C  46.76900 46.93500 41.41200
C  50.70100 44.12500 40.83900
C  53.40100 47.58500 42.88900
C  49.43800 50.37400 43.51200
N  48.85900 45.87800 41.00800
C  47.47400 45.92800 40.79300
C  47.06600 44.77600 39.91100
C  48.34400 43.87100 39.72700
C  49.43600 44.66200 40.58700
C  48.15500 42.37300 40.07800
C  46.35700 45.24200 38.56300
C  44.94900 44.57000 38.12300
H  45.00400 43.77700 36.88600
N  51.74500 45.91400 42.19100
C  51.80500 44.73400 41.40200
C  53.13600 44.24800 41.37700
C  53.91100 45.13200 42.16000
C  53.00100 46.31600 42.48300
C  53.51500 42.97800 40.68000
C  55.37700 44.99200 42.59400
O  56.14200 44.13400 42.06200
C  55.96500 45.74200 43.66600
N  51.27700 48.65300 43.17900
C  52.56500 48.61300 43.30100
C  53.13000 49.97300 43.68100
C  51.89100 50.80600 44.04800
C  50.72900 49.90500 43.57100
C  54.20300 49.89900 44.77300
C  51.80800 52.27300 43.38800
C  51.52100 52.47400 41.83800
N  48.40100 48.31000 42.68000
C  48.32000 49.66400 43.08800
C  46.88500 50.08100 42.99600
C  46.25900 48.98300 42.41500
C  47.20700 47.97200 42.18800
C  46.23400 51.38600 43.44200
C  44.96200 48.52100 41.90900
O  43.86000 49.08300 41.90400
C  45.23300 47.14700 41.25800
C  44.38500 46.05500 41.80000
O  44.80100 45.34600 42.69800
O  43.08500 46.01200 41.26200
C  42.10400 45.29000 42.13600
H  50.84400 43.15100 40.36800
H  54.45200 47.86000 42.78100
H  49.21100 51.29000 44.06100
H  46.25500 44.34000 40.49300
H  48.75700 44.02400 38.72900
H  48.33900 41.71300 39.23100
H  47.21300 42.00100 40.48300
H  48.92600 42.13900 40.81100
H  47.03000 45.09200 37.71900
H  46.26100 46.32600 38.63000
H  44.13300 45.29200 38.11900
H  44.70400 43.87300 38.92400
H  53.70800 42.22800 41.44700
H  54.49100 43.05300 40.20100
H  52.63400 42.60800 40.15700
H  55.16400 46.05000 44.33800
H  56.50200 46.57100 43.20500
H  56.61200 45.06400 44.22100
H  53.53900 50.45400 42.79200
H  51.84600 50.97100 45.12500
H  54.56200 48.93500 45.13500
H  53.76000 50.43600 45.61200
H  55.03700 50.46500 44.35800
H  52.78700 52.72500 43.54500
H  51.05300 52.86600 43.90200
H  50.95200 51.62700 41.45500
H  52.39000 52.79200 41.26200
H  50.88200 53.35300 41.75700
H  46.19600 52.20100 42.71900
H  46.85400 51.70600 44.27900
H  45.20200 51.14300 43.69400
H  44.87900 47.12100 40.22700
H  41.20800 44.94200 41.62200
H  41.87300 45.95200 42.97100
H  42.44700 44.37600 42.62100
Mg 49.24300 35.31900 28.48700
C  47.00500 33.80900 30.67900
C  49.30700 38.05900 30.52900
C  51.19700 36.76200 26.17100
C  48.47400 32.86500 26.03300
N  48.35100 35.85500 30.46800
C  47.54800 34.97900 31.18100
C  47.31300 35.58500 32.62000
C  47.86900 37.07400 32.45400
C  48.55300 36.96700 31.06400
C  46.82300 38.20400 32.47900
C  48.06400 34.60800 33.66500
C  49.55900 34.93600 34.05700
H  49.95900 35.64300 35.38600
N  50.18900 37.12900 28.46100
C  50.03800 38.18100 29.33000
C  50.95900 39.25400 28.93300
C  51.64800 38.82700 27.76900
C  50.99300 37.50700 27.40500
C  51.19600 40.49900 29.81600
C  52.75600 39.47500 26.94900
O  53.21400 38.91400 25.96800
C  53.43000 40.78500 27.45200
N  49.76800 34.89000 26.42000
C  50.67100 35.58100 25.65400
C  51.08500 34.84500 24.40100
C  49.96700 33.80900 24.30000
C  49.30400 33.82100 25.67700
C  51.12200 35.86900 23.18900
C  50.57200 32.44700 23.77500
C  49.84800 31.81400 22.62300
N  48.03900 33.58000 28.39100
C  47.85300 32.69700 27.30200
C  46.99800 31.67100 27.79100
C  46.53900 32.10200 29.03400
C  47.23900 33.25300 29.41100
C  46.54800 30.38300 27.12100
C  45.59300 31.79000 30.12300
O  44.83700 30.83100 30.25000
C  45.90400 32.90600 31.26500
C  46.31000 32.16800 32.48800
O  46.87900 31.05000 32.55800
O  45.54600 32.66300 33.53000
C  45.79100 32.10200 34.87300
H  49.36900 38.90700 31.21400
H  51.83200 37.27200 25.44300
H  48.36400 32.04300 25.32200
H  46.23500 35.61500 32.77800
H  48.60300 37.29600 33.22900
H  47.25900 39.09300 32.93400
H  46.03800 37.83400 33.13900
H  46.44000 38.40200 31.47800
H  48.14000 33.55600 33.39100
H  47.47800 34.61600 34.58400
H  50.06600 35.67500 33.43700
H  50.23700 34.09100 33.93100
H  52.27300 40.66400 29.84500
H  50.98600 40.21400 30.84700
H  50.53700 41.32200 29.54100
H  52.74000 41.53500 27.83700
H  53.91100 41.22900 26.58000
H  54.28600 40.59700 28.10000
H  52.07300 34.47200 24.67100
H  49.17500 34.11500 23.61600
H  50.56700 36.80000 23.30300
H  50.65200 35.50900 22.27400
H  52.15100 36.16500 22.98700
H  50.64000 31.72400 24.58800
H  51.54900 32.73800 23.39100
H  48.81100 32.12400 22.50000
H  49.80400 30.74000 22.80300
H  50.42700 31.96000 21.71100
H  46.40900 30.59000 26.06000
H  45.63200 29.98900 27.56100
H  47.31800 29.61200 27.13500
H  45.02300 33.48200 31.54600
H  45.85100 32.93300 35.57500
H  46.73300 31.55300 34.84800
H  44.96600 31.45100 35.16100

