158

Mg 24.53000 -4.73600 45.24900
C  26.88600 -2.55400 43.82900
C  22.20400 -3.68500 43.12100
C  22.66600 -7.42100 46.16000
C  27.26400 -6.05000 47.27600
N  24.63600 -3.34900 43.58300
C  25.57200 -2.50600 43.27200
C  25.07900 -1.61000 42.07200
C  23.55700 -1.69100 42.33500
C  23.42600 -2.99400 43.01200
C  23.10000 -0.63400 43.36800
C  25.42700 -2.18700 40.63000
C  26.02600 -1.19200 39.58500
H  25.92300 -1.65500 38.07000
N  22.62300 -5.46900 44.76400
C  21.84600 -4.80900 43.90800
C  20.54400 -5.42600 43.83100
C  20.59900 -6.58700 44.68100
C  21.99600 -6.55700 45.29000
C  19.40300 -5.07500 42.88300
C  19.53300 -7.63600 45.00700
O  18.44600 -7.51200 44.43500
C  19.76100 -8.94900 45.77800
N  24.92700 -6.42600 46.51900
C  23.97700 -7.38800 46.70700
C  24.49200 -8.57100 47.49600
C  25.84500 -7.99300 48.11800
C  26.02400 -6.75700 47.23000
C  23.55900 -9.29200 48.51100
C  27.07900 -8.92700 48.20600
C  27.73300 -8.81500 49.64000
N  26.64000 -4.31400 45.61100
C  27.57800 -4.99000 46.40500
C  28.88800 -4.40700 46.10400
C  28.62400 -3.37600 45.12000
C  27.23800 -3.40300 44.86800
C  30.12600 -4.66100 46.86100
C  29.18100 -2.25500 44.34800
O  30.27400 -1.71300 44.40400
C  28.11300 -1.73500 43.38300
C  27.94900 -0.27900 43.65000
O  27.69800 0.20800 44.74900
O  28.16700 0.51900 42.52900
C  27.86400 1.92700 42.64500
H  21.36500 -3.28100 42.55100
H  22.06800 -8.30600 46.38600
H  28.03900 -6.39900 47.96200
H  25.44300 -0.59100 42.20400
H  23.08800 -1.68900 41.35100
H  23.80100 0.18100 43.54800
H  22.89200 -1.10000 44.33100
H  22.20700 -0.18800 42.93200
H  24.61100 -2.78800 40.22800
H  26.23600 -2.88300 40.85000
H  27.09300 -1.12700 39.80000
H  25.46600 -0.28500 39.81300
H  19.62800 -5.68300 42.00700
H  19.29200 -4.05000 42.52800
H  18.45600 -5.46200 43.26100
H  18.84800 -9.52300 45.62200
H  20.12500 -8.74400 46.78500
H  20.50000 -9.57900 45.28600
H  24.76800 -9.21300 46.66000
H  25.52100 -7.45800 49.01000
H  23.97200 -9.03000 49.48500
H  23.63500 -10.35700 48.28900
H  22.51500 -9.00500 48.39000
H  27.80400 -8.76300 47.41000
H  26.80200 -9.96700 48.03100
H  27.81700 -9.79700 50.10600
H  27.28100 -8.11300 50.34100
H  28.76800 -8.48500 49.54800
H  30.96500 -4.23300 46.31300
H  30.14700 -5.71100 47.15200
H  30.10300 -4.14000 47.81800
H  28.37900 -2.00800 42.36100
H  27.05100 2.13100 43.34200
H  27.87300 2.43300 41.68000
H  28.70100 2.38600 43.17200
Mg -4.91600 25.24900 25.30500
C  -3.62400 26.46300 28.29300
C  -6.99100 23.16700 27.27000
C  -5.91100 23.70400 22.49800
C  -2.61700 27.20400 23.58400
N  -5.34800 24.97100 27.52600
C  -4.63500 25.57800 28.56500
C  -5.17000 25.10000 29.94200
C  -5.99800 23.86400 29.48600
C  -6.15200 24.00100 27.97500
C  -5.47200 22.42500 29.82600
C  -5.97600 26.21000 30.68000
C  -5.61900 26.50500 32.16800
H  -4.78900 25.36500 32.97600
N  -6.38600 23.72700 24.87100
C  -7.19300 23.04600 25.83900
C  -8.15600 22.23900 25.15500
C  -7.80600 22.39200 23.73200
C  -6.64300 23.28400 23.65800
C  -9.14400 21.29800 25.83500
C  -8.49800 21.64700 22.53700
O  -8.07000 21.81100 21.41300
C  -9.63000 20.63100 22.69000
N  -4.40500 25.48100 23.37000
C  -4.88800 24.67900 22.33400
C  -4.27000 25.12300 21.02500
C  -3.45700 26.39100 21.38500
C  -3.47100 26.29500 22.90700
C  -3.47100 24.09700 20.21400
C  -4.05100 27.70300 20.91200
C  -3.62700 28.09400 19.51400
N  -3.41600 26.57900 25.83100
C  -2.55600 27.38700 24.99700
C  -1.82000 28.31900 25.76000
C  -2.17200 27.92500 27.09300
C  -3.14300 26.88500 27.06800
C  -0.86100 29.35600 25.33100
C  -1.87200 28.14300 28.50300
O  -1.09100 28.89100 29.05600
C  -2.84300 27.26200 29.36400
C  -2.00300 26.41500 30.23500
O  -1.29400 25.50900 29.80600
O  -1.92100 26.84500 31.51400
C  -0.87100 26.26500 32.25500
H  -7.60500 22.44700 27.81500
H  -6.26400 23.32100 21.53800
H  -1.88300 27.79300 23.03100
H  -4.41600 24.72500 30.63400
H  -7.00200 23.92000 29.90600
H  -5.62800 21.80200 28.94600
H  -5.94300 21.87100 30.63800
H  -4.40200 22.47900 30.02700
H  -7.03000 25.93700 30.72900
H  -5.84900 27.16400 30.16700
H  -6.57400 26.56300 32.69000
H  -5.11100 27.46900 32.21200
H  -8.90500 20.26500 25.58100
H  -10.13200 21.54800 25.44900
H  -9.28500 21.40500 26.91100
H  -9.18000 19.72700 23.10100
H  -10.03800 20.45300 21.69400
H  -10.46100 21.02500 23.27500
H  -5.07700 25.41700 20.35400
H  -2.38800 26.30600 21.18900
H  -4.09300 24.04900 19.32000
H  -3.50600 23.08000 20.60400
H  -2.42200 24.34300 20.05100
H  -3.79600 28.49700 21.61300
H  -5.13900 27.76400 20.92500
H  -4.26600 27.77900 18.68900
H  -2.71200 27.64900 19.12500
H  -3.62100 29.17900 19.40700
H  -0.62900 29.26200 24.27000
H  -0.00400 29.19200 25.98400
H  -1.26300 30.35000 25.52700
H  -3.45500 27.88400 30.01800
H  0.03500 26.41400 31.66700
H  -1.05500 25.20100 32.40300
H  -0.77100 26.78400 33.20800

