158

Mg 16.90800 -0.57600 27.27600
C  15.93500 1.07000 30.02600
C  19.23800 -2.40500 29.24200
C  18.15500 -1.92400 24.47700
C  15.17600 1.93400 25.26300
N  17.62200 -0.58500 29.33200
C  16.95100 0.11600 30.30200
C  17.38500 -0.31600 31.72200
C  18.59300 -1.32900 31.40100
C  18.51000 -1.42500 29.89500
C  20.01200 -0.94200 31.78000
C  16.14600 -0.84400 32.62200
C  16.07600 -0.40100 34.12000
H  17.36400 0.19700 34.78600
N  18.31500 -2.18800 26.97600
C  19.06700 -2.84000 27.90000
C  19.79900 -3.93500 27.21300
C  19.45400 -3.84800 25.83400
C  18.60300 -2.65700 25.68500
C  20.80800 -4.80700 27.90000
C  19.70300 -4.81600 24.72100
O  19.19100 -4.55900 23.62300
C  20.43100 -6.15800 24.94600
N  16.61400 -0.07100 25.15300
C  17.35200 -0.75800 24.18400
C  17.32100 0.01400 22.84100
C  16.24400 1.13500 23.06800
C  15.94200 0.97000 24.55500
C  18.70000 0.59900 22.39300
C  14.98500 1.06100 22.08300
C  14.82800 2.06700 20.97000
N  15.63100 1.10800 27.51800
C  15.02200 2.03500 26.67000
C  14.22500 2.98300 27.48500
C  14.55900 2.65600 28.81100
C  15.43200 1.53700 28.81900
C  13.37000 4.14600 27.03700
C  14.40400 3.04000 30.23200
O  13.75800 4.02100 30.61000
C  15.28800 2.04200 31.03200
C  16.31900 2.83600 31.86000
O  17.30800 3.37500 31.34200
O  15.75600 2.97000 33.11300
C  16.48400 4.04500 33.87400
H  19.99300 -2.98000 29.78300
H  18.74900 -2.11400 23.58100
H  14.54900 2.72100 24.84000
H  17.72300 0.55100 32.28900
H  18.46900 -2.25600 31.96200
H  20.54400 -1.83300 32.11400
H  20.01400 -0.14600 32.52500
H  20.59400 -0.57600 30.93400
H  16.11700 -1.93200 32.55800
H  15.28400 -0.34800 32.17500
H  15.90900 -1.34700 34.63400
H  15.15200 0.16100 34.25000
H  20.51300 -5.85200 27.80600
H  20.85700 -4.74300 28.98700
H  21.76600 -4.59200 27.42600
H  21.51400 -6.06400 25.02900
H  20.20000 -6.84000 24.12900
H  20.08500 -6.46300 25.93400
H  17.07700 -0.50800 21.91600
H  16.62800 2.13600 22.87400
H  19.47900 0.42500 23.13600
H  18.51700 1.64000 22.12800
H  19.09500 0.09200 21.51300
H  14.12500 1.17300 22.74400
H  14.75700 0.07700 21.67400
H  14.11400 2.86600 21.16900
H  14.54700 1.54900 20.05300
H  15.79400 2.57100 20.97100
H  13.48900 5.12000 27.51100
H  12.31800 3.94800 27.24200
H  13.35100 4.33400 25.96300
H  14.61100 1.54100 31.72400
H  16.46800 5.00200 33.35200
H  17.53900 3.88000 34.09000
H  16.04000 4.16700 34.86200
Mg 36.31900 48.54800 26.09700
C  36.23500 46.36400 28.91600
C  34.90400 50.98400 28.10700
C  35.76800 50.33500 23.36000
C  37.04600 45.69800 24.18300
N  35.69600 48.66500 28.21100
C  35.96800 47.77300 29.17900
C  35.87300 48.34500 30.57400
C  35.28400 49.78000 30.35500
C  35.34100 49.86600 28.78100
C  33.80400 50.00300 30.88600
C  37.23800 48.40400 31.30500
C  37.16300 48.72100 32.86800
H  35.93900 49.02300 33.65600
N  35.57300 50.50900 25.84700
C  34.98200 51.34600 26.75700
C  34.68900 52.59100 26.07300
C  34.92700 52.44800 24.70800
C  35.42800 51.04600 24.57900
C  34.14400 53.77100 26.83200
C  34.67600 53.40600 23.52400
O  35.01100 53.19700 22.32200
C  34.17700 54.84700 23.85200
N  36.54900 48.16300 24.09500
C  36.27100 49.08500 23.14800
C  36.37900 48.42200 21.77100
C  37.13000 47.02400 22.00600
C  36.96900 46.95200 23.54800
C  35.05400 48.27900 21.00000
C  38.63200 47.21800 21.53900
C  39.69200 47.57700 22.57500
N  36.66300 46.39900 26.41800
C  36.97700 45.45200 25.52600
C  37.13300 44.28500 26.15900
C  36.97000 44.51300 27.57300
C  36.56100 45.86500 27.60500
C  37.50800 42.97700 25.48800
C  36.97000 43.88500 28.89400
O  37.03900 42.77800 29.36300
C  36.56700 45.10200 29.78400
C  35.45300 44.69600 30.70400
O  34.35500 44.34300 30.41100
O  35.90800 44.94100 31.97300
C  34.88000 44.79900 33.06900
H  34.47700 51.70700 28.80400
H  35.47500 50.81600 22.42400
H  37.24500 44.90300 23.46100
H  35.20500 47.76200 31.20900
H  36.00500 50.41000 30.87700
H  33.45500 49.11100 31.40700
H  33.16100 50.14300 30.01700
H  33.73400 50.91600 31.47700
H  37.83000 49.16500 30.79700
H  37.66100 47.40200 31.22600
H  37.92600 49.47700 33.05100
H  37.34700 47.72400 33.26800
H  34.26100 53.62400 27.90500
H  33.07200 53.68000 26.65100
H  34.51000 54.78400 26.66400
H  34.15700 55.29400 22.85800
H  34.82300 55.37400 24.55400
H  33.19100 54.72300 24.29900
H  37.01800 49.09200 21.19700
H  36.61700 46.16000 21.58400
H  34.18300 48.45200 21.63200
H  34.90400 47.25100 20.67000
H  35.01300 48.91400 20.11500
H  38.70300 47.88200 20.67800
H  38.77800 46.20600 21.16300
H  40.46400 48.21100 22.13900
H  40.13100 46.61800 22.85100
H  39.27200 47.84500 23.54500
H  38.24300 43.08700 24.69200
H  36.51800 42.64400 25.17500
H  37.87000 42.28600 26.25000
H  37.52500 45.29600 30.26700
H  35.06100 45.38200 33.97200
H  34.90800 43.74000 33.32400
H  33.88000 45.01900 32.69500

