158

Mg 26.66900 50.88300 27.29200
C  24.48600 51.74000 29.89800
C  28.88100 49.69200 29.76700
C  28.68100 49.96500 24.81800
C  24.16600 51.92500 25.00500
N  26.69200 50.84300 29.53100
C  25.62000 51.21100 30.36800
C  25.94300 50.77700 31.82200
C  27.46400 50.27600 31.79700
C  27.68600 50.29300 30.28500
C  28.43100 51.15700 32.63400
C  24.89400 49.75900 32.49500
C  24.12000 50.24500 33.73900
H  23.95200 49.24800 34.87200
N  28.55800 50.03400 27.26800
C  29.31500 49.61300 28.42100
C  30.60100 49.25400 27.91300
C  30.67700 49.34300 26.48500
C  29.26500 49.80400 26.09400
C  31.64200 48.76300 28.89200
C  31.81200 49.09400 25.51000
O  31.63200 49.05000 24.30300
C  33.20900 48.82600 26.10100
N  26.45400 51.10500 25.23100
C  27.50200 50.58000 24.37900
C  27.07000 50.62800 22.88400
C  25.63100 51.24000 22.98500
C  25.37100 51.40600 24.48800
C  27.94500 51.56500 22.05100
C  24.62700 50.22000 22.38800
C  23.81000 50.74300 21.19800
N  24.76200 51.77200 27.31300
C  23.84800 52.05100 26.33300
C  22.71600 52.66200 26.93000
C  22.87100 52.57600 28.29900
C  24.16300 52.05600 28.56300
C  21.51400 53.26700 26.19200
C  22.17200 52.73900 29.57000
O  21.09000 53.20600 29.95000
C  23.21500 52.23400 30.60700
C  23.54800 53.35600 31.43200
O  24.07200 54.39400 31.06000
O  23.09400 53.07300 32.75300
C  23.39700 53.94900 33.87700
H  29.44900 49.28000 30.60400
H  29.24100 49.55900 23.97400
H  23.29000 52.16000 24.39700
H  25.86400 51.66500 32.44900
H  27.55200 49.26800 32.20100
H  28.70500 50.62000 33.54200
H  27.89800 52.01700 33.03800
H  29.31400 51.58200 32.15700
H  25.28600 48.76500 32.71200
H  24.09600 49.62500 31.76500
H  23.14300 50.66600 33.50100
H  24.71100 51.03900 34.19600
H  32.42600 49.47800 29.14300
H  32.18700 47.97400 28.37500
H  31.18700 48.32400 29.78000
H  33.45500 49.27800 27.06200
H  33.80600 49.32300 25.33600
H  33.38800 47.75000 26.11100
H  27.12700 49.58300 22.57900
H  25.54200 52.25800 22.60700
H  28.59500 52.15600 22.69600
H  27.45100 52.12100 21.25400
H  28.62900 50.90300 21.52000
H  23.94500 49.81800 23.13700
H  25.12200 49.31600 22.03200
H  23.92900 51.80900 21.00400
H  22.73900 50.65200 21.37700
H  24.19900 50.23900 20.31300
H  20.73300 53.41900 26.93700
H  21.17100 52.49100 25.50800
H  21.70300 54.22500 25.70700
H  22.70200 51.40800 31.10000
H  23.95800 54.82700 33.55700
H  23.99600 53.36800 34.57800
H  22.47200 54.20200 34.39400
Mg 6.70500 53.93000 40.99900
C  5.91600 50.49900 40.89900
C  9.79400 53.05800 39.77700
C  7.06400 57.12400 40.04100
C  3.46000 54.53200 42.01000
N  7.70500 51.94400 40.38100
C  7.23400 50.72800 40.42700
C  8.28100 49.65800 40.00200
C  9.60400 50.47000 40.11200
C  9.03100 51.89800 40.03600
C  10.42800 50.23100 41.39200
C  8.03600 49.03100 38.54300
C  7.68000 49.96400 37.40300
H  6.45600 49.63000 36.50300
N  8.23300 54.95200 40.00500
C  9.43500 54.37600 39.67900
C  10.25800 55.51000 38.95100
C  9.46900 56.69600 38.99200
C  8.19000 56.28800 39.69700
C  11.61400 55.29200 38.32900
C  9.84800 58.03700 38.34600
O  10.96000 58.10400 37.76800
C  9.05700 59.22400 38.47800
N  5.31300 55.61500 40.83200
C  5.87600 56.85500 40.63300
C  4.91500 57.94100 41.21800
C  3.60200 57.11800 41.52700
C  4.13300 55.66700 41.52000
C  5.52100 58.62700 42.39700
C  2.63700 57.33100 40.30200
C  1.25500 56.66700 40.26900
N  5.03100 52.81800 41.52600
C  3.87000 53.22100 42.06200
C  3.15200 52.04000 42.57100
C  3.87700 50.99000 42.13400
C  5.00600 51.49400 41.38400
C  1.84200 52.06600 43.24600
C  3.93600 49.57200 42.14800
O  3.18200 48.88700 42.72900
C  5.24700 49.15900 41.32900
C  4.67500 48.34700 40.23200
O  3.86700 48.82300 39.41000
O  5.22900 47.08800 40.26300
C  4.48800 46.17700 39.42200
H  10.79300 52.87500 39.37600
H  7.36800 58.16300 39.89300
H  2.42300 54.75200 42.27100
H  8.31800 48.81200 40.68900
H  10.26600 50.21700 39.28400
H  10.50500 51.14700 41.97800
H  11.44300 49.97600 41.08800
H  10.09200 49.45100 42.07500
H  7.15500 48.39300 38.60600
H  8.99000 48.57100 38.28500
H  8.54600 50.00900 36.74200
H  7.47600 50.97300 37.76000
H  11.78100 55.55500 37.28400
H  11.76100 54.21400 38.25800
H  12.41600 55.78600 38.87700
H  8.09800 59.06600 37.98600
H  9.50500 60.08500 37.98100
H  8.84000 59.36000 39.53800
H  4.77900 58.58500 40.35000
H  3.11100 57.28600 42.48500
H  6.61000 58.59900 42.42700
H  5.15100 58.21400 43.33600
H  5.34000 59.69500 42.27400
H  3.19900 57.01900 39.42100
H  2.40600 58.39500 40.34300
H  0.47100 57.40200 40.08900
H  0.89500 56.32000 41.23800
H  1.28300 55.86900 39.52700
H  1.28300 52.99100 43.10700
H  1.85500 52.05400 44.33600
H  1.21300 51.24300 42.90500
H  5.89300 48.48500 41.89200
H  3.41400 46.18600 39.61100
H  4.93000 45.18400 39.50500
H  4.61500 46.53400 38.40000

