158

Mg -0.03200 7.92900 24.76700
C  0.87700 9.34100 27.83100
C  0.30800 4.83800 26.40300
C  -0.58600 6.32900 21.89900
C  0.16000 10.93200 23.20100
N  0.77700 7.23800 26.90500
C  0.66800 7.93600 28.05200
C  0.83800 7.16100 29.35200
C  0.78000 5.75300 28.78100
C  0.55100 5.95900 27.27200
C  2.11700 4.96800 29.07000
C  -0.25900 7.54600 30.35900
C  -0.39000 6.89700 31.77200
H  -0.18900 7.69100 33.04500
N  -0.06800 5.84400 24.16700
C  0.04400 4.78800 24.99000
C  -0.04000 3.53500 24.20200
C  -0.32300 3.98000 22.84600
C  -0.36300 5.41600 22.95400
C  0.17100 2.12300 24.72000
C  -0.51600 3.19500 21.51000
O  -0.63000 3.66500 20.41100
C  -0.35400 1.72900 21.62200
N  -0.35900 8.58600 22.83700
C  -0.58200 7.73100 21.82900
C  -0.77200 8.44900 20.49300
C  -0.75600 9.96200 21.04100
C  -0.19500 9.85800 22.43700
C  0.21400 7.98500 19.35900
C  -2.13300 10.63200 20.98000
C  -2.43600 11.58000 19.87700
N  0.37200 9.78600 25.31900
C  0.52000 10.95500 24.55300
C  1.14300 11.93900 25.41100
C  1.22400 11.35000 26.69000
C  0.80100 10.05200 26.60400
C  1.38600 13.39200 25.11100
C  1.54500 11.76300 28.10800
O  1.82400 12.81600 28.67100
C  1.30400 10.45500 28.83300
C  2.66600 10.03500 29.39300
O  3.55700 9.58700 28.74000
O  2.56500 9.99900 30.78200
C  3.57900 9.21500 31.40700
H  0.37700 3.86200 26.88700
H  -0.74600 5.94400 20.89000
H  0.26800 11.88400 22.67700
H  1.83600 7.41900 29.70800
H  -0.06400 5.15800 29.13200
H  2.76700 5.09800 28.20500
H  1.92700 3.90300 29.20100
H  2.59000 5.19400 30.02500
H  -1.18000 7.42900 29.78800
H  -0.02000 8.60100 30.49300
H  0.14700 5.94800 31.77600
H  -1.44400 6.62500 31.73400
H  0.15300 2.01700 25.80500
H  1.14100 1.72500 24.42000
H  -0.70500 1.60700 24.32600
H  0.44500 1.53300 22.33800
H  0.01100 1.43700 20.63700
H  -1.22000 1.17100 21.97700
H  -1.77500 8.11200 20.23100
H  -0.06000 10.53400 20.42800
H  0.97100 7.31200 19.76200
H  0.73300 8.88500 19.02800
H  -0.42600 7.66700 18.53600
H  -2.25700 11.23100 21.88200
H  -2.93000 9.89400 21.07100
H  -1.74100 11.31400 19.08000
H  -2.18900 12.59600 20.18600
H  -3.48400 11.45900 19.60000
H  1.67500 13.49700 24.06500
H  2.24800 13.66800 25.71900
H  0.61600 14.11500 25.37900
H  0.65600 10.72200 29.66800
H  3.32700 9.11900 32.46300
H  4.46800 9.84300 31.34300
H  3.83600 8.29600 30.88100
Mg -11.61800 38.28100 42.73700
C  -9.43500 35.74700 41.50000
C  -9.53900 40.41400 40.95400
C  -13.92800 40.57400 43.11300
C  -13.83200 35.74200 43.66200
N  -9.65000 38.02100 41.34900
C  -8.98900 36.90000 40.94900
C  -7.91200 37.12800 39.90600
C  -7.90700 38.69800 39.75300
C  -9.07300 39.10900 40.72400
C  -6.52200 39.40900 40.18700
C  -8.25300 36.33900 38.61800
C  -7.12400 35.43200 37.99300
H  -6.12700 35.98700 36.97500
N  -11.65800 40.27100 42.28700
C  -10.69300 40.98900 41.61400
C  -11.14400 42.33800 41.51800
C  -12.46400 42.44600 42.03700
C  -12.74600 41.08900 42.50200
C  -10.29900 43.41200 40.78200
C  -13.40300 43.58500 41.91500
O  -12.94000 44.57000 41.36600
C  -14.92600 43.64300 42.35800
N  -13.62500 38.19800 43.41000
C  -14.37000 39.32200 43.54300
C  -15.68700 38.95100 44.23600
C  -15.64100 37.39700 44.40700
C  -14.28000 37.05800 43.81300
C  -15.81900 39.65600 45.61600
C  -16.83300 36.65700 43.74300
C  -16.89800 36.82900 42.23300
N  -11.67300 36.17400 42.72000
C  -12.59000 35.29000 43.20000
C  -12.06400 33.90300 43.07600
C  -10.79900 34.07500 42.55900
C  -10.64400 35.48300 42.31000
C  -12.79000 32.65100 43.37900
C  -9.58100 33.41200 42.10700
O  -9.33400 32.21200 42.12700
C  -8.72500 34.43900 41.41300
C  -7.46900 34.51000 42.26100
O  -7.17000 35.28200 43.19900
O  -6.75500 33.41200 41.90400
C  -5.75900 33.05100 42.90800
H  -9.00900 41.09100 40.28100
H  -14.76300 41.27700 43.10000
H  -14.50300 34.94600 43.99300
H  -6.98000 36.70500 40.28200
H  -8.12600 39.17200 38.79600
H  -6.19600 39.85300 39.24600
H  -5.70300 38.72600 40.41100
H  -6.67100 40.06600 41.04300
H  -8.55100 37.04200 37.84100
H  -9.05400 35.60900 38.74200
H  -7.47100 34.43700 37.71500
H  -6.54800 35.27200 38.90400
H  -10.77100 43.73300 39.85300
H  -9.31600 43.10300 40.42600
H  -10.19000 44.30100 41.40400
H  -15.49800 42.90300 41.80000
H  -15.26300 44.65200 42.11700
H  -15.08500 43.62600 43.43600
H  -16.59400 39.24500 43.70900
H  -15.60500 37.25500 45.48700
H  -16.85300 39.60900 45.95900
H  -15.62800 40.72900 45.60200
H  -15.12800 39.32800 46.39300
H  -17.69200 37.17100 44.17500
H  -16.91600 35.61200 44.03900
H  -16.64200 35.87300 41.77800
H  -16.28500 37.63600 41.83200
H  -17.94700 37.02100 42.00700
H  -12.24900 31.89300 43.94600
H  -13.13100 32.21200 42.44200
H  -13.68800 33.00400 43.88500
H  -8.42000 34.24400 40.38500
H  -4.91400 33.73700 42.85200
H  -5.30000 32.13000 42.54900
H  -6.11500 32.82400 43.91300

