158

Mg 25.94400 -1.29800 29.03400
C  27.95100 -1.26500 31.95700
C  23.20800 -0.58800 31.26100
C  23.93700 -1.28800 26.37300
C  28.57200 -2.43900 27.16100
N  25.61700 -1.07600 31.38600
C  26.61800 -0.95700 32.31700
C  26.06400 -0.47000 33.73100
C  24.55500 -0.38000 33.45700
C  24.43800 -0.79400 31.93500
C  23.69800 -1.05700 34.53000
C  26.58600 0.88500 34.38800
C  27.32500 0.86900 35.68200
H  26.98800 1.81500 36.85600
N  23.89000 -0.98600 28.82400
C  22.98300 -0.69600 29.83200
C  21.75000 -0.45800 29.12800
C  21.93200 -0.51400 27.76800
C  23.32900 -0.99800 27.57300
C  20.39600 -0.33000 29.78900
C  20.93600 -0.15200 26.66200
O  21.32200 -0.07700 25.48900
C  19.54200 0.27100 26.90500
N  26.15700 -1.95100 27.07700
C  25.26000 -1.69300 26.14100
C  25.74600 -2.12200 24.72300
C  27.24400 -2.35500 24.98500
C  27.36400 -2.19100 26.50800
C  25.03200 -3.33500 24.13200
C  28.23800 -1.44100 24.19700
C  28.00500 0.05200 24.27800
N  27.82800 -1.87600 29.44600
C  28.78200 -2.25600 28.53500
C  30.03500 -2.31500 29.22900
C  29.74100 -1.91200 30.59300
C  28.41000 -1.67100 30.67400
C  31.30500 -2.84400 28.60500
C  30.36000 -1.68900 31.88500
O  31.49700 -1.78800 32.36500
C  29.19100 -1.17300 32.76000
C  29.01300 -2.01600 34.06500
O  28.60000 -3.14400 34.14700
O  29.65100 -1.30500 35.03900
C  29.61200 -1.83300 36.44900
H  22.37100 -0.23000 31.86500
H  23.35200 -1.10800 25.46900
H  29.46200 -2.70900 26.58800
H  26.46500 -1.26800 34.35600
H  24.17800 0.62900 33.62400
H  22.79900 -0.46100 34.69000
H  24.16700 -1.32700 35.47700
H  23.22300 -1.98400 34.20700
H  25.85700 1.68500 34.50800
H  27.26800 1.26100 33.62500
H  28.40200 0.83900 35.51400
H  27.03100 -0.10500 36.07100
H  20.44600 -0.42500 30.87300
H  19.79300 -1.18300 29.47700
H  19.83800 0.55800 29.49100
H  19.03800 -0.57300 27.37600
H  19.08400 0.45100 25.93300
H  19.44000 1.16800 27.51600
H  25.68600 -1.31000 23.99800
H  27.47100 -3.40000 24.77400
H  24.61300 -3.04200 23.17000
H  24.28300 -3.68100 24.84500
H  25.77200 -4.12500 24.00500
H  28.29000 -1.77300 23.16000
H  29.20300 -1.63000 24.66500
H  27.06600 0.29600 24.77400
H  28.10800 0.48900 23.28500
H  28.75600 0.55100 24.89100
H  31.39500 -2.64100 27.53700
H  31.36700 -3.92700 28.71500
H  32.16700 -2.43200 29.12900
H  29.32200 -0.12500 33.03000
H  28.64900 -1.75800 36.95500
H  30.39200 -1.54100 37.15200
H  29.76400 -2.91000 36.38100
Mg 47.02200 34.32100 28.02000
C  45.26600 32.50400 30.29600
C  47.30400 36.85400 30.19000
C  48.11700 36.31300 25.45200
C  46.06300 31.98500 25.58200
N  46.46100 34.57300 30.02500
C  45.84200 33.64100 30.82200
C  45.97200 34.03300 32.28900
C  46.27700 35.57100 32.20800
C  46.64400 35.72200 30.78200
C  45.10100 36.49600 32.69900
C  47.16000 33.32100 32.99700
C  46.93000 33.05200 34.47500
H  46.15800 34.05400 35.20500
N  47.89900 36.23200 27.94100
C  47.98000 37.12000 28.95900
C  48.72500 38.23300 28.62000
C  48.91000 38.20200 27.23500
C  48.34000 36.90400 26.80000
C  49.09200 39.24600 29.68000
C  49.55500 39.21900 26.31500
O  49.71600 38.95100 25.11600
C  50.05700 40.50800 26.83300
N  47.20300 34.05400 25.81500
C  47.55900 35.07700 25.03600
C  47.36500 34.74400 23.50800
C  46.97400 33.25400 23.54900
C  46.78800 33.06000 25.09100
C  46.26300 35.62600 22.73800
C  47.93400 32.22700 22.92200
C  48.94500 31.53100 23.80800
N  46.00300 32.52400 27.89800
C  45.69200 31.67800 26.85700
C  44.99200 30.55300 27.43100
C  44.74000 30.91000 28.76900
C  45.41800 32.06600 28.98000
C  44.56700 29.31800 26.61800
C  44.06300 30.42300 29.98200
O  43.51000 29.35100 30.22700
C  44.21900 31.58200 30.89800
C  44.37100 31.12100 32.33000
O  45.32900 30.59900 32.78000
O  43.23400 31.25300 33.03100
C  43.30500 30.88100 34.47900
H  47.34800 37.55100 31.02900
H  48.33400 36.96200 24.60000
H  45.68100 31.22600 24.89600
H  45.01500 33.84300 32.77400
H  47.13000 35.86500 32.82000
H  45.04500 36.67100 33.77300
H  44.12200 36.08000 32.46000
H  45.27600 37.41500 32.13900
H  48.07900 33.88800 32.85100
H  47.37200 32.36100 32.52500
H  47.89800 32.91900 34.95900
H  46.36100 32.12900 34.58700
H  50.13600 39.52000 29.52300
H  49.00600 38.86900 30.69900
H  48.45100 40.12100 29.57600
H  49.29000 41.20400 27.17200
H  50.45500 41.11000 26.01700
H  50.86400 40.44900 27.56400
H  48.36100 34.89200 23.09100
H  45.98500 33.06300 23.13300
H  45.66300 35.02900 22.05000
H  46.81600 36.43300 22.25700
H  45.55900 35.94900 23.50600
H  48.48500 32.82200 22.19300
H  47.38400 31.46500 22.36900
H  49.94700 31.68200 23.40600
H  48.71700 30.46900 23.72200
H  48.89700 31.71200 24.88200
H  45.18600 29.14400 25.73700
H  43.50900 29.30000 26.35600
H  44.68700 28.37400 27.15000
H  43.29000 32.15100 30.88400
H  43.56200 29.83200 34.62000
H  42.31800 31.09500 34.89000
H  44.03000 31.50800 34.99900

