158

Mg 25.23600 1.33900 29.96700
C  27.62700 1.37900 32.59600
C  22.73500 1.62700 32.30900
C  23.08800 1.30100 27.41200
C  27.87800 0.63000 27.83500
N  25.18300 1.60000 32.15500
C  26.30000 1.53500 33.10800
C  25.76600 1.90200 34.53300
C  24.20800 2.04700 34.39300
C  23.98500 1.68900 32.85300
C  23.36500 1.06700 35.34400
C  26.42600 3.20900 35.07000
C  27.41900 3.04100 36.29400
H  27.16000 4.03000 37.38900
N  23.14900 1.38100 29.85300
C  22.32600 1.43500 30.93300
C  20.94400 1.49000 30.39200
C  21.04400 1.44700 28.96200
C  22.46700 1.34700 28.68700
C  19.65700 1.58200 31.20800
C  19.90800 1.28800 27.98000
O  20.04600 1.12100 26.78800
C  18.53100 1.46900 28.50300
N  25.41900 0.86900 27.97900
C  24.41700 1.03700 27.06400
C  24.94400 1.05700 25.65000
C  26.44700 0.87600 25.75600
C  26.61600 0.76900 27.25900
C  24.26700 -0.08700 24.76700
C  27.29600 1.91600 24.98600
C  27.42900 3.33200 25.74100
N  27.31900 0.94000 30.14000
C  28.21400 0.62300 29.19500
C  29.48200 0.36600 29.78200
C  29.35100 0.70800 31.13000
C  27.97200 1.08800 31.28700
C  30.74900 0.18300 28.95800
C  30.02900 0.79000 32.38700
O  31.19400 0.58400 32.70100
C  28.94800 1.23600 33.38800
C  28.89000 0.16600 34.44500
O  28.20000 -0.78600 34.39000
O  29.67900 0.56200 35.51100
C  29.60600 -0.26500 36.73800
H  21.93400 1.70100 33.04700
H  22.38100 1.46700 26.59700
H  28.72300 0.57300 27.14600
H  26.12300 1.13400 35.21900
H  23.78000 3.04500 34.48200
H  22.67400 1.55200 36.03400
H  24.04300 0.59800 36.05700
H  22.87000 0.31700 34.72700
H  25.71000 4.01100 35.24500
H  27.05500 3.65000 34.29700
H  28.43100 3.21900 35.92900
H  27.44400 2.04400 36.73200
H  20.00700 1.64300 32.23900
H  19.02900 0.69200 31.17100
H  19.03500 2.45800 31.02600
H  18.22600 0.68800 29.19900
H  17.78800 1.32300 27.71800
H  18.55300 2.49000 28.88500
H  24.70000 2.05000 25.27300
H  26.76000 -0.09700 25.37700
H  23.38700 -0.42600 25.31500
H  25.02500 -0.80600 24.46000
H  24.01600 0.39600 23.82300
H  26.75500 2.01300 24.04500
H  28.27700 1.51900 24.72300
H  28.46800 3.66000 25.76100
H  27.10100 3.25300 26.77800
H  26.77800 3.94500 25.11700
H  31.68300 0.38500 29.48100
H  30.56600 0.87000 28.13200
H  30.88900 -0.84300 28.61900
H  29.18000 2.17200 33.89800
H  29.67100 -1.33700 36.55400
H  28.58100 -0.10700 37.07500
H  30.28600 0.09400 37.51000
Mg -11.03300 38.85600 41.12600
C  -9.23800 35.93400 40.50200
C  -8.37900 40.64000 39.72500
C  -12.98700 41.57100 41.23800
C  -13.82000 36.87000 42.14900
N  -9.08200 38.36600 40.01300
C  -8.53500 37.10300 39.96500
C  -7.24800 37.09200 39.17700
C  -6.81800 38.61600 39.23700
C  -8.16100 39.25100 39.71900
C  -5.58900 39.00300 40.18700
C  -7.34600 36.36900 37.84000
C  -6.34800 35.14400 37.66800
H  -5.09300 35.58000 36.86200
N  -10.71300 40.93200 40.60600
C  -9.51400 41.41600 40.05600
C  -9.71500 42.85400 39.90100
C  -11.07100 43.14000 40.25400
C  -11.71100 41.85100 40.68900
C  -8.70600 43.82400 39.27800
C  -11.79400 44.57200 40.08600
O  -11.19600 45.53700 39.65800
C  -13.17500 44.78100 40.41800
N  -13.14800 39.20400 41.56500
C  -13.64500 40.45400 41.63800
C  -15.20600 40.46400 41.82000
C  -15.48200 38.93500 41.99900
C  -14.10500 38.26200 41.85800
C  -15.69500 41.40300 42.98800
C  -16.47900 38.52400 40.90000
C  -17.06100 37.10200 40.95600
N  -11.42600 36.85900 41.42900
C  -12.55200 36.21300 41.92800
C  -12.24700 34.84100 42.00800
C  -10.97700 34.70400 41.41000
C  -10.51900 35.96700 41.08000
C  -13.17300 33.79200 42.38800
C  -9.91000 33.76700 41.03200
O  -9.89600 32.55200 41.02900
C  -8.78100 34.58000 40.32600
C  -7.53600 34.24300 41.06200
O  -7.11300 33.12500 41.03300
O  -7.05300 35.17200 41.87100
C  -5.93200 34.83300 42.70600
H  -7.66400 41.34800 39.30100
H  -13.55800 42.48400 41.41900
H  -14.65800 36.24300 42.46000
H  -6.43900 36.57600 39.69400
H  -6.53800 38.81800 38.20300
H  -4.96000 39.82300 39.84000
H  -5.09700 38.06700 40.44900
H  -5.98400 39.44100 41.10400
H  -7.07900 37.10900 37.08600
H  -8.36300 36.07900 37.57600
H  -6.82400 34.40400 37.02500
H  -6.00700 34.71200 38.60900
H  -9.14600 44.21100 38.35900
H  -7.85500 43.16900 39.09200
H  -8.56500 44.63800 39.99000
H  -13.38500 44.63800 41.47800
H  -13.56700 43.92300 39.87100
H  -13.72700 45.64700 40.05200
H  -15.64500 40.77300 40.87100
H  -15.94700 38.82400 42.97800
H  -16.64100 41.89900 42.76900
H  -15.02700 42.23700 43.20100
H  -15.90000 40.81400 43.88300
H  -16.09200 38.38700 39.89000
H  -17.41600 39.07900 40.84700
H  -18.14300 37.18200 41.06500
H  -16.53800 36.50500 41.70300
H  -16.73400 36.63100 40.02900
H  -13.23800 33.73500 43.47500
H  -12.80400 32.84400 41.99700
H  -14.15300 34.13700 42.05800
H  -8.62600 34.27200 39.29200
H  -5.63400 33.78500 42.65200
H  -6.23000 35.03800 43.73400
H  -5.13100 35.56900 42.63600

