158

Mg -0.71700 17.40400 27.48100
C  -1.74200 15.18300 29.97600
C  -1.83000 20.01600 29.43000
C  -0.46600 19.39600 24.77300
C  -0.20700 14.64200 25.35000
N  -1.71900 17.60100 29.53000
C  -1.83100 16.50500 30.44100
C  -2.26700 17.01000 31.82100
C  -2.52800 18.59500 31.56100
C  -1.94600 18.77700 30.12200
C  -3.94500 19.07700 31.91300
C  -1.22600 16.67300 32.91800
C  -1.14800 17.63800 34.19200
H  0.02000 17.39000 35.21700
N  -1.07800 19.45000 27.17100
C  -1.49900 20.37500 28.09300
C  -1.62100 21.73900 27.44200
C  -1.25100 21.49300 26.10700
C  -0.83400 20.10800 25.96400
C  -2.09900 23.01300 28.15000
C  -1.18400 22.53000 25.05900
O  -0.74500 22.26100 23.95000
C  -1.80800 23.82100 25.24900
N  -0.38700 17.03400 25.35400
C  -0.20300 18.06200 24.53900
C  -0.01700 17.57000 23.07000
C  0.41400 16.06500 23.35800
C  -0.05600 15.89100 24.77200
C  -1.26700 17.59600 22.17400
C  1.99300 15.81900 23.18200
C  2.97800 16.53000 24.13300
N  -0.97500 15.34800 27.58000
C  -0.61300 14.32100 26.66600
C  -0.85500 13.05900 27.26300
C  -1.20700 13.30600 28.55800
C  -1.40000 14.73600 28.69400
C  -0.58300 11.75100 26.57100
C  -1.52200 12.74000 29.77800
O  -1.58200 11.53800 30.04600
C  -1.89600 13.88100 30.80900
C  -0.93700 13.74900 31.82300
O  0.24300 14.13500 31.83700
O  -1.58000 13.21000 32.94300
C  -0.81900 12.86100 34.15700
H  -2.18700 20.92300 29.92200
H  -0.56600 19.99700 23.86600
H  0.01400 13.79300 24.70000
H  -3.20100 16.49100 32.03900
H  -1.96500 19.17300 32.29300
H  -4.25200 19.87900 31.24100
H  -4.09100 19.41300 32.94000
H  -4.65400 18.27000 31.73100
H  -0.24100 16.46200 32.50100
H  -1.47800 15.79400 33.51200
H  -2.14200 17.69300 34.63700
H  -0.86100 18.59500 33.75600
H  -1.59400 23.94800 27.90500
H  -1.83900 22.87200 29.20000
H  -3.18000 23.08400 28.02900
H  -1.85900 24.19500 24.22700
H  -1.06100 24.34200 25.84800
H  -2.78400 23.80200 25.73200
H  0.78100 18.15700 22.61600
H  0.01500 15.36500 22.62500
H  -1.96100 16.77300 22.34500
H  -0.93700 17.42000 21.15000
H  -1.70500 18.56200 22.42500
H  2.19400 16.06300 22.13900
H  2.12100 14.74000 23.25700
H  2.63100 17.34600 24.76700
H  3.80800 16.93800 23.55600
H  3.38100 15.79300 24.82800
H  -0.05200 11.81900 25.62100
H  -1.53200 11.23300 26.43400
H  -0.04800 11.10700 27.26900
H  -2.89900 13.59800 31.12800
H  -0.98200 13.58900 34.95200
H  0.25000 12.84400 33.94700
H  -1.15100 11.86300 34.44300
Mg 9.41200 3.35200 27.83500
C  10.42200 1.57500 30.68600
C  7.45200 5.35600 29.89400
C  8.77100 5.26300 25.18200
C  11.23400 1.08100 25.82400
N  8.92800 3.39600 30.06000
C  9.58100 2.69100 31.05900
C  9.36800 3.21000 32.40800
C  8.28300 4.35100 32.13000
C  8.25300 4.43900 30.59500
C  6.80800 4.26800 32.75200
C  10.66300 3.75100 33.13900
C  10.35100 4.38700 34.49900
H  11.24300 4.10400 35.74700
N  8.26400 5.07400 27.56200
C  7.43400 5.68500 28.53600
C  6.75400 6.79700 27.90100
C  7.16500 6.81000 26.55400
C  7.99100 5.59000 26.33900
C  5.66000 7.60100 28.69300
C  6.83200 7.81500 25.42800
O  7.07700 7.62700 24.24200
C  6.18100 9.11100 25.82300
N  10.00400 3.22900 25.83600
C  9.59200 4.15300 24.86800
C  10.31100 3.88700 23.50500
C  10.85300 2.38400 23.73400
C  10.67100 2.20700 25.22100
C  9.42800 3.99100 22.22300
C  12.34600 2.15700 23.27600
C  12.50000 0.84300 22.50100
N  10.52800 1.68200 28.10000
C  11.19800 0.83700 27.25700
C  11.78000 -0.21700 27.95700
C  11.55900 0.07300 29.31600
C  10.68300 1.17600 29.36700
C  12.52900 -1.37300 27.38800
C  11.84400 -0.44800 30.61200
O  12.39200 -1.44700 30.99500
C  11.15300 0.65400 31.62500
C  10.26300 -0.02200 32.57100
O  9.27900 -0.71900 32.36800
O  10.66100 0.37500 33.82300
C  9.97300 -0.28200 34.95300
H  6.96100 6.16400 30.44200
H  8.66700 5.97200 24.35700
H  11.67900 0.28400 25.22500
H  8.87600 2.52800 33.10100
H  8.63500 5.27500 32.58800
H  6.45300 5.19200 33.20900
H  6.77100 3.43100 33.44900
H  6.09500 3.98100 31.97900
H  11.26400 4.40700 32.50900
H  11.25600 2.87300 33.39200
H  9.35700 4.21900 34.91500
H  10.43900 5.46400 34.35700
H  4.79000 7.66200 28.04000
H  6.00400 8.61000 28.92100
H  5.28000 7.18700 29.62700
H  6.11500 9.77700 24.96300
H  6.82100 9.68600 26.49200
H  5.18200 8.99100 26.24300
H  11.18300 4.53700 23.44000
H  10.17600 1.66500 23.27200
H  9.33800 4.97500 21.76400
H  8.44100 3.87600 22.67100
H  9.66900 3.13900 21.58700
H  13.03200 2.19000 24.12300
H  12.55300 2.96900 22.57800
H  13.26300 0.94600 21.73000
H  11.55400 0.52400 22.06200
H  12.81300 0.14400 23.27700
H  11.82600 -2.00100 26.84100
H  13.05000 -1.89500 28.19000
H  13.28000 -0.94000 26.72700
H  11.88300 1.24000 32.18400
H  9.49400 -1.17800 34.55800
H  9.36300 0.42400 35.51500
H  10.76500 -0.60900 35.62700

