158

Mg -13.18800 38.46100 41.51000
C  -11.05600 35.77100 40.51400
C  -11.11700 40.58500 39.99500
C  -15.59800 40.76700 41.91000
C  -15.60900 35.94400 42.54900
N  -11.31000 38.28300 40.42000
C  -10.64900 37.04600 40.07600
C  -9.35600 37.33800 39.28500
C  -9.48900 38.87600 39.14200
C  -10.69700 39.28000 39.94500
C  -8.21500 39.71600 39.43200
C  -9.12900 36.48800 38.00000
C  -7.66600 35.92300 37.80100
H  -6.67900 36.73800 36.99700
N  -13.29200 40.45500 41.08800
C  -12.33300 41.14600 40.43300
C  -12.78600 42.49300 40.27000
C  -14.17900 42.55200 40.66200
C  -14.44700 41.21200 41.22600
C  -11.97700 43.57800 39.59300
C  -15.16600 43.66100 40.40900
O  -14.74700 44.75300 39.98000
C  -16.56200 43.42300 40.55100
N  -15.33900 38.34400 42.18600
C  -16.10800 39.46900 42.23800
C  -17.57800 39.21400 42.64200
C  -17.51300 37.65800 42.93100
C  -16.06000 37.25500 42.55000
C  -18.09900 40.07700 43.84000
C  -18.71300 36.93600 42.33200
C  -18.56600 36.60500 40.82900
N  -13.30200 36.36100 41.65900
C  -14.30100 35.53300 42.17100
C  -13.82200 34.16000 42.13300
C  -12.51700 34.25400 41.66800
C  -12.28300 35.60200 41.25800
C  -14.53200 32.88600 42.70700
C  -11.39600 33.44300 41.28500
O  -11.39700 32.15300 41.21100
C  -10.40200 34.39000 40.59300
C  -9.17500 34.42000 41.47900
O  -9.05400 35.00500 42.53800
O  -8.10900 33.72200 40.84600
C  -6.88200 33.52100 41.66000
H  -10.44200 41.30100 39.52100
H  -16.45400 41.44000 42.00000
H  -16.26800 35.13300 42.86500
H  -8.58500 37.17900 40.03900
H  -9.89900 38.99400 38.13900
H  -7.93000 40.31000 38.56400
H  -7.39000 39.02000 39.58100
H  -8.35900 40.38800 40.27800
H  -9.45200 37.11900 37.17200
H  -9.84200 35.66500 37.94600
H  -7.67800 34.93500 37.34200
H  -7.20400 35.75400 38.77400
H  -11.83900 44.36800 40.33200
H  -12.32800 44.03600 38.66800
H  -11.00900 43.16000 39.31700
H  -16.83100 42.48200 40.07300
H  -17.15300 44.13900 39.98000
H  -16.81900 43.51300 41.60700
H  -18.15500 39.41900 41.74000
H  -17.47800 37.52500 44.01300
H  -18.43100 39.51200 44.71100
H  -18.95100 40.67100 43.50900
H  -17.33600 40.82100 44.06900
H  -19.65500 37.44300 42.53900
H  -18.77900 35.98700 42.86300
H  -19.52700 36.79300 40.35100
H  -18.25000 35.56700 40.72800
H  -17.68100 37.16400 40.52600
H  -14.28700 31.99600 42.12800
H  -15.59300 33.12000 42.80400
H  -14.08700 32.78900 43.69700
H  -10.06900 34.09300 39.59800
H  -6.00900 33.63200 41.01700
H  -6.79700 32.60000 42.23700
H  -6.73200 34.41600 42.26500
Mg -3.24600 35.68500 26.53800
C  -5.08800 33.83400 28.91200
C  -1.99800 37.59300 29.12800
C  -1.80400 37.67200 24.16600
C  -5.02100 33.97000 23.95200
N  -3.45600 35.58800 28.77900
C  -4.30700 34.80900 29.55500
C  -4.21600 35.12400 31.00000
C  -3.25200 36.38300 31.05700
C  -2.84700 36.54900 29.60000
C  -3.73800 37.67700 31.76900
C  -3.54400 33.87500 31.86500
C  -4.18300 33.47200 33.22000
H  -3.33100 33.22500 34.42400
N  -2.03600 37.34300 26.65900
C  -1.56500 37.94200 27.83000
C  -0.59400 39.00100 27.42000
C  -0.60000 39.06400 26.06200
C  -1.52900 38.02600 25.53700
C  0.23700 39.73800 28.40200
C  0.26400 39.89200 25.18900
O  0.26700 39.81400 24.00500
C  1.17900 41.02800 25.67000
N  -3.51400 35.84700 24.38900
C  -2.73700 36.75600 23.70300
C  -3.02200 36.57800 22.21800
C  -3.97300 35.30700 22.12000
C  -4.13800 34.98800 23.55400
C  -3.57200 37.82800 21.54000
C  -3.39900 34.20200 21.29300
C  -2.30800 33.30400 21.90400
N  -4.71100 34.12700 26.39600
C  -5.30000 33.54000 25.26700
C  -6.19500 32.49100 25.73900
C  -6.03800 32.52700 27.20000
C  -5.21800 33.56600 27.50800
C  -6.96600 31.50400 24.90100
C  -6.47000 31.99600 28.41700
O  -7.15400 30.97900 28.54000
C  -5.89900 32.78000 29.58100
C  -6.93900 33.41100 30.41200
O  -7.56200 34.35500 30.06400
O  -7.08600 32.71300 31.65000
C  -8.03600 33.34600 32.52300
H  -1.66000 38.27500 29.91100
H  -1.21500 38.21700 23.42500
H  -5.61500 33.50000 23.16500
H  -5.20600 35.43900 31.32800
H  -2.33300 36.14500 31.59400
H  -3.28100 37.85100 32.74400
H  -4.80300 37.54800 31.95900
H  -3.45400 38.57900 31.22600
H  -2.49400 34.13700 31.99400
H  -3.42100 33.00900 31.21500
H  -4.84800 32.63900 32.99400
H  -4.81100 34.31100 33.51800
H  1.31500 39.67700 28.25100
H  -0.09100 39.32100 29.35500
H  -0.06700 40.78400 28.36900
H  0.63400 41.80200 26.21100
H  1.81200 41.41300 24.87200
H  1.85300 40.62200 26.42500
H  -2.17800 36.34400 21.56900
H  -4.97400 35.52600 21.74900
H  -2.80200 38.27300 20.90900
H  -3.86300 38.57200 22.28200
H  -4.41800 37.64000 20.87900
H  -2.97200 34.57600 20.36300
H  -4.24700 33.56700 21.03500
H  -1.99400 33.77500 22.83500
H  -1.52600 33.01000 21.20300
H  -2.60500 32.34500 22.32800
H  -7.62100 30.83700 25.46000
H  -6.27200 30.81400 24.42200
H  -7.54700 31.91000 24.07300
H  -5.36100 32.04200 30.17600
H  -8.83500 33.74100 31.89700
H  -7.51500 34.05000 33.17100
H  -8.54300 32.57100 33.09800

