158

Mg 17.13300 -1.70200 27.58500
C  15.86000 0.20100 30.17700
C  19.36500 -3.19500 29.71700
C  18.21300 -3.52300 24.91500
C  15.10800 0.09000 25.41200
N  17.54000 -1.49400 29.72000
C  16.93900 -0.63200 30.59700
C  17.44100 -0.92300 31.97600
C  18.62200 -1.89900 31.76200
C  18.60100 -2.19500 30.30200
C  20.02800 -1.36300 32.07600
C  16.27200 -1.52200 32.90100
C  16.11500 -0.97500 34.37500
H  17.40300 -0.23100 34.88400
N  18.54200 -3.21400 27.36700
C  19.31300 -3.74900 28.41700
C  20.01500 -4.91900 27.87400
C  19.83000 -4.85700 26.45400
C  18.82300 -3.83000 26.17800
C  20.92700 -5.68800 28.79100
C  20.43300 -5.75000 25.39700
O  20.16000 -5.76200 24.17400
C  21.55200 -6.70900 25.76100
N  16.79700 -1.69200 25.41800
C  17.29800 -2.55400 24.52700
C  16.94400 -2.16400 23.08900
C  15.81500 -1.09000 23.29300
C  15.87800 -0.85300 24.79500
C  18.17200 -1.66700 22.28200
C  14.43600 -1.56700 22.75300
C  13.70300 -2.53300 23.70900
N  15.64000 -0.28100 27.74200
C  14.85400 0.32500 26.74200
C  13.99100 1.33600 27.38100
C  14.35500 1.28400 28.73000
C  15.34100 0.34500 28.89000
C  13.07300 2.28400 26.71000
C  14.03900 1.85900 30.03300
O  13.26000 2.70800 30.43700
C  14.92000 1.10300 31.08400
C  15.58800 2.00700 32.06500
O  16.73600 2.39900 32.07400
O  14.61300 2.55500 32.82300
C  15.00900 3.45600 33.93200
H  20.09900 -3.75100 30.30300
H  18.54200 -4.07600 24.03300
H  14.45600 0.53700 24.65900
H  17.86300 -0.02600 32.43000
H  18.46400 -2.85100 32.26900
H  19.95600 -0.32700 32.40900
H  20.60000 -1.39500 31.14900
H  20.41000 -2.04300 32.83800
H  16.33700 -2.60900 32.87600
H  15.34800 -1.34900 32.34900
H  15.85200 -1.74800 35.09700
H  15.28400 -0.27400 34.28900
H  21.93000 -5.27100 28.69400
H  20.91700 -6.75800 28.58500
H  20.70700 -5.52800 29.84700
H  21.03500 -7.64900 25.95100
H  22.18800 -6.50700 26.62300
H  22.21300 -6.71900 24.89400
H  16.51300 -3.05700 22.63500
H  16.05600 -0.18600 22.73500
H  18.08000 -0.66700 21.85700
H  18.41500 -2.46600 21.58100
H  19.05800 -1.59300 22.91200
H  14.53600 -2.12800 21.82400
H  13.78000 -0.72900 22.51600
H  13.21700 -1.92500 24.47200
H  14.40300 -3.22500 24.17800
H  12.90900 -2.93300 23.08000
H  12.44100 2.77100 27.45300
H  12.45600 1.70600 26.02100
H  13.74200 2.97700 26.20100
H  14.25200 0.43600 31.62900
H  14.25300 3.34200 34.70800
H  15.04600 4.49700 33.61100
H  15.98700 3.28200 34.37800
Mg 2.35800 41.67300 25.42400
C  4.59300 41.75400 28.12000
C  -0.07000 40.74100 27.68000
C  0.31500 41.13500 22.78700
C  4.92700 42.35400 23.21500
N  2.23600 41.38500 27.72600
C  3.26100 41.56700 28.61900
C  2.79700 41.53500 30.08800
C  1.28300 40.99200 29.96200
C  1.11400 40.97700 28.33600
C  1.17900 39.55000 30.64500
C  2.79900 42.95500 30.68400
C  2.31300 43.25900 32.17700
H  2.26500 42.15500 33.22500
N  0.42900 41.07500 25.28900
C  -0.39200 40.74500 26.36300
C  -1.63600 40.34400 25.80000
C  -1.55500 40.35600 24.38800
C  -0.22400 40.93100 24.08800
C  -2.70800 39.78700 26.71600
C  -2.58200 40.01400 23.34900
O  -2.41700 40.32300 22.14600
C  -3.93300 39.34500 23.69200
N  2.51100 41.82400 23.29200
C  1.55300 41.71700 22.46900
C  2.01500 42.03700 21.03200
C  3.47600 42.55500 21.21500
C  3.67700 42.30500 22.66700
C  1.82700 40.91100 19.97300
C  3.76200 44.09100 20.80500
C  4.04100 44.37100 19.32800
N  4.32800 41.97800 25.54300
C  5.24600 42.30500 24.61100
C  6.55300 42.40000 25.18600
C  6.35100 42.09400 26.50500
C  4.95500 41.86100 26.72600
C  7.76400 42.93500 24.48100
C  7.00300 42.00100 27.79700
O  8.22500 41.97100 28.07700
C  5.86400 41.91200 28.94800
C  6.10000 40.83900 29.94000
O  5.79900 39.66200 29.80500
O  6.43600 41.31000 31.16600
C  6.34700 40.56400 32.42900
H  -0.85900 40.53300 28.40500
H  -0.30500 40.92600 21.91300
H  5.72400 42.72200 22.56500
H  3.45600 40.86600 30.64200
H  0.55700 41.69200 30.37800
H  0.81000 38.83600 29.91000
H  0.40900 39.57400 31.41700
H  2.11200 39.17200 31.06300
H  2.15400 43.60700 30.09600
H  3.78600 43.39700 30.55100
H  1.36800 43.80100 32.13100
H  3.04500 44.00900 32.47900
H  -2.23500 39.17500 27.48500
H  -3.50500 39.20900 26.24800
H  -3.11700 40.70400 27.14000
H  -4.38600 39.20100 22.71100
H  -4.43900 40.02000 24.38300
H  -3.57100 38.42200 24.14400
H  1.45000 42.91600 20.72400
H  4.18900 41.94100 20.66400
H  2.79400 40.74700 19.49800
H  1.06500 41.13100 19.22500
H  1.43900 40.01300 20.45500
H  4.66800 44.42300 21.31300
H  3.01400 44.71600 21.29200
H  4.03800 43.44200 18.75800
H  5.08500 44.67000 19.24400
H  3.37700 45.13000 18.91200
H  8.60100 42.29500 24.75900
H  7.95700 43.90900 24.93200
H  7.85700 42.96200 23.39500
H  5.92200 42.84500 29.50900
H  5.63800 39.74200 32.32400
H  5.95400 41.14600 33.26300
H  7.33900 40.18600 32.67200

