158

Mg -3.35600 16.77800 27.36000
C  -3.12400 14.72100 30.32300
C  -3.32100 19.63100 29.34100
C  -3.49600 18.53700 24.66100
C  -3.44800 13.84500 25.52400
N  -3.23700 17.09600 29.55900
C  -3.11000 16.12700 30.57600
C  -3.12000 16.76400 31.94900
C  -3.28600 18.24300 31.56600
C  -3.20800 18.39600 30.05000
C  -4.59500 18.83500 32.18200
C  -1.87400 16.41300 32.81100
C  -1.51900 17.31800 34.07300
H  -0.84000 16.72000 35.29300
N  -3.36500 18.77300 27.00700
C  -3.35200 19.77800 27.95900
C  -3.23400 21.01200 27.34600
C  -3.31200 20.78900 25.92700
C  -3.45300 19.30400 25.79700
C  -3.18500 22.31800 28.06500
C  -3.09500 21.78400 24.64600
O  -3.15300 21.43400 23.48000
C  -2.57500 23.20000 24.93200
N  -3.41800 16.23000 25.33500
C  -3.48700 17.16500 24.37400
C  -3.43800 16.51400 22.96300
C  -3.28700 15.02500 23.29000
C  -3.40400 15.03900 24.78500
C  -4.68800 16.79800 22.05000
C  -1.96500 14.36700 22.84300
C  -1.88700 13.94300 21.39500
N  -3.43200 14.74600 27.76100
C  -3.40500 13.68300 26.89700
C  -3.36200 12.39200 27.59200
C  -3.23700 12.79600 28.93200
C  -3.32500 14.22300 28.98800
C  -3.43900 11.02700 27.06400
C  -3.23500 12.28500 30.28500
O  -3.12700 11.13400 30.74800
C  -3.02900 13.56600 31.25600
C  -1.66200 13.36400 31.80000
O  -0.72100 13.94600 31.34200
O  -1.68700 12.69900 32.97600
C  -0.43200 12.63800 33.73000
H  -3.38400 20.41600 30.09800
H  -3.50000 19.12400 23.74000
H  -3.49700 12.97900 24.86000
H  -4.02200 16.43600 32.46500
H  -2.49700 18.82200 32.04500
H  -4.58400 19.92400 32.13200
H  -4.53500 18.69100 33.26100
H  -5.44900 18.35900 31.70100
H  -1.01800 16.35600 32.13800
H  -1.93300 15.39600 33.19800
H  -2.45000 17.79300 34.38400
H  -0.86200 18.11900 33.73400
H  -2.23300 22.82700 27.91000
H  -3.33500 22.22500 29.14100
H  -3.93900 23.01400 27.69700
H  -1.67600 23.06900 25.53400
H  -3.26400 23.82900 25.49500
H  -2.36700 23.74400 24.01000
H  -2.56400 16.95300 22.48100
H  -4.16500 14.51600 22.89100
H  -5.34300 17.54300 22.50100
H  -5.37700 16.02500 21.70900
H  -4.31600 17.30600 21.16000
H  -1.73300 13.46200 23.40400
H  -1.16500 15.09600 22.97800
H  -2.76700 14.35800 20.90100
H  -1.86800 12.85700 21.30300
H  -0.98300 14.33500 20.93000
H  -4.45400 10.66000 27.21900
H  -2.67900 10.49900 27.63900
H  -3.05900 10.90200 26.05000
H  -3.77100 13.42600 32.04300
H  -0.31400 13.46100 34.43400
H  0.47900 12.48900 33.14900
H  -0.57900 11.68600 34.23900
Mg -10.95400 37.25100 42.63400
C  -8.93800 34.97600 41.57300
C  -8.82000 39.76800 41.23100
C  -13.45100 39.52100 42.83400
C  -13.24100 34.73400 43.64800
N  -9.25600 37.40100 41.39000
C  -8.57400 36.22900 41.14200
C  -7.26600 36.52000 40.29400
C  -7.07100 38.10600 40.57200
C  -8.46100 38.45700 41.07400
C  -5.96500 38.56000 41.54400
C  -7.59400 36.01000 38.82000
C  -6.54500 35.34500 37.99100
H  -6.08300 36.10700 36.75300
N  -11.04000 39.36800 42.31100
C  -10.08400 40.19300 41.67300
C  -10.59300 41.52000 41.69400
C  -11.88300 41.52800 42.27200
C  -12.22500 40.12100 42.55700
C  -9.70600 42.65900 41.15900
C  -12.85300 42.74300 42.60900
O  -12.61200 43.82900 42.08900
C  -14.10300 42.55500 43.41600
N  -13.12200 37.09600 43.09200
C  -13.90100 38.21200 42.96900
C  -15.37000 37.78900 43.34900
C  -15.25400 36.26300 43.79900
C  -13.81200 35.97300 43.47600
C  -16.00100 38.63600 44.55100
C  -16.31900 35.29900 43.20800
C  -15.86300 34.44900 42.01100
N  -11.11400 35.26800 42.59300
C  -11.97000 34.39800 43.16900
C  -11.35500 33.07400 43.16500
C  -10.16400 33.26800 42.44500
C  -10.07500 34.63700 42.15600
C  -11.91100 31.75600 43.63900
C  -9.00800 32.53100 41.93500
O  -8.76700 31.29400 41.98500
C  -8.18300 33.66300 41.31900
C  -6.91600 33.64900 42.08600
O  -6.83100 33.97500 43.27300
O  -5.94000 33.07200 41.35700
C  -4.77100 32.62000 42.14000
H  -8.04800 40.50500 41.00200
H  -14.25400 40.19600 42.53100
H  -13.88000 33.94400 44.04700
H  -6.45900 35.93100 40.73100
H  -7.03900 38.70600 39.66200
H  -6.36600 39.11100 42.39500
H  -5.36300 39.30200 41.01900
H  -5.53500 37.68300 42.02800
H  -7.98500 36.91700 38.35900
H  -8.44700 35.33700 38.89900
H  -6.85300 34.32800 37.74600
H  -5.65900 35.20900 38.61000
H  -9.70100 42.45400 40.08900
H  -8.71200 42.69700 41.60400
H  -10.14100 43.65500 41.23900
H  -14.44100 43.49300 43.85800
H  -13.90200 41.78700 44.16300
H  -14.87300 42.12300 42.77700
H  -16.02200 37.79500 42.47600
H  -15.26600 36.06200 44.87000
H  -15.22200 39.32600 44.87700
H  -16.38500 37.97500 45.32800
H  -16.81400 39.20000 44.09400
H  -17.14300 36.00100 43.08300
H  -16.50600 34.55200 43.97900
H  -15.43800 33.55700 42.47100
H  -15.18900 34.90600 41.28700
H  -16.73500 34.14600 41.43000
H  -11.15200 30.97400 43.65600
H  -12.72100 31.53800 42.94400
H  -12.36200 31.76000 44.63200
H  -7.96500 33.41100 40.28200
H  -4.45900 31.64300 41.77200
H  -5.11900 32.57600 43.17200
H  -3.97800 33.33400 41.91800

