158

Mg 24.53000 -4.73600 45.24900
C  26.88600 -2.55400 43.82900
C  22.20400 -3.68500 43.12100
C  22.66600 -7.42100 46.16000
C  27.26400 -6.05000 47.27600
N  24.63600 -3.34900 43.58300
C  25.57200 -2.50600 43.27200
C  25.07900 -1.61000 42.07200
C  23.55700 -1.69100 42.33500
C  23.42600 -2.99400 43.01200
C  23.10000 -0.63400 43.36800
C  25.42700 -2.18700 40.63000
C  26.02600 -1.19200 39.58500
H  25.92300 -1.65500 38.07000
N  22.62300 -5.46900 44.76400
C  21.84600 -4.80900 43.90800
C  20.54400 -5.42600 43.83100
C  20.59900 -6.58700 44.68100
C  21.99600 -6.55700 45.29000
C  19.40300 -5.07500 42.88300
C  19.53300 -7.63600 45.00700
O  18.44600 -7.51200 44.43500
C  19.76100 -8.94900 45.77800
N  24.92700 -6.42600 46.51900
C  23.97700 -7.38800 46.70700
C  24.49200 -8.57100 47.49600
C  25.84500 -7.99300 48.11800
C  26.02400 -6.75700 47.23000
C  23.55900 -9.29200 48.51100
C  27.07900 -8.92700 48.20600
C  27.73300 -8.81500 49.64000
N  26.64000 -4.31400 45.61100
C  27.57800 -4.99000 46.40500
C  28.88800 -4.40700 46.10400
C  28.62400 -3.37600 45.12000
C  27.23800 -3.40300 44.86800
C  30.12600 -4.66100 46.86100
C  29.18100 -2.25500 44.34800
O  30.27400 -1.71300 44.40400
C  28.11300 -1.73500 43.38300
C  27.94900 -0.27900 43.65000
O  27.69800 0.20800 44.74900
O  28.16700 0.51900 42.52900
C  27.86400 1.92700 42.64500
H  21.36500 -3.28100 42.55100
H  22.06800 -8.30600 46.38600
H  28.03900 -6.39900 47.96200
H  25.44300 -0.59100 42.20400
H  23.08800 -1.68900 41.35100
H  23.80100 0.18100 43.54800
H  22.89200 -1.10000 44.33100
H  22.20700 -0.18800 42.93200
H  24.61100 -2.78800 40.22800
H  26.23600 -2.88300 40.85000
H  27.09300 -1.12700 39.80000
H  25.46600 -0.28500 39.81300
H  19.62800 -5.68300 42.00700
H  19.29200 -4.05000 42.52800
H  18.45600 -5.46200 43.26100
H  18.84800 -9.52300 45.62200
H  20.12500 -8.74400 46.78500
H  20.50000 -9.57900 45.28600
H  24.76800 -9.21300 46.66000
H  25.52100 -7.45800 49.01000
H  23.97200 -9.03000 49.48500
H  23.63500 -10.35700 48.28900
H  22.51500 -9.00500 48.39000
H  27.80400 -8.76300 47.41000
H  26.80200 -9.96700 48.03100
H  27.81700 -9.79700 50.10600
H  27.28100 -8.11300 50.34100
H  28.76800 -8.48500 49.54800
H  30.96500 -4.23300 46.31300
H  30.14700 -5.71100 47.15200
H  30.10300 -4.14000 47.81800
H  28.37900 -2.00800 42.36100
H  27.05100 2.13100 43.34200
H  27.87300 2.43300 41.68000
H  28.70100 2.38600 43.17200
Mg 10.33100 47.45500 25.65800
C  8.30700 47.65000 28.58100
C  12.79600 48.96700 27.61500
C  12.23400 47.61200 23.00300
C  7.51500 46.68200 23.86000
N  10.46600 48.20900 27.88500
C  9.58900 48.05500 28.92900
C  10.13600 48.59200 30.25100
C  11.44000 49.32400 29.75000
C  11.60900 48.82000 28.33500
C  11.47100 50.88000 29.90300
C  10.40900 47.47800 31.32200
C  9.60700 47.57700 32.61300
H  9.81100 46.39100 33.58100
N  12.23000 48.14700 25.29800
C  13.10400 48.68700 26.24900
C  14.44600 48.79700 25.68400
C  14.30100 48.39800 24.32500
C  12.87100 48.13500 24.12000
C  15.62800 49.28900 26.53100
C  15.34500 48.17900 23.23300
O  15.00300 47.74600 22.11100
C  16.77900 48.59000 23.57300
N  9.89000 47.19000 23.61200
C  10.89600 47.20200 22.75100
C  10.42500 46.56700 21.40300
C  9.01100 46.13800 21.73900
C  8.74600 46.64900 23.13900
C  10.59300 47.62000 20.22700
C  8.79700 44.67500 21.49700
C  9.40800 43.70200 22.47500
N  8.31700 47.16200 26.07700
C  7.26200 46.92000 25.26700
C  6.02100 46.73300 25.99100
C  6.38600 46.86500 27.26400
C  7.75500 47.28000 27.26200
C  4.60300 46.52300 25.38800
C  5.95200 46.84100 28.63900
O  4.88300 46.54900 29.11000
C  7.12900 47.30400 29.54100
C  7.39400 46.09700 30.39000
O  8.25700 45.32900 30.22800
O  6.50200 46.22100 31.46000
C  6.48000 45.20100 32.41000
H  13.57300 49.43300 28.22500
H  12.74000 47.42600 22.05400
H  6.59600 46.29900 23.41000
H  9.50500 49.38100 30.66000
H  12.32000 48.97300 30.28900
H  10.64600 51.26700 30.50200
H  11.41200 51.34800 28.92000
H  12.38900 51.27100 30.34300
H  11.48500 47.54000 31.48500
H  10.22600 46.49100 30.89800
H  8.57600 47.83600 32.37300
H  9.95400 48.46200 33.14700
H  16.13100 50.08800 25.98600
H  16.37800 48.58900 26.89800
H  15.38400 49.77000 27.47800
H  17.01600 48.13100 24.53300
H  16.83100 49.66500 23.74700
H  17.35700 48.15900 22.75500
H  11.17000 45.78500 21.25300
H  8.44200 46.68300 20.98600
H  9.67000 47.76800 19.66700
H  11.17400 47.21800 19.39700
H  11.10200 48.52800 20.55000
H  9.07600 44.41300 20.47600
H  7.74200 44.42000 21.59900
H  9.88800 44.17300 23.33300
H  10.04500 43.09400 21.83300
H  8.57900 43.07400 22.80100
H  4.49600 47.08200 24.45800
H  3.95000 46.93400 26.15700
H  4.43900 45.44800 25.31000
H  6.95000 48.15500 30.19700
H  5.61200 44.54300 32.40800
H  6.66000 45.43400 33.45900
H  7.24000 44.44200 32.22100

