158

Mg 26.18100 1.03300 29.73100
C  28.31200 0.61800 32.55500
C  23.66900 1.60400 32.01400
C  24.09700 0.90800 27.20300
C  28.82800 -0.01100 27.76300
N  26.02700 1.08000 32.05400
C  27.02900 0.90200 32.95700
C  26.54900 1.30500 34.41700
C  25.02000 1.22700 34.17600
C  24.87200 1.38300 32.70100
C  24.28400 0.01200 34.71100
C  27.13800 2.69400 34.91100
C  27.99400 2.76400 36.20500
H  27.40200 3.42500 37.45200
N  24.21500 1.43500 29.57600
C  23.34500 1.59900 30.59200
C  21.97800 1.68000 30.06800
C  22.07500 1.50700 28.69800
C  23.53400 1.30800 28.46900
C  20.73800 1.83800 30.85600
C  20.98500 1.40000 27.70900
O  21.20200 1.28200 26.52400
C  19.59800 1.46400 28.05700
N  26.50900 0.64200 27.77600
C  25.46800 0.67600 26.84700
C  26.05400 0.68900 25.39000
C  27.56600 0.61800 25.62900
C  27.64800 0.45700 27.15400
C  25.38800 -0.37900 24.44500
C  28.40500 1.78600 25.08300
C  29.25100 1.41100 23.94300
N  28.14900 0.33000 30.05300
C  29.06700 -0.05900 29.11800
C  30.34300 -0.32600 29.82200
C  30.09200 -0.08800 31.19400
C  28.74100 0.32100 31.26400
C  31.59800 -0.79000 29.15700
C  30.60300 0.01200 32.57200
O  31.71900 -0.22600 33.05100
C  29.44400 0.46900 33.48000
C  29.33100 -0.69600 34.37500
O  28.63700 -1.68600 34.19800
O  29.99500 -0.48200 35.52200
C  29.79800 -1.31800 36.68900
H  22.83200 1.93500 32.63200
H  23.44300 0.92300 26.33000
H  29.65500 -0.36500 27.14400
H  26.99100 0.60500 35.12600
H  24.50700 2.08100 34.61800
H  25.02000 -0.66400 35.14800
H  23.81800 -0.52400 33.88400
H  23.54300 0.32000 35.44900
H  26.37800 3.45000 35.10900
H  27.66200 3.11700 34.05400
H  28.93800 3.19900 35.87900
H  28.20000 1.75400 36.55900
H  20.17600 2.70400 30.50500
H  20.94400 2.14800 31.88100
H  20.14800 0.92200 30.84800
H  19.43100 0.62600 28.73300
H  19.01300 1.41000 27.13900
H  19.30900 2.42100 28.49100
H  25.87300 1.61600 24.84500
H  27.90000 -0.29100 25.13000
H  24.53300 -0.78600 24.98400
H  25.93400 -1.30700 24.27800
H  24.92500 0.07600 23.56900
H  29.03600 2.18400 25.87800
H  27.87800 2.64900 24.67400
H  29.15300 2.15800 23.15500
H  28.93100 0.46500 23.50600
H  30.26100 1.29100 24.33400
H  32.39800 -1.06300 29.84600
H  31.89600 0.09800 28.60100
H  31.46100 -1.60900 28.45100
H  29.68400 1.37300 34.04000
H  29.88500 -2.29500 36.21300
H  28.81900 -1.07700 37.10300
H  30.56900 -1.15000 37.44100
Mg -5.62400 25.54000 25.96100
C  -4.41000 26.72800 29.03400
C  -7.39500 23.06500 27.72600
C  -6.15200 23.83600 23.10800
C  -3.29000 27.67500 24.41000
N  -5.73200 24.91500 28.17200
C  -5.33800 25.63900 29.24400
C  -5.99700 25.11700 30.50400
C  -6.80200 23.82800 30.04700
C  -6.61600 23.89200 28.52000
C  -6.19600 22.50600 30.67300
C  -6.90700 26.19400 31.14600
C  -6.70600 26.30700 32.67700
H  -6.36300 25.09200 33.49300
N  -6.84300 23.87900 25.44800
C  -7.50300 23.02400 26.31300
C  -8.46600 22.27500 25.56100
C  -8.05200 22.31600 24.18700
C  -6.95500 23.35900 24.23500
C  -9.61400 21.51000 26.31200
C  -8.64800 21.76100 22.94500
O  -8.29900 22.12000 21.81700
C  -9.81700 20.78300 23.18200
N  -4.71300 25.68300 24.03900
C  -5.12000 24.81400 23.05700
C  -4.40200 25.26300 21.74700
C  -3.74900 26.61700 22.11700
C  -3.92500 26.67100 23.60600
C  -3.52300 24.15400 21.16000
C  -4.42200 27.83200 21.36000
C  -3.49500 28.52800 20.33300
N  -4.16400 27.01200 26.53100
C  -3.23400 27.76900 25.80600
C  -2.61200 28.69200 26.71000
C  -3.05000 28.33900 28.01200
C  -3.99500 27.27200 27.84300
C  -1.71400 29.81600 26.27900
C  -2.82600 28.67200 29.38000
O  -2.12000 29.46000 30.02200
C  -3.79300 27.65700 30.10400
C  -3.15400 26.88800 31.20400
O  -2.71000 25.75500 31.17700
O  -3.02400 27.73100 32.27700
C  -2.36100 27.15600 33.41500
H  -8.15100 22.48700 28.26100
H  -6.25000 23.16500 22.25200
H  -2.62900 28.43500 23.98700
H  -5.20600 24.87800 31.21500
H  -7.83400 23.97800 30.36300
H  -5.34700 22.11800 30.10900
H  -7.01300 21.82700 30.91900
H  -5.65100 22.61600 31.61000
H  -7.96300 25.93800 31.06200
H  -6.56000 27.12500 30.69600
H  -7.48300 26.78400 33.27400
H  -5.86400 26.99200 32.78300
H  -10.49400 21.53700 25.66900
H  -9.90200 22.01300 27.23500
H  -9.36800 20.46200 26.47900
H  -10.02800 20.32500 22.21500
H  -10.62900 21.49000 23.34900
H  -9.50800 20.08400 23.96000
H  -5.14300 25.39400 20.95900
H  -2.69900 26.58800 21.82800
H  -2.47400 24.44800 21.12100
H  -3.82100 23.85700 20.15400
H  -3.69900 23.36200 21.88700
H  -4.69600 28.56600 22.11900
H  -5.34600 27.48500 20.89600
H  -3.88200 28.33200 19.33300
H  -2.50400 28.08400 20.42100
H  -3.48000 29.59400 20.55900
H  -0.93100 29.79100 27.03700
H  -2.23900 30.76900 26.34000
H  -1.31100 29.56000 25.29900
H  -4.67200 28.18900 30.46700
H  -2.48700 27.73200 34.33200
H  -1.29100 27.17800 33.20800
H  -2.54300 26.10100 33.61800

