158

Mg 50.51900 45.14700 42.19100
C  47.49700 46.14000 40.70400
C  49.87600 42.02200 40.99700
C  53.85900 44.44900 42.67000
C  51.34200 48.56300 42.80200
N  48.84800 44.17500 40.95600
C  47.69700 44.78500 40.52800
C  46.73400 43.77200 39.93600
C  47.45800 42.34500 40.15800
C  48.81000 42.87100 40.72800
C  46.71700 41.26400 41.01300
C  46.19200 44.02000 38.51300
C  44.75300 44.28900 38.40100
H  43.93400 43.35600 37.58000
N  51.63800 43.47700 41.95500
C  51.17800 42.28700 41.42900
C  52.26400 41.28900 41.56100
C  53.41200 41.99900 42.03400
C  52.98300 43.33500 42.27000
C  52.11600 39.86500 40.91900
C  54.82100 41.35900 42.23700
O  54.90900 40.20400 41.99600
C  56.00500 42.11300 42.66000
N  52.37800 46.40600 42.57800
C  53.57400 45.81100 42.78600
C  54.61900 46.91200 43.26800
C  53.78500 48.18800 43.33400
C  52.37400 47.69700 42.98200
C  55.36400 46.53900 44.54700
C  54.34600 49.33400 42.37400
C  54.41800 48.94600 40.87000
N  49.56900 46.93400 42.00600
C  49.98700 48.22400 42.28200
C  48.88000 49.10100 42.02900
C  47.93600 48.38100 41.35300
C  48.40300 47.01800 41.36600
C  48.88000 50.56900 42.13300
C  46.62700 48.38800 40.71100
O  45.82600 49.31100 40.60300
C  46.24800 46.98900 40.29800
C  44.95600 46.56500 41.03200
O  44.96400 46.32200 42.23700
O  43.85300 46.58900 40.14400
C  42.51600 46.64600 40.71900
H  49.68600 40.98000 40.73000
H  54.91700 44.33900 42.91800
H  51.57800 49.60600 43.02500
H  45.86200 43.72200 40.58800
H  47.68000 41.79900 39.24100
H  45.63700 41.30100 40.87200
H  46.96100 41.43300 42.06100
H  47.04000 40.27800 40.67900
H  46.40200 43.11800 37.93800
H  46.75400 44.83900 38.06400
H  44.61900 45.31000 38.04500
H  44.24400 44.25800 39.36500
H  51.51800 39.92000 40.00900
H  51.61200 39.23900 41.65500
H  53.08700 39.46300 40.62800
H  55.83100 42.52500 43.65400
H  56.23500 42.79500 41.84100
H  56.88600 41.47300 42.71600
H  55.35400 47.06100 42.47700
H  53.84200 48.55600 44.35900
H  55.23300 45.47400 44.74300
H  55.11000 47.15100 45.41200
H  56.43100 46.69600 44.38800
H  55.27500 49.80300 42.69700
H  53.61500 50.13800 42.45700
H  54.11000 47.92000 40.66600
H  55.36900 49.30000 40.47200
H  53.57700 49.49200 40.44300
H  47.98200 50.95500 41.65100
H  49.72400 51.02100 41.61100
H  49.00100 51.04600 43.10600
H  45.99000 47.02000 39.23900
H  42.51600 46.95900 41.76300
H  42.02900 45.67700 40.60400
H  41.88500 47.37400 40.20800
Mg 47.83500 34.19500 26.65500
C  46.04300 32.52100 29.20100
C  48.07600 36.95600 28.70700
C  49.37700 35.82600 24.20900
C  47.41500 31.43200 24.66300
N  47.14100 34.68500 28.70700
C  46.55000 33.78300 29.64800
C  46.45500 34.40300 31.07400
C  47.03700 35.85700 30.78100
C  47.45900 35.86500 29.33000
C  46.06900 37.08800 31.09000
C  47.29700 33.59800 32.11800
C  48.21800 34.37800 33.11600
H  47.37800 35.34300 33.96000
N  48.67100 36.14500 26.46000
C  48.61800 37.10200 27.44500
C  49.12800 38.31400 26.85000
C  49.63500 37.98100 25.58800
C  49.24300 36.58500 25.37000
C  49.18700 39.65400 27.52100
C  50.30000 38.88300 24.54400
O  50.55500 38.52100 23.37500
C  50.59600 40.29900 24.93200
N  48.12000 33.75600 24.57600
C  49.02200 34.50900 23.87100
C  49.38100 33.84300 22.53100
C  48.74800 32.42700 22.70300
C  48.00500 32.54200 24.06200
C  48.93600 34.60900 21.27100
C  49.73800 31.21500 22.65600
C  49.39400 29.94800 21.83900
N  46.74400 32.40000 26.77900
C  46.75200 31.34700 25.83500
C  46.05600 30.27000 26.40700
C  45.69100 30.70400 27.67600
C  46.22600 31.93200 27.90200
C  45.71200 28.93400 25.66000
C  44.98500 30.32100 28.85000
O  44.25200 29.34500 29.11000
C  45.17900 31.50500 29.99800
C  45.92100 30.80900 31.09400
O  47.08600 30.45400 31.19900
O  45.08200 30.72400 32.20900
C  45.59900 29.93700 33.27800
H  48.10400 37.78300 29.41900
H  49.85800 36.30300 23.35300
H  47.42400 30.51000 24.07900
H  45.42500 34.50500 31.41700
H  47.93200 36.03300 31.37700
H  46.45300 37.64900 31.94200
H  45.03500 36.86600 31.35400
H  45.92700 37.71100 30.20700
H  47.73900 32.85100 31.46000
H  46.64600 33.05800 32.80600
H  49.05200 34.80700 32.56000
H  48.57000 33.66500 33.86200
H  48.75900 39.74000 28.51900
H  48.80200 40.44800 26.88100
H  50.17900 39.84400 27.93100
H  49.72600 40.95400 24.97200
H  51.13900 40.75200 24.10200
H  51.13700 40.34600 25.87700
H  50.46200 33.70200 22.49800
H  47.98000 32.21700 21.95900
H  49.77800 34.66700 20.58200
H  48.65600 35.63200 21.52400
H  48.05100 34.13800 20.84300
H  49.98600 30.89300 23.66800
H  50.72200 31.56600 22.34700
H  48.34700 30.00500 21.54200
H  49.35800 29.04100 22.44200
H  49.97500 29.74700 20.93900
H  45.07000 28.99500 24.78100
H  45.43300 28.15000 26.36400
H  46.69300 28.79600 25.20500
H  44.20700 31.83300 30.36700
H  46.49900 30.53500 33.42000
H  45.85400 28.92700 32.96000
H  45.05900 30.03100 34.22100

