158

Mg 25.37400 1.07700 29.53700
C  27.33800 0.90500 32.46300
C  22.64700 1.63600 31.45500
C  23.75900 1.28400 26.60300
C  28.20900 0.11400 27.84700
N  25.09300 1.22400 31.74400
C  26.02600 1.29900 32.74800
C  25.40400 1.58200 34.19800
C  23.87400 1.46400 33.86200
C  23.78500 1.32700 32.26200
C  23.13900 0.32200 34.59200
C  25.92700 2.88600 34.77700
C  26.41600 2.72400 36.33200
H  25.85900 3.73700 37.31700
N  23.43300 1.22000 29.09100
C  22.49300 1.59700 30.00400
C  21.23600 1.86900 29.22800
C  21.50200 1.61600 27.89300
C  22.95100 1.33300 27.79600
C  19.96200 2.43100 29.88300
C  20.56200 1.68500 26.66600
O  20.83900 1.20400 25.52500
C  19.24000 2.14300 26.88200
N  25.91900 0.61900 27.45400
C  25.12900 1.03500 26.48400
C  25.81300 0.83700 25.12300
C  27.27000 0.59700 25.54400
C  27.16000 0.34400 27.04200
C  25.24200 -0.33900 24.29400
C  28.26300 1.72700 25.14700
C  29.23900 1.34900 23.94800
N  27.33600 0.37200 30.03600
C  28.34400 0.14600 29.22600
C  29.59600 -0.04700 29.99200
C  29.20300 0.18500 31.33800
C  27.83500 0.51300 31.27800
C  30.90400 -0.47900 29.45400
C  29.67900 0.25100 32.71900
O  30.77300 0.01500 33.17400
C  28.45500 0.76300 33.50500
C  28.25200 -0.20500 34.56900
O  27.67500 -1.27400 34.42700
O  28.90900 0.20400 35.71700
C  28.79300 -0.78000 36.87000
H  21.72600 1.68800 32.04000
H  23.19700 1.29200 25.66700
H  29.03000 -0.11900 27.16600
H  25.66200 0.85300 34.96700
H  23.39500 2.38200 34.20400
H  22.34800 0.64100 35.27000
H  23.81500 -0.30600 35.17300
H  22.67300 -0.33300 33.85500
H  25.38300 3.78200 34.47600
H  26.82000 2.93600 34.15400
H  27.48600 2.92000 36.26000
H  26.26900 1.71900 36.72600
H  19.78300 3.29200 29.23900
H  20.13600 2.87600 30.86300
H  19.13300 1.72600 29.93100
H  19.31400 3.20200 27.13200
H  18.62700 1.56800 27.57600
H  18.64500 2.07400 25.97200
H  25.77100 1.71200 24.47500
H  27.54800 -0.30000 24.99100
H  25.17800 -1.19200 24.96800
H  25.99600 -0.50100 23.52300
H  24.22800 -0.10200 23.97200
H  28.81900 2.05700 26.02500
H  27.69200 2.55600 24.72900
H  28.87300 0.53800 23.31800
H  30.20700 1.02100 24.32700
H  29.33000 2.29600 23.41600
H  31.38200 -1.08600 30.22300
H  31.60900 0.34800 29.37000
H  30.84700 -1.02800 28.51400
H  28.68000 1.74100 33.93200
H  28.95800 -1.82000 36.58900
H  27.85900 -0.64200 37.41500
H  29.65700 -0.46800 37.45600
Mg 30.37000 58.03100 40.32100
C  27.96000 56.04300 39.25100
C  32.70500 55.84900 39.08300
C  32.82900 60.40500 40.54500
C  27.96000 60.67400 40.76000
N  30.32000 56.25800 39.09000
C  29.15200 55.56400 38.88900
C  29.45700 54.19700 38.31900
C  30.95700 53.98900 38.69500
C  31.36200 55.45500 38.92600
C  31.04400 53.06900 39.90500
C  29.25300 54.19000 36.81500
C  28.25000 53.12500 36.31900
H  27.53700 53.44700 35.00700
N  32.49800 58.17600 39.89600
C  33.22800 57.10200 39.47000
C  34.67000 57.43900 39.51200
C  34.78600 58.74600 39.97000
C  33.30100 59.19600 40.14100
C  35.86100 56.42000 39.34300
C  36.08800 59.51700 40.26600
O  37.19200 59.01800 40.03100
C  36.02800 60.89400 40.80900
N  30.37500 60.27200 40.55700
C  31.53000 60.90200 40.82200
C  31.30200 62.39200 41.37400
C  29.70700 62.52200 41.37200
C  29.25000 61.05100 40.80700
C  32.08000 62.80000 42.61300
C  29.15700 63.66500 40.46200
C  28.22200 64.66000 41.27100
N  28.40300 58.28900 40.13600
C  27.54600 59.39900 40.48800
C  26.12900 58.90700 40.27700
C  26.25600 57.61300 39.78700
C  27.65200 57.33900 39.72400
C  24.94000 59.73700 40.55400
C  25.48700 56.54000 39.15100
O  24.31500 56.53200 38.80200
C  26.56100 55.37100 38.91300
C  26.19900 54.24200 39.88600
O  26.92100 53.70600 40.75200
O  25.05900 53.60000 39.44500
C  24.76200 52.21500 39.80700
H  33.37000 55.01900 38.83600
H  33.55900 61.13900 40.89200
H  27.21000 61.37900 41.12400
H  28.86400 53.41200 38.78800
H  31.54200 53.46200 37.94100
H  30.10700 53.02300 40.45900
H  31.73600 53.64300 40.52200
H  31.42800 52.07300 39.68200
H  30.23400 54.19900 36.34000
H  28.92700 55.20000 36.56300
H  27.49900 52.94600 37.08800
H  28.89400 52.29700 36.02100
H  35.84600 56.15000 38.28700
H  35.82200 55.49100 39.91100
H  36.87300 56.76600 39.55200
H  35.54000 60.96500 41.78100
H  35.48200 61.35400 39.98600
H  37.04300 61.28900 40.84600
H  31.71800 62.92400 40.51800
H  29.37000 62.66500 42.39900
H  32.26500 61.85600 43.12600
H  31.54700 63.47200 43.28500
H  33.08000 63.15100 42.35800
H  28.64300 63.27600 39.58300
H  30.00600 64.21300 40.05300
H  27.50600 64.14200 41.90900
H  27.63700 65.29300 40.60500
H  28.80700 65.31900 41.91300
H  25.02300 60.57200 39.85900
H  24.95500 60.12800 41.57200
H  23.99100 59.25900 40.31500
H  26.51400 54.98700 37.89400
H  23.69100 52.10500 39.97800
H  25.27900 51.82700 40.68500
H  25.08300 51.52900 39.02400

