158

Mg 0.42300 7.92800 24.83900
C  1.16400 9.53600 27.93200
C  0.35000 5.02800 26.55700
C  0.36600 6.42800 21.90600
C  1.11300 10.96500 23.29600
N  0.75100 7.36000 27.00100
C  0.94100 8.15000 28.12300
C  0.87700 7.38100 29.40700
C  0.59200 5.97100 28.90900
C  0.54100 6.12600 27.38500
C  1.65100 4.83400 29.33100
C  -0.17700 7.82500 30.48300
C  0.21600 7.63200 31.99000
H  1.46400 6.87900 32.44000
N  0.31400 6.03900 24.29900
C  0.29000 4.94500 25.19300
C  0.16900 3.70800 24.47100
C  0.07800 4.09700 23.10400
C  0.30400 5.55500 23.05600
C  0.08200 2.33700 25.09400
C  -0.10800 3.25600 21.86600
O  -0.06100 3.71400 20.67200
C  -0.43200 1.82700 22.05000
N  0.82500 8.63300 22.84300
C  0.60300 7.85200 21.77200
C  0.52200 8.67800 20.46000
C  0.93400 10.07900 20.91900
C  0.92300 9.93600 22.47000
C  1.49100 8.17200 19.24900
C  -0.00300 11.22200 20.31700
C  -1.25800 11.62200 21.07600
N  0.87400 9.92000 25.41000
C  1.21500 11.01300 24.69400
C  1.39800 12.11600 25.62800
C  1.35200 11.54200 26.85700
C  1.12900 10.22700 26.70600
C  1.55000 13.51800 25.13300
C  1.54400 11.92200 28.28200
O  1.93800 13.05400 28.75600
C  1.34700 10.59000 28.96400
C  2.39300 10.44800 30.04100
O  3.38900 9.66200 29.90100
O  2.09100 11.24800 31.09100
C  3.11200 11.13900 32.09500
H  0.29900 4.11500 27.15400
H  0.41000 5.85800 20.97600
H  1.28500 11.88600 22.73400
H  1.89500 7.38200 29.79700
H  -0.40300 5.65800 29.22500
H  1.76200 4.79700 30.41400
H  2.59800 5.14600 28.89100
H  1.44900 3.85400 28.89800
H  -1.09900 7.32300 30.19000
H  -0.22800 8.91000 30.38700
H  -0.70400 7.31200 32.48100
H  0.27800 8.65800 32.35100
H  -0.96100 2.13000 25.32900
H  0.78900 2.23900 25.91800
H  0.40700 1.54400 24.42000
H  0.38700 1.15300 22.30000
H  -0.84400 1.39200 21.14000
H  -1.14200 1.70800 22.86900
H  -0.49900 8.79200 20.09500
H  1.98600 10.20100 20.65900
H  0.88400 7.84600 18.40400
H  2.05600 7.30400 19.58800
H  2.18400 8.91300 18.85000
H  -0.27500 11.02300 19.28000
H  0.56900 12.14400 20.21000
H  -2.14400 11.59200 20.44200
H  -1.19700 12.64200 21.45300
H  -1.33200 10.79800 21.78600
H  0.58300 13.67400 24.65600
H  2.44000 13.57000 24.50600
H  1.74500 14.13300 26.01200
H  0.40700 10.78100 29.48300
H  2.96600 10.18200 32.59600
H  2.99500 11.91300 32.85300
H  4.15800 11.14000 31.78800
Mg 26.15000 1.73500 29.70600
C  28.20200 1.21300 32.64200
C  23.38700 2.31500 31.95800
C  24.14100 1.76900 27.14400
C  28.95500 0.78100 27.84800
N  25.88700 1.82400 32.01700
C  26.89700 1.65000 33.00000
C  26.40900 1.95900 34.44700
C  24.81600 2.10800 34.14600
C  24.64300 2.13400 32.61500
C  23.99500 1.04200 34.85300
C  26.99600 3.40000 34.93800
C  27.68400 3.33100 36.30900
H  27.19700 4.29000 37.42600
N  24.04600 2.10200 29.53400
C  23.12200 2.29700 30.51500
C  21.81100 2.56500 29.86500
C  21.96400 2.24300 28.44100
C  23.38400 1.98900 28.28400
C  20.57800 2.94700 30.55000
C  20.85400 2.12800 27.36100
O  21.19200 1.79000 26.23800
C  19.34400 2.34000 27.69900
N  26.44100 1.05600 27.77400
C  25.49700 1.46900 26.93400
C  26.07500 1.32400 25.50000
C  27.61100 1.51500 25.75700
C  27.70600 1.05200 27.19300
C  25.72400 -0.01400 24.75100
C  28.08100 3.03800 25.52700
C  29.18100 3.09800 24.42900
N  28.08300 0.96400 30.12700
C  29.13000 0.65700 29.23000
C  30.35200 0.25500 29.97100
C  29.95700 0.50300 31.30700
C  28.62900 1.00800 31.36600
C  31.69200 -0.21600 29.40900
C  30.42400 0.31800 32.64500
O  31.50800 -0.14600 33.07600
C  29.41200 0.91200 33.56800
C  29.14700 0.06800 34.77500
O  28.30900 -0.84500 34.85900
O  30.01100 0.51200 35.82400
C  29.75200 -0.16000 37.11800
H  22.53500 2.58000 32.58800
H  23.56100 1.92000 26.23100
H  29.85500 0.93600 27.24900
H  26.63400 1.22400 35.22100
H  24.48000 3.11600 34.38900
H  24.68500 0.39500 35.39600
H  23.50100 0.38600 34.13600
H  23.36900 1.61600 35.53700
H  26.24200 4.18600 34.97800
H  27.64800 3.86200 34.19700
H  28.75100 3.50800 36.17600
H  27.61900 2.30800 36.68000
H  19.88200 2.10800 30.56900
H  20.09300 3.80200 30.08100
H  20.85200 3.15400 31.58500
H  18.89000 1.52300 28.26000
H  18.80800 2.36200 26.75000
H  19.25100 3.30700 28.19500
H  25.68900 2.17000 24.93200
H  28.07800 0.84100 25.03900
H  26.53300 -0.66700 24.42600
H  25.20700 0.27900 23.83800
H  25.06600 -0.58700 25.40400
H  28.37000 3.44800 26.49500
H  27.22700 3.59000 25.13400
H  28.83400 3.73900 23.61800
H  29.45700 2.17400 23.92200
H  30.07200 3.56500 24.85000
H  32.34400 0.62000 29.15600
H  31.59700 -0.82700 28.51100
H  32.10800 -0.85800 30.18500
H  29.89000 1.86000 33.81300
H  29.65900 -1.23700 36.97300
H  28.81000 0.06300 37.61800
H  30.58500 0.10400 37.77000

