158

Mg -10.51800 37.97700 40.98200
C  -9.30100 34.94200 40.28600
C  -7.57400 39.43700 39.72000
C  -12.09000 40.97800 40.84000
C  -13.44300 36.56300 41.96100
N  -8.77400 37.32300 39.96000
C  -8.45100 35.97100 39.87600
C  -7.05100 35.80700 39.17000
C  -6.45900 37.20600 39.30500
C  -7.68100 38.05100 39.62300
C  -5.31200 37.41600 40.41700
C  -7.16200 35.39500 37.65900
C  -6.08700 34.48900 37.17300
H  -5.83300 34.42400 35.65800
N  -9.92900 39.90500 40.32600
C  -8.68700 40.35700 39.90700
C  -8.73500 41.77700 39.85800
C  -10.08900 42.21200 40.04800
C  -10.75300 41.00500 40.48200
C  -7.48200 42.58600 39.56500
C  -10.57200 43.71400 39.79600
O  -9.76400 44.52500 39.35700
C  -12.01200 43.99200 39.66700
N  -12.48800 38.63800 41.11900
C  -12.86700 39.92700 41.10400
C  -14.24700 40.13600 41.75100
C  -14.76500 38.69900 41.77400
C  -13.47000 37.94000 41.69100
C  -14.12900 40.93000 43.12000
C  -15.74200 38.34500 40.65600
C  -17.17100 38.55400 40.87100
N  -11.19600 36.11200 41.37900
C  -12.37600 35.67700 41.84500
C  -12.33100 34.22100 41.99900
C  -11.16300 33.87400 41.29100
C  -10.49300 35.09200 40.97300
C  -13.40700 33.35200 42.61000
C  -10.33800 32.76200 40.79400
O  -10.48900 31.53200 40.89200
C  -9.11200 33.41500 40.04900
C  -7.83500 32.83200 40.60400
O  -7.22900 32.02200 39.97800
O  -7.49900 33.32600 41.84600
C  -6.23600 32.86100 42.46900
H  -6.58300 39.83100 39.48300
H  -12.52700 41.95600 41.05000
H  -14.42400 36.09500 42.06600
H  -6.38900 35.09400 39.66100
H  -6.02800 37.35800 38.31600
H  -5.08000 36.41800 40.78700
H  -5.63700 38.05600 41.23700
H  -4.45900 37.83400 39.88200
H  -7.23000 36.33700 37.11400
H  -8.05900 34.87900 37.31700
H  -6.41500 33.54000 37.59800
H  -5.10700 34.67800 37.61200
H  -7.54200 43.13200 38.62400
H  -6.53100 42.05500 39.61300
H  -7.43400 43.49100 40.17000
H  -12.45600 43.08100 39.26600
H  -12.21200 44.81200 38.97600
H  -12.26800 44.18800 40.70800
H  -14.70200 40.79700 41.01300
H  -15.20300 38.45700 42.74200
H  -13.17900 41.45900 43.04600
H  -13.99900 40.25000 43.96100
H  -14.93700 41.59900 43.41800
H  -15.49300 37.39500 40.18300
H  -15.59000 39.04500 39.83400
H  -17.61100 37.60800 41.18800
H  -17.76200 38.75700 39.97800
H  -17.30500 39.45700 41.46600
H  -13.58800 33.79900 43.58800
H  -12.99800 32.34400 42.66900
H  -14.35500 33.40700 42.07500
H  -9.27000 33.11900 39.01200
H  -5.61300 32.37800 41.71600
H  -6.33900 32.15700 43.29500
H  -5.56300 33.68000 42.72000
Mg -13.20400 16.09100 42.74500
C  -10.36400 14.20100 41.94700
C  -11.85200 18.65100 40.77600
C  -16.23200 17.61400 42.47900
C  -14.81300 13.04800 43.51800
N  -11.34000 16.36500 41.38000
C  -10.33100 15.46000 41.32300
C  -9.13100 16.04900 40.46200
C  -9.58300 17.55400 40.21200
C  -10.99700 17.53800 40.81800
C  -8.62200 18.60100 40.83300
C  -8.70300 15.30100 39.18600
C  -7.23000 15.03500 38.95200
H  -6.45100 15.85000 37.87800
N  -13.87600 17.96600 41.93600
C  -13.13000 18.87900 41.31200
C  -13.87400 20.12500 41.25100
C  -15.15100 19.83300 41.80500
C  -15.18000 18.41000 42.02500
C  -13.22600 21.39400 40.74300
C  -16.20600 20.82100 42.14200
O  -16.18700 22.02600 41.68900
C  -17.41200 20.56400 42.88900
N  -15.22900 15.38300 42.97300
C  -16.26300 16.31400 43.00100
C  -17.62700 15.59700 43.40100
C  -17.16100 14.19200 43.74400
C  -15.64300 14.15600 43.41600
C  -18.63000 16.35800 44.28300
C  -17.98000 12.96000 43.12300
C  -19.47800 13.09700 42.75800
N  -12.61900 14.07000 42.94800
C  -13.40200 12.95100 43.31900
C  -12.48900 11.84400 43.47300
C  -11.26100 12.29800 43.08400
C  -11.45800 13.59700 42.54900
C  -12.90900 10.44000 43.75100
C  -9.85800 11.96700 42.87300
O  -9.17400 10.97200 43.08300
C  -9.21600 13.22000 42.09700
C  -8.03000 13.75900 42.82700
O  -8.04200 14.54200 43.72500
O  -6.87400 13.17200 42.34900
C  -5.63800 13.70600 43.01300
H  -11.27900 19.46900 40.33400
H  -17.23200 18.05000 42.43900
H  -15.22300 12.12700 43.93700
H  -8.31400 15.92700 41.17300
H  -9.70400 17.84200 39.16800
H  -9.02400 19.02500 41.75300
H  -8.62700 19.39200 40.08300
H  -7.62700 18.18900 40.99900
H  -8.97200 15.96600 38.36600
H  -9.27900 14.37800 39.13000
H  -7.15200 13.97500 38.70900
H  -6.76400 15.20800 39.92200
H  -13.50700 21.55300 39.70200
H  -12.14000 21.32900 40.80900
H  -13.48000 22.20500 41.42600
H  -17.86300 21.43500 43.36500
H  -17.33500 19.84200 43.70100
H  -18.14000 20.21700 42.15500
H  -18.07900 15.54500 42.41000
H  -17.16900 14.15700 44.83300
H  -18.97000 15.76500 45.13100
H  -19.52100 16.50100 43.67200
H  -18.27600 17.32200 44.64900
H  -18.03900 12.15600 43.85600
H  -17.45400 12.61500 42.23300
H  -20.03700 12.20900 43.05500
H  -19.64600 13.31600 41.70300
H  -19.83200 13.97300 43.30200
H  -13.43100 10.40000 44.70700
H  -12.14000 9.68500 43.91400
H  -13.52400 10.09200 42.92200
H  -8.80800 12.97200 41.11700
H  -4.94700 14.13600 42.28800
H  -5.23100 12.90900 43.63500
H  -5.80300 14.60600 43.60500

