158

Mg 1.62600 8.12500 24.72500
C  2.44000 9.71500 27.71000
C  2.38500 5.06100 26.24200
C  0.88100 6.58200 21.83700
C  1.31600 11.24400 23.20600
N  2.49600 7.48300 26.70900
C  2.47500 8.33100 27.85900
C  2.62600 7.51700 29.12600
C  2.81800 6.11200 28.62200
C  2.49700 6.18500 27.11500
C  4.23300 5.51200 28.88800
C  1.25200 7.71900 29.84600
C  1.24000 7.61100 31.35600
H  2.46700 6.90800 32.04700
N  1.51000 6.06700 24.19000
C  1.86300 4.96800 24.98100
C  1.63000 3.76700 24.24200
C  1.15600 4.20900 22.95000
C  1.17200 5.67800 22.91700
C  1.79900 2.37400 24.93800
C  0.54500 3.23100 21.90100
O  0.09200 3.62000 20.82500
C  0.52400 1.66500 22.21100
N  1.34900 8.81300 22.71000
C  0.97500 7.96400 21.75300
C  0.27500 8.72200 20.56700
C  0.24700 10.19000 21.08100
C  1.06000 10.12400 22.39600
C  1.08400 8.51500 19.26700
C  -1.15700 10.88600 21.11000
C  -1.90000 10.99300 19.72900
N  1.83500 10.21600 25.30900
C  1.70700 11.33600 24.56800
C  2.10300 12.49000 25.47700
C  2.28800 11.86900 26.74400
C  2.17800 10.51700 26.54100
C  2.28300 13.99100 25.05900
C  2.71700 12.14600 28.12300
O  3.10300 13.19600 28.61900
C  2.62400 10.74100 28.81300
C  3.79500 10.57800 29.70100
O  4.85900 10.10100 29.39800
O  3.52100 11.05300 30.95000
C  4.58700 10.84700 32.00700
H  2.76900 4.17700 26.75500
H  0.53800 6.12600 20.90500
H  1.07500 12.15300 22.65100
H  3.42900 7.82900 29.79400
H  2.12000 5.43600 29.11700
H  4.80300 5.70000 27.97800
H  4.21900 4.44700 29.12000
H  4.65000 6.05000 29.74000
H  0.50700 6.96600 29.58800
H  0.77200 8.66300 29.59100
H  0.33000 7.07900 31.63400
H  1.36600 8.61600 31.75800
H  2.44800 1.67500 24.41000
H  0.82000 1.90000 25.01800
H  2.07300 2.46000 25.99000
H  1.51100 1.20400 22.23500
H  -0.14900 1.22000 21.47800
H  -0.01100 1.51100 23.14900
H  -0.72600 8.29700 20.50000
H  0.91200 10.76500 20.43600
H  2.14400 8.36400 19.47100
H  0.85100 9.37000 18.63100
H  0.73600 7.61100 18.76600
H  -1.02900 11.87900 21.54000
H  -1.76500 10.35500 21.84200
H  -1.18400 10.73900 18.94700
H  -2.26900 12.01700 19.67500
H  -2.72900 10.28900 19.80200
H  1.31100 14.26000 24.64600
H  3.05600 13.95800 24.29100
H  2.65700 14.62700 25.86000
H  1.70100 10.85600 29.38100
H  4.29400 10.02300 32.65700
H  4.67000 11.83500 32.46100
H  5.57700 10.60300 31.62300
Mg 35.45600 1.00300 29.17700
C  33.08000 2.18700 31.64800
C  37.91500 0.94600 31.71900
C  37.65100 -0.07100 26.91700
C  32.99800 1.56800 26.70100
N  35.42900 1.50200 31.40100
C  34.31900 1.94800 32.21400
C  34.68400 1.77900 33.72800
C  36.22800 1.51200 33.63100
C  36.55300 1.35400 32.17000
C  37.14900 2.62600 34.42300
C  33.86300 0.63500 34.40300
C  33.16700 0.87000 35.79300
H  33.66100 2.12800 36.62100
N  37.42400 0.47700 29.28900
C  38.27900 0.52300 30.41900
C  39.62100 0.11000 30.02500
C  39.57500 -0.24400 28.66500
C  38.15500 0.03600 28.24400
C  40.74000 -0.11900 31.03300
C  40.62000 -0.91300 27.75600
O  40.33100 -1.36700 26.60800
C  41.98600 -1.15200 28.33000
N  35.33300 0.92400 27.03900
C  36.34800 0.30700 26.34600
C  35.99300 0.10900 24.85600
C  34.51100 0.55300 24.83400
C  34.30100 1.10700 26.27300
C  37.00100 0.68900 23.90900
C  33.53700 -0.63600 24.49100
C  33.46100 -0.97900 23.00000
N  33.44700 1.80700 29.07200
C  32.62800 1.90200 28.03000
C  31.32800 2.39700 28.48800
C  31.45300 2.53100 29.90100
C  32.76200 2.14000 30.20600
C  30.07500 2.68700 27.66200
C  30.81100 2.89800 31.12300
O  29.68600 3.33000 31.39300
C  31.81900 2.65100 32.31300
C  31.93500 3.95000 33.00900
O  32.90600 4.60700 33.19100
O  30.79600 4.26300 33.74700
C  30.83800 5.48200 34.59100
H  38.71500 1.15800 32.43200
H  38.25400 -0.54900 26.14200
H  32.24900 1.62300 25.90800
H  34.49900 2.77000 34.14500
H  36.43400 0.56500 34.13000
H  36.58500 3.20000 35.15800
H  37.68600 3.28900 33.74500
H  37.94400 2.18200 35.02200
H  34.53300 -0.21300 34.54800
H  33.05600 0.38000 33.71600
H  33.16300 -0.03100 36.40700
H  32.10500 1.09500 35.70000
H  41.54000 0.58400 30.80100
H  41.09400 -1.14800 30.97200
H  40.45600 0.02100 32.07600
H  42.75200 -1.22100 27.55800
H  41.97800 -2.04000 28.96100
H  42.33700 -0.27100 28.86800
H  36.06600 -0.96300 24.67100
H  34.42100 1.36800 24.11600
H  37.53000 1.50700 24.40000
H  36.51500 1.26400 23.12100
H  37.57700 -0.12600 23.47400
H  32.51600 -0.33000 24.71900
H  33.68400 -1.53300 25.09200
H  34.35700 -0.65200 22.47200
H  32.53500 -0.64000 22.53600
H  33.52300 -2.06200 22.89400
H  29.63300 1.83800 27.14100
H  30.46400 3.45200 26.99100
H  29.32200 3.23900 28.22400
H  31.40700 1.89600 32.98200
H  29.92100 5.73200 35.12400
H  31.22300 6.31200 33.99800
H  31.55700 5.39500 35.40600

