158

Mg 47.80900 16.10700 28.57500
C  45.78600 15.57000 31.35800
C  50.06200 17.70900 30.64200
C  49.62900 16.94300 25.78900
C  45.35600 14.63500 26.50200
N  47.84600 16.69000 30.77000
C  47.02600 16.26900 31.72500
C  47.54600 16.61200 33.10400
C  48.75900 17.53300 32.81000
C  48.87700 17.31900 31.32800
C  48.43500 19.03000 33.03000
C  47.85800 15.42200 34.00100
C  47.07500 15.26900 35.36000
H  46.72400 16.60500 35.93400
N  49.61800 17.10400 28.23800
C  50.42400 17.66600 29.25700
C  51.65700 18.07000 28.69100
C  51.51000 17.89800 27.27400
C  50.19900 17.25500 27.03900
C  52.77000 18.65900 29.48300
C  52.47700 18.17100 26.13000
O  52.25600 17.77200 24.99700
C  53.72100 18.86600 26.36700
N  47.49400 15.90900 26.38200
C  48.42500 16.28800 25.48800
C  47.70300 16.28200 24.11200
C  46.62400 15.15600 24.38600
C  46.50200 15.13900 25.86700
C  47.15100 17.68200 23.71500
C  46.90300 13.80200 23.69200
C  47.44600 12.64500 24.53600
N  45.97100 15.24100 28.83800
C  45.05700 14.66800 27.87400
C  43.85900 14.26200 28.58500
C  44.07800 14.68200 29.89100
C  45.38100 15.25800 30.02400
C  42.63600 13.66100 28.02200
C  43.42700 14.67200 31.27300
O  42.31400 14.26300 31.61600
C  44.60500 15.28700 32.24300
C  44.08200 16.54200 32.89500
O  44.32500 17.70600 32.59300
O  43.14900 16.13100 33.80900
C  42.56100 17.21800 34.63100
H  50.71300 18.30900 31.28100
H  50.06800 17.28300 24.84900
H  44.64600 14.16500 25.81900
H  46.73600 17.25800 33.44200
H  49.68000 17.24000 33.31300
H  47.53700 19.29100 33.59100
H  48.31700 19.56000 32.08500
H  49.26600 19.45800 33.59100
H  48.92300 15.32700 34.21100
H  47.56500 14.55800 33.40400
H  47.69700 14.70800 36.05800
H  46.15600 14.69300 35.25400
H  52.69100 19.74600 29.47400
H  53.77300 18.40800 29.13700
H  52.79500 18.23300 30.48600
H  53.45400 19.75100 26.94500
H  54.21200 19.22300 25.46200
H  54.53400 18.23200 26.72300
H  48.35400 15.96800 23.29600
H  45.63300 15.43100 24.02600
H  46.07900 17.57000 23.55700
H  47.56800 18.02000 22.76600
H  47.36500 18.39800 24.50800
H  47.48400 13.83400 22.77100
H  45.99100 13.41100 23.24100
H  46.70500 11.90300 24.83500
H  47.93700 12.94000 25.46400
H  48.20900 12.20400 23.89500
H  42.83200 13.00200 27.17600
H  41.95100 14.46700 27.75900
H  42.10300 13.08900 28.78200
H  44.93600 14.49400 32.91300
H  41.47400 17.18900 34.54700
H  42.89500 18.23400 34.42100
H  42.81500 16.94800 35.65600
Mg 30.57000 57.23100 40.18900
C  27.78700 55.13200 38.97600
C  32.58900 54.76700 39.27700
C  32.98000 59.46000 40.03500
C  28.21400 59.69900 40.81300
N  30.16600 55.22900 39.19700
C  29.05300 54.52200 38.78500
C  29.50200 53.14800 38.31800
C  30.89800 52.87900 38.95900
C  31.28600 54.37100 39.17600
C  30.91200 52.06400 40.32100
C  29.43800 53.02600 36.76300
C  28.12200 52.23800 36.20700
H  27.28700 53.03600 35.16400
N  32.60800 57.13400 39.85300
C  33.23200 55.99600 39.46100
C  34.62500 56.33300 39.21300
C  34.80800 57.67000 39.56000
C  33.47300 58.15800 39.92000
C  35.69400 55.34400 38.74900
C  36.11100 58.43200 39.60400
O  37.15700 57.88700 39.37200
C  36.17500 59.79900 39.97500
N  30.52500 59.35400 40.21900
C  31.71100 60.00700 40.18500
C  31.50600 61.43400 40.63500
C  30.05700 61.45900 41.20400
C  29.54000 60.09800 40.72700
C  32.51400 62.00900 41.64300
C  29.15700 62.66600 40.71800
C  28.31900 63.47700 41.80200
N  28.36900 57.44000 39.99200
C  27.55600 58.52100 40.31400
C  26.15400 58.24300 39.96200
C  26.24800 56.88800 39.50800
C  27.60200 56.49800 39.48300
C  24.99300 59.07700 40.08600
C  25.42400 55.72900 39.07800
O  24.24800 55.54800 39.00600
C  26.40200 54.59800 38.85100
C  26.15200 53.53400 39.81300
O  26.19800 53.57400 40.99500
O  25.82700 52.42900 39.00600
C  25.47400 51.32000 39.87500
H  33.30900 53.95700 39.14300
H  33.77400 60.20300 39.93000
H  27.54200 60.53800 41.00500
H  28.74100 52.44100 38.64700
H  31.68500 52.42300 38.35800
H  30.90500 52.80500 41.12100
H  31.87200 51.55800 40.41700
H  30.10200 51.33500 40.31300
H  30.19800 52.28000 36.53100
H  29.55800 53.97800 36.24600
H  27.41900 52.04000 37.01600
H  28.44500 51.26500 35.83700
H  36.17600 55.74200 37.85600
H  35.32900 54.34100 38.52700
H  36.42800 55.16600 39.53500
H  35.67700 60.27800 39.13200
H  37.18200 60.18500 40.13400
H  35.58800 59.91500 40.88600
H  31.64400 62.10300 39.78500
H  30.13600 61.44300 42.29100
H  33.24900 61.27600 41.97500
H  32.05900 62.67300 42.37700
H  33.12600 62.69100 41.05200
H  28.46800 62.20600 40.01000
H  29.70700 63.25900 39.98700
H  27.30600 63.73300 41.49000
H  28.84200 64.40200 42.04400
H  28.22100 62.85100 42.68900
H  24.37800 59.05900 39.18700
H  25.24400 60.10500 40.35000
H  24.26900 58.65900 40.78500
H  26.32600 54.22500 37.82900
H  26.40900 50.84300 40.16800
H  24.94600 50.60900 39.23900
H  24.85700 51.62600 40.72000

