158

Mg 2.22800 -1.68800 43.87900
C  5.52300 -0.93600 43.20600
C  1.26200 1.41200 42.79300
C  -1.00700 -2.76600 43.71200
C  3.30600 -4.91500 44.84700
N  3.26800 0.00200 43.01200
C  4.59800 0.10200 42.87400
C  4.91800 1.50700 42.31500
C  3.55100 2.36300 42.70200
C  2.59700 1.19000 42.82800
C  3.66000 3.36500 43.90200
C  5.36400 1.38200 40.87300
C  6.44000 2.34700 40.44300
H  6.30500 3.01800 39.03400
N  0.37200 -0.83900 43.31900
C  0.25500 0.48400 42.91500
C  -1.13700 0.74300 42.68600
C  -1.87200 -0.45100 42.93700
C  -0.85400 -1.42900 43.34900
C  -1.59100 2.17600 42.31400
C  -3.37300 -0.62400 42.82200
O  -4.19300 0.21600 42.45400
C  -4.04700 -2.05200 43.00400
N  1.29400 -3.67700 43.95000
C  -0.09100 -3.82900 43.99900
C  -0.41300 -5.28400 44.08700
C  0.89700 -5.85700 44.64400
C  1.89500 -4.76000 44.56400
C  -1.64100 -5.70300 44.92500
C  1.53200 -7.18000 44.00600
C  1.77800 -8.35500 44.97800
N  4.08700 -2.75400 44.22900
C  4.36600 -3.99800 44.57800
C  5.78700 -4.29600 44.68400
C  6.36200 -3.09300 44.16100
C  5.23800 -2.20100 43.79900
C  6.41400 -5.62400 45.24000
C  7.57100 -2.31300 43.82200
O  8.75300 -2.52300 44.01000
C  7.09500 -0.91300 43.29600
C  7.50200 0.13600 44.25500
O  7.53700 0.04000 45.47600
O  8.03300 1.31100 43.65200
C  8.31000 2.44500 44.62700
H  1.03100 2.44100 42.51100
H  -1.99200 -3.23600 43.73600
H  3.60000 -5.90900 45.18800
H  5.68600 1.95000 42.94900
H  3.23100 2.90900 41.81500
H  4.68100 3.72600 44.02600
H  3.33200 2.82200 44.78800
H  3.01700 4.23100 43.74400
H  4.49200 1.45300 40.22300
H  5.79300 0.38700 40.75800
H  7.37000 1.78900 40.54800
H  6.45000 3.21300 41.10500
H  -2.63600 2.17100 42.00600
H  -0.95700 2.46200 41.47500
H  -1.34400 2.86600 43.12100
H  -5.12400 -2.01500 42.83800
H  -3.96100 -2.24000 44.07400
H  -3.59000 -2.83800 42.40300
H  -0.45000 -5.66500 43.06600
H  0.79900 -6.00100 45.72000
H  -2.22800 -6.48900 44.44900
H  -2.24200 -4.80100 45.03500
H  -1.37400 -5.99100 45.94100
H  2.45800 -6.88800 43.51000
H  0.81900 -7.58700 43.28900
H  1.48900 -9.27800 44.47700
H  1.27100 -8.14800 45.92100
H  2.84300 -8.37100 45.21200
H  6.08600 -5.89400 46.24300
H  7.47300 -5.53400 45.48000
H  6.14000 -6.46500 44.60300
H  7.45300 -0.84400 42.26900
H  7.58400 2.57800 45.42900
H  8.27500 3.43500 44.17300
H  9.31500 2.27900 45.01600
Mg 26.13100 1.02000 29.01700
C  28.08500 0.45500 31.85100
C  23.31000 0.94700 30.95000
C  24.25900 1.28900 26.25600
C  28.88000 0.16700 27.00600
N  25.79800 0.67600 31.15800
C  26.71800 0.64500 32.17300
C  26.05400 0.98900 33.51100
C  24.54800 0.84100 33.20200
C  24.53100 0.88200 31.64900
C  23.67200 -0.33100 33.73900
C  26.54200 2.39400 33.88200
C  27.50900 2.42200 35.10600
H  27.46800 3.31200 36.31400
N  24.00600 1.10400 28.63100
C  23.07200 1.00500 29.58600
C  21.80300 1.08000 28.87300
C  21.98000 1.23700 27.50900
C  23.43700 1.27100 27.42100
C  20.51200 0.99800 29.56300
C  20.95500 1.29000 26.29600
O  21.39700 1.56400 25.12700
C  19.50600 0.98200 26.45100
N  26.50400 0.71900 26.92400
C  25.60000 1.15100 26.00700
C  26.26900 1.15500 24.60900
C  27.76700 0.93500 24.90400
C  27.71200 0.59800 26.38300
C  25.68700 0.09100 23.67100
C  28.65300 2.24800 24.60400
C  28.32700 3.46400 25.37000
N  28.02900 0.41100 29.25300
C  29.05100 0.09700 28.38300
C  30.26800 -0.24800 29.03600
C  29.90600 -0.06500 30.39900
C  28.57200 0.32000 30.50100
C  31.45400 -0.83700 28.36800
C  30.44800 -0.10400 31.73300
O  31.61100 -0.30100 32.10600
C  29.31800 0.25900 32.69200
C  29.20800 -0.71600 33.83100
O  28.73100 -1.84500 33.76600
O  29.49000 -0.10700 35.00800
C  29.39200 -0.84600 36.28800
H  22.48800 1.07300 31.65900
H  23.71000 1.48500 25.33200
H  29.80400 -0.04500 26.46500
H  26.30600 0.15200 34.16200
H  23.99000 1.69100 33.59300
H  22.98600 0.11100 34.46100
H  24.27600 -0.95900 34.39400
H  23.25600 -0.87900 32.89300
H  25.73300 3.10300 34.05900
H  27.16600 2.83100 33.10100
H  28.49800 2.62500 34.69600
H  27.52500 1.39200 35.46200
H  19.89200 0.17200 29.21400
H  20.02300 1.94500 29.33800
H  20.57800 0.93100 30.64900
H  19.38200 0.19300 27.19300
H  18.98300 0.89400 25.49800
H  18.94300 1.82900 26.84200
H  26.02800 2.13800 24.20500
H  28.11000 0.03800 24.38800
H  24.78700 -0.39600 24.04700
H  26.31300 -0.71200 23.28200
H  25.27600 0.70900 22.87200
H  28.42100 2.43000 23.55400
H  29.72800 2.07100 24.61100
H  27.63800 3.15500 26.15600
H  27.82700 4.16900 24.70600
H  29.25800 3.93100 25.69100
H  31.94300 -0.01600 27.84400
H  31.14900 -1.68800 27.75800
H  32.09600 -1.15600 29.18800
H  29.60700 1.26300 33.00200
H  29.31100 -1.93100 36.20900
H  28.48300 -0.39000 36.67900
H  30.21900 -0.67600 36.97700

