158

Mg 47.22900 34.30300 27.25000
C  45.58400 33.20100 30.14400
C  47.93000 37.27700 29.02100
C  48.27300 35.84900 24.46300
C  45.94500 31.69900 25.60300
N  46.88800 35.08400 29.35700
C  46.27400 34.39500 30.39200
C  46.34300 35.23500 31.70000
C  46.78100 36.61200 31.12400
C  47.19000 36.33300 29.72600
C  45.82200 37.81000 31.29000
C  47.34700 34.56900 32.63400
C  46.90200 34.50500 34.09600
H  47.99200 34.59800 35.18000
N  48.25100 36.18700 26.85100
C  48.47700 37.22400 27.73900
C  49.18100 38.26200 27.03800
C  49.21100 37.88600 25.64700
C  48.61300 36.60800 25.60100
C  49.73100 39.52000 27.67700
C  49.81800 38.55100 24.45800
O  49.97700 37.99300 23.36200
C  50.31700 39.96100 24.67800
N  47.09600 33.90100 25.29800
C  47.75800 34.58800 24.32700
C  47.58700 33.93700 23.03500
C  46.94100 32.52800 23.29200
C  46.62700 32.69400 24.79100
C  46.94500 34.64100 21.86100
C  47.77100 31.28000 22.86100
C  48.88900 30.96500 23.78900
N  46.06900 32.76500 27.77100
C  45.62200 31.71500 26.99100
C  44.95200 30.68900 27.76000
C  44.79500 31.32200 28.99100
C  45.58400 32.50900 28.95700
C  44.35200 29.40700 27.26600
C  44.17800 31.21700 30.24700
O  43.43400 30.36200 30.68800
C  44.55400 32.43300 31.03200
C  45.06400 31.94100 32.33100
O  46.14200 31.49800 32.61000
O  43.95100 31.82100 33.13200
C  44.08100 30.89900 34.28900
H  48.20300 38.17900 29.57300
H  48.71300 36.20100 23.52800
H  45.62000 30.81400 25.05300
H  45.32400 35.27500 32.08300
H  47.68200 36.94600 31.63900
H  45.29800 37.53300 32.20500
H  45.17800 37.92300 30.41800
H  46.30300 38.77900 31.42000
H  48.29900 35.09400 32.71100
H  47.57200 33.58100 32.23200
H  46.40000 33.54100 34.17600
H  46.28400 35.39000 34.25300
H  49.02500 40.29500 27.37600
H  50.75300 39.83200 27.46300
H  49.58100 39.46600 28.75500
H  49.62700 40.59300 25.23700
H  50.41200 40.34600 23.66200
H  51.29100 39.92000 25.16400
H  48.63800 33.77100 22.79700
H  45.94300 32.48000 22.85600
H  46.22300 35.28300 22.36500
H  46.47400 33.89100 21.22700
H  47.51400 35.42100 21.35400
H  48.04900 31.36000 21.81000
H  46.98300 30.52700 22.88700
H  48.94300 31.69500 24.59700
H  49.82600 30.76700 23.26900
H  48.62400 30.08000 24.36800
H  44.11000 28.84400 28.16800
H  44.87300 28.78000 26.54200
H  43.35500 29.62600 26.88300
H  43.66300 33.03100 31.22300
H  43.17700 30.34400 34.54200
H  44.14500 31.60800 35.11400
H  45.01500 30.33700 34.30400
Mg 26.01000 51.43000 26.26100
C  23.76500 52.55400 28.57100
C  28.09000 50.41300 28.97100
C  28.43100 50.86700 24.10900
C  24.04100 52.83300 23.72600
N  26.03800 51.74300 28.54600
C  24.91200 52.10500 29.26400
C  25.18900 52.01500 30.81300
C  26.63200 51.57000 30.80000
C  27.01100 51.21600 29.35100
C  27.59700 52.67700 31.34500
C  24.18400 50.97700 31.55300
C  23.47300 51.51500 32.75600
H  24.27300 51.94300 34.04300
N  27.93200 50.64100 26.48000
C  28.52700 50.23800 27.60100
C  29.90500 49.91300 27.30800
C  30.10300 50.08500 25.89800
C  28.76300 50.58200 25.41700
C  30.87600 49.31300 28.44100
C  31.24200 49.83100 24.94600
O  31.22900 50.04100 23.72500
C  32.47400 49.36200 25.56900
N  26.23100 51.94800 24.17800
C  27.30300 51.44800 23.48700
C  27.14400 51.79700 22.03200
C  25.64200 52.25100 21.85500
C  25.28000 52.36300 23.32500
C  28.28700 52.61300 21.32600
C  24.83600 51.13700 21.12400
C  23.61400 51.60600 20.41200
N  24.16200 52.38100 26.15200
C  23.46900 52.78700 25.04000
C  22.09600 53.24700 25.49100
C  22.20900 53.12400 26.88000
C  23.45900 52.58300 27.19700
C  20.95600 53.83300 24.63100
C  21.47600 53.41800 28.14600
O  20.36400 53.86300 28.40100
C  22.51600 53.07000 29.29000
C  22.73800 54.29700 30.13100
O  23.83200 54.93900 30.16400
O  21.77900 54.37200 31.13700
C  22.11800 55.27900 32.23600
H  28.68300 50.12300 29.84000
H  29.19600 50.66500 23.35700
H  23.49200 53.18700 22.85100
H  25.03900 53.01000 31.23000
H  26.77100 50.69300 31.43300
H  27.08400 53.28600 32.09000
H  27.92200 53.29500 30.50900
H  28.56600 52.27500 31.64100
H  24.86800 50.22900 31.95300
H  23.44200 50.57700 30.86200
H  22.77200 50.70200 32.94300
H  23.01800 52.43800 32.39700
H  30.29600 48.95500 29.29200
H  31.50300 50.11000 28.84100
H  31.48400 48.48400 28.07800
H  32.32100 48.33000 25.88300
H  32.70600 49.90100 26.48800
H  33.30000 49.52600 24.87800
H  27.35100 50.80600 21.62800
H  25.59300 53.24400 21.40800
H  29.05700 52.73900 22.08800
H  28.00500 53.57900 20.90900
H  28.77500 51.95500 20.60600
H  24.45900 50.44100 21.87300
H  25.44900 50.64700 20.36900
H  23.94000 51.99900 19.44800
H  23.06800 52.29900 21.05200
H  23.00900 50.73200 20.17100
H  20.85900 53.23700 23.72400
H  21.24300 54.80500 24.23000
H  20.00700 53.89800 25.16400
H  22.07400 52.24800 29.85300
H  23.12700 54.93100 32.45500
H  21.37800 55.41300 33.02500
H  22.26800 56.30600 31.90300

