158

Mg 49.01500 46.52200 42.61800
C  45.74400 47.37100 41.77400
C  48.46300 43.55200 40.86000
C  52.26700 46.00600 42.62800
C  49.52300 49.87400 43.50900
N  47.30200 45.62700 41.37400
C  46.00900 46.05900 41.27000
C  44.98700 45.03000 40.80800
C  45.88600 43.75700 40.85300
C  47.28300 44.27500 41.05900
C  45.42400 42.71300 41.90800
C  44.24200 45.36000 39.49900
C  44.90600 46.30800 38.46500
H  45.80700 45.71400 37.42100
N  50.13600 44.85800 42.03800
C  49.76900 43.76600 41.30200
C  50.93000 42.91000 41.25700
C  52.00300 43.62900 41.87500
C  51.48600 44.96900 42.19300
C  50.94300 41.55700 40.66500
C  53.42700 42.98300 41.94000
O  53.54500 41.76300 41.78000
C  54.61300 43.77400 42.34700
N  50.73100 47.87100 42.70900
C  51.94000 47.34400 42.91800
C  52.96700 48.42100 43.34900
C  52.02600 49.62700 43.70100
C  50.68000 49.09700 43.23400
C  53.87900 47.95000 44.49600
C  52.34200 51.09400 43.08600
C  52.37600 52.20900 44.11600
N  47.90600 48.29300 42.66300
C  48.21300 49.52300 43.24000
C  46.99200 50.36200 43.29900
C  45.97900 49.54400 42.67600
C  46.57100 48.29500 42.41100
C  46.77400 51.82000 43.73200
C  44.60600 49.43300 42.28500
O  43.66700 50.23500 42.30500
C  44.37700 48.05600 41.78900
C  43.38300 47.40000 42.62300
O  43.55300 47.36200 43.81800
O  42.39300 46.82400 41.90800
C  41.49000 46.03100 42.76200
H  48.33900 42.58700 40.36300
H  53.34700 45.88000 42.72700
H  49.68200 50.89700 43.85700
H  44.28700 44.87700 41.62900
H  45.87800 43.25800 39.88400
H  46.20400 42.54300 42.65000
H  45.09900 41.78900 41.43100
H  44.51900 42.95500 42.46600
H  43.22800 45.66300 39.76000
H  44.07000 44.38200 39.05000
H  45.64200 46.93800 38.96400
H  44.16700 46.92800 37.95700
H  50.01500 41.54500 40.09300
H  50.87400 40.81700 41.46200
H  51.81900 41.30500 40.06800
H  54.33700 44.23700 43.29500
H  54.79500 44.39500 41.47000
H  55.40200 43.07400 42.62000
H  53.51700 48.77400 42.47700
H  52.02700 49.67100 44.79000
H  53.73500 46.87600 44.61400
H  53.58700 48.51900 45.37900
H  54.92800 48.11700 44.25000
H  51.58200 51.37100 42.35500
H  53.34000 50.99100 42.66200
H  51.99800 51.90600 45.09200
H  51.72900 53.03200 43.81200
H  53.35500 52.68000 44.20400
H  47.59500 52.13700 44.37400
H  45.82800 51.98100 44.24900
H  46.70100 52.44400 42.84100
H  43.93600 48.26200 40.81400
H  41.83300 45.00300 42.64400
H  40.50000 46.14600 42.32100
H  41.46900 45.97100 43.85000
Mg 26.96200 50.11300 26.97100
C  24.91100 51.21100 29.73600
C  29.22300 48.98500 29.10700
C  29.11800 49.96700 24.39000
C  24.56700 51.63600 24.84500
N  27.07400 50.33500 29.15900
C  26.07900 50.60700 30.13700
C  26.64800 50.33700 31.57700
C  28.08700 49.61000 31.27500
C  28.12500 49.61800 29.73300
C  29.31200 50.33600 31.99100
C  25.69300 49.46600 32.48700
C  25.21300 50.11100 33.79600
H  25.30200 49.16400 34.99800
N  28.86400 49.51900 26.76900
C  29.62200 48.98800 27.74500
C  30.86700 48.37800 27.13900
C  30.78400 48.63500 25.77000
C  29.57000 49.45600 25.54900
C  31.97900 47.77000 27.99500
C  31.75300 48.30800 24.65500
O  31.63600 48.62500 23.44200
C  33.05000 47.57400 24.97000
N  26.89200 50.85400 24.96100
C  27.91300 50.55600 24.07600
C  27.45900 50.78100 22.61900
C  25.94100 51.01100 22.75300
C  25.76200 51.23100 24.27800
C  28.20000 51.95800 21.98800
C  25.04900 49.80100 22.23400
C  24.25200 49.95600 20.95100
N  25.00000 51.18400 27.15700
C  24.19300 51.69000 26.19200
C  22.96100 52.07200 26.82900
C  23.27400 51.97500 28.20900
C  24.47900 51.37100 28.30200
C  21.69700 52.43700 26.18500
C  22.65700 52.09500 29.51000
O  21.52700 52.50500 29.78900
C  23.63900 51.64100 30.55700
C  23.88100 52.66700 31.56300
O  24.84400 53.48300 31.57300
O  22.96900 52.52700 32.56500
C  23.09500 53.49500 33.71300
H  29.85400 48.44500 29.81600
H  29.80600 49.85700 23.54800
H  23.76600 51.97400 24.18400
H  26.82300 51.31900 32.01700
H  28.03800 48.58400 31.63800
H  29.00700 50.77800 32.93900
H  29.89600 51.00600 31.36000
H  30.03200 49.53900 32.18000
H  26.14900 48.49300 32.67200
H  24.81600 49.21500 31.88900
H  24.15600 50.31500 33.62700
H  25.63700 51.08700 34.03000
H  31.75200 48.06800 29.01800
H  32.95300 48.17300 27.71900
H  32.03700 46.69000 27.86400
H  32.97200 46.56700 25.37800
H  33.55300 48.22800 25.68200
H  33.61500 47.62600 24.03900
H  27.53700 49.85300 22.05300
H  25.51400 51.91900 22.32600
H  28.52900 51.59100 21.01500
H  29.07700 52.39400 22.46500
H  27.52600 52.79400 21.80400
H  24.41000 49.34800 22.99100
H  25.72600 48.99100 21.96400
H  24.52600 49.20700 20.20800
H  24.37600 51.00400 20.67600
H  23.20100 49.77700 21.17900
H  20.84200 52.34000 26.85500
H  21.58300 51.98500 25.19900
H  21.78400 53.50300 25.97800
H  23.21500 50.79500 31.09800
H  23.32700 52.92000 34.60900
H  22.12900 53.88400 34.03500
H  23.78500 54.33000 33.59300

