158

Mg 0.23600 7.31100 26.34400
C  1.10100 9.32800 29.03900
C  -0.00200 4.52200 28.49400
C  -0.40100 5.39100 23.69000
C  0.62400 10.10900 24.26000
N  0.54100 7.05500 28.47500
C  0.84100 8.01500 29.43400
C  0.81900 7.40400 30.78800
C  0.73100 5.90200 30.56400
C  0.31700 5.81200 29.06000
C  2.06800 5.12500 30.84800
C  -0.47300 7.93400 31.56400
C  -0.48500 7.82400 33.16700
H  0.72900 7.15900 33.77000
N  -0.06700 5.20000 26.08800
C  -0.15100 4.25800 27.05600
C  -0.41500 2.94900 26.44000
C  -0.45000 3.20300 25.07800
C  -0.27400 4.62600 24.87700
C  -0.58800 1.60400 27.17600
C  -0.64800 2.19500 23.88400
O  -0.55800 2.51900 22.71100
C  -0.92800 0.73600 24.24800
N  0.29500 7.65800 24.30900
C  -0.21000 6.75800 23.46700
C  -0.40100 7.28500 22.02500
C  -0.41000 8.80300 22.31200
C  0.18100 8.89500 23.69100
C  0.87600 6.82800 21.14800
C  -1.85200 9.43800 22.20400
C  -2.00900 10.30800 20.92600
N  0.78000 9.34900 26.52600
C  0.96900 10.33400 25.60700
C  1.33500 11.55000 26.26900
C  1.48400 11.22600 27.60600
C  1.03800 9.83700 27.71200
C  1.57600 12.88400 25.59100
C  1.72900 11.72300 28.93700
O  1.92500 12.88900 29.29300
C  1.47000 10.47000 29.94600
C  2.79900 10.18400 30.60000
O  3.59700 9.35400 30.23800
O  2.78300 10.81500 31.85900
C  3.74500 10.24400 32.85200
H  0.02400 3.66300 29.16800
H  -0.50100 4.79200 22.78200
H  0.69200 10.95200 23.56900
H  1.66100 7.80000 31.35500
H  -0.01700 5.44200 31.20800
H  2.73600 5.77200 31.41600
H  2.59200 4.97000 29.90400
H  1.88900 4.15600 31.31200
H  -1.33500 7.46100 31.09400
H  -0.60800 9.00300 31.39900
H  -1.44100 7.34300 33.37400
H  -0.58300 8.89400 33.34900
H  0.12000 0.83100 26.87700
H  -1.61900 1.26600 27.07000
H  -0.40800 1.69700 28.24700
H  -1.84500 0.69600 24.83700
H  -0.10800 0.17300 24.69300
H  -1.16000 0.20800 23.32300
H  -1.30800 6.93000 21.53600
H  0.23700 9.29300 21.58500
H  1.77700 6.77900 21.75900
H  0.94000 7.49800 20.29100
H  0.69100 5.79800 20.84300
H  -2.01800 10.12700 23.03200
H  -2.66900 8.71700 22.19300
H  -1.16000 10.14900 20.26200
H  -2.01500 11.35500 21.23200
H  -2.93000 10.05600 20.40100
H  0.70400 13.49800 25.81700
H  1.55000 12.76100 24.50900
H  2.35600 13.48200 26.06200
H  0.74200 10.88400 30.64500
H  3.75400 9.15800 32.95100
H  3.56000 10.64700 33.84800
H  4.79600 10.43800 32.63500
Mg -1.82200 33.84300 27.22400
C  -3.45600 31.91300 29.66500
C  -0.77900 35.97100 29.92200
C  -0.62600 35.97400 25.01300
C  -3.20000 31.92700 24.71500
N  -2.11500 33.92700 29.60900
C  -2.75800 32.97300 30.33700
C  -2.58900 33.28400 31.81200
C  -1.82300 34.67100 31.85900
C  -1.52500 34.89100 30.36900
C  -2.48600 35.91900 32.56100
C  -1.90800 32.18100 32.59400
C  -2.58300 31.68600 33.90300
H  -1.81700 31.96300 35.22600
N  -0.77200 35.58400 27.41100
C  -0.29400 36.20600 28.57300
C  0.65500 37.21600 28.17700
C  0.68300 37.22600 26.68500
C  -0.28900 36.23500 26.32800
C  1.50400 38.06900 29.15800
C  1.35800 38.15600 25.78200
O  1.05800 38.29400 24.58100
C  2.23100 39.20700 26.36900
N  -1.99300 34.10200 25.20000
C  -1.33400 34.96600 24.44600
C  -1.46600 34.71000 22.92500
C  -1.86200 33.22000 22.91700
C  -2.50200 33.10000 24.33700
C  -2.51600 35.65500 22.32400
C  -0.76400 32.13400 22.62400
C  -1.21100 30.71700 22.25600
N  -3.22300 32.37300 27.10700
C  -3.59700 31.65500 26.01400
C  -4.35600 30.50500 26.45300
C  -4.41700 30.60000 27.87700
C  -3.65200 31.75700 28.23800
C  -4.90800 29.42000 25.51400
C  -4.90800 29.91900 29.00400
O  -5.52500 28.89900 29.13300
C  -4.31800 30.78900 30.27200
C  -5.34100 31.29600 31.19600
O  -6.14600 32.19700 30.93400
O  -5.18000 30.64800 32.37100
C  -6.27800 30.76500 33.32100
H  -0.31300 36.59800 30.68500
H  -0.17000 36.56900 24.21900
H  -3.49300 31.20500 23.94900
H  -3.59200 33.36000 32.23200
H  -0.81400 34.66800 32.27100
H  -2.98900 36.50800 31.79400
H  -1.73000 36.56700 33.00500
H  -3.22800 35.59800 33.29300
H  -0.90800 32.48900 32.90100
H  -1.72000 31.31900 31.95400
H  -2.73100 30.61200 33.78900
H  -3.54900 32.18900 33.95400
H  2.56200 37.98700 28.90900
H  1.28200 37.83900 30.20000
H  1.24900 39.12400 29.05800
H  3.07900 38.65400 26.77100
H  1.75400 39.80300 27.14700
H  2.50800 39.82600 25.51600
H  -0.53500 34.81100 22.36700
H  -2.74400 33.13300 22.28200
H  -3.33100 35.18700 21.77300
H  -2.01900 36.31000 21.60800
H  -2.83000 36.38600 23.07000
H  -0.26200 32.01400 23.58400
H  0.02600 32.47100 21.95400
H  -0.99100 30.15800 23.16500
H  -0.70100 30.26500 21.40500
H  -2.29100 30.65100 22.12400
H  -4.15000 29.21800 24.75700
H  -5.83700 29.73600 25.03800
H  -5.14700 28.60800 26.20000
H  -3.74100 30.09600 30.88500
H  -7.02700 31.50900 33.04900
H  -5.86700 31.14600 34.25600
H  -6.77800 29.81300 33.49700

