158

Mg 48.05600 25.57000 27.90700
C  49.03500 27.87900 30.30000
C  47.00300 23.53500 30.43400
C  47.34500 23.46500 25.53900
C  50.06500 27.47100 25.61200
N  48.05200 25.67800 30.13300
C  48.44600 26.80200 30.87500
C  47.96500 26.63300 32.36500
C  47.42700 25.15700 32.37200
C  47.47500 24.74700 30.90800
C  48.26800 24.16100 33.22600
C  46.91300 27.72100 32.82900
C  46.09500 27.41800 34.09300
H  45.88200 28.43200 35.26800
N  47.38800 23.74500 27.93300
C  46.91600 23.06800 29.09300
C  46.49000 21.73300 28.68100
C  46.44100 21.74800 27.27800
C  47.03000 23.02600 26.84700
C  46.11700 20.67700 29.67100
C  45.82700 20.72000 26.33000
O  45.96500 20.74400 25.14800
C  45.07900 19.57200 26.90800
N  48.56600 25.54500 25.83100
C  48.03600 24.62000 25.03600
C  48.37100 24.80000 23.57600
C  49.26500 26.13300 23.64500
C  49.34900 26.39300 25.13300
C  49.07200 23.58300 22.91700
C  48.64700 27.35100 22.90000
C  48.22100 27.07300 21.47300
N  49.27100 27.44300 27.85300
C  50.01700 28.03000 26.91600
C  50.64700 29.23500 27.44200
C  50.23700 29.20400 28.84300
C  49.44200 28.06400 28.98500
C  51.45700 30.17200 26.68500
C  50.36000 29.92700 30.02400
O  50.90600 30.99800 30.20100
C  49.49000 29.24300 30.99800
C  50.23500 29.08200 32.28700
O  51.23400 28.32600 32.46100
O  49.70300 29.82800 33.28200
C  50.28200 29.70800 34.59100
H  46.59700 22.75100 31.07600
H  47.10000 22.70700 24.79200
H  50.53300 28.17500 24.92000
H  48.78000 26.75900 33.07800
H  46.39900 25.20300 32.73000
H  49.07600 23.85000 32.56400
H  47.70300 23.24800 33.41300
H  48.65500 24.43600 34.20700
H  46.22100 27.80500 31.99100
H  47.45200 28.66200 32.94500
H  46.58100 26.57700 34.58700
H  45.17700 26.99500 33.68800
H  46.80200 20.82400 30.50600
H  46.24300 19.63900 29.36200
H  45.08200 20.71100 30.01100
H  44.34300 19.93200 27.62700
H  45.62400 18.82400 27.48300
H  44.61800 19.06100 26.06300
H  47.44300 24.95300 23.02500
H  50.23800 25.83900 23.25100
H  48.32200 22.84400 22.63500
H  49.76000 23.11900 23.62400
H  49.74000 23.89700 22.11500
H  49.48200 28.05200 22.91000
H  47.84700 27.78200 23.50100
H  49.07000 26.52900 21.05900
H  48.21400 28.06200 21.01500
H  47.23500 26.61100 21.43100
H  50.92100 31.05000 26.32500
H  52.00400 29.73600 25.84900
H  52.17900 30.41700 27.46400
H  48.64900 29.89000 31.25000
H  51.29400 29.31000 34.67000
H  49.62400 29.16500 35.26900
H  50.32300 30.72400 34.98300
Mg -2.08900 34.36300 26.93500
C  -3.63000 32.54100 29.48800
C  -0.74400 36.41800 29.27100
C  -0.72900 36.01400 24.40600
C  -3.94800 32.43300 24.61400
N  -2.30600 34.64500 29.16500
C  -2.75500 33.57700 29.94900
C  -2.42900 33.89200 31.39100
C  -1.67100 35.29300 31.38600
C  -1.55300 35.50500 29.85600
C  -2.17700 36.45800 32.21500
C  -1.74300 32.68800 32.14300
C  -1.35200 32.88600 33.64200
H  -1.83900 31.88600 34.71900
N  -0.93900 35.95500 26.79200
C  -0.46200 36.67900 27.87500
C  0.47600 37.60500 27.33200
C  0.61300 37.42100 25.97100
C  -0.30600 36.40700 25.62500
C  1.11300 38.52700 28.33100
C  1.45100 38.22200 24.94600
O  1.41400 38.03500 23.76700
C  2.40700 39.21500 25.38200
N  -2.42000 34.28100 24.78500
C  -1.70800 35.07000 23.98300
C  -1.90100 34.73500 22.48100
C  -2.94800 33.55900 22.52100
C  -3.22900 33.44200 24.02900
C  -2.35400 36.00800 21.74700
C  -2.46600 32.18200 21.89500
C  -1.33400 31.39300 22.52200
N  -3.53000 32.83000 27.00200
C  -4.03400 32.07300 25.96600
C  -4.91700 31.09800 26.48200
C  -4.83300 31.24400 27.87700
C  -3.89200 32.27400 28.13200
C  -5.71000 30.10900 25.69800
C  -5.31400 30.77300 29.13700
O  -6.15500 29.97500 29.41700
C  -4.45900 31.49600 30.24700
C  -5.29300 32.08700 31.26600
O  -5.92500 33.10300 30.97600
O  -5.32700 31.38800 32.47900
C  -6.44700 31.73200 33.37200
H  -0.34000 37.04700 30.06600
H  -0.39000 36.60900 23.55500
H  -4.56100 31.79400 23.97400
H  -3.39300 34.14100 31.83600
H  -0.70500 35.06300 31.83400
H  -2.91500 36.06000 32.91100
H  -2.73400 36.99400 31.44700
H  -1.53700 37.17400 32.73000
H  -0.93800 32.32200 31.50700
H  -2.51000 31.91300 32.14300
H  -1.85000 33.82200 33.89600
H  -0.26600 32.94500 33.71200
H  1.93900 39.12500 27.94600
H  1.52700 37.89500 29.11700
H  0.31500 39.06900 28.83800
H  1.95600 40.14100 25.73800
H  2.89700 39.59400 24.48500
H  3.14000 38.86100 26.10700
H  -0.95500 34.41400 22.04600
H  -3.89500 33.88200 22.09000
H  -2.42700 36.87300 22.40500
H  -3.31600 35.89700 21.24600
H  -1.56800 36.17600 21.01000
H  -2.07700 32.54100 20.94100
H  -3.35800 31.56600 21.78800
H  -0.54200 31.29300 21.77900
H  -1.75400 30.43200 22.81700
H  -0.84400 31.81100 23.40100
H  -6.63200 30.48300 25.25200
H  -5.86200 29.19100 26.26600
H  -5.02100 29.69500 24.96200
H  -3.80200 30.79200 30.75800
H  -6.56400 32.80900 33.48600
H  -6.26000 31.30500 34.35700
H  -7.35000 31.21500 33.04700

