158

Mg 47.95800 45.53600 43.52600
C  44.34600 45.37400 43.03300
C  47.89500 42.14300 42.78600
C  51.11900 45.81400 43.10900
C  47.43200 49.06200 43.89100
N  46.24700 44.00300 42.85400
C  44.94000 44.15700 42.62000
C  44.31500 42.96200 41.95200
C  45.39400 41.85200 42.23600
C  46.63200 42.68700 42.67900
C  44.95600 40.77500 43.21900
C  43.87500 43.21700 40.48500
C  42.64800 42.56100 39.95500
H  42.64400 41.69100 38.68800
N  49.34700 44.14700 43.07900
C  49.15100 42.80900 42.91200
C  50.51800 42.22100 42.82400
C  51.48200 43.26900 42.65500
C  50.70400 44.47200 42.96400
C  50.70900 40.69900 42.88600
C  52.92600 43.07700 42.22500
O  53.33400 41.91100 42.06300
C  53.84100 44.20200 42.01300
N  49.01600 47.28000 43.14400
C  50.34300 47.06300 43.29800
C  51.06200 48.39600 43.58300
C  49.87700 49.33600 44.00100
C  48.66700 48.53300 43.68100
C  52.28400 48.27200 44.53700
C  49.82200 50.64600 43.23300
C  49.22800 51.84900 43.92300
N  46.24100 46.94600 43.64000
C  46.23700 48.29300 43.83100
C  44.89700 48.77500 43.97500
C  44.15400 47.65900 43.67500
C  44.98600 46.59100 43.41300
C  44.41900 50.21200 44.33100
C  42.78700 47.21200 43.41300
O  41.74200 47.81900 43.45100
C  42.88800 45.77100 42.99900
C  42.08800 45.06500 44.14800
O  41.20100 44.27000 43.92900
O  42.54900 45.32000 45.40000
C  41.97500 44.55200 46.52100
H  48.08400 41.08500 42.59300
H  52.18400 45.98500 42.94000
H  47.45800 50.13200 44.10900
H  43.39100 42.62700 42.42300
H  45.72100 41.36100 41.31900
H  45.62100 40.66400 44.07600
H  44.90100 39.80300 42.72900
H  43.95400 41.01200 43.57700
H  44.69800 42.90100 39.84400
H  43.89000 44.29400 40.32100
H  41.92300 43.37500 39.96300
H  42.30700 41.83200 40.69100
H  51.05800 40.51900 41.86900
H  49.80400 40.11800 43.06200
H  51.42400 40.42300 43.66200
H  53.41300 45.00900 41.41900
H  54.77500 43.88300 41.55000
H  54.07900 44.61300 42.99400
H  51.52400 48.82500 42.69400
H  49.81600 49.60300 45.05600
H  52.36200 47.31400 45.05000
H  52.21700 48.97400 45.36900
H  53.25600 48.54000 44.12400
H  49.31900 50.59400 42.26700
H  50.82300 51.00500 42.99800
H  49.92700 52.68300 43.98300
H  48.86800 51.63200 44.92900
H  48.36200 52.19700 43.36000
H  43.76600 50.65900 43.58200
H  45.30800 50.84200 44.31400
H  43.93900 50.15100 45.30800
H  42.41100 45.55300 42.04400
H  40.88600 44.57900 46.56100
H  42.37300 44.95700 47.45100
H  42.18300 43.48700 46.42200
Mg -0.44900 42.43700 25.91500
C  2.09500 41.97900 28.17400
C  -2.73600 41.52500 28.48500
C  -2.92000 42.48800 23.60300
C  1.87200 42.76300 23.29300
N  -0.31500 41.90600 28.10300
C  0.82500 41.89300 28.80000
C  0.61100 41.71000 30.28600
C  -0.86600 41.29700 30.32900
C  -1.35200 41.61000 28.88200
C  -1.12500 39.80500 30.59200
C  0.79200 43.03900 31.06400
C  0.89700 42.96000 32.54800
H  0.36000 41.76100 33.21100
N  -2.53400 42.02900 26.06000
C  -3.31000 41.83200 27.24100
C  -4.70000 41.81400 26.79400
C  -4.75800 42.20300 25.42100
C  -3.34000 42.23300 24.93500
C  -5.81800 41.49000 27.78000
C  -6.03500 42.36800 24.51600
O  -5.91900 42.65500 23.27900
C  -7.45200 42.29400 25.11700
N  -0.51000 42.58000 23.73800
C  -1.65000 42.52300 23.01200
C  -1.45200 42.80300 21.47600
C  0.10900 43.06300 21.47400
C  0.53500 42.73000 22.91500
C  -1.98900 41.60400 20.71600
C  0.57700 44.53700 21.06900
C  -0.10400 45.73900 21.88700
N  1.54800 42.39200 25.75700
C  2.37000 42.52100 24.60500
C  3.72200 42.42100 25.02800
C  3.70900 42.17600 26.44500
C  2.35700 42.30100 26.78500
C  4.97700 42.59500 24.12300
C  4.48000 41.84400 27.62100
O  5.63900 41.56300 27.74100
C  3.51000 41.94000 28.82100
C  3.73600 40.75800 29.75100
O  3.23300 39.71600 29.65300
O  4.58700 41.12800 30.77700
C  4.84700 40.28800 31.94100
H  -3.33300 41.44500 29.39500
H  -3.61000 42.63500 22.77000
H  2.67900 42.82500 22.55900
H  1.19300 40.84400 30.59900
H  -1.46300 41.88000 31.03000
H  -1.74700 39.78500 31.48700
H  -0.19100 39.33200 30.89700
H  -1.75800 39.23900 29.90900
H  -0.12000 43.61500 30.90600
H  1.64400 43.45800 30.52800
H  0.49800 43.85300 33.03000
H  1.96900 42.96200 32.75000
H  -5.61800 40.92300 28.68900
H  -6.58800 40.90600 27.27600
H  -6.23200 42.44800 28.09300
H  -8.13900 42.79300 24.43400
H  -7.36000 42.92600 26.00000
H  -7.74800 41.25900 25.29000
H  -1.91500 43.67400 21.01200
H  0.63600 42.41700 20.77100
H  -2.88100 41.87700 20.15200
H  -2.14500 40.70500 21.31200
H  -1.26600 41.41300 19.92300
H  0.42400 44.66300 19.99800
H  1.63300 44.71200 21.27400
H  -0.71700 46.42400 21.30000
H  0.76300 46.27600 22.27200
H  -0.71500 45.28800 22.66900
H  4.92400 43.58800 23.67700
H  4.92600 41.90100 23.28400
H  5.92000 42.47100 24.65600
H  3.73000 42.89500 29.29900
H  4.43300 40.75800 32.83400
H  5.91900 40.09300 31.96500
H  4.43500 39.29000 31.79000

