158

Mg -2.23200 17.87400 27.34500
C  -2.61500 15.56900 30.17200
C  -2.33300 20.25300 29.61300
C  -2.24600 19.78800 24.80200
C  -2.96100 15.01300 25.26700
N  -2.62000 17.88500 29.62600
C  -2.52900 16.90700 30.59100
C  -2.52500 17.48900 32.03300
C  -2.83800 18.96500 31.71100
C  -2.63600 19.04600 30.17000
C  -4.19800 19.53300 32.03700
C  -1.20800 17.19900 32.83100
C  -0.87300 18.11300 34.02600
H  -0.60300 17.43700 35.35200
N  -2.09500 19.78100 27.26200
C  -2.07500 20.64300 28.27300
C  -1.84000 21.93200 27.68700
C  -1.62300 21.78500 26.26200
C  -2.01700 20.39100 26.08000
C  -1.95300 23.21000 28.51500
C  -1.31900 22.80100 25.20700
O  -1.22200 22.55900 24.01900
C  -0.99800 24.23300 25.66600
N  -2.46900 17.40100 25.36500
C  -2.50600 18.46100 24.48300
C  -2.83100 17.94800 23.02800
C  -2.98900 16.48200 23.24600
C  -2.78000 16.29900 24.71700
C  -3.92400 18.69800 22.41100
C  -2.12300 15.59100 22.32700
C  -0.65000 15.43200 22.67200
N  -2.67300 15.68900 27.56600
C  -2.94100 14.70900 26.65700
C  -2.90700 13.43200 27.28600
C  -2.91600 13.72300 28.64400
C  -2.77000 15.12000 28.83600
C  -2.80800 12.11400 26.65400
C  -2.90000 13.15800 29.98800
O  -2.89700 11.92200 30.25900
C  -2.81100 14.38900 30.99500
C  -1.70000 14.07100 31.91800
O  -0.51400 14.18400 31.72700
O  -2.29800 13.45700 33.07800
C  -1.34600 13.32600 34.19000
H  -2.11100 21.11500 30.24600
H  -2.24800 20.56300 24.03300
H  -3.21900 14.14400 24.65800
H  -3.32900 16.94700 32.53000
H  -2.30100 19.75500 32.23600
H  -4.91800 19.61100 31.22200
H  -4.24600 20.40600 32.68800
H  -4.63900 18.74100 32.64200
H  -0.37700 17.21600 32.12600
H  -1.47400 16.23900 33.27400
H  -1.74600 18.75600 34.14200
H  -0.01000 18.73700 33.79300
H  -2.29300 23.05000 29.53800
H  -2.57100 23.93400 27.98400
H  -1.02200 23.77500 28.46800
H  -0.34100 24.19500 26.53500
H  -1.95200 24.74600 25.78900
H  -0.57200 24.74500 24.80300
H  -1.94900 18.12600 22.41300
H  -4.03100 16.16600 23.19200
H  -3.71000 19.76700 22.41200
H  -4.97000 18.56000 22.68400
H  -3.92500 18.59600 21.32600
H  -2.13300 15.99200 21.31300
H  -2.69000 14.66200 22.27400
H  -0.42000 15.83300 23.65900
H  -0.06800 15.95000 21.91000
H  -0.27000 14.41200 22.71900
H  -2.20500 11.50300 27.32600
H  -2.37600 12.15500 25.65400
H  -3.82000 11.73800 26.50200
H  -3.81700 14.51900 31.39500
H  -1.89800 13.37300 35.12800
H  -0.63900 14.15600 34.18000
H  -0.89100 12.34700 34.03900
Mg 24.52200 1.46700 29.11800
C  26.62400 0.75100 31.89300
C  21.93100 1.35500 31.14700
C  22.54800 2.05900 26.34100
C  27.31600 1.16800 27.06800
N  24.36200 1.15000 31.30100
C  25.29800 1.00000 32.25700
C  24.73300 1.03800 33.63600
C  23.19200 1.30700 33.40000
C  23.15500 1.32200 31.86500
C  22.18200 0.34100 34.11700
C  25.50000 2.07900 34.57000
C  24.67100 2.72300 35.65200
H  25.45400 3.28100 36.82300
N  22.54200 1.65100 28.87500
C  21.59100 1.51600 29.79700
C  20.27400 1.62300 29.23500
C  20.45400 1.69300 27.81200
C  21.90400 1.85200 27.60800
C  19.01700 1.34600 30.04600
C  19.40900 1.55200 26.68900
O  19.65800 1.43200 25.47100
C  17.98100 1.52900 27.07300
N  24.85700 1.73600 27.06000
C  23.91800 1.96600 26.10800
C  24.58400 2.15200 24.75300
C  26.10500 2.02500 25.01000
C  26.12000 1.66000 26.50100
C  24.08200 1.48600 23.50000
C  26.85700 3.40300 24.79200
C  26.64200 4.42500 25.91700
N  26.49400 0.78100 29.28100
C  27.49600 0.73600 28.37000
C  28.73300 0.38400 29.01100
C  28.43600 0.50100 30.39100
C  27.03200 0.59800 30.53100
C  29.97000 0.08700 28.34200
C  29.03200 0.46200 31.67700
O  30.16000 0.25300 32.12600
C  27.87600 0.71600 32.71900
C  28.02300 -0.41400 33.73300
O  27.58300 -1.50600 33.55700
O  28.66000 0.05100 34.95600
C  28.79900 -1.02200 36.04100
H  21.14500 1.36800 31.90400
H  22.06600 2.18900 25.36900
H  28.17000 1.12500 26.38900
H  24.94000 0.04300 34.02800
H  23.05100 2.33300 33.74000
H  21.73200 0.91600 34.92700
H  22.75800 -0.41700 34.64700
H  21.60200 -0.11900 33.31700
H  25.95900 2.88400 33.99600
H  26.30200 1.56700 35.10100
H  24.00200 1.88800 35.86200
H  24.17400 3.62700 35.29800
H  18.77400 0.30600 29.82900
H  18.16100 1.98300 29.82500
H  19.29300 1.48100 31.09100
H  17.34400 1.60600 26.19200
H  17.80500 2.32100 27.80100
H  17.86800 0.50000 27.41700
H  24.35700 3.17300 24.44600
H  26.48300 1.18800 24.42300
H  23.65600 2.24000 22.83800
H  23.33600 0.72900 23.74100
H  24.90600 1.06400 22.92400
H  26.28700 3.81100 23.95700
H  27.89500 3.27800 24.48700
H  26.76000 4.13000 26.95900
H  25.65300 4.87800 25.84000
H  27.33500 5.26500 25.87500
H  29.73700 -0.18800 27.31300
H  30.52200 -0.67800 28.88600
H  30.59700 0.97600 28.40700
H  27.98800 1.68800 33.19900
H  28.34700 -1.98400 35.80100
H  28.21600 -0.67800 36.89600
H  29.81700 -1.12500 36.41600

