158

Mg 36.34900 49.48800 24.99100
C  36.59400 47.92000 28.06400
C  36.01100 52.47600 26.58200
C  36.07200 50.92000 22.02100
C  37.04600 46.41900 23.52400
N  36.34900 50.17400 27.13400
C  36.40000 49.31400 28.23300
C  36.09200 50.01100 29.61400
C  35.78700 51.47100 29.04500
C  36.10800 51.38200 27.46400
C  34.35300 52.03200 29.34800
C  37.30700 49.97300 30.65200
C  36.89600 50.16600 32.13100
H  35.34700 50.15300 32.50700
N  36.10300 51.40200 24.39900
C  35.95400 52.49700 25.13800
C  35.86700 53.68000 24.37700
C  35.80400 53.27700 23.02300
C  36.01700 51.80100 23.08900
C  35.72600 55.07300 24.96000
C  35.45100 54.02000 21.83700
O  35.45300 53.50300 20.71500
C  35.13900 55.45900 21.90100
N  36.36100 48.74400 23.00600
C  36.31900 49.54300 21.92600
C  36.48700 48.80600 20.57200
C  36.92600 47.34400 21.06700
C  36.75400 47.49400 22.59300
C  35.08000 48.85500 19.93800
C  38.23400 46.89500 20.53800
C  39.44500 46.83300 21.46100
N  36.74900 47.50900 25.56100
C  36.91400 46.37600 24.90100
C  37.16800 45.28300 25.80300
C  37.04100 45.86100 27.03100
C  36.76800 47.18000 26.82200
C  37.62700 43.90000 25.47800
C  37.11700 45.59100 28.45000
O  37.45500 44.55600 29.02500
C  36.75500 46.86400 29.18300
C  35.55200 46.50800 29.97800
O  34.41000 46.57200 29.50500
O  35.85500 46.04300 31.17400
C  34.78100 45.61900 32.00000
H  35.82800 53.42100 27.09800
H  35.87900 51.32600 21.02600
H  37.25900 45.42900 23.11500
H  35.23100 49.49300 30.03600
H  36.55700 52.12600 29.45300
H  33.81600 51.44000 30.08900
H  33.77300 51.88100 28.43800
H  34.50300 53.07300 29.63400
H  38.00200 50.76500 30.37400
H  37.92100 49.09900 30.43500
H  37.39300 51.07500 32.46900
H  37.37300 49.41800 32.76400
H  34.80900 55.64200 24.80500
H  36.54500 55.65300 24.53700
H  35.79000 55.03900 26.04800
H  35.96400 56.01100 22.35100
H  34.34900 55.61900 22.63500
H  34.85600 55.90800 20.94900
H  37.27500 49.27700 19.98500
H  36.16500 46.62500 20.76200
H  34.94200 47.90900 19.41400
H  34.98800 49.54000 19.09600
H  34.33100 48.86400 20.73100
H  38.42000 47.42500 19.60400
H  38.05200 45.83800 20.34700
H  39.37000 47.73800 22.06500
H  40.25700 47.00200 20.75400
H  39.64900 45.92000 22.02000
H  36.94400 43.15200 25.88100
H  38.57000 43.66900 25.97400
H  37.79300 43.79400 24.40600
H  37.53800 47.19100 29.86700
H  35.05700 45.70400 33.05100
H  34.52600 44.60500 31.69000
H  33.91800 46.26500 31.84200
Mg 26.11700 51.26000 25.55400
C  23.78700 52.13200 27.98800
C  28.35000 50.61600 27.89000
C  28.45400 50.93800 23.11400
C  23.83400 52.32300 23.04000
N  26.11600 51.49600 27.72200
C  24.99400 51.80100 28.55100
C  25.31500 51.49600 29.98500
C  26.88300 51.20100 29.92000
C  27.17500 51.04900 28.45100
C  27.87000 52.23200 30.47000
C  24.42100 50.37700 30.60500
C  23.61300 50.79900 31.83400
H  23.92900 50.11000 33.13900
N  28.02100 50.68400 25.48300
C  28.74700 50.42600 26.57100
C  30.11300 50.05800 26.15800
C  30.17400 50.18100 24.76900
C  28.84300 50.60500 24.40300
C  31.19000 49.69800 27.08400
C  31.35500 49.96000 23.79900
O  31.35100 50.02800 22.54500
C  32.68700 49.41900 24.33000
N  26.22200 51.75400 23.40100
C  27.23700 51.37800 22.64100
C  27.11500 51.97400 21.25400
C  25.57200 52.09500 21.11500
C  25.18900 52.18900 22.60000
C  28.03000 53.17800 20.99900
C  24.82900 50.90400 20.46500
C  24.15400 51.20500 19.10400
N  24.22600 52.03600 25.43800
C  23.37100 52.30700 24.35900
C  22.05900 52.78300 24.84800
C  22.24600 52.77900 26.23000
C  23.48900 52.21100 26.58200
C  20.95400 53.28200 24.00200
C  21.49600 53.00500 27.38400
O  20.37700 53.51400 27.59800
C  22.51600 52.55900 28.56900
C  22.67600 53.65500 29.57500
O  23.26500 54.71900 29.45500
O  22.04200 53.37900 30.71300
C  21.88000 54.42600 31.75200
H  29.08400 50.36500 28.65900
H  29.23100 50.72800 22.37600
H  23.17400 52.41600 22.17500
H  25.30100 52.42500 30.55600
H  27.02300 50.24700 30.42900
H  27.50000 53.25000 30.34300
H  28.88900 52.19600 30.08600
H  27.73200 52.06300 31.53800
H  25.11500 49.56900 30.83500
H  23.68600 50.03000 29.87900
H  22.56400 50.69900 31.55500
H  23.83900 51.85800 31.96400
H  31.33600 48.61900 27.13800
H  30.99400 49.98200 28.11800
H  32.14700 50.17700 26.87600
H  32.49400 48.49100 24.86900
H  32.99900 50.30700 24.88000
H  33.37600 49.31200 23.49300
H  27.37100 51.15300 20.58500
H  25.37400 53.02000 20.57400
H  27.45500 54.05500 20.70500
H  28.66400 52.88000 20.16400
H  28.64200 53.49200 21.84500
H  24.07800 50.48400 21.13500
H  25.48000 50.03200 20.40300
H  23.25400 50.59300 19.03600
H  24.84900 51.01000 18.28700
H  23.79500 52.22000 19.26700
H  20.73800 52.56700 23.20800
H  21.35000 54.12500 23.43500
H  20.06600 53.56100 24.56900
H  22.10800 51.71600 29.12700
H  22.44900 54.13200 32.63400
H  20.81300 54.51400 31.95700
H  22.21500 55.42000 31.45600

