158

Mg 35.69500 0.83100 30.16100
C  33.31800 1.99800 32.39400
C  38.00200 1.07800 32.54700
C  37.75800 -0.08200 27.88800
C  33.22600 1.35300 27.57800
N  35.71200 1.75800 32.25200
C  34.59500 1.83400 33.03700
C  34.97500 1.75800 34.54700
C  36.52700 1.87800 34.47100
C  36.76400 1.51500 33.01900
C  36.98500 3.33200 34.74600
C  34.50700 0.40200 35.17700
C  33.51300 0.57600 36.37400
H  33.99900 1.63300 37.42300
N  37.62500 0.42000 30.22300
C  38.41500 0.59200 31.30000
C  39.74600 0.11900 30.92500
C  39.68900 -0.24000 29.49800
C  38.28600 0.05200 29.14500
C  40.88100 -0.08900 31.86000
C  40.76400 -0.93300 28.54400
O  40.52600 -1.40900 27.42400
C  42.19000 -1.15700 29.04900
N  35.49300 0.57600 28.03900
C  36.51200 0.17100 27.35300
C  36.16300 0.00900 25.85900
C  34.63500 0.36000 25.82900
C  34.42600 0.77700 27.26200
C  37.07400 0.93500 24.94400
C  33.65900 -0.79500 25.36700
C  32.84300 -0.60400 24.07500
N  33.70400 1.62700 29.96000
C  32.87500 1.84300 28.84900
C  31.60000 2.38900 29.31300
C  31.68200 2.23000 30.73900
C  33.02100 1.94200 31.02800
C  30.42600 2.70800 28.48300
C  30.96400 2.30700 31.96100
O  29.77400 2.49200 32.04900
C  31.96100 2.19100 33.09700
C  32.02100 3.46600 33.81800
O  32.59500 4.49000 33.51100
O  31.33000 3.25800 34.97800
C  31.23000 4.40900 35.88600
H  38.82300 1.14600 33.26400
H  38.40800 -0.47100 27.10100
H  32.46000 1.30100 26.80200
H  34.61600 2.67200 35.02100
H  37.11200 1.11200 34.97900
H  36.74900 3.98400 33.90600
H  38.04800 3.29800 34.98500
H  36.56700 3.71200 35.67800
H  35.29900 -0.29100 35.46100
H  34.02500 -0.17900 34.39100
H  33.54400 -0.31800 36.99800
H  32.49000 0.70400 36.02000
H  41.72600 0.41300 31.38900
H  41.09000 -1.12300 32.13600
H  40.77900 0.46500 32.79300
H  42.74300 -1.71500 28.29300
H  42.15300 -1.86300 29.87900
H  42.51200 -0.17000 29.37900
H  36.17000 -1.06700 25.68900
H  34.29700 1.19300 25.21200
H  37.50400 1.65800 25.63800
H  36.39500 1.40500 24.23300
H  37.73500 0.35000 24.30500
H  32.98100 -1.07900 26.17200
H  34.16900 -1.75200 25.26200
H  33.31100 0.27300 23.62900
H  31.77500 -0.45300 24.23200
H  32.88300 -1.38300 23.31400
H  30.64200 2.58900 27.42100
H  30.14500 3.74600 28.65800
H  29.56100 2.12500 28.79700
H  31.70300 1.34600 33.73600
H  32.25400 4.46400 36.25700
H  30.54500 4.16300 36.69800
H  30.83900 5.33100 35.45500
Mg -5.38600 24.84900 26.64300
C  -3.60500 26.28500 29.40200
C  -6.51100 22.60700 28.97600
C  -6.55200 23.37800 24.11700
C  -3.74700 27.24000 24.49300
N  -5.31900 24.74600 29.05600
C  -4.50000 25.34900 29.87600
C  -5.01100 25.15000 31.30900
C  -5.59900 23.66800 31.12700
C  -5.86200 23.65800 29.66700
C  -4.49700 22.59200 31.45400
C  -5.98100 26.23500 31.87300
C  -5.71400 26.75600 33.22300
H  -5.45000 25.69000 34.24400
N  -6.41400 23.25900 26.55100
C  -6.72200 22.37300 27.60000
C  -7.36400 21.21600 27.07000
C  -7.38300 21.38700 25.60200
C  -6.81400 22.70600 25.33100
C  -7.83600 20.14000 27.92700
C  -7.91000 20.44500 24.52100
O  -7.88600 20.70000 23.28800
C  -8.52100 19.22600 24.98000
N  -5.30800 25.35800 24.58400
C  -5.86900 24.55300 23.70600
C  -5.71600 24.95100 22.24700
C  -4.87500 26.28700 22.41500
C  -4.67800 26.37600 23.95900
C  -5.07800 23.79900 21.38100
C  -5.33300 27.51400 21.69000
C  -4.30100 28.33500 20.80100
N  -4.10200 26.45400 26.87600
C  -3.44700 27.26100 25.88700
C  -2.44900 28.16400 26.57400
C  -2.48100 27.75900 27.89600
C  -3.47200 26.74300 28.08900
C  -1.62400 29.39300 26.06600
C  -1.89200 28.03500 29.22200
O  -0.99600 28.80800 29.57300
C  -2.74100 27.21800 30.17700
C  -1.92500 26.50800 31.23500
O  -1.08100 25.62000 30.95200
O  -2.12600 26.99600 32.43600
C  -1.25900 26.60300 33.51900
H  -6.91200 21.97600 29.77200
H  -6.99600 22.98700 23.19800
H  -3.29800 28.00400 23.85500
H  -4.15000 25.03300 31.96600
H  -6.63400 23.51400 31.43300
H  -4.84600 21.64700 31.03800
H  -4.36300 22.41700 32.52100
H  -3.52900 22.90900 31.06500
H  -6.96600 25.77500 31.79600
H  -5.88900 27.05300 31.15900
H  -6.61400 27.26800 33.56200
H  -4.89900 27.47700 33.16100
H  -7.21500 20.09600 28.82100
H  -7.69900 19.18300 27.42400
H  -8.92200 20.22700 27.89300
H  -7.69000 18.60500 25.31300
H  -9.02200 18.81400 24.10400
H  -9.22800 19.38200 25.79500
H  -6.74100 25.09500 21.90500
H  -3.87000 26.12000 22.02600
H  -4.38700 24.13000 20.60500
H  -5.98200 23.39300 20.92700
H  -4.72200 23.04700 22.08500
H  -5.58300 28.22200 22.48000
H  -6.18500 27.16400 21.10800
H  -3.30600 27.91300 20.65600
H  -4.18600 29.31300 21.26800
H  -4.64700 28.60700 19.80500
H  -1.77100 30.31800 26.62400
H  -1.78800 29.57600 25.00400
H  -0.54900 29.22000 26.10700
H  -3.39500 27.90200 30.71700
H  -0.29400 26.20100 33.21000
H  -1.75900 25.87600 34.16000
H  -1.25500 27.57600 34.01100

