158

Mg 40.81700 9.90700 30.07500
C  42.38300 10.95200 32.94500
C  38.04600 8.90300 31.87900
C  39.52000 8.66700 27.15800
C  43.49900 11.23900 28.21200
N  40.35900 9.71800 32.21000
C  41.09300 10.34200 33.14600
C  40.31800 10.51200 34.45000
C  39.09900 9.63700 34.19400
C  39.09000 9.45500 32.63000
C  38.90700 8.28300 34.98300
C  40.05600 11.99900 34.76200
C  39.56300 12.20500 36.15500
H  40.44600 13.02100 37.09700
N  39.02700 8.94900 29.59300
C  38.00200 8.56800 30.45900
C  37.04700 7.69300 29.67500
C  37.46000 7.66700 28.33500
C  38.69400 8.48700 28.28400
C  35.86300 7.06900 30.28700
C  36.82200 6.96900 27.15500
O  37.24100 7.15600 26.06600
C  35.61200 6.26300 27.30400
N  41.47300 9.89200 27.95100
C  40.67000 9.37600 26.98900
C  41.27100 9.69200 25.64400
C  42.40600 10.77900 25.99200
C  42.48000 10.69400 27.45200
C  41.73000 8.47900 24.72800
C  42.13000 12.21400 25.43600
C  41.01600 12.97500 26.14100
N  42.68500 10.69900 30.44900
C  43.63500 11.20400 29.59500
C  44.74400 11.67700 30.40300
C  44.30100 11.64400 31.71200
C  43.02800 11.09600 31.71600
C  45.98500 12.26600 29.85300
C  44.57600 12.03200 33.05200
O  45.58400 12.57600 33.56000
C  43.33500 11.60000 33.91600
C  43.80400 10.66300 34.94300
O  44.49600 9.64800 34.65500
O  43.40800 11.13800 36.21800
C  43.66700 10.21100 37.31900
H  37.10100 8.63200 32.35400
H  39.29200 8.16400 26.21500
H  44.27600 11.63700 27.55700
H  40.80100 10.02200 35.29500
H  38.22800 10.17500 34.56900
H  39.84600 8.16000 35.52200
H  38.76500 7.42300 34.32800
H  38.09100 8.44500 35.68800
H  39.31200 12.40800 34.07800
H  40.96800 12.58000 34.62800
H  39.44800 11.31900 36.78000
H  38.59800 12.70600 36.07400
H  35.09700 7.83500 30.17600
H  35.99300 6.88900 31.35500
H  35.66700 6.06600 29.90600
H  35.42100 5.98400 26.26700
H  34.85400 7.02200 27.49400
H  35.62300 5.34100 27.88400
H  40.56300 10.30300 25.08400
H  43.38500 10.42800 25.66500
H  41.30700 7.54400 25.09600
H  42.80600 8.31600 24.66000
H  41.31700 8.73100 23.75100
H  41.92500 12.01500 24.38400
H  43.03400 12.81300 25.54100
H  41.31900 13.99300 26.38800
H  40.55200 12.48100 26.99500
H  40.23600 13.07100 25.38700
H  46.66400 12.44500 30.68700
H  45.64800 13.05400 29.18000
H  46.51600 11.54800 29.22900
H  43.03100 12.53300 34.39100
H  44.46600 9.49200 37.13900
H  42.74000 9.74900 37.65800
H  43.99600 10.86100 38.13000
Mg -12.03600 38.72200 43.03900
C  -9.93000 36.16400 41.84700
C  -9.94000 40.93700 41.25300
C  -14.45200 41.04900 43.26200
C  -14.12900 36.30600 44.32500
N  -10.18900 38.52600 41.57100
C  -9.55600 37.39200 41.31600
C  -8.36200 37.58500 40.40600
C  -8.20600 39.14100 40.50600
C  -9.58800 39.56200 41.07800
C  -7.05200 39.62100 41.40000
C  -8.75000 37.08400 38.89800
C  -7.79000 36.00100 38.31400
H  -6.89400 36.44000 37.12900
N  -12.22500 40.75300 42.32500
C  -11.17100 41.51000 41.71700
C  -11.63200 42.88000 41.68100
C  -12.95700 42.95300 42.17400
C  -13.30000 41.56100 42.62500
C  -10.80400 44.00800 41.18700
C  -13.85800 44.16100 42.22600
O  -13.41300 45.24000 41.90700
C  -15.31400 44.04100 42.59700
N  -14.03900 38.74500 43.56900
C  -14.82700 39.77500 43.74300
C  -16.18500 39.45800 44.47200
C  -16.03600 37.96600 44.69200
C  -14.66200 37.61500 44.19200
C  -16.69400 40.30100 45.71700
C  -17.13100 37.06100 44.00300
C  -16.86400 36.45400 42.65800
N  -12.06600 36.70700 43.11500
C  -12.91100 35.84300 43.76800
C  -12.42500 34.46200 43.71400
C  -11.30200 34.60300 42.95300
C  -11.10600 35.96000 42.63000
C  -12.99900 33.18900 44.36000
C  -10.24600 33.76800 42.34800
O  -10.11000 32.52000 42.40800
C  -9.18000 34.78800 41.78900
C  -7.88100 34.68900 42.64000
O  -7.23500 33.66300 42.68100
O  -7.51400 35.84500 43.34100
C  -6.42700 35.70600 44.26900
H  -9.19100 41.66800 40.94100
H  -15.28600 41.72500 43.46200
H  -14.77200 35.52600 44.73900
H  -7.47100 37.06200 40.75400
H  -8.08200 39.65700 39.55300
H  -7.40700 39.86800 42.40100
H  -6.60500 40.41300 40.79900
H  -6.23200 38.91500 41.52500
H  -8.76800 37.85400 38.12700
H  -9.72100 36.58900 38.91300
H  -8.32100 35.12300 37.94700
H  -7.18100 35.61500 39.13100
H  -11.00400 44.18900 40.13100
H  -9.76200 43.70100 41.27700
H  -11.02100 44.92100 41.74100
H  -15.89600 43.36100 41.97500
H  -15.79300 45.01400 42.49700
H  -15.32800 43.87200 43.67400
H  -16.90900 39.69600 43.69400
H  -15.92500 37.75600 45.75500
H  -17.54100 40.95300 45.50100
H  -15.82600 40.90500 45.98100
H  -16.78000 39.68200 46.61000
H  -18.04100 37.63800 43.83400
H  -17.39200 36.25300 44.68600
H  -16.27100 35.55100 42.79900
H  -16.38400 37.16800 41.98900
H  -17.72600 36.24800 42.02400
H  -12.28800 32.38800 44.56200
H  -13.79300 32.74600 43.75900
H  -13.46600 33.37200 45.32800
H  -8.86700 34.63800 40.75600
H  -5.75500 36.55100 44.12100
H  -5.80400 34.82000 44.15000
H  -6.74500 35.89900 45.29400

