158

Mg 6.80400 53.92800 39.52200
C  5.95100 50.51900 39.87100
C  9.89800 53.12600 38.69700
C  7.11100 57.07700 38.23700
C  3.37700 54.48700 39.91200
N  7.73200 52.01400 39.03400
C  7.23700 50.76900 39.30600
C  8.31300 49.73400 39.23800
C  9.71000 50.53800 39.13600
C  9.13100 51.98900 39.01500
C  10.60200 50.36800 40.44800
C  8.14600 48.93400 37.89200
C  7.87400 49.70200 36.60000
H  6.45600 49.71500 36.11300
N  8.29800 54.99300 38.68300
C  9.56400 54.48800 38.51100
C  10.46200 55.56800 38.23200
C  9.71200 56.72500 37.87000
C  8.29500 56.27600 38.22100
C  11.87600 55.28600 37.97500
C  10.22200 58.09800 37.34400
O  11.40100 58.39100 37.31200
C  9.33800 59.19500 37.11700
N  5.41200 55.46300 38.95000
C  5.81700 56.75300 38.66700
C  4.72200 57.79300 38.73000
C  3.50800 56.98300 39.23700
C  4.08900 55.53000 39.31800
C  5.11300 59.15000 39.53500
C  2.31200 57.09700 38.25900
C  1.12100 57.91200 38.79600
N  5.01400 52.77400 39.96900
C  3.72900 53.21100 40.22600
C  2.94600 52.16200 40.67500
C  3.82000 51.04200 40.73300
C  5.02200 51.49000 40.14400
C  1.48600 52.36700 41.05000
C  3.88500 49.59600 40.96100
O  3.05800 48.78200 41.40100
C  5.32300 49.21300 40.38100
C  5.00900 48.24900 39.26800
O  4.19700 48.34500 38.34100
O  5.70300 47.12400 39.56600
C  5.38300 45.96000 38.73700
H  10.89500 52.71000 38.53600
H  7.23900 58.12800 37.97100
H  2.33100 54.71900 40.12400
H  8.34500 49.15500 40.16100
H  10.21800 50.24100 38.21800
H  10.43100 49.36500 40.83800
H  10.37700 51.07100 41.24900
H  11.64000 50.54000 40.16400
H  7.46600 48.09000 38.01300
H  9.09200 48.40700 37.76900
H  8.55200 49.22100 35.89400
H  8.20100 50.73900 36.68100
H  12.26500 54.67800 38.79300
H  12.46900 56.19300 38.09300
H  12.11000 54.82400 37.01600
H  8.74600 58.91400 36.24600
H  9.95800 60.07400 36.94200
H  8.68300 59.41200 37.96100
H  4.49400 58.13800 37.72200
H  3.16600 57.20700 40.24700
H  5.23600 59.99900 38.86300
H  5.96600 58.79600 40.11400
H  4.29800 59.41800 40.20800
H  1.79500 56.17600 37.98700
H  2.60700 57.51500 37.29600
H  1.19100 57.98000 39.88200
H  0.15600 57.47700 38.53400
H  1.15900 58.95400 38.47700
H  1.22700 51.58100 41.76000
H  0.83000 52.25600 40.18600
H  1.24700 53.38100 41.36900
H  6.00200 48.71200 41.07100
H  4.31500 45.91300 38.52300
H  5.64500 45.05300 39.28200
H  5.91700 45.95400 37.78700
Mg 0.07400 43.46200 26.34600
C  1.87900 43.41800 29.23800
C  -2.74500 42.86600 28.16400
C  -1.44600 42.65400 23.44500
C  3.04600 43.91400 24.47600
N  -0.33700 43.06100 28.48800
C  0.50800 43.22100 29.47900
C  -0.19600 43.03600 30.80200
C  -1.62700 42.50600 30.44600
C  -1.59700 42.91800 28.97300
C  -2.01300 41.06000 30.73300
C  -0.27100 44.41600 31.50900
C  0.33100 44.52800 32.88400
H  -0.02100 43.43400 33.97300
N  -1.80600 42.92300 25.88400
C  -2.87700 42.81600 26.75500
C  -4.07300 42.51200 25.98600
C  -3.76500 42.50800 24.55800
C  -2.27600 42.66900 24.57400
C  -5.42900 42.46300 26.75600
C  -4.60400 42.33500 23.33700
O  -4.15100 42.28400 22.20100
C  -6.07500 42.49700 23.59300
N  0.68500 43.37700 24.16900
C  -0.11200 42.96900 23.22500
C  0.57800 42.86600 21.93900
C  2.01000 43.52600 22.20800
C  1.95700 43.60700 23.76600
C  0.68800 41.40700 21.38900
C  2.08300 44.96100 21.52100
C  3.47500 45.30300 21.06600
N  2.05500 43.62500 26.72300
C  3.19800 43.82900 25.92400
C  4.36500 43.99500 26.73600
C  3.93600 43.83500 28.03300
C  2.50400 43.64300 27.97200
C  5.78100 44.20800 26.25200
C  4.28300 43.77400 29.40300
O  5.45000 43.88200 29.86900
C  2.95400 43.58400 30.26800
C  3.31300 42.45100 31.07300
O  3.42300 41.32200 30.68400
O  3.65900 42.89100 32.34100
C  3.98900 41.86100 33.30100
H  -3.58900 42.77400 28.85000
H  -1.82700 42.43000 22.44600
H  3.93300 43.97600 23.84200
H  0.32300 42.33400 31.45500
H  -2.37500 43.05800 31.01400
H  -1.16700 40.56800 31.21400
H  -2.29400 40.54800 29.81300
H  -2.77100 41.13900 31.51300
H  -1.29600 44.77300 31.60900
H  0.30100 45.05900 30.83900
H  -0.07800 45.44000 33.31900
H  1.41200 44.63500 32.79400
H  -6.03800 43.32000 26.46900
H  -5.35500 42.64000 27.82900
H  -5.90700 41.50000 26.57800
H  -6.63200 42.45400 22.65700
H  -6.11300 43.44400 24.13100
H  -6.45000 41.79100 24.33400
H  0.04100 43.47200 21.21000
H  2.81700 42.84900 21.93100
H  0.80300 40.66700 22.18100
H  1.67700 41.37900 20.93100
H  -0.23100 41.22800 20.83200
H  1.76500 45.69700 22.26000
H  1.44800 45.07800 20.64300
H  3.60600 44.74600 20.13900
H  4.23600 44.86300 21.71100
H  3.76200 46.35400 21.02600
H  6.36500 43.29100 26.17200
H  6.29200 44.80400 27.00900
H  5.85900 44.71300 25.28900
H  2.75500 44.47500 30.86400
H  4.63700 41.11400 32.84100
H  3.06400 41.37700 33.61300
H  4.39700 42.26700 34.22600

