158

Mg 46.74900 15.36000 27.93800
C  44.96100 15.22500 30.99400
C  48.84500 17.59500 29.52100
C  48.35600 15.69900 25.13300
C  44.33500 13.49400 26.55900
N  46.91700 16.17000 30.07700
C  46.15100 15.93400 31.16000
C  46.61900 16.65900 32.39200
C  47.65500 17.68600 31.86900
C  47.85400 17.17700 30.38600
C  47.30000 19.15900 31.87100
C  47.18900 15.60500 33.38800
C  47.12700 16.02600 34.85700
H  48.43100 15.88500 35.65500
N  48.44400 16.35800 27.46100
C  49.20900 17.14000 28.24500
C  50.34200 17.59100 27.47700
C  50.25200 17.05000 26.19600
C  48.93700 16.40300 26.23200
C  51.38000 18.61300 28.01800
C  51.19800 17.04700 25.01300
O  51.12800 16.23300 24.08500
C  52.37300 17.92200 25.01800
N  46.21300 14.91200 26.04500
C  47.19000 14.95900 25.08100
C  46.79500 14.09400 23.82200
C  45.70900 13.18800 24.41900
C  45.35200 13.87500 25.79800
C  46.50300 14.95400 22.53400
C  46.12400 11.70600 24.53800
C  46.01000 10.97000 23.22300
N  44.90200 14.62700 28.52200
C  43.97200 13.92500 27.80600
C  42.90400 13.60200 28.60800
C  43.19100 14.23300 29.84800
C  44.44600 14.77700 29.82600
C  41.74400 12.73000 28.30300
C  42.65100 14.37300 31.12800
O  41.56200 14.03100 31.61500
C  43.86800 15.01300 31.99600
C  43.18100 16.22000 32.66500
O  42.90800 17.23700 32.03600
O  42.94000 16.07100 34.02300
C  42.53700 17.26900 34.79200
H  49.56700 18.22800 30.04100
H  48.88100 15.82900 24.18500
H  43.67200 12.76300 26.09300
H  45.78400 17.17100 32.87000
H  48.61500 17.54500 32.36600
H  46.75500 19.45800 30.97600
H  48.21400 19.70300 32.11100
H  46.59100 19.32200 32.68200
H  48.20300 15.30500 33.12600
H  46.46900 14.80200 33.22800
H  46.35700 15.44400 35.36300
H  46.76000 17.04400 34.98700
H  52.42500 18.32200 27.90800
H  51.24900 18.78500 29.08600
H  51.13900 19.54600 27.50900
H  52.01600 18.94100 24.86800
H  52.89100 17.52300 24.14600
H  53.11000 17.89000 25.82100
H  47.65000 13.53800 23.43600
H  44.83000 13.25100 23.77800
H  46.94800 14.41800 21.69500
H  46.95600 15.93800 22.65600
H  45.44600 15.14500 22.35400
H  45.56500 11.16900 25.30500
H  47.17800 11.61400 24.80000
H  45.99700 11.69700 22.41000
H  45.02300 10.51100 23.15900
H  46.87300 10.31300 23.11600
H  41.44900 12.13900 29.17000
H  41.94500 12.00500 27.51400
H  40.84100 13.25900 28.00000
H  44.17400 14.30000 32.76200
H  42.61500 16.89500 35.81200
H  41.53500 17.67900 34.66200
H  43.33800 18.00800 34.81700
Mg 8.88100 47.87200 26.68200
C  6.95200 47.27700 29.52700
C  11.61100 48.29400 28.76800
C  10.58500 48.53400 24.08600
C  5.97100 47.48100 24.70800
N  9.22100 47.88400 28.87000
C  8.26200 47.60100 29.87100
C  8.86400 47.76600 31.24400
C  10.26900 48.43100 30.97300
C  10.37300 48.21000 29.42500
C  10.43200 49.99800 31.17900
C  8.77000 46.60600 32.22900
C  9.70000 46.57300 33.47300
H  9.25900 45.77200 34.70500
N  10.88400 48.15500 26.48200
C  11.85000 48.30100 27.42700
C  13.10600 48.51800 26.75200
C  12.83100 48.48700 25.31500
C  11.37100 48.33400 25.25100
C  14.38300 48.48600 27.47500
C  13.83700 48.66800 24.25400
O  13.46500 48.59600 23.10100
C  15.33300 48.94400 24.57800
N  8.28100 47.99300 24.70300
C  9.23000 48.35000 23.80400
C  8.65600 48.49600 22.36300
C  7.16300 48.06400 22.58100
C  7.08800 47.83500 24.01600
C  8.82700 49.92200 21.80200
C  6.81400 46.85100 21.73300
C  6.16700 47.09700 20.42100
N  6.90800 47.50700 26.99200
C  5.85600 47.36700 26.17100
C  4.67500 47.02400 26.82400
C  5.04600 46.98200 28.14100
C  6.37200 47.28000 28.20300
C  3.35100 46.74400 26.24300
C  4.60600 46.81500 29.49700
O  3.47400 46.53000 29.83300
C  5.77700 46.92000 30.44600
C  5.99900 45.63900 31.19200
O  6.68500 44.70500 30.85300
O  5.30700 45.67100 32.41000
C  5.43000 44.52800 33.26000
H  12.41700 48.54700 29.46000
H  11.12100 48.73800 23.15700
H  5.11400 47.37400 24.04000
H  8.16600 48.50600 31.63700
H  11.14900 47.94900 31.40100
H  10.18100 50.56600 30.28300
H  11.45500 50.22300 31.48200
H  9.79800 50.33500 31.99900
H  8.87600 45.66700 31.68500
H  7.76300 46.75100 32.62000
H  9.96500 47.58700 33.77300
H  10.65000 46.12400 33.18300
H  14.92900 47.66900 27.00400
H  14.31800 48.22200 28.53100
H  14.95100 49.40500 27.32400
H  15.78800 49.23800 23.63100
H  15.80100 47.99000 24.82000
H  15.41500 49.76100 25.29500
H  9.24200 47.86700 21.69300
H  6.52100 48.89600 22.29200
H  9.87800 50.20200 21.73900
H  8.32200 50.65100 22.43600
H  8.40300 50.01400 20.80200
H  6.19900 46.14300 22.28800
H  7.75700 46.34700 21.51900
H  6.07200 48.15000 20.15400
H  5.11900 46.80100 20.46800
H  6.75500 46.53400 19.69600
H  2.90400 45.92700 26.80900
H  3.52500 46.41000 25.22000
H  2.71900 47.61700 26.07800
H  5.59100 47.62200 31.25900
H  4.52100 43.95400 33.08400
H  5.43800 44.94400 34.26700
H  6.33600 43.92900 33.16600

