158

Mg 57.21400 23.31500 45.16700
C  55.34100 25.96600 44.20600
C  54.98500 21.09400 43.66300
C  59.60000 20.74500 45.47400
C  59.74900 25.53200 46.22800
N  55.49400 23.52100 43.97000
C  54.85600 24.74100 43.71200
C  53.47700 24.51500 43.05600
C  53.21800 22.97500 43.34100
C  54.66300 22.48000 43.68500
C  52.16800 22.55500 44.38000
C  53.66700 24.91400 41.60800
C  52.65800 25.85500 40.98300
H  51.64600 25.36200 39.94200
N  57.28600 21.21700 44.71300
C  56.21500 20.55000 44.09000
C  56.58200 19.22600 44.04500
C  57.79600 19.06800 44.70400
C  58.28900 20.36000 45.03500
C  55.52900 18.20500 43.47700
C  58.42200 17.66500 44.95800
O  57.97400 16.73600 44.30400
C  59.66000 17.47500 45.81800
N  59.37300 23.13800 45.58900
C  60.07600 22.03800 45.78800
C  61.47500 22.19100 46.34900
C  61.59600 23.77500 46.33200
C  60.13800 24.20700 46.04700
C  61.68700 21.47800 47.65300
C  62.57100 24.37000 45.23400
C  64.08300 24.28500 45.60700
N  57.43900 25.34400 45.34800
C  58.47600 26.15200 45.83700
C  58.02500 27.50300 45.93900
C  56.78100 27.51100 45.27200
C  56.55100 26.16900 44.89700
C  58.72700 28.72200 46.61200
C  55.65700 28.31100 44.89300
O  55.52000 29.51800 45.04700
C  54.76000 27.34900 44.07100
C  54.63400 27.95500 42.73800
O  55.46400 27.89400 41.88800
O  53.42500 28.65700 42.61500
C  53.22800 29.33300 41.31300
H  54.15800 20.49400 43.27700
H  60.34000 19.97700 45.70900
H  60.46500 26.29200 46.54800
H  52.61800 25.03700 43.47700
H  52.91600 22.52000 42.39700
H  51.49200 21.80300 43.97300
H  51.57900 23.40500 44.72600
H  52.69200 22.16700 45.25400
H  53.65300 24.06700 40.92300
H  54.68200 25.27900 41.45200
H  53.32000 26.61300 40.56500
H  52.05400 26.40900 41.70100
H  55.45000 18.43600 42.41500
H  54.54600 18.33300 43.93200
H  55.76700 17.14200 43.46400
H  60.57100 17.76500 45.29500
H  59.77100 16.42800 46.09800
H  59.45500 18.09300 46.69200
H  61.99400 21.60700 45.58900
H  61.91500 24.18200 47.29200
H  62.74100 21.20100 47.69300
H  61.00100 20.63300 47.69800
H  61.47500 22.13900 48.49300
H  62.37600 25.40900 44.96700
H  62.45200 23.86700 44.27500
H  64.58400 23.34300 45.38500
H  64.14900 24.48300 46.67700
H  64.63900 25.02600 45.03300
H  59.78800 28.50600 46.73400
H  58.31400 28.78000 47.62000
H  58.61500 29.66000 46.06700
H  53.77600 27.36300 44.54000
H  54.20300 29.53600 40.87100
H  52.64400 30.25100 41.37800
H  52.63000 28.73900 40.62200
Mg 49.09800 34.02500 26.15000
C  46.96900 33.11900 28.78700
C  49.39900 37.13600 27.56800
C  50.83400 35.10200 23.42200
C  48.20500 31.13000 24.44000
N  48.06600 35.06700 27.95700
C  47.57400 34.39900 29.05200
C  47.43300 35.28000 30.26600
C  48.02500 36.66000 29.76500
C  48.53000 36.29000 28.31100
C  47.12000 37.83300 30.00300
C  48.08300 34.79700 31.59300
C  47.18700 35.02400 32.84400
H  47.54500 36.17100 33.82200
N  50.00500 35.87700 25.60700
C  50.03700 37.01500 26.32400
C  50.82000 37.96100 25.76400
C  51.27700 37.42300 24.50600
C  50.66200 36.06400 24.44500
C  51.17400 39.27300 26.38400
C  52.15700 38.09100 23.48300
O  52.43200 37.56100 22.45400
C  52.94600 39.34600 23.74200
N  49.47800 33.16700 24.16000
C  50.30200 33.79000 23.29200
C  50.68700 32.90100 22.12400
C  49.63400 31.70000 22.27700
C  49.06700 31.93300 23.68100
C  50.44800 33.52200 20.68900
C  50.17500 30.22200 22.03400
C  50.97900 29.93500 20.78000
N  47.88800 32.38200 26.57100
C  47.59400 31.30600 25.75600
C  46.68000 30.38800 26.45300
C  46.44800 31.07900 27.67800
C  47.12900 32.30600 27.69200
C  46.25700 28.93100 25.95000
C  45.75400 30.97100 28.91000
O  45.05200 30.05400 29.35900
C  45.98900 32.32100 29.60100
C  46.22900 31.98000 31.05100
O  47.29700 31.71900 31.52900
O  45.09100 31.98900 31.77400
C  45.19900 31.67400 33.25700
H  49.72100 37.96800 28.19800
H  51.45500 35.47300 22.60400
H  48.00000 30.16600 23.97000
H  46.35400 35.36400 30.38900
H  48.90500 37.05100 30.27600
H  46.16900 37.45300 30.37800
H  46.97100 38.26300 29.01200
H  47.55200 38.59000 30.65700
H  48.78500 35.61600 31.75100
H  48.48900 33.79300 31.46800
H  47.01800 34.09900 33.39400
H  46.18000 35.31900 32.54900
H  50.75300 39.53800 27.35400
H  50.91500 40.16600 25.81700
H  52.24900 39.19800 26.54900
H  53.47400 39.26600 24.69200
H  52.23500 40.14300 23.95900
H  53.64700 39.63000 22.95800
H  51.72300 32.57800 22.23500
H  48.78100 31.84400 21.61300
H  50.05400 32.79900 19.97600
H  51.42200 33.70000 20.23400
H  49.84100 34.42700 20.64600
H  49.23300 29.68800 21.90900
H  50.56300 29.72800 22.92500
H  50.54800 29.20900 20.09100
H  51.96700 29.55400 21.03800
H  51.16800 30.88200 20.27400
H  46.81300 28.22400 26.56700
H  46.29500 28.73900 24.87800
H  45.24100 28.75300 26.30300
H  44.98300 32.71600 29.46000
H  45.52300 32.64200 33.64000
H  46.01300 31.00900 33.54400
H  44.26500 31.32100 33.69400

