158

Mg 43.09800 4.46600 47.89100
C  40.97100 7.21300 48.08100
C  40.15600 2.50100 47.29900
C  44.97300 2.05400 46.86500
C  45.91500 6.71000 47.98800
N  40.82200 4.87200 47.67000
C  40.26600 6.03500 48.02100
C  38.71100 5.90300 48.00100
C  38.47000 4.39100 47.89400
C  39.90100 3.85500 47.61100
C  37.66500 3.70500 49.08500
C  37.93200 6.72700 46.89600
C  38.62800 7.16300 45.58000
H  38.25100 6.50400 44.20300
N  42.61200 2.48800 47.35500
C  41.36200 1.85700 47.24100
C  41.66700 0.49600 46.88200
C  43.03600 0.39100 46.46400
C  43.61700 1.68000 46.85400
C  40.53300 -0.56300 46.65700
C  43.79300 -0.72900 45.68400
O  43.07100 -1.60100 45.29200
C  45.27400 -0.73900 45.20600
N  45.16500 4.42300 47.39700
C  45.67600 3.23200 47.20300
C  47.22300 3.29200 47.25200
C  47.54200 4.81000 47.41000
C  46.13700 5.33400 47.70000
C  47.90100 2.41900 48.31800
C  48.26900 5.50600 46.22800
C  49.76900 5.24600 46.19800
N  43.46400 6.51700 47.98400
C  44.65500 7.34000 48.00600
C  44.29800 8.63700 48.23300
C  42.83700 8.74500 48.20000
C  42.37200 7.36200 48.07800
C  45.20100 9.83400 48.44100
C  41.72000 9.55800 48.26900
O  41.60000 10.74800 48.37300
C  40.43700 8.61200 48.19500
C  39.55800 8.80700 49.32800
O  39.64500 8.27500 50.38400
O  38.54100 9.74000 49.09500
C  37.40000 9.99000 49.97100
H  39.32400 1.84600 47.03300
H  45.64700 1.23200 46.61400
H  46.78900 7.29700 48.27800
H  38.19700 6.19500 48.91700
H  37.92200 4.23200 46.96500
H  36.85500 4.36400 49.39600
H  38.43600 3.64200 49.85200
H  37.34300 2.68100 48.89200
H  37.47700 7.57300 47.41200
H  37.11100 6.12700 46.50400
H  39.70200 7.06100 45.73600
H  38.30300 8.20400 45.55900
H  40.11300 -0.57000 45.65100
H  39.63800 -0.45300 47.26900
H  41.04200 -1.51300 46.81400
H  45.93000 -0.87100 46.06600
H  45.48400 0.24200 44.77900
H  45.54500 -1.52600 44.50100
H  47.68700 3.05200 46.29500
H  48.16800 5.00100 48.28100
H  48.43300 1.59300 47.84500
H  47.12200 2.02400 48.97000
H  48.70600 2.97000 48.80400
H  48.10000 6.58200 46.27300
H  47.88200 5.10000 45.29300
H  50.37100 6.14500 46.06400
H  50.10300 4.55100 45.42800
H  50.05700 4.71800 47.10700
H  44.69200 10.50100 47.74500
H  46.25900 9.80500 48.17700
H  45.13600 10.11800 49.49100
H  39.89200 8.93400 47.30800
H  37.57800 9.47100 50.91300
H  36.65700 9.38400 49.45100
H  37.10600 11.03400 50.08000
Mg 51.23300 45.28000 42.77100
C  47.93300 45.89800 42.14200
C  50.68700 41.90900 42.01700
C  54.68200 44.84100 42.37100
C  51.87700 48.73400 42.88000
N  49.52800 44.03900 42.12400
C  48.27600 44.53300 41.97700
C  47.28900 43.38400 41.59700
C  48.10800 42.03700 41.85800
C  49.51100 42.68600 42.01700
C  47.65100 41.06000 42.97000
C  46.76900 43.47800 40.13600
C  47.61800 43.95000 38.98100
H  47.60100 43.04400 37.72600
N  52.50300 43.53800 42.40800
C  52.03700 42.25900 42.13500
C  53.24800 41.45000 42.03200
C  54.35500 42.27400 42.29400
C  53.89300 43.63000 42.33700
C  53.16600 40.00300 41.60800
C  55.87600 41.80500 42.52600
O  56.14800 40.60800 42.20200
C  56.94900 42.66300 43.13100
N  52.96000 46.57000 42.71100
C  54.22000 46.11000 42.47600
C  55.13800 47.25200 42.08000
C  54.36500 48.55000 42.61500
C  52.94600 47.89800 42.69100
C  56.63500 47.27000 42.66900
C  54.50200 49.84000 41.71300
C  54.89100 51.11100 42.45600
N  50.16500 46.96200 42.71200
C  50.51400 48.25300 42.82600
C  49.25100 49.06700 42.82900
C  48.23800 48.15700 42.62800
C  48.84500 46.92100 42.41300
C  49.07400 50.44800 43.14400
C  46.78900 48.06000 42.46400
O  45.92100 48.91900 42.56100
C  46.52400 46.57900 42.01000
C  45.48800 46.03000 43.03600
O  44.30200 46.08400 42.87700
O  46.03400 45.42200 44.05000
C  45.19900 45.15400 45.22100
H  50.59200 40.85500 41.74700
H  55.71500 44.56800 42.14500
H  51.98100 49.81800 42.96900
H  46.42700 43.49600 42.25400
H  48.18600 41.34900 41.01600
H  47.17300 40.15700 42.59000
H  47.04500 41.52500 43.74700
H  48.52200 40.75800 43.55300
H  45.88800 44.11800 40.18300
H  46.48900 42.44700 39.92000
H  48.61100 44.07500 39.41300
H  47.12400 44.86600 38.65600
H  53.03200 39.42400 42.52200
H  53.95900 39.59200 40.98300
H  52.34100 39.70400 40.96200
H  57.25700 43.23700 42.25700
H  57.85900 42.13200 43.41200
H  56.65000 43.38200 43.89500
H  55.23900 47.35000 40.99900
H  54.51600 48.78200 43.66900
H  57.33800 47.22400 41.83700
H  56.88300 46.41600 43.30000
H  56.81400 48.13700 43.30400
H  53.56900 49.96100 41.16300
H  55.25700 49.62300 40.95700
H  54.25100 51.95000 42.18400
H  55.86100 51.43200 42.07500
H  55.14300 50.97200 43.50700
H  48.31500 50.87700 42.49000
H  50.02600 50.97500 43.08500
H  48.74400 50.51500 44.18000
H  46.05900 46.59100 41.02400
H  45.24000 45.90400 46.01100
H  45.50300 44.20700 45.66800
H  44.13100 45.19500 45.00700

