158

Mg 49.13000 45.11200 43.49300
C  45.72000 45.17900 42.36800
C  49.28600 41.81600 42.44600
C  52.39200 45.24000 43.57200
C  48.90300 48.55200 43.79700
N  47.73000 43.77100 42.41600
C  46.35900 43.95200 42.14400
C  45.75400 42.70500 41.41500
C  46.69200 41.65600 41.97300
C  48.01000 42.42600 42.30000
C  46.19200 40.86400 43.24100
C  45.61000 42.87700 39.84300
C  44.25000 42.45500 39.14100
H  44.37100 41.42100 37.98700
N  50.61500 43.74800 43.16200
C  50.53000 42.42900 42.77900
C  51.75200 41.77300 42.68300
C  52.74600 42.73000 42.87000
C  51.96600 43.98600 43.25200
C  51.89600 40.30900 42.28000
C  54.18700 42.44500 42.67700
O  54.61500 41.36000 42.22300
C  55.26800 43.49300 42.93800
N  50.45300 46.66300 43.49900
C  51.76700 46.41000 43.82100
C  52.42500 47.66600 44.42600
C  51.30600 48.75000 44.38100
C  50.11300 47.88100 43.94100
C  53.16500 47.37300 45.78700
C  51.61700 49.95100 43.33600
C  51.61700 51.34200 43.98500
N  47.59600 46.60500 43.39600
C  47.63900 47.93900 43.55700
C  46.35000 48.59400 43.43100
C  45.55900 47.47400 43.01400
C  46.36700 46.28800 42.92100
C  46.11000 50.09800 43.52400
C  44.20500 47.06300 42.58200
O  43.15900 47.74100 42.43800
C  44.31200 45.61000 42.09900
C  43.19800 44.72800 42.69800
O  42.49400 43.91500 42.11700
O  43.03800 45.03700 44.08200
C  41.95600 44.28200 44.69100
H  49.21000 40.76000 42.17900
H  53.45200 45.11800 43.80200
H  48.88100 49.59900 44.10600
H  44.76300 42.37400 41.72500
H  46.79500 40.81900 41.28300
H  46.09200 39.79100 43.07900
H  45.16300 41.13400 43.48100
H  46.95500 41.01700 44.00500
H  46.44600 42.35000 39.38300
H  45.94900 43.87500 39.56600
H  43.86700 43.36300 38.67600
H  43.47900 42.19400 39.86600
H  52.19900 40.20100 41.23800
H  51.01800 39.73600 42.57900
H  52.68500 39.85000 42.87600
H  56.28100 43.22300 42.64000
H  55.22800 43.53900 44.02600
H  55.17300 44.52000 42.58600
H  53.15200 47.99900 43.68400
H  51.11000 49.01900 45.41900
H  53.01100 46.33400 46.08000
H  52.86500 48.09900 46.54200
H  54.22800 47.56000 45.64000
H  50.84400 50.01200 42.56900
H  52.59000 49.86600 42.85300
H  50.77700 51.94900 43.64800
H  52.46400 51.93700 43.64200
H  51.65000 51.19300 45.06400
H  46.27200 50.56300 42.55200
H  46.74000 50.66400 44.21000
H  45.08100 50.30900 43.81600
H  44.22900 45.67900 41.01400
H  41.17100 44.40700 43.94500
H  41.67100 44.63900 45.68000
H  42.18500 43.21700 44.65000
Mg 30.78800 57.73700 40.36400
C  27.88200 56.03000 39.40700
C  32.60500 55.20200 39.13200
C  33.40900 59.82600 40.55900
C  28.70500 60.63800 40.94900
N  30.30600 55.81900 39.55700
C  29.07100 55.25700 39.35500
C  29.18600 53.76300 38.93900
C  30.68100 53.53800 38.77800
C  31.26100 54.95000 39.29100
C  31.27400 52.34100 39.52800
C  28.36900 53.41500 37.63600
C  28.42800 54.51600 36.58700
H  28.90200 54.18600 35.16800
N  32.74000 57.50100 40.00400
C  33.33300 56.40200 39.41000
C  34.70300 56.63000 39.11300
C  34.92700 57.94300 39.59600
C  33.63100 58.47600 40.10600
C  35.61600 55.56300 38.48400
C  36.35000 58.58400 39.61200
O  37.24600 58.03200 38.95500
C  36.83500 59.96500 40.25800
N  31.05200 59.92300 40.74900
C  32.23700 60.50100 40.77200
C  32.15300 62.00800 41.10400
C  30.61600 62.27600 41.40500
C  30.06700 60.87300 41.04200
C  33.26300 62.70400 41.89500
C  30.03700 63.48300 40.67200
C  29.06900 64.32700 41.52800
N  28.75400 58.33900 40.05800
C  28.07800 59.44100 40.46100
C  26.70500 59.25200 40.23800
C  26.52100 57.91900 39.88900
C  27.81000 57.38100 39.70400
C  25.57500 60.19800 40.38300
C  25.57100 56.85700 39.61300
O  24.36800 56.84200 39.61100
C  26.38400 55.60800 39.22500
C  26.06200 54.54100 40.23400
O  26.60400 54.57100 41.32700
O  25.29700 53.50300 39.67300
C  25.09400 52.34200 40.56000
H  33.19500 54.38400 38.71500
H  34.35100 60.36100 40.69800
H  27.97100 61.36300 41.30700
H  28.78200 53.18600 39.77100
H  30.91600 53.28400 37.74400
H  32.16200 52.64300 40.08300
H  31.72400 51.57300 38.89800
H  30.59200 51.84500 40.21900
H  27.34000 53.23200 37.94400
H  28.71600 52.46700 37.22600
H  29.08100 55.34000 36.87600
H  27.41300 54.88400 36.43500
H  35.06400 54.71200 38.08600
H  36.33900 55.22900 39.22800
H  36.19800 55.93000 37.63800
H  36.54800 59.76000 41.28900
H  36.13800 60.69900 39.85400
H  37.89200 60.21100 40.15100
H  32.37200 62.33400 40.08700
H  30.50200 62.35100 42.48600
H  32.79000 63.23100 42.72400
H  33.67300 63.44800 41.21200
H  33.99200 62.00600 42.30800
H  29.61300 62.99600 39.79300
H  30.91400 64.09800 40.47000
H  28.67200 63.72600 42.34600
H  28.21700 64.69000 40.95300
H  29.68800 65.13400 41.92100
H  25.25800 59.95800 41.39700
H  24.87100 60.03500 39.56600
H  25.86700 61.24600 40.31400
H  26.16800 55.20800 38.23400
H  26.10700 51.97000 40.71300
H  24.49200 51.60600 40.02900
H  24.76200 52.67100 41.54400

