158

Mg 45.76700 4.44900 47.89500
C  43.35000 6.88100 47.30500
C  43.21100 2.10600 47.81000
C  48.11000 2.04800 47.84200
C  48.14400 6.94000 47.69800
N  43.57600 4.41800 47.49100
C  42.79600 5.60200 47.40000
C  41.38100 5.25500 47.14600
C  41.27800 3.82900 47.81300
C  42.75400 3.40500 47.73600
C  40.76900 3.93900 49.23000
C  41.05900 5.34700 45.60200
C  39.90300 6.37500 45.18900
H  40.18900 7.51600 44.17100
N  45.67900 2.34400 47.79800
C  44.51600 1.59200 47.68600
C  44.89800 0.22700 47.61700
C  46.33200 0.11500 47.53000
C  46.78900 1.51800 47.78300
C  43.82900 -0.93000 47.55700
C  47.09900 -1.17600 47.19300
O  46.57500 -2.28400 47.15600
C  48.60300 -1.18600 47.03500
N  47.75800 4.50000 47.87000
C  48.57700 3.32600 47.91000
C  50.06000 3.70400 47.82200
C  49.98000 5.24200 47.89700
C  48.53900 5.62600 47.82700
C  50.91700 2.97700 48.85600
C  50.94800 5.90100 46.80200
C  52.19200 6.73300 47.30200
N  45.80100 6.58600 47.62700
C  46.86100 7.41800 47.59200
C  46.29900 8.74700 47.36600
C  44.93600 8.61900 47.28200
C  44.70300 7.25000 47.43000
C  47.05900 10.00400 47.11400
C  43.69600 9.31600 47.18400
O  43.56600 10.54100 47.07500
C  42.62600 8.25100 47.13500
C  41.65400 8.58600 48.20600
O  41.53600 7.96700 49.28200
O  40.79500 9.62700 47.88000
C  39.71800 9.94900 48.80400
H  42.42900 1.34500 47.75300
H  48.98600 1.39900 47.78000
H  48.93400 7.69400 47.65000
H  40.81100 5.95200 47.76000
H  40.56600 3.25100 47.22200
H  41.09800 3.03800 49.74800
H  39.68200 4.01300 49.25600
H  41.16400 4.83200 49.71300
H  40.70900 4.36200 45.29400
H  41.96400 5.66700 45.08500
H  39.48600 6.78800 46.10800
H  39.09400 5.77100 44.77700
H  42.96700 -0.75900 46.91200
H  43.42900 -1.02700 48.56600
H  44.18800 -1.93100 47.31900
H  49.06500 -2.09400 46.64800
H  49.12200 -0.84400 47.93100
H  48.75700 -0.42400 46.27100
H  50.25700 3.18800 46.88200
H  50.32500 5.64500 48.84900
H  51.63500 3.70900 49.22400
H  51.41100 2.17200 48.31100
H  50.34200 2.55400 49.67900
H  50.40500 6.55600 46.12000
H  51.40900 5.11300 46.20800
H  52.21700 7.59800 46.64000
H  53.11600 6.19200 47.09500
H  52.14100 7.03000 48.34900
H  46.50000 10.87000 46.76000
H  47.78900 9.72200 46.35500
H  47.67600 10.30000 47.96300
H  42.04800 8.34700 46.21600
H  39.88800 10.79900 49.46400
H  39.42300 9.09300 49.41000
H  38.82600 10.12900 48.20400
Mg 5.59200 54.55400 40.99700
C  5.42100 51.00900 41.25100
C  8.90000 54.19000 39.73700
C  5.60100 57.71000 40.25500
C  2.36300 54.75700 42.18400
N  6.93700 52.73100 40.39000
C  6.61800 51.39400 40.65100
C  7.87300 50.55900 40.35200
C  9.03800 51.59100 40.21000
C  8.23700 52.96700 40.08600
C  10.17500 51.70000 41.33500
C  7.83300 49.56000 39.10800
C  6.77600 49.80500 37.97900
H  7.32200 50.49600 36.79900
N  7.05200 55.75400 40.06000
C  8.36200 55.50200 39.71100
C  8.95200 56.72700 39.22400
C  7.98500 57.70500 39.19900
C  6.77100 57.07600 39.80400
C  10.41800 56.82200 38.75300
C  8.18700 59.06900 38.65900
O  9.28500 59.40700 38.24300
C  6.94500 60.08200 38.38300
N  4.10100 56.01900 41.06200
C  4.45800 57.28800 40.96500
C  3.37700 58.30600 41.39500
C  2.26100 57.29500 41.97400
C  2.92900 55.93600 41.72600
C  3.85000 59.32200 42.47400
C  0.84800 57.39500 41.23700
C  -0.36900 57.32700 42.20200
N  4.16100 53.23900 41.60200
C  2.91900 53.45300 42.19100
C  2.35800 52.17600 42.71400
C  3.31600 51.22100 42.40200
C  4.37100 51.87300 41.69400
C  1.16200 51.96000 43.55800
C  3.69500 49.82000 42.51100
O  3.20800 48.90400 43.10800
C  5.05700 49.61500 41.70600
C  4.70800 48.67200 40.62800
O  4.06000 49.03100 39.64300
O  5.23700 47.43900 40.87800
C  5.06800 46.47100 39.79000
H  9.88400 54.08600 39.27400
H  5.65800 58.80000 40.24700
H  1.33900 54.62400 42.54000
H  8.08900 49.96700 41.24200
H  9.59800 51.42900 39.28900
H  10.07600 50.78300 41.91600
H  9.97100 52.58700 41.93500
H  11.16300 51.78700 40.88100
H  7.65000 48.59500 39.58000
H  8.77100 49.37300 38.58600
H  5.96100 50.45800 38.29000
H  6.29200 48.86000 37.73200
H  10.94800 55.87400 38.66700
H  11.07500 57.45700 39.34900
H  10.45800 57.16100 37.71700
H  6.05400 59.49900 38.14700
H  7.28400 60.66600 37.52800
H  6.66300 60.64800 39.27000
H  3.12700 58.83100 40.47300
H  2.20600 57.49000 43.04500
H  3.67600 59.01000 43.50400
H  3.32700 60.27200 42.36000
H  4.91000 59.55400 42.37100
H  0.86000 56.58800 40.50600
H  0.80600 58.37400 40.75900
H  -0.88100 58.28900 42.18000
H  -0.12500 57.21900 43.25900
H  -1.10700 56.57600 41.91900
H  0.88700 50.90900 43.46400
H  0.30500 52.58800 43.31800
H  1.36800 52.13400 44.61500
H  5.80700 49.12200 42.32600
H  5.62100 45.55000 39.97300
H  5.48900 46.85200 38.86000
H  4.01600 46.19500 39.73100

