158

Mg 24.30300 -5.63800 46.35300
C  26.58700 -3.58700 44.71200
C  21.90500 -4.62900 44.18100
C  22.71800 -8.52400 47.06300
C  27.32100 -7.21700 47.79100
N  24.25700 -4.32300 44.71300
C  25.27700 -3.58900 44.21700
C  24.73800 -2.45200 43.25200
C  23.20900 -2.64900 43.40700
C  23.08400 -3.93200 44.13500
C  22.41000 -1.49300 44.09800
C  25.35700 -2.81400 41.82400
C  25.86100 -1.58100 41.00300
H  25.48200 -1.57400 39.51000
N  22.53600 -6.43600 45.87200
C  21.66400 -5.82300 44.99500
C  20.49800 -6.67100 44.80000
C  20.68400 -7.80500 45.69200
C  21.99700 -7.65000 46.26600
C  19.35100 -6.38800 43.80500
C  19.60400 -8.88800 45.94700
O  18.68000 -8.93200 45.20100
C  19.77000 -9.85600 46.96100
N  24.93600 -7.54700 47.45000
C  24.01500 -8.53200 47.58700
C  24.44600 -9.60300 48.55000
C  25.97100 -9.16000 48.78600
C  26.14200 -7.93300 47.93900
C  23.56200 -9.77300 49.83400
C  27.02800 -10.32400 48.44300
C  28.02300 -10.69400 49.53800
N  26.45200 -5.23500 46.57700
C  27.53900 -5.94500 47.15300
C  28.73000 -5.17900 46.93400
C  28.42000 -4.28100 45.95400
C  27.04000 -4.35200 45.75300
C  30.05500 -5.47800 47.55600
C  28.96900 -3.27500 45.06300
O  30.04300 -2.73300 44.96700
C  27.78300 -2.72100 44.32700
C  27.52300 -1.35400 44.64600
O  27.18800 -0.91500 45.77700
O  27.81600 -0.54200 43.53000
C  27.75500 0.87000 43.79500
H  21.14600 -4.38400 43.43500
H  22.28500 -9.51700 47.19800
H  28.26200 -7.57800 48.21100
H  25.13700 -1.52100 43.65500
H  22.63500 -2.77300 42.48800
H  23.01400 -0.60000 44.26200
H  22.16300 -1.85600 45.09600
H  21.55400 -1.25200 43.46800
H  24.49500 -3.25700 41.32400
H  26.13400 -3.57200 41.92400
H  26.94100 -1.46000 41.08700
H  25.41700 -0.69600 41.45800
H  19.13600 -7.24600 43.16900
H  19.57200 -5.46700 43.26600
H  18.46500 -6.24400 44.42400
H  20.17200 -9.19900 47.73200
H  20.51400 -10.55000 46.57100
H  18.79800 -10.29800 47.18200
H  24.47000 -10.49900 47.93000
H  26.01300 -8.80000 49.81400
H  22.64800 -9.18600 49.74400
H  24.18900 -9.56100 50.70000
H  23.44000 -10.85600 49.81300
H  27.63600 -10.00200 47.59800
H  26.51800 -11.22200 48.09200
H  28.13100 -11.77700 49.60000
H  27.62100 -10.41800 50.51300
H  28.87100 -10.09900 49.19900
H  30.80700 -4.70200 47.41200
H  30.26900 -6.35300 46.94100
H  30.00600 -5.79300 48.59800
H  27.97700 -2.80500 43.25700
H  28.32700 1.34200 42.99700
H  28.05400 1.21200 44.78600
H  26.71500 1.16100 43.64700
Mg -11.09100 16.35400 40.77300
C  -7.56900 16.22400 40.89900
C  -10.75400 19.81100 40.56900
C  -14.31400 16.67600 40.10600
C  -11.05300 12.95400 40.23000
N  -9.28800 17.83400 40.50500
C  -7.97800 17.52300 40.65500
C  -7.07000 18.78200 40.66400
C  -8.18700 19.96600 40.82900
C  -9.47500 19.16400 40.62400
C  -8.11700 20.76600 42.23700
C  -6.39400 18.88400 39.23000
C  -4.89100 18.62200 39.04600
H  -4.38800 17.63000 38.03000
N  -12.41700 18.00700 40.53000
C  -12.05300 19.39900 40.43600
C  -13.26200 20.19900 40.29500
C  -14.39200 19.35700 40.14900
C  -13.78200 17.94000 40.21800
C  -13.18500 21.70100 40.04300
C  -15.90300 19.70900 39.92500
O  -16.28200 20.91100 39.84500
C  -16.92000 18.71400 39.88700
N  -12.44300 15.03900 40.12100
C  -13.76200 15.36300 40.06700
C  -14.64700 14.07900 39.95400
C  -13.63300 12.97000 39.78700
C  -12.27900 13.69200 40.00000
C  -15.74700 13.85200 41.05200
C  -13.66600 12.39200 38.37800
C  -13.62100 10.90200 38.08500
N  -9.62600 14.82700 40.73300
C  -9.77800 13.52000 40.61300
C  -8.52400 12.87100 40.94300
C  -7.57900 13.86200 41.13000
C  -8.34600 15.05900 40.89600
C  -8.22500 11.34900 40.94500
C  -6.18500 14.23100 41.41000
O  -5.14800 13.55200 41.52200
C  -6.15600 15.80300 41.34300
C  -5.61000 16.49800 42.60100
O  -4.46200 16.89500 42.72200
O  -6.59400 16.70900 43.56100
C  -6.15000 17.70600 44.57700
H  -10.68400 20.89400 40.69600
H  -15.38600 16.62800 39.90200
H  -11.03700 11.87100 40.09800
H  -6.25800 18.92100 41.37800
H  -8.02800 20.77400 40.11600
H  -7.44700 20.21200 42.89500
H  -9.01900 20.78700 42.84800
H  -7.84200 21.81800 42.16000
H  -6.65600 19.82600 38.74800
H  -6.98000 18.27300 38.54400
H  -4.49800 18.39500 40.03700
H  -4.45100 19.58100 38.77100
H  -12.18000 22.08900 39.88000
H  -13.74500 22.24700 40.80200
H  -13.61200 21.95200 39.07200
H  -16.86300 18.24900 38.90200
H  -17.84700 19.21700 40.16200
H  -16.66500 18.03100 40.69700
H  -15.07800 14.28300 38.97400
H  -13.62800 12.18900 40.54600
H  -15.74600 14.80300 41.58500
H  -15.64400 13.00300 41.72800
H  -16.72200 13.69200 40.59100
H  -12.88700 12.85500 37.77100
H  -14.55700 12.82700 37.92400
H  -13.39500 10.42600 39.03900
H  -12.86600 10.78400 37.30800
H  -14.58100 10.54700 37.71100
H  -9.14800 10.82800 40.69000
H  -7.82800 11.09600 41.92800
H  -7.45700 11.14900 40.19700
H  -5.44600 16.04500 40.55300
H  -6.89300 17.71500 45.37400
H  -6.08300 18.71600 44.17100
H  -5.15400 17.49700 44.96700

