158

Mg 17.50000 -0.69600 27.71000
C  16.49100 1.45700 30.26500
C  19.66600 -2.21000 29.75800
C  18.84400 -2.00100 24.92500
C  15.46200 1.41600 25.48700
N  18.02500 -0.31200 29.70300
C  17.45900 0.53400 30.63400
C  17.91000 0.17200 32.06600
C  19.10600 -0.73200 31.84500
C  18.89700 -1.10000 30.37600
C  20.49000 -0.03100 32.16200
C  16.76700 -0.33600 32.98700
C  16.71000 0.30800 34.36500
H  17.85400 1.02600 35.05600
N  19.01800 -1.91000 27.39700
C  19.72200 -2.51400 28.37800
C  20.62700 -3.43800 27.76400
C  20.35200 -3.56100 26.36400
C  19.34100 -2.48600 26.14800
C  21.63700 -4.14700 28.61200
C  20.88500 -4.60800 25.38000
O  20.61200 -4.61900 24.22100
C  21.72100 -5.85100 25.79400
N  17.06500 -0.39900 25.53800
C  17.94400 -0.98600 24.62200
C  17.61400 -0.58600 23.20000
C  16.41800 0.38000 23.36000
C  16.21500 0.42000 24.89200
C  18.76900 0.11000 22.51100
C  15.23000 -0.06600 22.58900
C  14.22700 -1.06700 23.15600
N  16.03600 0.95200 27.88100
C  15.42700 1.71100 26.92000
C  14.74800 2.85600 27.52700
C  15.10200 2.77200 28.89800
C  15.88800 1.63300 29.05100
C  13.90700 3.91500 26.78700
C  14.98200 3.42200 30.18100
O  14.41300 4.46000 30.47700
C  15.74000 2.39800 31.16500
C  16.48900 3.24600 31.99200
O  17.63200 3.68200 31.74300
O  15.91700 3.40900 33.15600
C  16.42600 4.54100 33.92300
H  20.35100 -2.74300 30.42100
H  19.34300 -2.32300 24.00800
H  15.00600 2.19800 24.87800
H  18.33100 1.03800 32.57700
H  19.02400 -1.55500 32.55600
H  20.98400 -0.70200 32.86500
H  20.40500 0.91300 32.69900
H  21.13000 0.06600 31.28500
H  17.04200 -1.37300 33.18400
H  15.75100 -0.30100 32.59300
H  16.32900 -0.53300 34.94300
H  15.86500 0.99300 34.29500
H  21.26000 -5.08000 29.03100
H  22.00300 -3.57600 29.46500
H  22.54400 -4.28600 28.02400
H  22.76500 -5.56600 25.93100
H  21.64400 -6.45000 24.88600
H  21.29000 -6.29800 26.68900
H  17.23700 -1.44200 22.63900
H  16.65100 1.42300 23.14400
H  19.58700 0.15800 23.22900
H  18.56600 1.13000 22.18400
H  19.08400 -0.46700 21.64100
H  15.49700 -0.41400 21.59100
H  14.71300 0.86800 22.36700
H  13.24000 -0.62400 23.28700
H  14.50700 -1.49700 24.11800
H  14.02800 -1.88600 22.46500
H  13.00100 3.89600 27.39200
H  13.70700 3.65100 25.74800
H  14.39000 4.89000 26.85100
H  14.99100 1.84600 31.73300
H  16.63500 5.40300 33.28900
H  17.33900 4.13600 34.35900
H  15.63000 4.67700 34.65500
Mg -10.17800 17.29300 41.00600
C  -6.67000 17.28900 41.00700
C  -10.08500 20.58500 40.33400
C  -13.50000 17.12500 40.54500
C  -10.17100 13.74700 41.44200
N  -8.45800 18.74100 40.44800
C  -7.11500 18.56600 40.57200
C  -6.36400 19.86000 40.25000
C  -7.51500 20.92700 40.47900
C  -8.80200 20.05500 40.44600
C  -7.36900 21.93000 41.72200
C  -5.78600 19.80400 38.82400
C  -4.31300 19.32200 38.77700
H  -4.10000 18.20200 37.76400
N  -11.61300 18.70200 40.58100
C  -11.35900 19.95300 40.23800
C  -12.61400 20.66000 39.96900
C  -13.68800 19.73500 40.09500
C  -12.89600 18.41800 40.46200
C  -12.60800 22.12600 39.47000
C  -15.17500 19.96300 39.81500
O  -15.49200 21.08600 39.54200
C  -16.27400 18.88300 39.75100
N  -11.60100 15.63500 41.04100
C  -12.88500 15.85400 40.72200
C  -13.71300 14.56600 40.59800
C  -12.64800 13.46300 40.97800
C  -11.38200 14.32400 41.15300
C  -14.98900 14.57900 41.52600
C  -12.46500 12.28400 39.99600
C  -11.74900 12.61400 38.63100
N  -8.78700 15.78700 41.21800
C  -8.91500 14.44100 41.42700
C  -7.67900 13.82900 41.74700
C  -6.68600 14.87500 41.60600
C  -7.43500 16.10300 41.28000
C  -7.47200 12.37400 41.86300
C  -5.30700 15.23100 41.62700
O  -4.32200 14.51500 41.90100
C  -5.21900 16.76400 41.28300
C  -4.39800 17.34900 42.34500
O  -3.30300 16.94300 42.63700
O  -4.99800 18.45100 42.92100
C  -4.20600 19.19300 43.89600
H  -10.10300 21.66600 40.18000
H  -14.56500 17.11900 40.30100
H  -10.14500 12.65600 41.41100
H  -5.50900 19.99600 40.91200
H  -7.54200 21.44800 39.52200
H  -6.39900 21.78900 42.19800
H  -8.15400 21.69100 42.43900
H  -7.58500 22.97400 41.49200
H  -5.95200 20.76500 38.33800
H  -6.38100 19.12200 38.21600
H  -3.92600 18.83800 39.67400
H  -3.72300 20.19200 38.48800
H  -13.45500 22.23400 38.79300
H  -11.71200 22.36900 38.89800
H  -12.70200 22.79400 40.32700
H  -16.07600 18.18300 38.93900
H  -17.20300 19.44000 39.63000
H  -16.33900 18.28700 40.66100
H  -14.07700 14.42800 39.58000
H  -12.75300 13.07500 41.99200
H  -14.61400 14.66700 42.54600
H  -15.54500 13.66400 41.32500
H  -15.63900 15.42400 41.30000
H  -13.44300 11.88800 39.72000
H  -11.94100 11.54500 40.60300
H  -12.49600 12.48000 37.84900
H  -10.86700 12.02000 38.38900
H  -11.49000 13.67200 38.58300
H  -8.31300 11.89700 42.36600
H  -6.49000 12.17000 42.29000
H  -7.51000 11.96800 40.85200
H  -4.58400 16.81100 40.39900
H  -3.25600 19.46800 43.43800
H  -3.97500 18.46700 44.67500
H  -4.67000 20.14300 44.16300

