158

Mg 53.63100 24.93100 45.03700
C  51.19800 27.28500 44.01200
C  51.60400 22.36600 43.97000
C  56.32900 22.78800 44.76400
C  55.82300 27.57900 45.57300
N  51.65100 24.87700 43.90500
C  50.79800 25.95500 43.76500
C  49.37900 25.44400 43.39300
C  49.42000 23.91200 43.77700
C  50.94500 23.63300 43.95800
C  48.63400 23.41000 45.02900
C  49.10100 25.70900 41.83800
C  47.62700 25.66900 41.38800
H  47.23800 25.39700 39.92600
N  53.95600 22.91000 44.38800
C  52.93400 22.03600 44.02900
C  53.45200 20.69100 43.84800
C  54.85300 20.74100 44.19500
C  55.11100 22.15600 44.42900
C  52.63600 19.55700 43.45200
C  55.77500 19.56700 44.03700
O  55.30400 18.42300 43.96400
C  57.20700 19.77300 43.87000
N  55.73000 25.20700 44.87500
C  56.62600 24.13100 45.03000
C  58.03000 24.53900 45.28000
C  57.91700 26.11100 45.29800
C  56.35200 26.34900 45.28000
C  58.69400 23.88200 46.61000
C  58.64400 26.90300 44.15100
C  60.11600 27.35900 44.56600
N  53.50500 27.00300 45.19100
C  54.44100 27.92600 45.46500
C  53.80200 29.23500 45.45900
C  52.54500 29.01300 44.82200
C  52.42600 27.65300 44.63000
C  54.49400 30.46400 45.78600
C  51.37000 29.71900 44.26200
O  51.02900 30.88900 44.12000
C  50.47600 28.61200 43.68300
C  50.24800 28.89700 42.23900
O  51.01900 28.78100 41.33800
O  48.91200 29.30600 42.05000
C  48.31700 29.57900 40.73300
H  50.99000 21.48500 43.77100
H  57.15100 22.08000 44.89100
H  56.54700 28.38900 45.68400
H  48.61300 25.95100 43.98000
H  49.06500 23.33800 42.92100
H  48.00100 24.17400 45.48100
H  49.34700 22.91700 45.69000
H  47.93200 22.62800 44.74000
H  49.59100 24.91700 41.27100
H  49.59500 26.56500 41.37900
H  47.15300 26.63200 41.57800
H  47.17300 24.97700 42.09800
H  53.19900 18.75000 42.98300
H  51.81700 19.76900 42.76500
H  52.16500 19.19200 44.36400
H  57.57600 18.81200 43.50900
H  57.73100 20.05100 44.78400
H  57.30400 20.47600 43.04200
H  58.69300 24.22900 44.47200
H  58.20200 26.57500 46.24200
H  59.78000 23.79800 46.59800
H  58.25700 22.90700 46.82700
H  58.50500 24.52100 47.47300
H  58.20100 27.78400 43.68500
H  58.68100 26.18800 43.33000
H  60.27100 27.15500 45.62500
H  60.24000 28.43200 44.41900
H  60.91700 26.81200 44.06800
H  54.62100 30.66700 46.84900
H  53.89300 31.25400 45.33500
H  55.50000 30.56500 45.37900
H  49.56300 28.68700 44.27300
H  48.95100 29.45700 39.85500
H  47.97000 30.60700 40.62500
H  47.50700 28.90000 40.46900
Mg 29.97100 57.81300 39.66700
C  27.53800 55.75600 38.17800
C  32.23000 55.28400 38.90300
C  32.59000 60.04500 40.06000
C  27.80900 60.37600 39.91300
N  29.87900 55.76800 38.52500
C  28.74700 55.13800 38.13100
C  28.99400 53.64200 37.81500
C  30.54600 53.54300 38.00300
C  30.90500 54.92000 38.60000
C  31.08300 52.36700 38.88200
C  28.78700 53.26100 36.33600
C  29.19300 54.40100 35.27200
H  28.08300 54.94900 34.38400
N  32.15400 57.62600 39.61100
C  32.81300 56.51800 39.33400
C  34.24500 56.84300 39.27800
C  34.41200 58.17200 39.69300
C  33.03600 58.70400 39.88400
C  35.39100 55.88600 39.05500
C  35.74900 58.92200 39.77800
O  36.77300 58.35800 39.60100
C  35.82600 60.35600 40.06700
N  30.20600 59.88400 39.93300
C  31.35600 60.60400 40.12500
C  31.14000 62.07400 40.45700
C  29.58400 62.11000 40.58400
C  29.12700 60.74300 40.08200
C  31.93200 62.60700 41.68300
C  28.95700 63.35800 39.93400
C  28.10300 64.26100 40.85300
N  28.01200 58.05800 39.36600
C  27.21900 59.10900 39.66400
C  25.86800 58.73900 39.42300
C  25.95900 57.43200 38.92200
C  27.28400 57.03700 38.82800
C  24.69800 59.61100 39.48400
C  25.15200 56.40400 38.24600
O  23.94400 56.28300 38.10800
C  26.15400 55.26400 37.80500
C  25.70400 54.09300 38.65700
O  25.84800 53.96200 39.83900
O  25.04300 53.21000 37.85200
C  24.25400 52.11100 38.49200
H  33.02200 54.56000 38.69700
H  33.37200 60.80100 40.15200
H  27.04400 61.12000 40.14600
H  28.37700 52.98300 38.42600
H  31.09500 53.49500 37.06300
H  32.06700 52.58100 39.29800
H  31.09700 51.48400 38.24300
H  30.33100 52.33300 39.67100
H  27.72100 53.04000 36.28800
H  29.31200 52.42200 35.88100
H  29.99400 54.09400 34.59900
H  29.48600 55.29000 35.82900
H  35.99300 56.22500 38.21200
H  34.99400 54.88500 38.88700
H  36.04400 55.83300 39.92600
H  35.33200 60.77600 39.19100
H  36.87100 60.66600 40.03900
H  35.52900 60.66800 41.06900
H  31.40400 62.63400 39.56100
H  29.33400 62.14300 41.64500
H  31.16300 62.99200 42.35200
H  32.63500 63.39000 41.39600
H  32.48400 61.80000 42.16500
H  28.28000 62.98800 39.16500
H  29.61700 64.13000 39.53900
H  28.22900 65.29000 40.51400
H  28.44000 64.12700 41.88100
H  27.05100 63.98800 40.77300
H  24.65700 60.40600 38.74000
H  24.65200 60.00900 40.49800
H  23.87100 58.93900 39.25500
H  25.92100 55.14100 36.74800
H  24.55700 51.84400 39.50400
H  24.29600 51.18800 37.91300
H  23.19700 52.37600 38.50500

