158

Mg -2.05500 17.13500 26.10800
C  -2.17700 14.97800 28.90300
C  -2.92100 19.78200 28.24600
C  -2.67800 19.11700 23.48200
C  -2.07000 14.31400 24.10300
N  -2.45200 17.32800 28.35200
C  -2.32300 16.35800 29.32900
C  -2.60500 16.93400 30.73800
C  -3.11000 18.36800 30.40200
C  -2.82900 18.54400 28.87900
C  -4.64200 18.59300 30.69800
C  -1.53900 16.88500 31.89200
C  -1.72100 15.85600 33.04200
H  -2.14700 16.44900 34.42700
N  -2.38600 19.15700 25.92300
C  -2.64800 20.11200 26.87800
C  -2.64000 21.41900 26.29500
C  -2.49900 21.22500 24.90400
C  -2.52300 19.75300 24.69300
C  -2.79000 22.76300 27.07700
C  -2.30700 22.16400 23.85500
O  -2.33400 21.92700 22.64100
C  -1.90400 23.63600 24.20600
N  -2.45500 16.72700 24.08000
C  -2.72100 17.72900 23.21000
C  -2.90700 17.24600 21.74100
C  -2.48300 15.71500 21.93500
C  -2.31600 15.52700 23.47600
C  -4.36700 17.30300 21.21500
C  -1.32200 15.17500 21.07800
C  0.07200 15.61500 21.54900
N  -1.97600 15.11000 26.37600
C  -1.85300 14.05200 25.46700
C  -1.61800 12.75700 26.13500
C  -1.84300 13.13100 27.44100
C  -2.04400 14.49100 27.57100
C  -1.60600 11.31600 25.70300
C  -2.00400 12.53000 28.66800
O  -2.04900 11.32400 29.00400
C  -2.30700 13.72100 29.68500
C  -1.28100 13.50600 30.74400
O  -0.16000 13.89100 30.77500
O  -1.83200 12.59000 31.66600
C  -0.97100 12.18800 32.79000
H  -2.99300 20.53500 29.03400
H  -2.85600 19.65200 22.54700
H  -1.86400 13.48100 23.42800
H  -3.46800 16.35600 31.07000
H  -2.60400 19.16200 30.95100
H  -4.73300 19.57400 31.16500
H  -5.08000 17.79300 31.29400
H  -5.24100 18.73600 29.79800
H  -1.48700 17.89500 32.29900
H  -0.52600 16.62500 31.58700
H  -0.77000 15.35200 33.21400
H  -2.41000 15.03000 32.87000
H  -3.00900 22.57900 28.12800
H  -3.65900 23.32000 26.72800
H  -1.97800 23.49100 27.06700
H  -2.78800 24.12100 24.62000
H  -1.75500 24.20500 23.28900
H  -1.02000 23.63400 24.84400
H  -2.32700 17.77500 20.98400
H  -3.31500 15.07900 21.63300
H  -4.29900 17.61800 20.17400
H  -4.97600 18.09800 21.64500
H  -4.94400 16.38400 21.32300
H  -1.43300 15.43100 20.02400
H  -1.48100 14.10300 21.18900
H  0.57100 14.69200 21.84500
H  0.01600 16.25700 22.42800
H  0.64100 16.15300 20.79100
H  -1.15700 11.14800 24.72400
H  -2.64900 11.01100 25.60900
H  -0.99300 10.88000 26.49100
H  -3.35300 13.77700 29.98700
H  -0.88200 12.99600 33.51700
H  0.01500 11.94200 32.39700
H  -1.39000 11.27800 33.22000
Mg 35.45400 1.61000 28.85300
C  33.39400 2.78900 31.35700
C  38.09300 1.28500 31.06100
C  37.59300 0.70900 26.23600
C  32.86000 2.01300 26.56400
N  35.71300 2.01500 30.90900
C  34.69100 2.45300 31.76400
C  35.20200 2.45700 33.18200
C  36.70500 2.17700 33.06000
C  36.89700 1.81200 31.56300
C  37.52900 3.42500 33.32200
C  34.48000 1.41400 34.05500
C  34.20600 1.86400 35.49200
H  34.81200 3.14800 36.02400
N  37.47400 0.85500 28.70100
C  38.38600 0.85500 29.69700
C  39.61500 0.43000 29.14700
C  39.55700 0.30100 27.75700
C  38.14000 0.60200 27.48000
C  40.78700 0.13400 29.96100
C  40.71500 -0.06300 26.73400
O  40.46900 -0.11600 25.51800
C  42.12300 -0.12600 27.12300
N  35.28000 1.35400 26.71500
C  36.29200 1.11700 25.86700
C  35.83400 1.30200 24.43900
C  34.22700 1.29100 24.60100
C  34.05400 1.57300 26.06900
C  36.34200 2.68100 23.82100
C  33.41100 0.01800 24.08200
C  32.85000 -0.98200 25.06600
N  33.51300 2.26000 28.91100
C  32.55200 2.37600 27.88300
C  31.26400 2.86800 28.42800
C  31.55300 3.05300 29.83400
C  32.92400 2.64400 30.02800
C  30.00000 3.05200 27.70400
C  30.99300 3.41700 31.10100
O  29.83200 3.75700 31.33400
C  32.22200 3.25400 32.19700
C  32.32700 4.65600 32.73800
O  32.94800 5.58600 32.19000
O  31.48700 4.76800 33.81200
C  31.50800 6.02900 34.56100
H  39.00800 1.27200 31.65700
H  38.31500 0.56300 25.43000
H  31.98200 2.09100 25.91800
H  35.10300 3.50800 33.45500
H  37.08200 1.51400 33.83900
H  37.05400 4.36100 33.02500
H  38.45700 3.46600 32.75200
H  37.70500 3.60900 34.38200
H  34.98500 0.44800 34.07200
H  33.50000 1.16500 33.64900
H  34.55200 1.05600 36.13600
H  33.15000 1.83100 35.76000
H  40.53200 -0.22700 30.95700
H  41.40500 1.03200 29.94800
H  41.36600 -0.62400 29.43400
H  42.43800 -1.05400 27.60100
H  42.23200 0.75600 27.75300
H  42.68700 0.10200 26.21900
H  36.12200 0.48500 23.77800
H  33.79600 2.15700 24.09800
H  36.89900 2.36400 22.93900
H  37.05900 3.09500 24.53000
H  35.64100 3.48700 23.60300
H  34.06700 -0.52100 23.39900
H  32.70900 0.41500 23.34900
H  32.79700 -0.48100 26.03300
H  33.32700 -1.93600 25.29000
H  31.83500 -1.25200 24.77600
H  29.14500 2.42700 27.96100
H  30.09300 2.95900 26.62200
H  29.65000 4.05200 27.95900
H  31.80200 2.61700 32.97500
H  32.35800 6.68300 34.36400
H  31.50100 5.99600 35.65000
H  30.66300 6.62900 34.22400

