158

Mg 16.54600 51.31300 24.72500
C  18.20600 50.30100 27.69500
C  14.06900 52.54100 26.68000
C  14.93400 52.19400 21.81500
C  19.06400 49.98100 23.00400
N  16.17000 51.46200 26.95800
C  17.03400 51.03800 27.97000
C  16.52300 51.43900 29.34900
C  15.06400 51.82900 28.91600
C  15.05600 51.93900 27.43300
C  13.83500 50.92700 29.44300
C  17.33200 52.58500 29.99900
C  17.42400 52.60000 31.55300
H  16.31100 51.84900 32.23300
N  14.79300 52.32000 24.27200
C  13.90100 52.73800 25.21400
C  12.80400 53.32100 24.59400
C  13.03100 53.25600 23.17500
C  14.26200 52.61300 23.00700
C  11.60500 53.92800 25.29400
C  12.26600 53.81700 21.99100
O  12.70100 53.78000 20.90300
C  10.97700 54.47300 22.14700
N  16.87300 51.02200 22.73100
C  16.12300 51.45300 21.71800
C  16.73900 51.07300 20.36300
C  18.17000 50.65700 20.69200
C  18.02100 50.53800 22.23200
C  16.08600 50.04800 19.41000
C  19.29700 51.63100 20.31200
C  20.35500 51.05100 19.31900
N  18.22000 50.22000 25.18200
C  19.21000 49.76500 24.34700
C  20.27700 49.11400 25.02500
C  19.91000 49.34000 26.35500
C  18.66400 49.96600 26.39700
C  21.61100 48.61400 24.57500
C  20.32200 49.16200 27.75600
O  21.33600 48.59100 28.18500
C  19.16100 49.69800 28.67200
C  18.61100 48.56800 29.46600
O  18.15200 47.48200 29.10200
O  18.74300 48.95400 30.77000
C  18.42400 47.91700 31.83900
H  13.29400 52.95600 27.32800
H  14.51100 52.43500 20.83700
H  19.92400 49.59800 22.45000
H  16.54600 50.59600 30.03900
H  14.92300 52.83200 29.32000
H  13.30700 51.56500 30.15200
H  14.26500 50.16400 30.09100
H  13.33200 50.51500 28.56900
H  16.96000 53.57100 29.71900
H  18.36700 52.68100 29.67300
H  17.42700 53.63900 31.88400
H  18.38800 52.22500 31.89700
H  10.76600 53.23500 25.22700
H  11.37600 54.90100 24.86000
H  11.91300 54.16600 26.31200
H  10.36000 53.93800 22.86900
H  10.32500 54.34000 21.28400
H  11.04900 55.54800 22.31000
H  16.71800 51.96700 19.73900
H  18.38900 49.66000 20.31000
H  15.01600 50.04300 19.61900
H  16.44900 49.02900 19.54400
H  16.10000 50.40300 18.37900
H  19.85800 51.83800 21.22300
H  18.95000 52.58200 19.90700
H  21.32700 50.94500 19.80100
H  20.38100 51.67000 18.42200
H  19.95000 50.07500 19.04900
H  22.25100 49.42200 24.22000
H  21.50300 47.96200 23.70900
H  22.02900 47.93500 25.31800
H  19.51800 50.48000 29.34200
H  19.15400 47.10800 31.80700
H  17.40500 47.54900 31.72000
H  18.59800 48.43200 32.78400
Mg 0.17600 43.73600 24.85900
C  2.41700 43.06300 27.47100
C  -2.38800 42.94700 27.09400
C  -2.16400 44.06800 22.28200
C  2.68000 43.98100 22.74100
N  0.08700 42.96200 27.05900
C  1.11400 42.98400 27.95700
C  0.65400 42.81400 29.38200
C  -0.85100 42.56600 29.23600
C  -1.09100 42.74900 27.68000
C  -1.46600 41.26700 29.76300
C  1.01000 44.08100 30.24000
C  1.26100 43.84500 31.78700
H  1.22900 42.49000 32.47800
N  -1.88900 43.52700 24.71600
C  -2.73100 43.13400 25.76100
C  -4.10500 43.14300 25.26700
C  -4.06300 43.48900 23.84500
C  -2.63200 43.75500 23.57000
C  -5.38200 42.95600 26.12300
C  -5.20200 43.59300 22.82000
O  -5.03600 43.91300 21.63800
C  -6.64100 43.31200 23.18400
N  0.28400 44.26100 22.89000
C  -0.77500 44.30300 21.95500
C  -0.27400 44.58000 20.51500
C  1.21600 44.85600 20.79400
C  1.41600 44.33000 22.23700
C  -0.50900 43.58600 19.30600
C  1.67100 46.24000 20.41300
C  0.90600 47.42500 21.12900
N  2.19000 43.52000 24.96800
C  3.14700 43.61400 24.01200
C  4.45500 43.36100 24.52800
C  4.24400 43.19900 25.90300
C  2.87500 43.26100 26.12400
C  5.78000 43.60800 23.69100
C  4.88400 42.96800 27.15100
O  6.07200 42.84700 27.46200
C  3.67200 42.88100 28.23600
C  3.88300 41.54900 28.94000
O  4.06600 40.44700 28.46800
O  3.94700 41.90800 30.25000
C  4.26200 40.69600 31.10100
H  -3.15300 42.83400 27.86500
H  -2.75500 44.01700 21.36500
H  3.48300 44.12800 22.01600
H  1.11500 41.91900 29.79900
H  -1.46800 43.35600 29.66500
H  -2.33100 41.44600 30.40200
H  -0.84400 40.75600 30.49700
H  -1.81900 40.67800 28.91600
H  0.11700 44.70500 30.27800
H  1.87800 44.55700 29.78300
H  0.51300 44.48100 32.26000
H  2.27500 44.18700 31.99400
H  -5.84300 43.90200 26.40900
H  -5.11500 42.53300 27.09200
H  -6.20400 42.31900 25.79600
H  -6.88700 43.93700 24.04300
H  -6.75900 42.29300 23.55200
H  -7.35500 43.67200 22.44400
H  -0.75300 45.53800 20.31100
H  1.83200 44.20200 20.17700
H  -1.01000 44.23000 18.58400
H  -1.19100 42.76800 19.53500
H  0.37200 43.21800 18.78000
H  1.70100 46.44500 19.34300
H  2.69000 46.26000 20.80000
H  1.56700 48.10600 21.66500
H  0.19800 47.19500 21.92500
H  0.29800 47.88000 20.34700
H  6.40600 42.76400 23.98100
H  6.33900 44.49600 23.98800
H  5.67300 43.64700 22.60700
H  3.70600 43.65200 29.00500
H  4.83000 39.91900 30.58900
H  3.31000 40.29200 31.44400
H  4.84300 41.08700 31.93700

