158

Mg 55.71000 23.35700 45.37400
C  53.27500 25.90500 44.68200
C  53.52900 21.01300 44.02400
C  58.07500 21.16500 45.71500
C  57.83000 25.93800 46.51200
N  53.74900 23.53900 44.27900
C  52.93600 24.63000 44.17100
C  51.63700 24.18900 43.49900
C  51.55100 22.70000 43.73200
C  53.04900 22.33100 44.02000
C  50.52300 22.18000 44.82300
C  51.46400 24.68600 42.04300
C  50.02400 25.05900 41.54700
H  49.69800 24.67600 40.08400
N  55.83300 21.33800 44.82500
C  54.80900 20.54300 44.35500
C  55.28100 19.19800 44.29500
C  56.62900 19.18600 44.76600
C  56.93300 20.58400 45.09200
C  54.47200 18.05700 43.76700
C  57.46900 17.94300 44.79300
O  57.00600 16.81300 44.54200
C  58.96500 18.04800 45.10100
N  57.68000 23.51700 46.02000
C  58.38700 22.42800 46.13400
C  59.71600 22.69700 46.86900
C  59.72300 24.25100 46.92100
C  58.33100 24.61300 46.44500
C  59.85700 22.06000 48.24000
C  60.75800 24.99100 46.07000
C  61.32400 26.28600 46.65200
N  55.61900 25.49400 45.56900
C  56.50000 26.40600 46.10300
C  55.96600 27.75900 46.17600
C  54.68700 27.54300 45.68300
C  54.51700 26.21400 45.27900
C  56.56000 29.05000 46.58100
C  53.42500 28.20200 45.36900
O  53.05300 29.35500 45.49900
C  52.53700 27.12600 44.71200
C  52.26200 27.70600 43.39200
O  53.01800 27.89000 42.48000
O  50.91700 28.01300 43.24800
C  50.60000 28.88600 42.14800
H  52.76400 20.31000 43.68700
H  58.84900 20.45500 46.01200
H  58.50200 26.64600 47.00300
H  50.77700 24.55200 44.06100
H  51.24300 22.24500 42.79100
H  50.98400 21.44500 45.48200
H  49.69200 21.67200 44.33400
H  50.21300 22.93900 45.54100
H  51.81900 23.83400 41.46300
H  52.09600 25.57400 42.04400
H  49.94500 26.14600 41.53800
H  49.21000 24.56900 42.08100
H  55.10300 17.43300 43.13400
H  53.57200 18.37200 43.24000
H  54.20900 17.39600 44.59300
H  59.53600 18.69300 44.43200
H  59.40500 17.08600 44.84000
H  59.13300 18.44300 46.10300
H  60.47200 22.34800 46.16600
H  59.84200 24.64100 47.93200
H  58.99800 21.49800 48.60500
H  60.17000 22.76800 49.00800
H  60.62300 21.29700 48.10100
H  60.31300 25.26700 45.11400
H  61.62600 24.34700 45.93300
H  61.73700 26.84300 45.81100
H  62.18600 25.90100 47.19700
H  60.71100 26.84900 47.35500
H  56.04000 29.48500 47.43400
H  56.45000 29.64700 45.67600
H  57.64400 28.98400 46.66900
H  51.56800 26.99100 45.19300
H  51.29400 29.71600 42.01300
H  49.56900 29.21300 42.28100
H  50.53500 28.19000 41.31200
Mg 48.51900 34.62500 26.32500
C  46.47200 33.55800 28.95400
C  49.07800 37.49500 28.13000
C  50.04500 35.99900 23.67600
C  47.42400 32.06600 24.30800
N  47.77300 35.46300 28.34800
C  47.10000 34.76800 29.35200
C  47.42400 35.44500 30.73700
C  47.83700 36.86900 30.24600
C  48.36500 36.53700 28.81500
C  46.69900 37.99500 30.13500
C  48.53500 34.64700 31.52400
C  48.38800 34.42200 33.07200
H  47.42300 35.50200 33.71100
N  49.49300 36.42800 26.00000
C  49.67500 37.43500 26.89000
C  50.46600 38.53300 26.30200
C  50.73800 38.11300 24.99600
C  50.00500 36.84000 24.85400
C  50.77900 39.80400 27.09500
C  51.52000 38.81900 23.95900
O  51.39900 38.64300 22.77200
C  52.30800 40.00800 24.36900
N  48.85700 34.00400 24.35600
C  49.46200 34.70000 23.42100
C  49.44100 34.05200 22.06300
C  48.82200 32.62300 22.37600
C  48.40100 32.90600 23.77300
C  48.75500 34.92400 21.01100
C  49.76800 31.36700 22.20900
C  49.39200 30.33300 21.15700
N  47.24000 33.09100 26.54900
C  46.91000 32.08100 25.65600
C  45.96800 31.21600 26.32600
C  45.80900 31.74300 27.59600
C  46.50100 32.95000 27.68100
C  45.41800 29.89700 25.68600
C  45.10500 31.49200 28.86700
O  44.32900 30.58400 29.22300
C  45.58700 32.58600 29.85500
C  46.35000 31.87500 30.87100
O  47.44900 31.42100 30.69300
O  45.63500 31.81200 32.02600
C  46.32700 30.98700 33.01300
H  49.33900 38.38200 28.71200
H  50.46800 36.46800 22.78600
H  47.15000 31.16200 23.76000
H  46.47900 35.50400 31.27600
H  48.59500 37.33300 30.87600
H  46.27200 38.10400 29.13800
H  47.12600 38.95600 30.42300
H  46.02000 37.68800 30.93100
H  49.50300 35.05400 31.23200
H  48.52600 33.63500 31.11900
H  49.35700 34.57200 33.55000
H  48.01300 33.43100 33.32800
H  51.76700 39.71800 27.54600
H  50.07900 40.02300 27.90200
H  50.63200 40.66600 26.44500
H  51.66800 40.88500 24.46600
H  53.10300 40.13300 23.63400
H  52.69500 39.76200 25.35900
H  50.48800 33.92100 21.78900
H  47.92500 32.49500 21.77100
H  48.02100 34.36100 20.43500
H  49.30000 35.55800 20.31200
H  48.21500 35.67700 21.58500
H  49.78200 30.89200 23.19000
H  50.78000 31.71300 21.99600
H  50.22300 30.47700 20.46700
H  48.44700 30.51100 20.64300
H  49.46800 29.32700 21.56900
H  44.86200 29.43200 26.50000
H  46.30100 29.27700 25.53400
H  44.80300 30.01300 24.79300
H  44.79900 33.09500 30.41000
H  45.81200 31.05600 33.97100
H  47.34700 31.29300 33.24400
H  46.29100 29.94000 32.71200

