158

Mg 36.19100 49.49100 25.60600
C  36.42600 47.53100 28.73100
C  35.05200 52.03700 27.42800
C  35.70700 50.99600 22.74800
C  36.85300 46.43900 23.94700
N  35.78500 49.66100 27.85300
C  36.04900 48.83600 28.93100
C  35.94900 49.58500 30.28400
C  35.33500 50.89300 29.78800
C  35.34300 50.92100 28.25200
C  33.86900 51.22700 30.22700
C  37.42100 49.76800 31.05500
C  37.56400 49.71900 32.59900
H  36.44500 49.95300 33.59100
N  35.47900 51.28100 25.09100
C  35.05800 52.22700 26.03300
C  34.78200 53.46300 25.32400
C  35.20500 53.26700 23.95900
C  35.50300 51.81800 23.87300
C  34.15800 54.58400 26.00000
C  35.26900 54.19400 22.69800
O  35.55600 53.71200 21.60400
C  35.04200 55.73200 22.81700
N  36.37500 48.79400 23.62600
C  35.97300 49.64000 22.58900
C  36.19600 48.91500 21.15200
C  36.80400 47.54100 21.61400
C  36.73500 47.59700 23.19800
C  34.87400 48.97800 20.25800
C  38.24200 47.20700 21.08100
C  38.34500 45.88100 20.24000
N  36.59200 47.40100 26.13100
C  36.81600 46.32500 25.38300
C  37.06800 45.12100 26.08000
C  36.97900 45.56300 27.45500
C  36.63200 46.94300 27.42600
C  37.47300 43.80400 25.60700
C  37.07100 45.20100 28.86700
O  37.38200 44.09000 29.40200
C  36.77900 46.44700 29.69700
C  35.75600 46.10100 30.70200
O  34.56000 46.08300 30.50900
O  36.36100 46.01800 31.91200
C  35.43300 46.05500 33.06600
H  34.93700 52.98100 27.96500
H  35.69200 51.42000 21.74200
H  37.05200 45.47500 23.47500
H  35.29100 49.06500 30.98100
H  35.88000 51.76500 30.15000
H  33.21600 51.48200 29.39200
H  33.94700 52.09800 30.87700
H  33.43100 50.41700 30.81100
H  37.87300 50.63200 30.56700
H  38.07900 49.03500 30.58900
H  38.42400 50.36900 32.76000
H  37.95100 48.73300 32.85800
H  33.67200 55.26400 25.30100
H  35.01000 55.05700 26.48700
H  33.49100 54.23800 26.79100
H  35.45700 55.99500 23.79000
H  33.96400 55.89100 22.85100
H  35.52900 56.19600 21.96000
H  36.99300 49.52000 20.72000
H  36.21300 46.75200 21.15000
H  34.44300 48.04300 19.89800
H  34.96500 49.53700 19.32700
H  34.16200 49.60900 20.79000
H  38.91500 47.16100 21.93700
H  38.55500 48.07700 20.50400
H  38.89000 46.13100 19.33000
H  37.39900 45.41300 19.96900
H  38.86700 45.18700 20.89900
H  36.60200 43.36500 25.12100
H  37.79600 43.24900 26.48800
H  38.27100 43.77300 24.86500
H  37.67600 46.75000 30.23800
H  35.05500 45.03500 33.12200
H  34.60700 46.74100 32.87800
H  35.88400 46.25100 34.03900
Mg -4.29400 25.47700 26.21300
C  -2.99700 26.82800 29.17500
C  -6.20400 23.37100 28.08000
C  -5.06900 23.85400 23.36400
C  -2.29000 27.62100 24.38200
N  -4.39100 25.02100 28.33300
C  -3.90200 25.75900 29.37200
C  -4.34500 25.26300 30.77700
C  -5.30000 24.05600 30.35200
C  -5.30300 24.16300 28.82600
C  -4.99200 22.66000 31.08700
C  -5.21500 26.39700 31.40200
C  -5.27000 26.61700 32.96500
H  -4.89500 25.39300 33.85200
N  -5.57900 23.92900 25.74900
C  -6.32600 23.26500 26.68100
C  -7.29700 22.41100 25.98900
C  -6.98300 22.52100 24.54800
C  -5.81500 23.46100 24.50600
C  -8.44300 21.52100 26.72100
C  -7.67300 21.90700 23.30700
O  -7.34700 22.20300 22.13200
C  -8.80200 20.96400 23.51100
N  -3.67400 25.72000 24.11500
C  -4.13900 24.86600 23.17600
C  -3.49300 25.18200 21.84400
C  -2.74700 26.52000 22.14300
C  -2.88700 26.65500 23.58300
C  -2.71400 23.90200 21.22100
C  -3.36100 27.73800 21.35500
C  -2.37200 28.62800 20.64000
N  -2.87300 26.86000 26.63400
C  -2.21300 27.73600 25.83100
C  -1.41500 28.66800 26.55600
C  -1.69400 28.30700 27.86800
C  -2.59100 27.25300 27.88500
C  -0.47400 29.78200 26.08700
C  -1.36500 28.61700 29.18700
O  -0.55300 29.44000 29.61500
C  -2.26500 27.72600 30.15500
C  -1.42700 26.98500 31.12500
O  -0.68300 25.98500 30.94700
O  -1.79700 27.49100 32.34700
C  -1.06900 26.82400 33.41500
H  -6.84800 22.74600 28.70200
H  -5.29400 23.33800 22.42900
H  -1.64600 28.30100 23.82100
H  -3.60600 24.81400 31.44200
H  -6.34100 24.29900 30.56600
H  -4.81700 21.97400 30.25800
H  -5.93400 22.43900 31.58800
H  -4.11700 22.77900 31.72600
H  -6.25200 26.35400 31.07000
H  -4.91100 27.33500 30.93900
H  -6.26200 27.03900 33.12400
H  -4.54800 27.38000 33.25500
H  -9.37700 21.70100 26.18800
H  -8.51100 21.87500 27.75000
H  -8.10600 20.48400 26.72300
H  -8.37700 20.09600 24.01500
H  -9.15700 20.68300 22.52000
H  -9.68800 21.40900 23.96400
H  -4.39700 25.35600 21.26000
H  -1.72100 26.23400 21.91200
H  -3.19200 23.48000 20.33700
H  -2.54000 23.08500 21.92100
H  -1.72500 24.26600 20.94300
H  -4.10800 28.28000 21.93500
H  -4.00900 27.26400 20.61800
H  -1.32800 28.54700 20.94300
H  -2.67500 29.66700 20.76500
H  -2.39800 28.43000 19.56800
H  -1.13900 30.54300 25.67800
H  0.24000 29.38300 25.36700
H  0.07700 30.16700 26.94400
H  -2.95800 28.31100 30.75900
H  -1.24500 25.75000 33.35000
H  -1.41300 27.18600 34.38400
H  -0.02200 27.03200 33.19700

