158

Mg 0.07600 8.17200 26.72700
C  0.79000 10.40500 29.33100
C  -0.41300 5.71100 29.03000
C  0.06700 5.91500 24.14600
C  0.79600 10.70000 24.43100
N  0.36800 7.99500 28.92700
C  0.56900 9.05100 29.76300
C  0.24800 8.69000 31.27300
C  0.09100 7.14700 31.10100
C  0.04500 6.90800 29.58400
C  1.25800 6.26200 31.73400
C  -1.05200 9.40600 31.76100
C  -1.23500 9.60200 33.27200
H  -0.03600 9.30700 34.11000
N  -0.11100 6.14300 26.57600
C  -0.48500 5.35700 27.68700
C  -0.73600 4.05800 27.17800
C  -0.67800 4.05200 25.73200
C  -0.19200 5.40500 25.38900
C  -1.04400 2.88300 28.16200
C  -0.98900 2.96400 24.70300
O  -0.89700 3.03000 23.49300
C  -1.49100 1.65500 25.18900
N  0.64500 8.27300 24.61200
C  0.41400 7.23300 23.72700
C  0.67500 7.57900 22.31500
C  0.50000 9.21600 22.31600
C  0.59700 9.44900 23.87000
C  1.90000 6.99300 21.65200
C  -0.81500 9.71800 21.74200
C  -0.69400 10.88900 20.73300
N  0.71400 10.10600 26.70300
C  0.85200 11.09700 25.76800
C  1.19300 12.33300 26.36300
C  1.10200 12.10600 27.71200
C  0.80200 10.77000 27.92500
C  1.38000 13.63900 25.64600
C  1.24700 12.76100 29.01500
O  1.55300 13.87200 29.28300
C  1.11000 11.67000 30.12700
C  2.34600 11.66300 30.90000
O  3.37400 11.09000 30.53300
O  2.14500 12.30800 32.10600
C  3.28600 12.34100 33.06800
H  -0.74600 5.02700 29.81400
H  -0.09200 5.29800 23.26000
H  0.66600 11.57000 23.78300
H  1.16500 8.94900 31.80200
H  -0.80000 6.74900 31.58800
H  0.90600 5.46600 32.39100
H  1.88100 6.94800 32.30800
H  1.91200 5.83100 30.97700
H  -1.84200 8.72100 31.45400
H  -1.26100 10.36700 31.29100
H  -2.04400 8.93800 33.57600
H  -1.56600 10.61900 33.48300
H  -0.82600 3.00700 29.22300
H  -0.63400 1.95700 27.75800
H  -2.12500 2.75900 28.21500
H  -1.85500 1.15000 24.29400
H  -2.35500 1.79900 25.83800
H  -0.68200 1.26200 25.80400
H  -0.11000 7.11300 21.72000
H  1.38200 9.65600 21.84900
H  2.61800 6.78600 22.44600
H  2.26200 7.59900 20.82200
H  1.67000 6.00500 21.25400
H  -1.48400 10.11800 22.50400
H  -1.20400 8.81200 21.27900
H  0.28900 10.99600 20.27300
H  -0.92200 11.83000 21.23300
H  -1.40200 10.74200 19.91700
H  0.86000 13.70800 24.69100
H  2.41600 13.95500 25.52900
H  1.09900 14.45700 26.31000
H  0.25200 11.91800 30.75100
H  4.12800 12.51200 32.39600
H  3.37900 11.32200 33.44200
H  3.09300 12.97300 33.93500
Mg 47.86400 25.00700 28.57100
C  48.75400 26.97200 31.19500
C  46.87400 22.55800 30.83400
C  47.02900 23.02600 25.99600
C  49.09100 27.39600 26.26900
N  47.60100 24.84100 30.74600
C  48.01200 25.83300 31.61300
C  47.71300 25.46900 33.07700
C  47.30900 23.97000 32.93500
C  47.26000 23.74800 31.37800
C  48.19100 22.97300 33.62800
C  46.66200 26.39700 33.76100
C  47.11900 27.10600 35.04500
H  46.05600 27.62200 35.96700
N  47.10900 23.00400 28.44600
C  46.68800 22.18100 29.46800
C  46.21800 20.89300 28.96200
C  46.37100 21.05400 27.52100
C  46.91900 22.39500 27.24800
C  45.63400 19.78300 29.83200
C  46.09200 19.97200 26.49900
O  46.34400 20.08700 25.28700
C  45.46200 18.69300 26.98000
N  48.25900 25.08700 26.33900
C  47.62600 24.20000 25.51800
C  47.47500 24.74500 24.10300
C  48.25000 26.13800 24.15700
C  48.58900 26.20500 25.66100
C  47.93200 23.83800 23.01000
C  47.51800 27.35000 23.56000
C  48.12700 27.99900 22.31600
N  48.85500 26.74400 28.65600
C  49.26500 27.59900 27.68100
C  49.91100 28.70700 28.32400
C  49.58300 28.58600 29.71000
C  49.01700 27.35200 29.85700
C  50.62300 29.95400 27.72200
C  49.71600 29.22000 30.98700
O  50.22600 30.31400 31.29000
C  49.33400 28.13700 32.02600
C  50.53100 27.75300 32.93900
O  51.57000 27.27000 32.51900
O  50.24600 27.99400 34.22500
C  51.24000 27.52100 35.24700
H  46.47500 21.74300 31.44200
H  46.54900 22.40400 25.23700
H  49.39000 28.17500 25.56500
H  48.68500 25.59300 33.55500
H  46.33800 23.83200 33.41100
H  47.70200 22.54600 34.50300
H  49.14400 23.39200 33.95000
H  48.41000 22.15900 32.93700
H  45.76900 25.86000 34.08100
H  46.30800 27.14700 33.05400
H  47.72100 27.95500 34.72100
H  47.72600 26.39100 35.59900
H  46.22600 18.88400 29.65700
H  44.63600 19.62000 29.42400
H  45.44500 19.95700 30.89100
H  45.39100 17.94800 26.18700
H  44.48600 18.99000 27.36500
H  46.06900 18.20200 27.74000
H  46.40600 24.93500 24.00200
H  49.20800 26.01400 23.65100
H  47.00800 23.55100 22.50700
H  48.44400 22.99700 23.47700
H  48.72400 24.17400 22.34100
H  47.30600 28.07700 24.34400
H  46.50800 27.02200 23.31500
H  49.19100 27.81400 22.16900
H  47.96500 29.07700 22.32400
H  47.55500 27.63400 21.46300
H  51.41300 29.61200 27.05300
H  51.00900 30.55500 28.54500
H  49.85900 30.37300 27.06600
H  48.53100 28.70200 32.50000
H  50.82100 26.61300 35.68100
H  51.17700 28.23400 36.06800
H  52.27700 27.33900 34.96400

