158

Mg 16.62900 -1.78100 27.35700
C  15.76600 0.24200 30.00200
C  18.73000 -3.67600 29.47600
C  18.03900 -3.40400 24.65100
C  14.85600 0.26900 25.21600
N  17.17700 -1.61400 29.52700
C  16.67700 -0.73200 30.45300
C  17.12300 -1.21200 31.86400
C  18.26600 -2.27100 31.56000
C  18.06300 -2.57100 30.10800
C  19.69100 -1.84400 31.96600
C  15.92200 -1.65800 32.77600
C  15.97000 -1.26600 34.26600
H  17.01200 -0.30300 34.75500
N  18.00800 -3.40600 27.14100
C  18.75000 -3.99700 28.07300
C  19.44000 -5.14600 27.50300
C  19.13900 -5.22500 26.16000
C  18.34700 -3.93500 25.88000
C  20.20800 -6.14200 28.36800
C  19.56500 -6.14300 25.11300
O  19.41200 -5.92200 23.89900
C  20.17600 -7.48600 25.54500
N  16.39600 -1.64400 25.22500
C  17.16000 -2.38100 24.35800
C  16.93300 -1.93500 22.86300
C  15.93800 -0.73000 23.08600
C  15.69800 -0.69300 24.59400
C  18.25700 -1.50200 22.12600
C  14.51000 -0.88700 22.40900
C  13.92000 0.30100 21.57900
N  15.42000 -0.03100 27.49700
C  14.78400 0.68000 26.54600
C  13.91200 1.68800 27.23200
C  14.37600 1.59500 28.58300
C  15.29900 0.60700 28.67500
C  13.09100 2.71500 26.62200
C  14.11900 2.08900 29.86000
O  13.37100 2.93900 30.24600
C  15.06600 1.32300 30.88100
C  15.85800 2.24500 31.71700
O  17.05500 2.42500 31.66600
O  15.06100 2.87800 32.70100
C  15.71100 3.72200 33.67300
H  19.19400 -4.22600 30.29800
H  18.46700 -3.90200 23.77800
H  14.29900 0.90600 24.52600
H  17.60600 -0.31000 32.23900
H  18.03100 -3.22200 32.03900
H  20.11500 -2.84800 32.00400
H  19.89600 -1.37000 32.92600
H  20.16300 -1.17200 31.25000
H  15.89300 -2.74700 32.74500
H  14.97300 -1.37100 32.32400
H  16.12100 -2.18400 34.83500
H  14.95800 -0.89400 34.42900
H  21.01700 -6.51400 27.74000
H  19.60000 -7.00700 28.63300
H  20.63300 -5.68100 29.25900
H  20.19400 -8.21600 24.73600
H  19.63700 -7.86900 26.41200
H  21.23600 -7.28300 25.69400
H  16.45600 -2.78400 22.37300
H  16.31300 0.23600 22.74800
H  17.97400 -0.97600 21.21400
H  19.03100 -2.22500 21.87100
H  18.74800 -0.70000 22.67800
H  13.76000 -1.21100 23.13100
H  14.58400 -1.66700 21.65100
H  12.84500 0.36700 21.75000
H  14.03800 -0.06900 20.56100
H  14.42900 1.22500 21.85500
H  12.44800 2.31000 25.84100
H  13.79000 3.44900 26.22100
H  12.45100 3.08200 27.42400
H  14.48200 0.77900 31.62400
H  15.09500 4.54600 34.03400
H  16.48500 4.27200 33.13700
H  16.19500 3.19500 34.49600
Mg 47.63800 25.20000 28.22700
C  48.69600 27.39700 30.77300
C  46.75500 22.98000 30.64100
C  46.87300 23.01300 25.73700
C  48.61100 27.58600 25.78500
N  47.75100 25.24800 30.47100
C  48.05600 26.30500 31.31000
C  47.71200 26.05500 32.74800
C  47.18800 24.55700 32.61400
C  47.30900 24.18000 31.19600
C  47.78100 23.56100 33.65200
C  46.70900 26.96100 33.45500
C  47.02500 27.20300 34.99200
H  46.00000 27.77800 35.99600
N  46.94400 23.24800 28.21600
C  46.66000 22.46400 29.32900
C  46.11900 21.18100 28.88400
C  46.11800 21.20400 27.42200
C  46.67700 22.53800 27.08800
C  45.65800 20.09700 29.80600
C  45.70200 20.15400 26.39300
O  45.79200 20.34100 25.13800
C  45.32600 18.81200 26.77900
N  47.87600 25.23800 26.11200
C  47.44900 24.23000 25.31700
C  47.65300 24.56700 23.78800
C  47.93800 26.09100 23.84900
C  48.26200 26.36900 25.34300
C  48.71000 23.70200 23.05300
C  46.80500 27.04500 23.31700
C  45.61100 27.31100 24.26800
N  48.69900 26.98900 28.18800
C  48.88000 27.89300 27.14100
C  49.35900 29.14300 27.67500
C  49.33300 28.97600 29.07900
C  48.91200 27.67000 29.40200
C  49.74400 30.32600 26.93300
C  49.57200 29.69100 30.38500
O  50.07500 30.81400 30.58200
C  49.02800 28.65700 31.47800
C  50.07000 28.56000 32.55300
O  50.97400 27.71100 32.63100
O  49.74800 29.39800 33.55000
C  50.63900 29.16200 34.79300
H  46.26800 22.34600 31.38500
H  46.50300 22.39100 24.92000
H  48.83100 28.31800 25.00500
H  48.61500 26.10500 33.35700
H  46.13900 24.66300 32.89000
H  48.71600 23.10900 33.32400
H  46.99700 22.84900 33.91000
H  47.93600 24.03100 34.62400
H  45.68200 26.59700 33.44600
H  46.71000 27.91600 32.92900
H  47.83400 27.93200 35.03300
H  47.39400 26.25200 35.37700
H  44.56900 20.14900 29.83500
H  45.97200 20.35300 30.81800
H  45.99600 19.12000 29.46000
H  45.93200 18.43700 27.60300
H  45.49600 18.13500 25.94200
H  44.30600 18.82700 27.16300
H  46.69400 24.41100 23.29300
H  48.80400 26.39200 23.25900
H  48.26000 23.16300 22.21900
H  49.11600 23.01600 23.79600
H  49.60200 24.15200 22.61600
H  46.50200 26.64500 22.34900
H  47.26800 27.97800 22.99600
H  45.77100 26.94200 25.28100
H  44.72000 26.80500 23.89600
H  45.32100 28.36100 24.23700
H  50.76800 30.26600 26.56200
H  49.71100 31.20000 27.58200
H  49.07600 30.44700 26.08100
H  48.13400 29.13000 31.88600
H  49.94200 28.78300 35.54000
H  51.00900 30.11800 35.16200
H  51.51100 28.51700 34.68400

