158

Mg -10.79600 17.60500 40.91900
C  -7.22100 17.46800 40.74400
C  -10.47700 20.95400 40.01000
C  -14.05900 17.78100 40.59700
C  -10.82800 14.16000 41.57100
N  -8.98200 18.88800 40.26300
C  -7.66300 18.71100 40.26800
C  -6.84900 19.93800 39.89900
C  -7.92600 21.05900 40.05400
C  -9.23000 20.22500 39.98600
C  -7.90800 21.86500 41.43400
C  -6.24600 19.87800 38.44100
C  -4.71200 19.52000 38.37700
H  -4.36200 18.29100 37.51600
N  -12.13100 19.18500 40.40000
C  -11.84700 20.46800 40.12800
C  -13.06300 21.17600 39.84400
C  -14.15500 20.28300 40.06000
C  -13.49600 18.99600 40.33600
C  -13.07000 22.57900 39.45400
C  -15.66500 20.55900 39.80700
O  -15.93200 21.72400 39.64500
C  -16.74600 19.52800 39.92000
N  -12.24800 16.16400 40.86600
C  -13.57800 16.49000 40.78300
C  -14.48400 15.30100 41.13900
C  -13.47200 14.25500 41.57400
C  -12.07900 14.79400 41.26300
C  -15.58400 15.53700 42.19200
C  -13.67700 12.74700 41.02500
C  -13.01500 12.48000 39.63000
N  -9.37500 16.04000 41.16500
C  -9.56400 14.74600 41.53200
C  -8.22800 14.21400 41.84600
C  -7.30300 15.18000 41.49500
C  -8.03000 16.32700 41.07100
C  -8.09200 12.86000 42.53500
C  -5.92600 15.50000 41.39700
O  -4.88400 14.84800 41.61900
C  -5.85300 17.02400 41.04200
C  -5.05900 17.72400 42.17000
O  -3.82900 17.62300 42.27600
O  -5.87500 18.51500 42.92100
C  -5.20300 19.44600 43.74600
H  -10.45400 22.02900 39.81800
H  -15.13800 17.76800 40.76300
H  -10.90200 13.10400 41.84100
H  -6.12500 19.94800 40.71400
H  -7.92100 21.80300 39.25700
H  -7.15900 21.37200 42.05400
H  -8.85500 21.72600 41.95700
H  -7.65900 22.92500 41.39200
H  -6.34600 20.80700 37.87800
H  -6.86300 19.08000 38.02900
H  -4.48700 19.36100 39.43200
H  -4.10000 20.39100 38.14200
H  -12.84100 22.78500 38.40800
H  -12.33500 22.97300 40.15500
H  -13.94500 23.08700 39.85800
H  -17.63800 20.06500 39.59700
H  -16.62600 19.54400 41.00300
H  -16.53500 18.59900 39.39000
H  -14.86700 14.94200 40.18300
H  -13.44500 13.93600 42.61500
H  -16.58700 15.56000 41.76600
H  -15.34900 16.46300 42.71700
H  -15.60200 14.83300 43.02300
H  -14.70700 12.55500 40.72300
H  -13.32400 12.08900 41.82000
H  -11.94000 12.44100 39.80600
H  -13.22400 13.30000 38.94300
H  -13.31400 11.49600 39.26900
H  -8.56500 12.09500 41.92000
H  -8.52200 12.89600 43.53600
H  -7.08400 12.47600 42.69300
H  -5.24500 17.00200 40.13700
H  -4.51000 18.89600 44.38400
H  -5.97300 19.81000 44.42700
H  -4.75600 20.26900 43.18900
Mg -6.19500 25.68500 26.23400
C  -4.77700 27.26300 29.11400
C  -8.02900 23.74400 28.47200
C  -7.20600 23.95100 23.62300
C  -4.20000 27.75900 24.24200
N  -6.40600 25.58400 28.51000
C  -5.73600 26.28700 29.45600
C  -6.29100 25.98700 30.86600
C  -7.07000 24.68100 30.64900
C  -7.15300 24.64600 29.11400
C  -6.56900 23.46200 31.43900
C  -7.10600 27.13900 31.44800
C  -6.98000 27.34200 32.95000
H  -6.37300 26.24600 33.88500
N  -7.49500 24.07000 26.11000
C  -8.15000 23.38700 27.08900
C  -8.95200 22.39500 26.50200
C  -8.64900 22.35800 25.12200
C  -7.66800 23.46500 24.86700
C  -9.90500 21.49200 27.32100
C  -9.15400 21.40200 24.10300
O  -8.80600 21.32300 22.93900
C  -10.14400 20.26000 24.47300
N  -5.58000 25.71100 24.22800
C  -6.26400 24.96400 23.31800
C  -5.67100 25.25200 21.96000
C  -4.99300 26.69300 22.12900
C  -4.97100 26.78300 23.64100
C  -4.69900 24.11600 21.52300
C  -5.77700 27.78400 21.51600
C  -5.62600 27.98500 19.98100
N  -4.87600 27.26400 26.49000
C  -4.10100 27.98600 25.66500
C  -3.43500 29.04900 26.37900
C  -3.67300 28.82900 27.73200
C  -4.44500 27.67200 27.77700
C  -2.53300 30.10600 25.73500
C  -3.33700 29.16000 29.12000
O  -2.52200 30.05900 29.39500
C  -4.08700 28.15800 30.10400
C  -2.89000 27.45700 30.76000
O  -2.03800 26.82200 30.17600
O  -3.02100 27.78600 32.11900
C  -2.12500 27.07200 33.00700
H  -8.51600 23.02100 29.12900
H  -7.55600 23.38500 22.75700
H  -3.61400 28.39600 23.57600
H  -5.41700 25.88500 31.51000
H  -8.11500 24.77800 30.94300
H  -6.08600 22.70800 30.81800
H  -7.42400 22.92700 31.85100
H  -5.94500 23.75600 32.28300
H  -8.17400 26.97500 31.31000
H  -6.87300 28.04700 30.89100
H  -7.99200 27.47600 33.33200
H  -6.51700 28.28900 33.22700
H  -10.85400 21.39000 26.79500
H  -10.05700 21.85900 28.33600
H  -9.40900 20.52200 27.35900
H  -9.88500 19.58800 25.29000
H  -10.60200 19.82000 23.58800
H  -10.85000 20.97900 24.89000
H  -6.45400 25.36800 21.21000
H  -3.95400 26.64800 21.80200
H  -4.97600 23.90200 20.49000
H  -4.78800 23.30200 22.24300
H  -3.65600 24.43100 21.50900
H  -5.35200 28.70800 21.90800
H  -6.83600 27.68900 21.75300
H  -6.54800 28.50000 19.71200
H  -5.62100 27.11800 19.32100
H  -4.85500 28.68800 19.66500
H  -2.39800 29.88900 24.67600
H  -1.61900 30.04800 26.32600
H  -3.04900 31.04900 25.91600
H  -4.75400 28.61900 30.83200
H  -1.09500 27.08300 32.64800
H  -2.40300 26.04500 33.24600
H  -2.13800 27.62200 33.94700

