158

Mg 26.20200 49.30100 26.38900
C  23.97100 50.68400 28.93400
C  28.29800 48.31700 28.95000
C  28.01700 47.92500 24.12900
C  23.97700 50.60100 24.04400
N  26.09400 49.55400 28.64000
C  25.06400 49.99200 29.45000
C  25.36700 49.86500 30.93400
C  26.80400 49.33300 30.94400
C  27.14800 49.04400 29.38700
C  27.90700 50.25400 31.65600
C  24.30100 48.91100 31.63100
C  24.02200 49.39800 33.04100
H  23.86300 48.31600 34.16100
N  27.99700 48.32900 26.47800
C  28.65500 47.91800 27.60600
C  29.84800 47.09900 27.17200
C  29.86700 47.22300 25.72400
C  28.56300 47.79200 25.39000
C  30.85600 46.60100 28.16200
C  30.91100 46.73500 24.70300
O  30.79700 46.77400 23.50100
C  32.13200 46.11100 25.19700
N  26.18500 49.45800 24.41400
C  26.88500 48.55000 23.70900
C  26.49600 48.42800 22.21200
C  25.32100 49.46800 22.21600
C  25.12500 49.85700 23.70400
C  27.44400 48.54000 20.98500
C  24.11600 48.96000 21.40900
C  23.00800 48.10100 22.12800
N  24.36000 50.40200 26.36900
C  23.62700 50.91300 25.35300
C  22.51700 51.65800 25.89100
C  22.59900 51.54000 27.24800
C  23.74500 50.79800 27.54100
C  21.47700 52.29400 25.09800
C  21.98500 52.05800 28.46400
O  21.10500 52.87400 28.60300
C  22.78300 51.42600 29.65300
C  23.05900 52.48500 30.62200
O  23.89900 53.38600 30.55200
O  22.38100 52.20700 31.78800
C  22.94400 52.90700 32.95700
H  28.98200 47.95400 29.72100
H  28.55000 47.37600 23.35000
H  23.23900 50.88200 23.29000
H  25.39200 50.84000 31.42000
H  26.80200 48.35300 31.42100
H  28.62800 50.46400 30.86700
H  28.30700 49.68100 32.49300
H  27.55700 51.20000 32.06900
H  24.63400 47.87900 31.74100
H  23.39000 48.94100 31.03300
H  23.08200 49.92700 32.88500
H  24.79800 50.08800 33.37200
H  30.70300 45.53000 28.29800
H  30.79500 47.16200 29.09400
H  31.87700 46.83200 27.85600
H  32.69200 45.93900 24.27800
H  31.83300 45.20600 25.72600
H  32.61100 46.90500 25.77100
H  26.07600 47.42500 22.14900
H  25.56600 50.44700 21.80400
H  28.50500 48.60300 21.22600
H  27.15500 49.46100 20.47900
H  27.15200 47.78300 20.25800
H  24.55400 48.41700 20.57100
H  23.60300 49.85400 21.05500
H  22.15800 48.78200 22.16600
H  23.24900 47.86500 23.16400
H  22.78900 47.17400 21.59700
H  21.21400 51.50300 24.39600
H  22.04100 53.12400 24.67200
H  20.62300 52.64400 25.67700
H  22.11900 50.76800 30.21300
H  23.98400 52.62200 33.11700
H  22.41800 52.53700 33.83700
H  22.68900 53.96500 32.91200
Mg -2.58900 35.27900 26.80000
C  -4.32700 33.61400 29.59200
C  -1.92600 37.84300 29.21400
C  -1.03900 36.89400 24.43000
C  -3.76000 32.89300 24.72500
N  -3.14500 35.67500 29.18200
C  -3.74900 34.79200 30.06900
C  -3.82000 35.28600 31.53400
C  -3.21000 36.75300 31.30600
C  -2.70000 36.80900 29.81900
C  -4.19600 37.92100 31.60900
C  -2.97400 34.44700 32.54900
C  -2.78100 35.16300 33.89900
H  -3.24500 34.44400 35.17800
N  -1.51800 37.01800 26.86900
C  -1.33100 37.90700 27.89400
C  -0.47800 39.02500 27.42100
C  -0.29100 38.78600 26.06400
C  -0.95200 37.58200 25.71300
C  0.14600 40.07400 28.38200
C  0.38800 39.64900 25.06200
O  0.60600 39.33100 23.92300
C  0.79500 41.12200 25.40000
N  -2.68400 35.06200 24.81900
C  -1.82400 35.81300 24.03200
C  -1.77700 35.31300 22.58300
C  -2.56600 33.97500 22.72400
C  -3.05500 33.88700 24.14600
C  -2.33100 36.36600 21.61500
C  -1.78800 32.71700 22.26300
C  -0.43700 32.39700 22.96600
N  -3.77800 33.51200 27.04200
C  -4.20100 32.59500 26.06900
C  -4.95600 31.59900 26.71700
C  -5.06000 31.93800 28.05900
C  -4.27700 33.12700 28.28300
C  -5.60100 30.44700 25.95900
C  -5.70800 31.62000 29.22700
O  -6.50400 30.72500 29.51200
C  -5.08700 32.50700 30.32700
C  -6.25900 33.08700 31.07800
O  -6.96800 34.03400 30.79100
O  -6.50100 32.29500 32.20600
C  -7.58400 32.59100 33.15900
H  -1.78800 38.74400 29.81600
H  -0.31000 37.15400 23.65900
H  -3.97100 32.13300 23.96900
H  -4.83800 35.34800 31.92000
H  -2.31200 36.95200 31.89100
H  -4.31400 38.60300 30.76700
H  -3.86200 38.54300 32.43800
H  -5.22800 37.63400 31.81200
H  -2.04500 34.11700 32.08300
H  -3.54700 33.53100 32.69500
H  -3.29500 36.12400 33.91000
H  -1.72200 35.34900 34.07900
H  1.13400 40.34400 28.01100
H  0.26900 39.62800 29.36900
H  -0.56300 40.89700 28.46900
H  -0.07000 41.63300 25.82200
H  1.22900 41.68200 24.57200
H  1.66400 41.16300 26.05700
H  -0.74400 35.05800 22.34500
H  -3.35300 34.09500 21.97900
H  -2.83500 37.02500 22.32200
H  -3.10300 35.98200 20.94700
H  -1.47500 36.86900 21.16500
H  -1.56100 32.89200 21.21100
H  -2.47100 31.89200 22.46400
H  -0.20400 33.15000 23.71900
H  0.30400 32.50000 22.17300
H  -0.50500 31.40300 23.40800
H  -4.89600 30.09900 25.20500
H  -6.47900 30.84600 25.45200
H  -5.89500 29.61600 26.60200
H  -4.53800 31.81000 30.96000
H  -7.96600 31.69300 33.64400
H  -8.33800 33.07000 32.53300
H  -7.23500 33.27500 33.93200

