158

Mg 30.01000 58.95000 39.57200
C  26.98300 57.29500 38.31900
C  31.68200 56.02500 38.56200
C  32.74800 60.67200 39.58100
C  28.00300 62.04800 39.40400
N  29.37500 57.05900 38.32100
C  28.13600 56.53200 38.04300
C  28.25500 55.18300 37.37900
C  29.73200 54.71200 37.76200
C  30.28000 56.02500 38.26900
C  29.80100 53.40800 38.59700
C  27.99500 55.26100 35.81000
C  26.72900 54.58600 35.32500
H  25.82800 55.32400 34.38500
N  31.91400 58.40700 39.38900
C  32.42400 57.12500 39.04000
C  33.82900 57.21300 39.11000
C  34.20500 58.60300 39.44500
C  32.95400 59.29600 39.59400
C  34.72200 56.03200 38.64600
C  35.61600 59.06600 39.47100
O  36.54000 58.21600 39.31600
C  36.15100 60.49300 39.82500
N  30.30400 61.08300 39.75800
C  31.61100 61.45200 39.54500
C  31.61400 62.99400 39.40200
C  30.15400 63.43800 39.15700
C  29.43800 62.17400 39.49700
C  32.30700 63.67700 40.57200
C  29.82200 63.96800 37.65000
C  29.07000 65.34100 37.58000
N  27.89600 59.55700 39.33500
C  27.27400 60.80700 39.29000
C  25.81100 60.59800 39.06700
C  25.67600 59.20100 38.81800
C  27.00200 58.64800 38.81900
C  24.74600 61.62800 39.08200
C  24.73800 58.16000 38.43100
O  23.56200 58.16200 38.30200
C  25.56500 56.78000 38.07300
C  25.15600 55.71800 39.01800
O  25.35000 55.72500 40.23200
O  24.43000 54.76400 38.34500
C  23.90200 53.76400 39.24200
H  32.28500 55.18300 38.21400
H  33.66000 61.26900 39.51700
H  27.42300 62.97300 39.35600
H  27.52500 54.55700 37.89300
H  30.24600 54.48800 36.82600
H  28.85100 52.90700 38.78500
H  30.37500 53.70900 39.47300
H  30.39600 52.65200 38.08500
H  28.85900 54.90600 35.24900
H  27.93200 56.30100 35.48900
H  26.17000 54.23600 36.19300
H  26.96300 53.64500 34.82800
H  34.27000 55.38400 37.89600
H  34.88900 55.55300 39.61100
H  35.61300 56.40700 38.14100
H  37.24000 60.48300 39.85700
H  35.68600 60.97300 40.68600
H  35.97200 60.99500 38.87400
H  32.15100 63.23700 38.48600
H  29.90100 64.24800 39.84000
H  31.66900 63.71900 41.45500
H  32.46800 64.71700 40.29100
H  33.24200 63.19700 40.85900
H  29.30500 63.16500 37.12600
H  30.77000 64.01400 37.11300
H  28.11200 65.28700 38.09800
H  28.91100 65.66700 36.55200
H  29.62900 66.08100 38.15200
H  24.05500 61.24200 38.33200
H  25.20300 62.59600 38.87900
H  24.35200 61.67700 40.09700
H  25.33000 56.53700 37.03700
H  24.74200 53.22800 39.68400
H  23.29900 53.08200 38.64200
H  23.24100 54.19500 39.99500
Mg -9.96400 17.18100 42.52200
C  -6.47900 16.79600 42.28400
C  -9.51500 20.43100 41.63300
C  -13.30500 17.50800 42.39300
C  -10.17200 13.69700 42.67800
N  -8.05200 18.44800 41.97000
C  -6.78700 18.12100 41.97000
C  -5.89300 19.39800 41.62700
C  -6.90600 20.60700 41.54600
C  -8.27800 19.82300 41.78900
C  -6.62500 21.89700 42.35400
C  -5.05300 19.21500 40.38500
C  -5.56700 18.20800 39.27600
H  -4.88100 18.50100 37.85900
N  -11.29200 18.76400 42.18100
C  -10.85700 19.98800 41.82300
C  -12.05300 20.80200 41.56400
C  -13.25600 20.05800 41.86900
C  -12.69200 18.74000 42.27000
C  -11.90300 22.19000 41.00100
C  -14.72600 20.48700 41.82700
O  -15.13900 21.58900 41.37000
C  -15.86300 19.59800 42.20900
N  -11.47200 15.72200 42.29000
C  -12.81700 16.18100 42.33800
C  -13.75200 14.93800 42.63800
C  -12.72600 13.81700 42.59000
C  -11.36400 14.43500 42.56600
C  -14.47100 15.12300 44.05800
C  -12.97500 12.73700 41.45500
C  -13.04300 11.23600 41.87900
N  -8.60300 15.52900 42.65400
C  -8.86900 14.15900 42.74400
C  -7.66100 13.41800 42.82900
C  -6.68100 14.41400 42.74100
C  -7.25500 15.69300 42.54500
C  -7.46600 11.94300 42.88100
C  -5.32600 14.63600 42.71500
O  -4.30000 13.91300 42.73000
C  -5.15800 16.16800 42.49300
C  -4.31700 16.65900 43.71000
O  -3.15700 17.02900 43.60800
O  -5.09600 16.72100 44.83400
C  -4.52400 17.60600 45.86700
H  -9.26600 21.47200 41.41600
H  -14.38000 17.33200 42.47600
H  -10.30900 12.61700 42.76500
H  -5.25900 19.58500 42.49300
H  -6.90500 20.93900 40.50800
H  -5.59500 21.90300 42.71200
H  -7.28000 21.92200 43.22500
H  -6.79600 22.69800 41.63500
H  -4.00000 19.14700 40.66000
H  -4.96800 20.10300 39.75800
H  -6.65400 18.15700 39.20500
H  -5.25900 17.19900 39.54900
H  -11.16200 22.09700 40.20700
H  -11.40700 22.93900 41.61800
H  -12.89900 22.44400 40.63800
H  -15.99100 18.87400 41.40400
H  -16.74900 20.19500 42.42300
H  -15.61000 19.14300 43.16700
H  -14.47500 14.88800 41.82400
H  -12.63000 13.29400 43.54100
H  -14.45000 14.16800 44.58300
H  -15.44300 15.48100 43.71700
H  -13.93300 15.85600 44.65900
H  -12.19000 12.89600 40.71600
H  -13.90400 13.02900 40.96500
H  -13.98500 10.71700 41.69800
H  -12.76500 11.07600 42.92100
H  -12.23300 10.70700 41.37700
H  -8.34900 11.34300 42.66000
H  -6.96400 11.56200 43.77000
H  -6.66400 11.66300 42.20000
H  -4.62300 16.48300 41.59700
H  -3.85900 18.34200 45.41500
H  -4.03000 17.12900 46.71300
H  -5.24300 18.25700 46.36400

