158

Mg -2.62100 17.96100 25.84600
C  -3.11100 16.01800 28.64300
C  -3.04900 20.80800 27.80500
C  -2.85300 19.67700 23.00600
C  -2.26800 14.89300 23.84000
N  -3.14700 18.30500 27.90600
C  -3.09400 17.35800 28.86500
C  -3.28000 18.01400 30.24700
C  -3.25900 19.52400 29.96300
C  -3.06800 19.58900 28.43900
C  -4.54200 20.32200 30.47000
C  -2.39600 17.66100 31.43500
C  -2.81100 18.27800 32.78600
H  -2.83600 17.31700 33.97100
N  -2.87400 19.99100 25.47700
C  -3.05000 21.04200 26.37900
C  -3.15700 22.29200 25.71900
C  -3.14900 21.97300 24.34200
C  -2.99800 20.49900 24.18100
C  -3.27700 23.64700 26.36600
C  -3.24300 22.88000 23.20300
O  -3.25400 22.45000 22.06000
C  -3.47500 24.29400 23.47800
N  -2.51100 17.36400 23.70200
C  -2.55600 18.31200 22.77100
C  -2.38700 17.67100 21.34800
C  -2.03100 16.21300 21.68300
C  -2.24900 16.11000 23.17400
C  -3.64100 17.86100 20.42400
C  -0.57100 15.82900 21.20300
C  0.64500 16.05700 22.08100
N  -2.71000 15.90900 26.14100
C  -2.70700 14.79700 25.23400
C  -3.01700 13.65300 26.01400
C  -3.05900 14.05500 27.39400
C  -2.89900 15.44900 27.36400
C  -3.12900 12.21700 25.51200
C  -3.17400 13.58800 28.71800
O  -3.33500 12.43700 29.05800
C  -3.14200 14.84300 29.64300
C  -1.84000 14.64500 30.35000
O  -0.66700 14.80900 29.90700
O  -2.19000 14.11400 31.57500
C  -1.02700 13.64800 32.36200
H  -2.90100 21.63700 28.50000
H  -3.01600 20.27900 22.11000
H  -1.97200 13.97000 23.33600
H  -4.28900 17.71000 30.52500
H  -2.45400 20.06800 30.45500
H  -4.21900 21.19400 31.03900
H  -5.07200 19.78200 31.25500
H  -5.27900 20.52100 29.69200
H  -1.40400 17.84200 31.02200
H  -2.56700 16.58700 31.50400
H  -3.82000 18.68700 32.73100
H  -2.09800 19.08000 32.97600
H  -2.44500 24.24500 25.99300
H  -3.19500 23.55300 27.44900
H  -4.23200 24.13800 26.17600
H  -3.46800 24.84200 22.53600
H  -2.53400 24.52800 23.97500
H  -4.27200 24.61400 24.15000
H  -1.55500 18.17100 20.85300
H  -2.64600 15.39900 21.30000
H  -3.25600 18.33300 19.52000
H  -4.29300 18.60600 20.88000
H  -4.14400 16.90100 20.30800
H  -0.43400 16.43900 20.31000
H  -0.60400 14.77000 20.94400
H  0.37400 16.72500 22.89900
H  1.43200 16.46100 21.44400
H  1.02800 15.14200 22.53100
H  -3.37900 11.43900 26.23200
H  -2.27400 11.79600 24.98300
H  -3.99600 12.15300 24.85400
H  -4.00400 14.93900 30.30400
H  -0.56000 14.59900 32.61700
H  -0.25900 13.10800 31.80800
H  -1.39700 13.30500 33.32800
Mg 2.55700 -1.31400 44.24300
C  6.05200 -1.22500 43.81400
C  2.23200 1.37300 42.21600
C  -0.74200 -1.95500 44.25000
C  3.12000 -4.20300 46.24300
N  4.01600 -0.21900 43.03200
C  5.39800 -0.24900 43.04100
C  5.98200 0.85300 42.25800
C  4.69000 1.92700 42.16500
C  3.53500 1.00900 42.53200
C  4.78900 3.09100 43.18700
C  6.54900 0.54500 40.84200
C  7.68600 1.37000 40.26200
H  7.41700 2.43300 39.18600
N  0.93700 -0.42600 43.33700
C  1.04800 0.67300 42.51900
C  -0.32500 1.03900 42.20700
C  -1.16600 0.11600 42.72400
C  -0.37400 -0.84500 43.47400
C  -0.53700 2.42100 41.50000
C  -2.75200 0.16300 42.62000
O  -3.29600 1.14300 42.05800
C  -3.61300 -0.77800 43.27600
N  1.35500 -2.97200 44.89300
C  -0.01100 -2.81400 44.96400
C  -0.69400 -3.92000 45.75300
C  0.56700 -4.69600 46.35300
C  1.82600 -3.92800 45.81300
C  -1.69900 -3.50100 46.80900
C  0.57200 -6.24300 46.16400
C  1.11000 -7.01600 47.38600
N  4.22000 -2.42000 44.92400
C  4.27300 -3.53200 45.75500
C  5.65000 -3.91900 46.05700
C  6.41400 -2.92500 45.37600
C  5.49800 -2.12900 44.63800
C  6.26900 -5.09400 46.94400
C  7.76700 -2.51400 45.10700
O  8.79900 -2.89700 45.67800
C  7.53300 -1.41500 43.99400
C  8.16900 -0.20300 44.69400
O  8.14200 0.02800 45.88500
O  8.89700 0.60600 43.81600
C  9.36200 1.95300 44.36600
H  2.21200 2.25200 41.56900
H  -1.80700 -1.98400 44.48900
H  3.32900 -5.09500 46.83700
H  6.63200 1.35800 42.97200
H  4.56700 2.31500 41.15400
H  5.28200 3.87900 42.61800
H  5.25200 2.64200 44.06600
H  3.82200 3.46300 43.52600
H  5.73000 0.60000 40.12600
H  6.88100 -0.49300 40.81200
H  8.52200 0.72700 39.98700
H  8.00100 1.87600 41.17400
H  -1.53600 2.79600 41.27500
H  -0.14900 2.33700 40.48500
H  0.00900 3.21500 42.01000
H  -4.58000 -0.65900 42.78700
H  -3.60200 -0.44800 44.31500
H  -3.34500 -1.82300 43.12500
H  -1.27300 -4.50700 45.04000
H  0.46100 -4.35300 47.38300
H  -1.83300 -2.42100 46.75000
H  -1.41400 -3.83200 47.80700
H  -2.66600 -3.97500 46.64000
H  1.24200 -6.50800 45.34600
H  -0.42500 -6.58900 45.89000
H  0.50100 -7.90800 47.53500
H  1.16000 -6.35200 48.24900
H  2.11700 -7.31400 47.09200
H  6.72100 -5.80400 46.25100
H  5.43700 -5.59900 47.43500
H  6.98300 -4.67500 47.65300
H  8.17700 -1.57000 43.12800
H  10.19900 1.75400 45.03500
H  8.58200 2.46700 44.92900
H  9.72700 2.61600 43.58100

