158

Mg 16.93600 -1.53700 28.11500
C  15.86600 0.80000 30.62100
C  18.47500 -3.28300 30.57700
C  18.12900 -3.53200 25.78200
C  15.60600 0.69000 25.72700
N  17.23200 -1.21400 30.31600
C  16.60600 -0.22300 31.10200
C  16.93100 -0.49500 32.56200
C  17.93200 -1.73800 32.52600
C  17.92600 -2.10300 31.03200
C  19.37200 -1.33500 32.96600
C  15.72700 -0.87700 33.45400
C  15.67700 -0.36800 34.98500
H  16.95800 0.21500 35.59800
N  18.12600 -3.16000 28.16200
C  18.65100 -3.81600 29.27400
C  19.29000 -5.04500 28.90000
C  19.24300 -5.08200 27.50400
C  18.48200 -3.90500 27.10400
C  19.97000 -6.03900 29.81700
C  19.97200 -6.04400 26.60200
O  19.98700 -5.94000 25.39800
C  20.78000 -7.21000 27.12800
N  16.93300 -1.38400 26.17200
C  17.46300 -2.33800 25.37500
C  17.48500 -2.05200 23.82200
C  16.60900 -0.73700 23.86200
C  16.26800 -0.45200 25.34900
C  18.82800 -1.76200 23.23100
C  15.32100 -0.82400 23.08800
C  15.08900 0.31800 22.01400
N  15.85600 0.32500 28.13200
C  15.43700 1.06100 27.09100
C  14.67100 2.20300 27.59300
C  14.79900 2.19300 28.98600
C  15.48000 0.96100 29.22200
C  13.90700 3.16400 26.79100
C  14.44300 2.83800 30.29700
O  13.90600 3.88600 30.53100
C  15.23400 1.99600 31.34200
C  16.16700 2.85100 31.99700
O  17.25700 3.06100 31.52800
O  15.64000 3.37100 33.18700
C  16.58500 4.29600 33.80400
H  18.91300 -3.89200 31.37100
H  18.45800 -4.22900 25.00800
H  15.15600 1.34100 24.97400
H  17.46200 0.42400 32.81200
H  17.67000 -2.59400 33.14900
H  19.79300 -2.17700 33.51500
H  19.40300 -0.45800 33.61300
H  20.03500 -1.07400 32.14200
H  15.62400 -1.95800 33.36800
H  14.80900 -0.44900 33.05000
H  15.43700 -1.19700 35.65000
H  14.88700 0.35800 35.18000
H  19.46300 -6.99700 29.70200
H  19.63400 -5.75100 30.81400
H  21.03900 -6.19400 29.67000
H  21.32000 -7.72800 26.33600
H  20.09900 -7.94300 27.56100
H  21.61800 -6.85500 27.72800
H  17.04000 -2.91700 23.33100
H  17.23000 0.14800 23.72000
H  18.77700 -0.83800 22.65500
H  19.18100 -2.58200 22.60500
H  19.62400 -1.63300 23.96500
H  14.46600 -0.51700 23.69100
H  15.17900 -1.78100 22.58600
H  14.37700 1.09700 22.29000
H  14.72300 -0.09000 21.07300
H  16.06600 0.75100 21.80200
H  13.34100 3.86800 27.40000
H  13.26600 2.48400 26.23000
H  14.54200 3.79900 26.17200
H  14.64000 1.69900 32.20700
H  17.60100 3.98300 33.56300
H  16.33700 4.31300 34.86600
H  16.57600 5.31200 33.41000
Mg 25.55500 1.29800 30.02500
C  27.35500 1.46200 33.21700
C  22.65600 1.85400 31.92800
C  23.79400 0.66400 27.29600
C  28.53400 0.61000 28.44900
N  25.09100 1.65800 32.35400
C  25.98500 1.65900 33.40500
C  25.32300 2.00500 34.76700
C  23.82600 1.88000 34.27900
C  23.85200 1.83900 32.74400
C  23.14100 0.57500 34.78200
C  25.71300 3.35200 35.41100
C  26.42500 3.25500 36.82900
H  26.05100 4.31100 37.86500
N  23.44200 1.28700 29.68700
C  22.41300 1.62800 30.53500
C  21.15600 1.64300 29.81600
C  21.52500 1.23700 28.48300
C  22.97700 0.98900 28.40700
C  19.80600 2.05000 30.41900
C  20.57700 1.13900 27.37900
O  20.91100 0.57800 26.34000
C  19.15900 1.68400 27.48600
N  26.11300 0.66300 28.17300
C  25.22200 0.59200 27.15600
C  25.87900 0.26800 25.78700
C  27.40300 0.49000 26.14000
C  27.33100 0.63900 27.66400
C  25.52800 -1.20700 25.37100
C  28.10800 1.73800 25.46600
C  27.19700 2.96200 25.35600
N  27.55500 1.01600 30.63600
C  28.69200 0.82000 29.84500
C  29.78400 0.82100 30.70700
C  29.35100 1.13000 31.99600
C  27.99600 1.23900 31.93500
C  31.21100 0.52000 30.36900
C  29.79800 1.37700 33.33300
O  30.92600 1.46100 33.77600
C  28.49100 1.52900 34.22700
C  28.34900 0.45000 35.22400
O  27.86400 -0.65100 35.00500
O  28.70500 0.85600 36.55100
C  28.78600 -0.14200 37.52600
H  21.84300 2.18900 32.57600
H  23.26900 0.43300 26.36700
H  29.47500 0.46800 27.91400
H  25.49700 1.30900 35.58800
H  23.35500 2.77700 34.68200
H  22.57100 -0.00400 34.05500
H  22.43300 0.92900 35.53100
H  23.92000 -0.03500 35.24000
H  24.84600 3.98700 35.59500
H  26.40500 3.68100 34.63600
H  27.45900 3.53000 36.62000
H  26.44300 2.25800 37.27000
H  19.09500 1.26900 30.15000
H  19.51300 2.97400 29.92000
H  19.80800 2.08800 31.50800
H  18.41300 1.05000 27.96600
H  18.75600 1.56300 26.48100
H  19.11600 2.72200 27.81600
H  25.49600 0.91400 24.99700
H  28.07500 -0.31600 25.84600
H  24.68300 -1.59100 25.94300
H  26.32300 -1.95200 25.38800
H  25.13200 -1.14400 24.35800
H  28.38600 1.35200 24.48500
H  28.94000 1.96200 26.13400
H  26.28000 2.86300 25.93700
H  26.94600 3.05200 24.29900
H  27.70200 3.89500 25.60700
H  31.44100 0.98600 29.41000
H  31.35400 -0.56000 30.38200
H  31.84600 0.68600 31.23900
H  28.45300 2.52500 34.66700
H  27.79400 -0.31000 37.94600
H  29.60300 -0.01300 38.23600
H  29.00300 -1.13500 37.13100

