158

Mg 47.84400 44.41600 43.69400
C  44.30500 43.90400 43.31200
C  48.26300 41.09400 43.07300
C  50.99400 45.07700 43.48500
C  47.09400 47.97100 43.48100
N  46.46400 42.76200 43.05400
C  45.12400 42.77500 43.14200
C  44.56800 41.34600 42.93500
C  45.85200 40.47500 42.81000
C  46.93100 41.53000 42.97800
C  45.93500 39.24500 43.79500
C  43.53800 41.24900 41.77700
C  44.01200 41.78300 40.46300
H  43.80800 41.07800 39.10300
N  49.40800 43.19100 43.47100
C  49.40200 41.87800 43.25200
C  50.77200 41.39800 43.19600
C  51.61700 42.52500 43.36600
C  50.69800 43.63100 43.46600
C  51.16600 39.97600 42.88700
C  53.12100 42.50000 43.39400
O  53.62100 41.38400 43.29600
C  53.97300 43.73600 43.69800
N  48.84700 46.31000 43.43500
C  50.22200 46.23600 43.44200
C  50.77600 47.63200 43.22600
C  49.50100 48.55800 43.17300
C  48.45600 47.54900 43.42000
C  51.58300 48.05800 44.52500
C  49.23400 49.43700 41.91800
C  49.12800 50.95400 42.03000
N  46.11700 45.73500 43.51700
C  45.96500 47.11700 43.42300
C  44.51900 47.48600 43.30800
C  43.86500 46.21500 43.32800
C  44.85700 45.23200 43.34100
C  43.87200 48.88400 43.31100
C  42.57100 45.63000 43.27900
O  41.44900 46.11600 43.17200
C  42.76500 44.07700 43.23400
C  42.00300 43.47100 44.34600
O  41.29400 42.46700 44.24700
O  42.30800 44.14600 45.50600
C  41.56300 43.46000 46.63000
H  48.45300 40.05300 42.80400
H  52.07100 45.25800 43.45900
H  47.11000 49.05200 43.32900
H  43.93300 41.21700 43.81100
H  46.00500 39.98800 41.84700
H  46.73900 39.52300 44.47700
H  46.21100 38.38300 43.18900
H  44.99000 39.21900 44.33800
H  42.58600 41.72800 42.00500
H  43.39000 40.17800 41.63600
H  45.04500 42.12800 40.51000
H  43.47500 42.73100 40.45700
H  51.82100 39.96000 42.01600
H  50.26400 39.38100 42.74200
H  51.76700 39.58200 43.70600
H  53.93700 44.43000 42.85800
H  54.98300 43.45600 43.99700
H  53.51500 44.20700 44.56700
H  51.48700 47.78500 42.41400
H  49.44900 49.23900 44.02300
H  51.25100 49.02100 44.91400
H  52.62100 48.20600 44.22600
H  51.55400 47.32000 45.32600
H  48.34900 49.08100 41.39000
H  50.09700 49.28100 41.27100
H  49.74400 51.40700 41.25300
H  49.49500 51.34600 42.97900
H  48.15100 51.40900 41.87200
H  44.01400 49.32300 42.32400
H  44.40400 49.41500 44.10000
H  42.83800 48.64400 43.56100
H  42.41900 43.80100 42.23700
H  41.70600 44.02400 47.55200
H  41.86300 42.44100 46.87100
H  40.50300 43.35300 46.39700
Mg 9.46100 47.63300 26.58700
C  7.35700 47.56300 29.39500
C  12.12300 48.28900 28.62500
C  11.34100 47.86900 23.85200
C  6.61700 47.44000 24.45400
N  9.64900 48.21800 28.78300
C  8.65200 47.97900 29.74500
C  9.36200 48.03000 31.23100
C  10.85200 48.38700 30.84300
C  10.90300 48.30200 29.34300
C  11.39200 49.77100 31.42300
C  9.23700 46.63600 32.01700
C  10.39000 46.29500 33.12700
H  10.15100 45.35100 34.29600
N  11.45600 47.97100 26.30000
C  12.44400 48.15000 27.23700
C  13.72500 48.18900 26.60800
C  13.51200 48.11500 25.14200
C  12.04800 48.01200 25.05500
C  14.95500 48.32200 27.47000
C  14.48100 48.29200 23.99900
O  14.12000 48.41100 22.78200
C  15.92000 48.34000 24.38800
N  9.03800 47.68200 24.44000
C  10.02100 47.70500 23.49200
C  9.48600 47.46400 22.03600
C  7.99100 47.16000 22.34100
C  7.83900 47.41000 23.84700
C  9.77600 48.55900 20.96100
C  7.53800 45.73500 21.94300
C  8.21600 44.59300 22.73500
N  7.43200 47.51700 26.83300
C  6.42400 47.34400 25.86800
C  5.16800 47.04600 26.57500
C  5.47700 47.09400 27.92600
C  6.89600 47.45200 28.03300
C  3.78300 46.82100 26.00300
C  4.94600 47.00600 29.30000
O  3.85400 46.71800 29.68800
C  6.13200 47.34700 30.33400
C  6.21700 46.10200 31.11300
O  6.78000 45.05000 30.74400
O  5.59400 46.20300 32.33300
C  5.58800 44.99400 33.10500
H  12.97200 48.33600 29.31100
H  11.88500 47.74700 22.91300
H  5.80700 47.11200 23.79900
H  8.95900 48.85200 31.82200
H  11.56700 47.62700 31.15700
H  11.98000 50.30500 30.67700
H  12.12400 49.55000 32.20000
H  10.62000 50.35200 31.92800
H  9.31200 45.83200 31.28500
H  8.23000 46.52400 32.42000
H  10.74800 47.25700 33.49300
H  11.16700 45.73900 32.60200
H  15.41200 49.30700 27.57100
H  15.77600 47.65200 27.21800
H  14.80600 47.95900 28.48700
H  16.01500 49.21300 25.03200
H  16.55900 48.25700 23.50900
H  16.00700 47.53600 25.11900
H  10.00800 46.57100 21.69100
H  7.46900 47.98700 21.85900
H  10.46100 49.29500 21.38200
H  8.92000 49.19900 20.74600
H  10.28400 48.18900 20.07100
H  7.82700 45.73800 20.89200
H  6.45000 45.67100 21.98100
H  8.73100 43.92500 22.04400
H  7.47000 43.90200 23.12500
H  9.00300 45.03000 23.35000
H  3.25600 47.67100 26.43700
H  3.32400 45.88700 26.32600
H  3.67600 46.97600 24.92900
H  5.78100 48.11900 31.01900
H  5.04800 45.28800 34.00400
H  6.58100 44.63700 33.37800
H  5.06300 44.13000 32.69800

