158

Mg 41.26500 7.29100 29.36500
C  43.14800 8.46500 32.06800
C  39.04800 5.98400 31.61100
C  39.45100 6.21300 26.77300
C  43.96400 7.97700 27.24800
N  41.11600 7.19700 31.59700
C  41.86400 7.88700 32.46500
C  41.22500 7.97100 33.82700
C  40.22200 6.77200 33.73600
C  40.13900 6.58200 32.24200
C  40.67900 5.42400 34.42400
C  40.68000 9.31200 34.14300
C  40.58700 9.68000 35.59800
H  41.53300 10.72200 36.30200
N  39.52200 6.27100 29.22400
C  38.71500 5.83400 30.21600
C  37.55600 5.18400 29.57700
C  37.54800 5.39100 28.20900
C  38.91600 5.95600 28.02200
C  36.55300 4.42200 30.50200
C  36.49800 5.06700 27.24400
O  36.58800 5.04100 26.04200
C  35.11000 4.85400 27.81400
N  41.71800 6.91600 27.33500
C  40.72100 6.62600 26.48800
C  41.10500 6.79700 24.98400
C  42.49600 7.45800 25.08200
C  42.84400 7.38500 26.66800
C  40.98300 5.55200 24.07400
C  42.58400 8.94600 24.48500
C  42.13600 10.12800 25.42100
N  43.18100 8.12800 29.55800
C  44.15600 8.29900 28.62700
C  45.26000 9.01700 29.21400
C  44.87600 9.14300 30.57900
C  43.63400 8.55300 30.76700
C  46.40100 9.64500 28.51800
C  45.29600 9.74100 31.84200
O  46.27000 10.39400 32.16000
C  44.10300 9.33800 32.80000
C  44.61700 8.66000 34.00300
O  44.44700 7.44400 34.28400
O  45.44200 9.48800 34.78800
C  45.88500 8.82300 36.01600
H  38.28800 5.58000 32.28300
H  38.73100 5.96900 25.98900
H  44.66800 8.19300 26.44200
H  42.05600 7.79700 34.51000
H  39.26400 7.06700 34.16400
H  40.11900 5.16700 35.32300
H  41.75000 5.56000 34.57700
H  40.60400 4.56800 33.75500
H  39.68900 9.45800 33.71400
H  41.30400 9.99300 33.56400
H  40.56500 8.77700 36.20800
H  39.58200 10.09900 35.66200
H  37.09300 4.06200 31.37800
H  36.08400 3.55700 30.03300
H  35.78500 5.13000 30.81500
H  35.16800 3.83200 28.18700
H  34.39300 5.06600 27.02100
H  34.97200 5.53400 28.65600
H  40.42400 7.50600 24.51200
H  43.30000 6.90200 24.59900
H  40.22400 4.83300 24.38100
H  41.96300 5.07500 24.07000
H  40.73200 5.89300 23.06900
H  41.97700 8.85800 23.58400
H  43.49400 9.15500 23.92400
H  41.85000 9.84400 26.43400
H  41.30400 10.56400 24.86700
H  42.91100 10.89500 25.44200
H  46.26600 10.14300 27.55800
H  47.18900 8.89300 28.48200
H  46.90900 10.38500 29.13700
H  43.68600 10.28800 33.13500
H  45.05300 8.63900 36.69600
H  46.56600 9.52600 36.49700
H  46.46900 7.92400 35.82200
Mg 41.64700 40.95700 26.96500
C  40.55300 43.27100 29.27900
C  42.69900 38.92500 29.61900
C  42.87500 38.64100 24.71900
C  41.14800 43.27200 24.41100
N  41.70700 41.10700 29.13400
C  41.06200 42.08500 29.83700
C  40.99900 41.70800 31.39700
C  42.02100 40.53500 31.46700
C  42.18800 40.17600 30.02400
C  43.33400 40.86100 32.15300
C  39.49700 41.36100 31.77100
C  38.92600 42.12600 32.90300
H  38.39100 41.27200 34.14100
N  42.70900 39.04800 27.14900
C  42.86300 38.33600 28.30000
C  43.29900 36.93700 27.98300
C  43.47200 36.89200 26.62500
C  42.99800 38.26600 26.13900
C  43.60100 35.89900 29.04800
C  43.86400 35.81200 25.70300
O  44.16000 35.98200 24.48600
C  44.12700 34.49500 26.27000
N  42.09800 40.98800 24.85300
C  42.44200 39.86600 24.15300
C  42.52800 40.19400 22.63900
C  42.13900 41.69200 22.56000
C  41.74300 42.01900 24.02500
C  43.95000 39.95100 22.05100
C  41.08000 42.04000 21.57600
C  39.66600 41.53000 21.81700
N  41.00500 42.92600 26.82500
C  40.79600 43.67200 25.70800
C  40.21900 44.89300 26.12500
C  40.07500 44.83000 27.54700
C  40.53600 43.58100 27.90800
C  39.88600 45.93500 25.13500
C  39.63500 45.39400 28.73100
O  39.03300 46.39500 28.93300
C  39.96900 44.45800 29.89400
C  40.89800 45.21600 30.78500
O  41.95000 45.72400 30.46000
O  40.39700 45.20500 32.10200
C  41.12500 45.93400 33.13100
H  42.88600 38.19600 30.41000
H  43.27700 37.97400 23.95300
H  40.96800 43.99900 23.61600
H  41.48200 42.51500 31.94800
H  41.62900 39.70900 32.06200
H  43.21700 41.64400 32.90300
H  44.11200 41.16300 31.45300
H  43.68300 39.96700 32.66900
H  39.38800 40.29800 31.98600
H  38.91500 41.61200 30.88400
H  38.19400 42.88000 32.61600
H  39.72400 42.76500 33.28200
H  42.90100 35.06300 29.04600
H  43.51100 36.26900 30.06900
H  44.61300 35.51100 28.93500
H  43.32400 34.24800 26.96400
H  45.06400 34.66800 26.79800
H  44.20800 33.73700 25.49100
H  41.81500 39.62700 22.04000
H  43.06700 42.25400 22.44700
H  43.92500 38.89100 21.79800
H  44.73200 40.05700 22.80300
H  44.15400 40.65600 21.24500
H  41.42000 41.58000 20.64800
H  41.05200 43.11500 21.39600
H  39.70200 40.76100 22.58900
H  39.34800 41.02000 20.90700
H  39.00800 42.32500 22.16800
H  39.19400 45.48600 24.42200
H  40.83600 46.19000 24.66500
H  39.40800 46.77400 25.64000
H  39.11900 44.25100 30.54400
H  40.89000 45.62700 34.15000
H  40.86700 46.98700 33.01900
H  42.19200 45.92700 32.90600

