158

Mg 27.35100 51.29300 26.15200
C  25.52200 52.43400 28.94600
C  29.79300 50.28200 28.37000
C  29.30700 50.68900 23.53200
C  25.02300 52.83900 24.04700
N  27.60900 51.33500 28.43600
C  26.75800 51.83900 29.34100
C  27.23400 51.51600 30.73800
C  28.71800 51.18200 30.51900
C  28.75800 50.91600 29.03900
C  29.76800 52.12000 31.09700
C  26.43000 50.31300 31.41900
C  25.66000 50.76400 32.70000
H  25.55900 49.67000 33.71200
N  29.23700 50.41300 25.99200
C  29.99900 50.06200 26.98000
C  31.20100 49.39600 26.44900
C  31.04600 49.47900 25.04400
C  29.82500 50.26800 24.79300
C  32.44100 48.87000 27.26100
C  31.78200 48.86300 23.86100
O  31.40600 48.79800 22.68200
C  33.17000 48.26600 24.11800
N  27.28500 51.84200 24.02700
C  28.19000 51.40000 23.14400
C  27.71800 51.67700 21.71800
C  26.21900 52.19100 21.96500
C  26.17700 52.33200 23.43000
C  28.59600 52.69600 20.91000
C  25.12900 51.17100 21.46300
C  23.95600 51.68300 20.74300
N  25.58800 52.33800 26.36900
C  24.75600 52.96500 25.39800
C  23.63100 53.48900 26.08400
C  23.95000 53.35700 27.42800
C  25.13400 52.58200 27.55500
C  22.46800 54.19400 25.47900
C  23.46200 53.71300 28.74400
O  22.44600 54.30000 29.11300
C  24.38800 52.99200 29.77500
C  24.87000 54.03900 30.74900
O  25.44100 55.09900 30.42000
O  24.52500 53.57600 31.99500
C  24.89100 54.47000 33.09300
H  30.72500 49.97700 28.85200
H  29.91800 50.41000 22.67100
H  24.16500 53.08300 23.41600
H  27.07400 52.45500 31.26800
H  28.96900 50.20900 30.94200
H  30.40700 51.55400 31.77500
H  29.49400 53.03200 31.62900
H  30.45400 52.35400 30.28300
H  27.04100 49.43600 31.63100
H  25.62400 50.05800 30.73100
H  24.65700 51.14900 32.51700
H  26.17800 51.63400 33.10500
H  33.36200 48.94200 26.68300
H  32.31700 47.84600 27.61500
H  32.59800 49.41400 28.19200
H  33.10000 47.44600 24.83300
H  33.75000 49.02000 24.65100
H  33.77400 47.90700 23.28600
H  27.76800 50.76200 21.12900
H  26.10300 53.20200 21.57500
H  29.63900 52.77200 21.21700
H  28.19400 53.70100 20.78500
H  28.60000 52.29800 19.89600
H  24.89400 50.58200 22.35000
H  25.60600 50.53300 20.71900
H  23.00700 51.29200 21.11100
H  24.06900 51.30400 19.72700
H  24.05200 52.76800 20.70400
H  22.75700 54.59900 24.50900
H  22.22300 55.11200 26.01400
H  21.55200 53.62500 25.32100
H  23.80400 52.24600 30.31400
H  25.70100 53.97100 33.62400
H  24.08400 54.58400 33.81700
H  25.00400 55.49500 32.74000
Mg 6.75300 54.55000 41.75100
C  4.60700 51.72200 41.68000
C  9.25300 52.47400 40.50000
C  8.73700 57.23900 41.54100
C  4.11500 56.42900 42.99900
N  6.78700 52.40800 40.99200
C  5.83700 51.48100 41.08700
C  6.41500 50.06700 40.53000
C  8.00900 50.38300 40.49600
C  8.02700 51.83900 40.81800
C  8.81300 49.60600 41.45900
C  5.85600 49.73400 39.08300
C  5.25100 48.27500 38.87700
H  5.44300 47.64400 37.52100
N  8.67100 54.91500 40.91400
C  9.53800 53.91600 40.49500
C  10.83500 54.51300 40.03300
C  10.70500 55.87900 40.32400
C  9.36100 56.06900 40.95700
C  11.97700 53.72100 39.52300
C  11.72000 56.92000 40.10500
O  12.82500 56.62600 39.63100
C  11.43600 58.31600 40.32300
N  6.37900 56.66700 42.02000
C  7.44300 57.47400 42.02400
C  6.98700 58.88300 42.40400
C  5.53000 58.64600 43.04400
C  5.25800 57.23300 42.60300
C  7.95200 59.82100 43.28300
C  4.46300 59.74400 42.71000
C  3.84100 60.41500 43.97800
N  4.76600 54.26400 42.18400
C  3.76400 55.11300 42.70400
C  2.54300 54.39600 42.92100
C  2.88200 53.08100 42.61400
C  4.13900 53.04800 42.09600
C  1.21000 54.97200 43.30400
C  2.37900 51.67300 42.66200
O  1.35400 51.16200 43.17900
C  3.50100 50.84800 42.01800
C  3.01700 50.13000 40.85200
O  2.64200 50.64700 39.83800
O  2.76700 48.80500 41.11000
C  1.63800 48.22300 40.41700
H  10.08900 51.79600 40.31800
H  9.42300 58.08900 41.57200
H  3.31000 57.02200 43.43800
H  6.16300 49.39200 41.34800
H  8.35000 50.29600 39.46400
H  9.47600 48.90300 40.95500
H  8.21100 49.03000 42.16200
H  9.47100 50.29700 41.98600
H  6.62600 49.82500 38.31700
H  4.98200 50.36900 38.94000
H  4.20900 48.21400 39.19000
H  5.85600 47.68600 39.56600
H  12.61800 54.37800 38.93500
H  11.71400 52.81500 38.97600
H  12.54200 53.46200 40.41800
H  12.30400 58.89000 39.99800
H  11.54400 58.35000 41.40700
H  10.61200 58.92100 39.94400
H  6.80600 59.37600 41.44900
H  5.59500 58.60700 44.13100
H  8.83200 59.19700 43.43800
H  7.63000 60.06000 44.29600
H  8.27400 60.74200 42.79800
H  3.66700 59.37200 42.06600
H  4.89300 60.54200 42.10400
H  4.04000 61.48600 44.00600
H  4.37600 60.03500 44.84900
H  2.75500 60.33900 44.03300
H  0.57200 54.38800 43.96600
H  0.58300 55.20400 42.44300
H  1.33800 55.90300 43.85500
H  3.94300 50.11100 42.68900
H  1.85100 47.97500 39.37700
H  0.71800 48.80400 40.35000
H  1.35300 47.26300 40.84700

