158

Mg 40.11400 9.50700 29.07200
C  42.44500 10.85200 31.62700
C  37.97400 8.72300 31.53000
C  38.15900 8.11900 26.74300
C  42.53200 10.10400 26.80700
N  40.34300 9.60000 31.31000
C  41.19900 10.30800 32.13700
C  40.62200 10.38700 33.52400
C  39.28200 9.43800 33.53600
C  39.13700 9.23100 32.03800
C  39.35600 8.22200 34.42200
C  40.24700 11.76700 34.05100
C  39.90500 11.87800 35.56600
H  40.86000 12.44300 36.56400
N  38.27500 8.59300 29.06400
C  37.63400 8.34900 30.23000
C  36.43700 7.55700 29.86000
C  36.37400 7.49300 28.46500
C  37.64100 8.09700 28.03000
C  35.57500 6.91000 30.93200
C  35.32700 6.87100 27.52900
O  35.58500 6.88800 26.32600
C  34.01800 6.30100 27.98100
N  40.30300 9.19300 27.12700
C  39.38600 8.61500 26.29300
C  39.80900 8.54800 24.74800
C  41.21100 9.22900 24.79400
C  41.36100 9.56800 26.34500
C  39.84000 7.10800 24.17800
C  41.49800 10.31200 23.81400
C  41.06300 11.76800 24.10300
N  42.04100 10.41500 29.13500
C  42.91300 10.60000 28.07900
C  44.09800 11.23700 28.52700
C  43.97500 11.35200 29.92000
C  42.74400 10.83500 30.25800
C  45.24400 11.58400 27.66900
C  44.58800 11.85300 31.11400
O  45.58200 12.49400 31.28000
C  43.48900 11.59800 32.33300
C  44.00900 10.79700 33.50500
O  44.27400 9.63400 33.65600
O  44.09700 11.70700 34.51600
C  44.26700 11.07600 35.85600
H  37.19000 8.72700 32.29000
H  37.67000 7.57300 25.93300
H  43.31600 10.28800 26.06900
H  41.39700 9.95900 34.16100
H  38.47700 10.07100 33.90900
H  40.16400 8.27000 35.15200
H  39.51100 7.42200 33.69900
H  38.45500 8.30300 35.03100
H  39.30100 12.03400 33.58000
H  41.09900 12.41600 33.85100
H  39.73700 10.84100 35.85800
H  38.98600 12.43900 35.73300
H  36.18300 6.21200 31.50800
H  34.71200 6.33300 30.60000
H  35.13500 7.65100 31.59900
H  33.76800 7.01200 28.76900
H  34.19700 5.26100 28.25500
H  33.23000 6.49500 27.25400
H  39.21800 9.15100 24.05800
H  42.03500 8.55600 24.55900
H  40.68000 6.83900 23.53700
H  38.85700 7.02300 23.71500
H  39.86800 6.42900 25.03100
H  41.14700 9.97900 22.83700
H  42.57100 10.34000 23.62500
H  40.74900 12.19200 23.14900
H  41.85700 12.41700 24.47400
H  40.22300 11.74900 24.79700
H  45.55300 12.59800 27.92200
H  44.88900 11.47900 26.64400
H  46.10300 10.99200 27.98600
H  43.26000 12.60500 32.68200
H  45.22500 10.56600 35.95700
H  43.46600 10.35900 36.03900
H  44.21400 11.86900 36.60200
Mg 1.50900 42.58000 25.38200
C  2.48000 42.96200 28.78400
C  -1.71100 41.73000 26.46700
C  0.59300 41.94000 22.15300
C  4.68400 43.36800 24.43600
N  0.61700 42.24600 27.48500
C  1.13300 42.54000 28.70600
C  0.07200 42.30800 29.88000
C  -1.19800 41.76800 29.09800
C  -0.78400 41.98500 27.54100
C  -1.60900 40.28400 29.35100
C  -0.27700 43.57200 30.76300
C  0.15500 43.48900 32.22800
H  -0.88500 43.52500 33.40600
N  -0.33000 41.99700 24.46900
C  -1.50700 41.71500 25.10000
C  -2.51700 41.46900 24.00400
C  -1.82100 41.56300 22.74000
C  -0.49000 41.91600 23.06600
C  -3.96700 41.20100 24.37400
C  -2.35500 41.41300 21.35800
O  -1.73300 41.61200 20.35100
C  -3.70500 40.76900 21.20000
N  2.48300 42.63900 23.60100
C  1.92500 42.25100 22.42200
C  2.95000 42.25400 21.28600
C  4.25600 42.68800 21.98900
C  3.75500 43.01700 23.46700
C  3.08100 40.83000 20.60500
C  5.03200 43.79900 21.23700
C  4.39300 45.20600 21.05700
N  3.29200 43.01100 26.35700
C  4.53000 43.30100 25.87200
C  5.42600 43.50800 26.93800
C  4.67100 43.36800 28.05300
C  3.33700 43.09700 27.70100
C  6.85100 43.80700 26.86400
C  4.74500 43.47700 29.44500
O  5.74400 43.64900 30.18500
C  3.31000 43.15300 29.99700
C  3.31400 41.93500 30.75100
O  3.28300 40.79500 30.30800
O  3.25800 42.20700 32.09700
C  3.40900 41.13000 33.09600
H  -2.67100 41.39700 26.86700
H  0.35900 41.65000 21.12600
H  5.72000 43.47900 24.11100
H  0.43400 41.48100 30.49000
H  -2.11000 42.35400 29.21200
H  -1.15800 39.96100 30.28900
H  -1.22100 39.69000 28.52300
H  -2.69000 40.13900 29.33500
H  -1.35600 43.70300 30.84200
H  0.07500 44.45300 30.22700
H  0.68600 44.43000 32.37000
H  0.78500 42.60000 32.27300
H  -4.17200 40.22500 24.81400
H  -4.70600 41.35600 23.58900
H  -4.21300 41.97800 25.09800
H  -3.90000 39.82000 21.70100
H  -3.72200 40.56300 20.12900
H  -4.47100 41.49400 21.47300
H  2.81800 42.89000 20.41100
H  4.87800 41.79400 22.02900
H  3.61200 40.22300 21.33900
H  3.67100 40.99900 19.70400
H  2.08000 40.49100 20.33900
H  5.25600 43.45000 20.22900
H  5.93400 43.96300 21.82700
H  3.37700 45.35700 21.41900
H  4.44500 45.46300 19.99800
H  4.98100 45.96600 21.57200
H  7.15200 44.60300 27.54600
H  7.05200 44.06100 25.82300
H  7.31000 42.88600 27.22200
H  2.99300 43.86400 30.75900
H  2.67900 41.27700 33.89200
H  4.40500 41.18900 33.53300
H  3.35400 40.08000 32.80600

