158

Mg 54.60800 24.04800 44.46100
C  51.94800 26.22400 43.35900
C  52.83400 21.42400 42.69800
C  57.28600 22.12200 44.76300
C  56.36400 26.97100 45.33300
N  52.62800 23.87700 43.13100
C  51.71000 24.88200 42.91900
C  50.43800 24.39100 42.18600
C  50.63800 22.82300 42.39000
C  52.10900 22.68100 42.73600
C  49.80900 21.97900 43.45700
C  50.22900 24.67900 40.70200
C  51.49800 24.61200 39.84300
H  51.40400 25.36600 38.52900
N  54.98500 22.05300 43.87700
C  54.13300 21.14300 43.18000
C  54.87500 19.95700 43.06500
C  56.12400 20.10900 43.78800
C  56.20500 21.51000 44.16600
C  54.30200 18.73500 42.39100
C  57.04100 18.87800 44.07700
O  56.88700 17.76200 43.52000
C  58.17100 19.04900 45.06700
N  56.57300 24.52100 44.80200
C  57.50700 23.51700 44.98000
C  58.83200 24.10600 45.49700
C  58.53500 25.70400 45.40000
C  57.10600 25.74600 45.17300
C  59.26500 23.59400 46.95700
C  59.26700 26.51500 44.27100
C  59.99200 27.81600 44.61000
N  54.23800 26.05200 44.58800
C  55.02200 27.13600 45.03700
C  54.23800 28.36400 45.00200
C  53.02000 28.01600 44.34700
C  53.10200 26.64000 44.10300
C  54.62500 29.71800 45.55300
C  51.70700 28.55700 43.98100
O  51.27900 29.68200 44.10900
C  50.98800 27.40600 43.26000
C  50.50300 27.91100 41.89700
O  51.06700 28.59400 41.08800
O  49.13900 27.57100 41.80300
C  48.57600 28.21000 40.59800
H  52.23200 20.64000 42.23200
H  58.13000 21.44300 44.90100
H  56.85300 27.87900 45.69100
H  49.53100 24.68900 42.71200
H  50.51500 22.37900 41.40200
H  49.02300 22.55400 43.94700
H  50.40800 21.75900 44.34100
H  49.47000 21.01400 43.08100
H  49.76300 25.65300 40.54900
H  49.54600 23.99100 40.20300
H  51.74800 23.56500 39.67300
H  52.23100 25.21700 40.37600
H  53.34200 18.87400 41.89600
H  54.05000 18.09100 43.23400
H  55.04500 18.25300 41.75600
H  58.03200 19.75600 45.88500
H  58.96500 19.35600 44.38600
H  58.33400 18.07200 45.52200
H  59.62500 23.78800 44.82100
H  58.81200 26.00800 46.40900
H  59.43800 24.48800 47.55700
H  60.22200 23.07400 46.90600
H  58.43500 23.08300 47.44400
H  58.59000 26.72100 43.44200
H  59.95500 25.80400 43.81200
H  59.43500 28.72100 44.36900
H  61.00400 27.93800 44.22100
H  60.12500 27.84400 45.69200
H  54.46900 30.47100 44.78100
H  55.67700 29.66700 45.83100
H  54.07000 29.90500 46.47200
H  50.08400 27.15200 43.81500
H  48.55500 29.29900 40.56900
H  47.55200 27.85600 40.47300
H  49.10100 27.84300 39.71600
Mg 30.67400 58.63500 39.76400
C  27.92100 56.54100 38.90000
C  32.74200 56.14000 38.75100
C  33.18000 60.89400 39.86000
C  28.40400 61.29500 40.15400
N  30.31100 56.54100 38.74200
C  29.12600 55.87000 38.71600
C  29.31600 54.41900 38.44000
C  30.87600 54.29100 38.60900
C  31.37600 55.75300 38.67200
C  31.32200 53.26900 39.70600
C  28.80500 53.70200 37.17500
C  29.17500 54.34300 35.82600
H  28.11900 54.93200 34.93600
N  32.66900 58.52700 39.47200
C  33.34100 57.39400 38.97700
C  34.69500 57.71400 38.71700
C  34.94300 59.07200 39.10300
C  33.58800 59.57900 39.51800
C  35.65000 56.79500 38.08200
C  36.32900 59.78000 39.15600
O  37.29100 59.15300 38.67500
C  36.61200 61.14100 39.79300
N  30.83300 60.75800 40.24200
C  31.95800 61.43900 40.26600
C  31.72200 62.91200 40.47500
C  30.15300 63.04500 40.66400
C  29.74300 61.59400 40.24600
C  32.62100 63.47900 41.65200
C  29.50700 64.16400 39.86600
C  28.43000 64.89500 40.62400
N  28.64400 58.93200 39.54100
C  27.86400 60.07700 39.73200
C  26.47600 59.68200 39.57600
C  26.46800 58.34000 39.33100
C  27.78400 57.95500 39.23700
C  25.34800 60.62600 39.89800
C  25.58200 57.18800 39.07100
O  24.37800 57.17800 39.04300
C  26.47000 55.90800 38.84400
C  26.22600 54.90400 39.93200
O  26.85900 54.87400 40.98600
O  25.02700 54.19100 39.72100
C  24.62100 53.55000 40.99000
H  33.43600 55.30300 38.64700
H  33.93100 61.67600 39.73200
H  27.60700 62.02400 40.31300
H  28.65200 54.00600 39.19900
H  31.27500 53.83100 37.70500
H  31.70400 52.32300 39.32300
H  30.42700 53.05000 40.28900
H  32.03200 53.79300 40.34700
H  27.71700 53.67100 37.23800
H  29.26100 52.71500 37.10000
H  29.67300 53.49600 35.35400
H  29.95900 55.06500 36.05700
H  35.80300 57.03400 37.03000
H  35.40500 55.73500 38.01300
H  36.59800 56.86700 38.61400
H  36.02500 61.04600 40.70600
H  36.27500 61.89600 39.08400
H  37.65800 61.31900 40.04200
H  32.13100 63.27900 39.53300
H  29.98800 63.21300 41.72900
H  31.94600 64.06200 42.27800
H  33.33300 64.19300 41.23700
H  33.16000 62.84400 42.35500
H  29.15000 63.80600 38.90000
H  30.34700 64.82600 39.65400
H  28.35900 64.79300 41.70700
H  27.42600 64.73300 40.23100
H  28.60900 65.95900 40.47100
H  25.33700 60.81000 40.97200
H  24.35000 60.26100 39.65700
H  25.67300 61.52900 39.37900
H  26.45300 55.50000 37.83300
H  24.17700 54.33700 41.60000
H  25.48000 53.18300 41.55100
H  24.01900 52.65800 40.82000

