158

Mg 29.91200 58.00300 39.92400
C  27.07100 56.05200 39.10900
C  31.91200 55.33200 38.79100
C  32.60500 60.03100 40.01500
C  27.77800 60.70000 40.68300
N  29.49100 55.96700 38.95200
C  28.21000 55.39100 38.85500
C  28.40400 53.88500 38.39500
C  29.99500 53.63700 38.59900
C  30.53900 55.06600 38.80600
C  30.34000 52.70500 39.79500
C  27.68400 53.71300 36.96300
C  28.22700 54.70600 35.98300
H  28.74200 54.34200 34.58000
N  31.96800 57.75200 39.48100
C  32.59300 56.54000 39.07000
C  33.97000 56.82400 38.97800
C  34.18100 58.08300 39.61900
C  32.90800 58.68400 39.78200
C  35.04800 55.70200 38.50700
C  35.51900 58.61100 40.05900
O  36.54800 58.01900 39.87300
C  35.65500 59.83300 40.88400
N  30.13300 60.09800 40.10500
C  31.34100 60.71200 40.24700
C  31.21900 62.29800 40.54500
C  29.70100 62.42700 40.79800
C  29.15600 61.02200 40.45700
C  32.21200 62.82100 41.64400
C  29.08500 63.65500 40.12500
C  28.48800 63.48600 38.73200
N  27.82700 58.32900 40.09000
C  27.11000 59.44700 40.45100
C  25.74300 59.14700 40.41600
C  25.68800 57.82000 39.85800
C  27.01900 57.36100 39.62900
C  24.56100 60.02400 40.75400
C  24.78500 56.77700 39.47300
O  23.59900 56.65300 39.41800
C  25.66200 55.61200 38.98700
C  25.33100 54.38200 39.84600
O  25.79100 54.19600 41.01600
O  24.31800 53.61200 39.27300
C  23.65200 52.53400 40.07500
H  32.51000 54.44800 38.56100
H  33.44800 60.71400 39.88800
H  27.08500 61.52600 40.86100
H  27.90000 53.25900 39.13200
H  30.35600 53.15100 37.69300
H  29.41000 52.25200 40.13700
H  30.69100 53.27500 40.65600
H  31.03100 51.96200 39.39600
H  26.63200 53.87400 37.19900
H  28.07900 52.77100 36.58300
H  29.08500 55.19000 36.45000
H  27.43900 55.44500 35.83400
H  35.81300 56.15100 37.87300
H  34.58800 54.91800 37.90400
H  35.37300 55.18200 39.40800
H  36.60600 59.83000 41.41600
H  34.91000 59.97800 41.66700
H  35.69500 60.64000 40.15200
H  31.44700 62.86300 39.64200
H  29.61300 62.54200 41.87800
H  31.72800 62.97000 42.61000
H  32.65000 63.76100 41.30700
H  33.02400 62.09900 41.72900
H  29.76000 64.51100 40.09300
H  28.30600 63.98300 40.81400
H  28.96900 64.27000 38.14700
H  27.46000 63.84800 38.74800
H  28.65700 62.58200 38.14500
H  24.91800 61.01000 41.05400
H  23.85900 59.64500 41.49700
H  23.94900 60.16300 39.86300
H  25.39200 55.47400 37.94000
H  23.60000 51.57500 39.56000
H  22.64100 52.85500 40.32800
H  24.17600 52.46900 41.02800
Mg -5.93100 25.77500 25.71700
C  -4.21200 26.88300 28.69100
C  -7.64200 23.54800 27.85800
C  -6.76400 23.80500 23.06000
C  -3.56100 27.53600 23.87500
N  -5.94500 25.38700 27.99700
C  -5.26900 26.00100 28.95400
C  -5.69700 25.53400 30.39700
C  -6.63400 24.33000 30.11900
C  -6.80200 24.43500 28.53100
C  -5.97000 23.01600 30.53700
C  -6.45000 26.67900 31.12600
C  -6.59800 26.68600 32.67800
H  -5.93500 25.47300 33.41400
N  -7.16100 23.99300 25.49300
C  -7.80900 23.27400 26.46700
C  -8.59200 22.24600 25.87200
C  -8.31200 22.21800 24.52200
C  -7.40500 23.35300 24.28200
C  -9.59200 21.32300 26.61000
C  -8.96700 21.38100 23.40800
O  -8.53100 21.44200 22.29500
C  -10.10900 20.39000 23.61400
N  -5.32000 25.72800 23.74500
C  -5.80800 24.82500 22.86100
C  -5.11000 24.98100 21.49500
C  -4.07400 26.13000 21.75800
C  -4.40200 26.60400 23.20300
C  -4.43700 23.59100 21.12400
C  -4.06600 27.26900 20.67800
C  -2.66100 27.60900 20.08400
N  -4.36300 27.15900 26.15700
C  -3.49100 27.80300 25.27000
C  -2.60100 28.66200 26.01100
C  -2.82200 28.32100 27.33900
C  -3.88600 27.36800 27.39100
C  -1.46900 29.50100 25.38200
C  -2.32600 28.50500 28.77100
O  -1.38000 29.20900 29.20600
C  -3.27000 27.61000 29.65800
C  -2.25300 26.73600 30.24200
O  -1.51600 25.99000 29.60600
O  -2.32000 26.81800 31.56700
C  -1.79500 25.78300 32.38100
H  -8.22200 22.82000 28.42900
H  -7.07400 23.25300 22.17000
H  -2.81800 28.03400 23.24700
H  -4.88100 25.30000 31.08100
H  -7.59200 24.39800 30.63300
H  -5.01400 23.20900 31.02400
H  -5.79000 22.43900 29.63000
H  -6.63400 22.44500 31.18600
H  -7.44500 26.84100 30.71200
H  -5.97400 27.63700 30.91500
H  -7.64900 26.75300 32.95900
H  -6.04600 27.58900 32.93700
H  -10.55500 21.76700 26.36000
H  -9.25700 21.34500 27.64800
H  -9.72500 20.29500 26.27400
H  -10.54000 20.10200 22.65500
H  -10.89400 20.82200 24.23500
H  -9.78700 19.50800 24.16800
H  -5.94900 25.31700 20.88600
H  -3.10200 25.64300 21.83600
H  -4.71900 23.30800 20.11000
H  -4.83500 22.80500 21.76600
H  -3.35000 23.63800 21.05700
H  -4.60700 28.09500 21.13900
H  -4.72400 26.95900 19.86600
H  -1.81400 27.09500 20.53800
H  -2.52900 28.68000 19.93100
H  -2.51500 27.20900 19.08100
H  -0.62900 29.62100 26.06600
H  -1.87900 30.45400 25.04900
H  -1.09500 28.91900 24.53900
H  -3.69100 28.19200 30.47800
H  -2.53000 24.99900 32.56200
H  -1.65000 26.33100 33.31200
H  -0.80500 25.37800 32.17000

