158

Mg 8.31100 2.77200 27.44500
C  9.45200 1.33800 30.32400
C  6.55400 5.06800 29.30000
C  6.62200 3.74700 24.61300
C  9.49800 -0.16600 25.67100
N  7.78700 2.93000 29.64400
C  8.58800 2.41400 30.68800
C  8.31900 3.05000 31.95300
C  7.41000 4.30300 31.58100
C  7.17500 4.11100 30.10900
C  6.21000 4.57400 32.47400
C  9.62900 3.38600 32.75200
C  9.47800 3.98300 34.21800
H  10.56600 3.51000 35.27400
N  7.05000 4.32000 26.96100
C  6.50900 5.18800 27.85300
C  5.89500 6.27600 27.14700
C  6.01600 6.02600 25.76600
C  6.59600 4.63900 25.77400
C  5.21600 7.53600 27.69200
C  5.47900 6.70500 24.50200
O  5.75100 6.31000 23.36600
C  4.55700 7.84100 24.65100
N  8.25200 1.95500 25.39500
C  7.40500 2.57200 24.47800
C  7.43200 1.76600 23.16100
C  8.43500 0.64400 23.42200
C  8.80000 0.82700 24.89300
C  6.03900 1.41700 22.55200
C  9.75100 0.46700 22.48100
C  9.39700 -0.39200 21.24800
N  9.30500 1.01200 27.85200
C  9.74100 -0.11400 27.07100
C  10.55300 -1.11600 27.94500
C  10.45300 -0.45700 29.18800
C  9.71300 0.74600 29.10200
C  11.38100 -2.26300 27.60400
C  10.91700 -0.67300 30.51900
O  11.69700 -1.54100 30.93500
C  10.34200 0.49300 31.32800
C  9.65500 -0.12800 32.48500
O  8.57300 -0.75800 32.44300
O  10.56700 -0.11800 33.58600
C  9.94300 -0.53400 34.78900
H  6.09800 5.97400 29.70500
H  6.12300 4.11400 23.71400
H  10.00100 -0.99100 25.16200
H  7.73700 2.36000 32.56400
H  8.13400 5.11600 31.53100
H  6.33700 5.63300 32.69700
H  6.10500 3.92000 33.34000
H  5.37000 4.33900 31.82000
H  10.21300 4.03500 32.10000
H  10.19200 2.47600 32.95900
H  8.54100 3.65600 34.66900
H  9.40800 5.07100 34.19500
H  4.20600 7.74400 27.33700
H  5.72000 8.36700 27.20000
H  5.29700 7.73200 28.76100
H  3.64800 7.55700 25.18100
H  4.19800 8.20300 23.68700
H  5.06000 8.71400 25.06600
H  7.78700 2.46500 22.40400
H  7.88800 -0.29700 23.46600
H  6.02300 0.37900 22.22100
H  5.85400 2.04900 21.68400
H  5.33400 1.64000 23.35300
H  10.62100 0.06000 22.99700
H  10.06900 1.45400 22.14800
H  8.32500 -0.58600 21.26400
H  9.96000 -1.32100 21.33200
H  9.59300 0.05000 20.27100
H  11.28100 -2.97300 28.42500
H  12.43100 -2.09600 27.36400
H  10.79300 -2.66300 26.77800
H  11.29100 0.96300 31.58400
H  9.24800 0.20900 35.18100
H  10.69500 -0.74000 35.55000
H  9.47900 -1.52000 34.75100
Mg 25.06400 -8.05600 47.35300
C  27.43000 -5.80600 46.06100
C  22.90600 -7.11200 44.90000
C  23.36900 -10.83600 48.01100
C  27.92400 -9.56700 49.18500
N  25.29700 -6.80300 45.34200
C  26.23600 -5.75900 45.26100
C  25.84200 -4.75400 44.16200
C  24.34300 -5.13600 43.97600
C  24.15900 -6.43700 44.75900
C  23.32400 -4.01100 44.36300
C  26.63900 -4.87900 42.82700
C  27.73200 -3.78300 42.64900
H  27.83400 -3.21200 41.23400
N  23.25100 -8.77200 46.79600
C  22.52100 -8.19500 45.79400
C  21.27900 -8.85500 45.77600
C  21.37000 -9.90700 46.76000
C  22.73600 -9.86700 47.27200
C  20.09500 -8.37400 44.88400
C  20.37400 -10.89100 47.16300
O  19.33100 -10.93300 46.53300
C  20.37500 -11.75200 48.46300
N  25.59000 -9.93000 48.47500
C  24.64200 -10.88500 48.58400
C  25.20500 -12.22000 49.24500
C  26.48900 -11.63700 49.86400
C  26.69000 -10.26100 49.19000
C  24.30600 -12.92900 50.25600
C  27.70100 -12.54900 49.82600
C  28.53900 -12.68700 51.19000
N  27.16600 -7.80600 47.69600
C  28.18100 -8.37400 48.50600
C  29.44300 -7.58900 48.38500
C  29.12400 -6.61100 47.44800
C  27.77700 -6.77000 47.07500
C  30.71400 -7.80600 49.29100
C  29.77600 -5.48000 46.85400
O  30.85600 -4.99400 47.10300
C  28.65000 -4.81000 46.02200
C  28.30800 -3.43200 46.61800
O  27.54300 -3.27900 47.58500
O  28.95800 -2.43000 45.90800
C  28.44700 -1.04100 46.04700
H  22.25800 -6.71900 44.11300
H  22.80400 -11.75400 48.18400
H  28.78000 -10.02700 49.68300
H  25.98900 -3.77800 44.62500
H  24.19200 -5.36900 42.92200
H  22.41600 -4.03200 43.76000
H  23.93200 -3.10800 44.29500
H  23.01900 -4.10000 45.40500
H  25.99100 -4.92600 41.95200
H  27.07200 -5.87100 42.95100
H  28.69600 -4.23600 42.87900
H  27.58800 -2.91900 43.29800
H  20.13200 -7.30400 44.67800
H  19.17100 -8.57800 45.42500
H  20.04200 -8.96600 43.97100
H  20.88900 -12.68800 48.24400
H  19.32200 -11.81400 48.74000
H  20.99100 -11.20600 49.17800
H  25.52100 -12.86600 48.42600
H  26.20500 -11.37600 50.88400
H  24.46800 -12.58500 51.27800
H  24.33700 -14.01700 50.18800
H  23.27100 -12.66600 50.03700
H  28.35300 -12.31100 48.98500
H  27.32900 -13.54200 49.57300
H  29.46600 -12.12000 51.10000
H  28.70300 -13.74600 51.39000
H  27.90000 -12.27000 51.96800
H  30.48400 -8.34600 50.20900
H  31.13500 -6.84800 49.59500
H  31.49700 -8.26700 48.68800
H  28.91500 -4.50000 45.01100
H  28.79200 -0.50900 46.93300
H  27.35800 -1.01900 46.09300
H  28.79500 -0.52100 45.15400

