158

Mg 1.12100 42.30500 26.54400
C  2.57000 42.39500 29.64500
C  -1.71900 41.08500 27.89300
C  0.23100 41.48400 23.47200
C  4.36900 42.96900 25.15500
N  0.55000 41.78100 28.60500
C  1.21200 42.14000 29.74700
C  0.37900 42.01100 30.98000
C  -0.94600 41.30900 30.38100
C  -0.76500 41.38800 28.83600
C  -1.04100 39.75400 30.72500
C  0.05800 43.31600 31.76900
C  0.50800 43.38600 33.22500
H  -0.42700 42.85900 34.32600
N  -0.53800 41.56400 25.78900
C  -1.64900 41.11900 26.49000
C  -2.67100 40.77400 25.52200
C  -2.12600 40.85700 24.22300
C  -0.74700 41.36300 24.46200
C  -4.07000 40.35100 26.00100
C  -2.78800 40.62900 22.91300
O  -2.20700 40.91400 21.86200
C  -4.25400 40.21600 22.80300
N  2.09300 42.45700 24.41000
C  1.51400 41.96300 23.33900
C  2.37700 42.10100 22.05200
C  3.64900 42.67900 22.62300
C  3.39100 42.65400 24.20600
C  2.57400 40.78200 21.19200
C  3.80500 44.13700 22.30500
C  4.40000 44.54300 20.92600
N  3.09100 42.72400 27.20500
C  4.32700 42.87200 26.59600
C  5.36500 43.00100 27.59600
C  4.67800 42.88300 28.83700
C  3.31900 42.70600 28.55300
C  6.84900 43.20000 27.32700
C  4.93800 42.91200 30.13300
O  5.98300 43.07400 30.72700
C  3.58700 42.63000 30.76500
C  3.73900 41.38500 31.61700
O  3.63300 40.25200 31.14400
O  3.90300 41.68900 32.95800
C  3.81900 40.52500 33.86900
H  -2.63800 40.74000 28.37100
H  0.05300 41.15600 22.44600
H  5.35800 43.02700 24.69600
H  0.83700 41.20200 31.54900
H  -1.86500 41.76700 30.74400
H  -1.86400 39.60800 31.42500
H  -0.15900 39.26900 31.14300
H  -1.27000 39.22400 29.80100
H  -0.95500 43.71100 31.69300
H  0.61400 44.05100 31.18800
H  0.81500 44.38400 33.54000
H  1.42000 42.79900 33.11600
H  -4.87200 40.62600 25.31600
H  -4.39300 40.87900 26.89700
H  -4.06800 39.27800 26.19600
H  -4.38700 39.83600 21.79000
H  -5.03400 40.89800 23.14000
H  -4.54800 39.30400 23.32300
H  1.86200 42.84800 21.44800
H  4.50600 42.01300 22.52700
H  3.63300 40.62300 20.98500
H  2.02500 40.93500 20.26300
H  2.13300 39.90900 21.67200
H  4.18900 44.75400 23.11800
H  2.81700 44.59800 22.32600
H  3.62300 44.91100 20.25600
H  4.92800 43.71500 20.45300
H  5.12700 45.32300 21.15100
H  7.29700 42.21400 27.45400
H  7.24400 43.90200 28.06200
H  7.13400 43.58900 26.34900
H  3.29800 43.44500 31.42900
H  4.66900 39.86400 33.70200
H  2.85700 40.04600 33.69000
H  3.83000 40.86100 34.90600
Mg -12.68500 15.94800 42.45400
C  -9.71200 14.08200 42.34500
C  -11.04600 18.36400 40.53100
C  -15.57900 17.50000 42.15000
C  -14.27200 13.01400 43.60000
N  -10.64800 16.19400 41.53000
C  -9.60100 15.26200 41.67700
C  -8.31700 15.78200 40.91700
C  -8.74000 17.26800 40.59200
C  -10.26100 17.31700 40.88100
C  -7.96600 18.38900 41.34500
C  -7.87200 14.93900 39.72800
C  -6.39800 15.29500 39.35100
H  -6.08300 15.76100 37.91400
N  -13.21500 17.77800 41.62000
C  -12.38900 18.60700 40.90400
C  -13.12700 19.75600 40.37600
C  -14.44300 19.56400 40.95900
C  -14.48900 18.24600 41.63200
C  -12.46800 20.99500 39.59400
C  -15.58500 20.54100 40.79500
O  -15.40500 21.61200 40.19800
C  -16.87100 20.29100 41.39600
N  -14.74000 15.27400 42.64300
C  -15.71400 16.15600 42.60400
C  -17.06800 15.57800 42.93300
C  -16.64600 14.13600 43.57000
C  -15.11700 14.10400 43.25000
C  -17.93800 16.47100 43.93400
C  -17.55400 13.00700 42.92400
C  -18.96800 12.95100 43.49500
N  -12.16300 14.02900 42.89800
C  -12.85000 12.94600 43.41800
C  -11.99600 11.82100 43.71600
C  -10.72100 12.25100 43.36000
C  -10.88000 13.56800 42.83600
C  -12.24700 10.47000 44.08200
C  -9.32200 11.83500 43.31200
O  -8.83600 10.78300 43.65700
C  -8.65800 13.02700 42.60200
C  -7.48200 13.54300 43.39500
O  -7.35600 13.93600 44.53700
O  -6.43700 13.48100 42.52800
C  -5.22600 14.19600 42.97000
H  -10.40500 19.14700 40.12000
H  -16.53500 18.01400 42.03300
H  -14.71900 12.08800 43.96900
H  -7.55400 15.81900 41.69500
H  -8.63400 17.51400 39.53600
H  -8.54400 18.50400 42.26200
H  -8.05100 19.29700 40.74800
H  -6.98400 18.06600 41.69000
H  -8.54100 15.06800 38.87700
H  -7.90000 13.86600 39.91800
H  -5.73900 14.48600 39.66700
H  -6.10500 16.19600 39.89000
H  -11.67100 21.31300 40.26700
H  -13.15700 21.82100 39.41800
H  -11.99700 20.59900 38.69400
H  -16.95700 20.21500 42.48000
H  -17.43300 19.49700 40.90400
H  -17.40100 21.21200 41.15600
H  -17.69400 15.45600 42.04900
H  -16.73800 14.22700 44.65300
H  -18.94700 16.61100 43.54500
H  -17.41800 17.40600 44.14000
H  -18.16700 15.88300 44.82300
H  -17.03400 12.05000 42.88000
H  -17.69100 13.25500 41.87100
H  -19.07400 13.62500 44.34500
H  -19.23900 11.90100 43.59900
H  -19.68800 13.16700 42.70600
H  -11.30700 10.11700 44.50500
H  -12.56000 9.76800 43.30900
H  -12.94600 10.38500 44.91400
H  -8.27000 12.67800 41.64500
H  -4.39000 13.91900 42.32700
H  -5.11800 13.91600 44.01800
H  -5.42100 15.25300 42.78700

