158

Mg 31.60400 58.50100 40.73000
C  28.48500 57.44700 39.20100
C  32.98300 55.77800 39.05500
C  34.54300 59.92100 40.95700
C  30.04200 61.37000 41.66800
N  30.72400 56.84300 39.27700
C  29.47800 56.58600 38.84200
C  29.38900 55.28400 38.04700
C  30.73600 54.51600 38.44400
C  31.57200 55.74900 39.01200
C  30.63100 53.36300 39.51600
C  29.15200 55.47000 36.56400
C  27.93000 54.75100 35.93400
H  27.83800 54.85300 34.38600
N  33.55700 57.89200 40.22600
C  33.88200 56.79700 39.43400
C  35.26100 56.76300 39.15700
C  35.77100 57.98900 39.65000
C  34.61000 58.70500 40.32900
C  35.95700 55.70700 38.40800
C  37.19200 58.47900 39.60000
O  38.08400 57.84500 39.05800
C  37.52800 59.71600 40.22300
N  32.23500 60.41800 41.38500
C  33.53800 60.74900 41.47200
C  33.73900 62.09400 42.15700
C  32.18500 62.51300 42.36000
C  31.39500 61.40300 41.80500
C  34.52900 62.04700 43.44700
C  31.86300 63.90900 41.75200
C  31.26900 64.85700 42.69200
N  29.60100 59.24700 40.57400
C  29.17100 60.45000 41.04900
C  27.78900 60.56600 40.86800
C  27.37700 59.34800 40.20700
C  28.61400 58.65700 39.93000
C  27.02100 61.73600 41.13500
C  26.32300 58.55300 39.58300
O  25.06800 58.65000 39.53500
C  27.01000 57.33500 38.85600
C  26.33100 56.05300 39.26400
O  26.66700 55.35800 40.22900
O  25.58000 55.59500 38.25300
C  25.21900 54.18800 38.31400
H  33.44200 54.94600 38.51700
H  35.46200 60.48700 41.12600
H  29.54000 62.21900 42.13700
H  28.49400 54.73400 38.33900
H  31.14900 54.20200 37.48500
H  31.24600 52.46700 39.42800
H  29.61400 52.97100 39.48400
H  30.77800 53.67500 40.55000
H  30.01800 55.06800 36.03800
H  29.10700 56.52000 36.27600
H  26.99400 55.15500 36.31800
H  28.08300 53.69800 36.17000
H  35.24300 55.33100 37.67500
H  36.34300 54.90500 39.03700
H  36.66200 55.98600 37.62500
H  36.98300 60.54700 39.77500
H  38.54200 60.05800 40.01800
H  37.42200 59.64200 41.30500
H  34.02400 62.70200 41.29800
H  31.93100 62.41000 43.41500
H  34.92400 61.04200 43.59900
H  33.92700 62.30900 44.31700
H  35.34500 62.76900 43.42700
H  31.19100 63.81500 40.89800
H  32.83300 64.25600 41.39400
H  30.32200 65.17800 42.25800
H  31.93500 65.71700 42.76800
H  31.13200 64.30500 43.62100
H  26.69300 61.82400 42.17000
H  26.10400 61.72200 40.54600
H  27.55400 62.62600 40.79900
H  26.79900 57.45900 37.79300
H  25.93400 53.46400 37.92400
H  24.30400 54.06900 37.73400
H  24.96000 53.80600 39.30200
Mg 17.10200 52.36200 25.94400
C  19.04900 51.17400 28.53000
C  14.60900 52.97700 28.19400
C  15.41700 53.61900 23.39400
C  19.65900 51.38500 23.74800
N  16.83300 52.07900 28.10100
C  17.84600 51.72800 28.95800
C  17.39100 51.95000 30.44300
C  15.81800 52.12300 30.18900
C  15.70200 52.35300 28.71400
C  14.92100 51.07600 30.70100
C  17.90600 53.30100 30.99300
C  17.89500 53.55400 32.49300
H  16.70100 53.11100 33.41700
N  15.28500 53.20000 25.79300
C  14.40700 53.32500 26.82000
C  13.26700 54.10100 26.31600
C  13.46600 54.25500 24.94900
C  14.75400 53.66600 24.63900
C  12.16100 54.49900 27.20000
C  12.51800 54.86400 23.91600
O  12.84200 54.98400 22.73500
C  11.20300 55.35500 24.33600
N  17.39300 52.33000 23.83600
C  16.60700 52.98800 22.94200
C  17.11100 52.95800 21.53400
C  18.50500 52.22100 21.71800
C  18.58700 52.05600 23.24800
C  16.09900 52.31400 20.57100
C  19.68300 52.93900 21.03000
C  20.09800 54.22800 21.72600
N  18.81800 51.37100 26.02000
C  19.82600 51.02900 25.06100
C  20.92300 50.33800 25.65500
C  20.64700 50.39300 27.00000
C  19.38100 51.01400 27.18700
C  22.03800 49.63800 24.93500
C  21.26200 49.98000 28.23400
O  22.28900 49.36000 28.55800
C  20.30600 50.59500 29.31200
C  19.80400 49.60400 30.25300
O  19.24400 48.57600 29.93100
O  20.03100 50.04800 31.51700
C  19.49500 49.22600 32.57600
H  13.87300 53.35000 28.90900
H  14.95100 54.02700 22.49500
H  20.45400 51.10700 23.05300
H  17.57000 51.08800 31.08600
H  15.42900 53.01200 30.68400
H  15.46500 50.42500 31.38600
H  14.63800 50.48200 29.83200
H  14.04800 51.40800 31.26400
H  17.32000 54.14200 30.62300
H  18.94600 53.33500 30.66700
H  18.21300 54.55000 32.80100
H  18.64700 52.90400 32.94100
H  12.30600 54.16700 28.22800
H  11.19600 54.19400 26.79500
H  12.18200 55.56400 27.43000
H  10.58500 55.51300 23.45200
H  11.22800 56.33900 24.80400
H  10.64400 54.54300 24.80100
H  17.32600 53.95700 21.15700
H  18.60400 51.21600 21.30800
H  15.57100 53.15000 20.11300
H  15.39200 51.65400 21.07300
H  16.64400 51.71000 19.84500
H  19.28700 53.24700 20.06300
H  20.50400 52.25300 20.82000
H  21.18000 54.33200 21.81100
H  19.66900 54.23000 22.72800
H  19.54400 54.99500 21.18500
H  22.06300 48.56600 24.74000
H  22.90200 49.66600 25.59900
H  22.12600 50.06500 23.93600
H  20.82700 51.33500 29.92000
H  19.11100 49.79600 33.42200
H  20.42000 48.76200 32.91700
H  18.78500 48.41800 32.39700

