158

Mg 10.05000 47.62700 26.28300
C  8.22300 47.76000 29.21500
C  12.81800 48.96900 27.92200
C  11.66900 47.25000 23.50600
C  7.08200 46.38500 24.77100
N  10.46600 48.35500 28.28700
C  9.57600 48.21100 29.40300
C  10.34100 48.70900 30.64200
C  11.57700 49.49800 30.08400
C  11.67500 48.88000 28.67300
C  11.43300 51.05700 30.00800
C  10.63900 47.55600 31.68100
C  9.88500 47.64300 33.03900
H  9.95400 46.41400 33.90000
N  12.00100 48.11400 25.75200
C  13.01300 48.58400 26.52800
C  14.17000 48.67600 25.72100
C  13.83500 48.28400 24.42100
C  12.44600 47.81100 24.51200
C  15.55800 49.15200 26.24900
C  14.56000 48.35400 23.13200
O  13.96500 48.17600 22.08800
C  15.96500 48.77400 23.03100
N  9.49200 47.06000 24.44900
C  10.34600 46.85600 23.44500
C  9.74800 46.16100 22.15100
C  8.30000 45.95600 22.56700
C  8.26500 46.49700 24.03200
C  9.96900 47.01700 20.85300
C  7.86000 44.43700 22.47200
C  8.55500 43.63600 23.63700
N  7.94900 47.26800 26.81500
C  6.86400 46.80100 26.07900
C  5.72200 46.86400 26.89800
C  6.20200 47.24200 28.20300
C  7.56900 47.35700 28.07400
C  4.34400 46.50700 26.51400
C  5.83400 47.54800 29.57200
O  4.71400 47.56300 30.13100
C  7.25900 47.72900 30.29500
C  7.32800 46.45700 31.14600
O  7.89900 45.43200 30.86700
O  6.49400 46.71100 32.23500
C  6.35000 45.65800 33.25400
H  13.73700 49.24600 28.44200
H  12.17300 47.03300 22.56200
H  6.27100 45.86000 24.26200
H  9.62900 49.42400 31.05500
H  12.46900 49.26600 30.66600
H  10.56900 51.33300 30.61300
H  11.32400 51.38500 28.97400
H  12.24800 51.57600 30.51200
H  11.70500 47.63400 31.89400
H  10.34500 46.54800 31.38900
H  8.82700 47.86800 32.90500
H  10.39000 48.50600 33.47300
H  16.28000 48.40000 25.93200
H  15.48600 49.29300 27.32700
H  15.87600 49.99900 25.64100
H  16.02200 49.78500 23.43600
H  16.26100 48.73400 21.98300
H  16.46400 47.95500 23.54900
H  10.33200 45.25700 21.97800
H  7.57400 46.48200 21.94700
H  10.71100 46.53500 20.21700
H  10.28900 48.01000 21.16700
H  9.01700 47.12100 20.33200
H  8.11800 44.11100 21.46400
H  6.78100 44.31900 22.56800
H  7.82100 43.38700 24.40300
H  9.42800 43.95100 24.20900
H  8.85600 42.71600 23.13600
H  4.27300 45.45500 26.23700
H  4.13500 47.09600 25.62100
H  3.69700 46.75100 27.35700
H  7.15500 48.69600 30.78600
H  6.36400 46.17600 34.21300
H  7.13600 44.90300 33.22800
H  5.37300 45.22000 33.04700
Mg -1.81300 34.16000 27.53400
C  -4.09900 32.40600 29.70200
C  -0.63300 35.86400 30.24200
C  -0.12200 36.03400 25.36700
C  -3.53600 32.59700 24.85900
N  -2.36700 34.22900 29.78400
C  -3.36500 33.37900 30.41100
C  -3.34000 33.65100 31.87000
C  -2.43400 34.97200 31.97500
C  -1.75400 35.06500 30.59100
C  -3.23700 36.27200 32.20100
C  -2.61700 32.53500 32.63800
C  -3.40700 32.11900 33.95000
H  -2.61500 32.29800 35.28000
N  -0.36700 35.67700 27.86900
C  -0.03900 36.27500 29.01500
C  1.05600 37.24000 28.74000
C  1.26000 37.18300 27.33000
C  0.23800 36.24400 26.76300
C  1.82900 38.07000 29.73500
C  2.33000 37.96000 26.46600
O  2.40400 37.72300 25.25700
C  3.24400 38.85000 27.09400
N  -1.76900 34.17500 25.39100
C  -1.04000 35.14400 24.74800
C  -1.25700 35.02200 23.20600
C  -2.24300 33.84400 23.07900
C  -2.61600 33.59300 24.56600
C  -1.77000 36.48200 22.67300
C  -1.81000 32.56100 22.28700
C  -0.78400 31.57500 22.98000
N  -3.40200 32.83800 27.26100
C  -3.88200 32.16500 26.13900
C  -4.71600 31.08600 26.50300
C  -4.80800 31.17100 27.88200
C  -4.04100 32.26400 28.31000
C  -5.43800 30.08600 25.58600
C  -5.55000 30.60500 29.02800
O  -6.29400 29.62200 29.08300
C  -5.00600 31.42400 30.24400
C  -6.05800 31.92800 31.21300
O  -6.88000 32.82200 31.04400
O  -6.06200 31.17800 32.37200
C  -7.19200 31.42500 33.29900
H  -0.21000 36.32500 31.13600
H  0.42700 36.75600 24.75900
H  -4.10100 32.11100 24.06100
H  -4.32700 33.80000 32.30700
H  -1.65900 34.95600 32.74100
H  -3.43600 36.77600 31.25600
H  -2.53800 36.89800 32.75600
H  -4.02700 36.11200 32.93500
H  -1.55500 32.68400 32.83000
H  -2.55400 31.60800 32.06900
H  -3.68200 31.06600 33.88900
H  -4.32700 32.70400 33.95600
H  1.48800 37.89800 30.75600
H  1.79500 39.13400 29.49800
H  2.87300 37.76500 29.65300
H  3.80000 39.53900 26.45800
H  3.89200 38.22800 27.71200
H  2.74600 39.53900 27.77600
H  -0.32900 34.76700 22.69500
H  -3.00700 34.25700 22.42100
H  -1.21300 36.75100 21.77600
H  -1.76700 37.34000 23.34500
H  -2.73400 36.47400 22.16500
H  -1.29500 33.03400 21.45100
H  -2.72700 32.01300 22.06900
H  -0.45200 32.01700 23.91900
H  0.10400 31.32000 22.40200
H  -1.31200 30.64700 23.20000
H  -5.61500 29.17200 26.15400
H  -4.87900 29.81300 24.69200
H  -6.40100 30.49700 25.28100
H  -4.47500 30.59300 30.70700
H  -8.15800 31.23500 32.83200
H  -7.26600 32.46900 33.60400
H  -7.18500 30.73900 34.14600

