158

Mg 15.95700 53.27600 24.99300
C  17.45900 51.96000 27.79900
C  13.34500 54.34400 26.89500
C  14.42600 54.21300 22.14300
C  18.34500 51.45000 23.11100
N  15.43300 53.01400 27.06500
C  16.24900 52.70100 28.08300
C  15.70700 53.11900 29.42500
C  14.21400 53.58200 29.09200
C  14.25400 53.57500 27.54800
C  13.12400 52.49700 29.60600
C  16.64900 54.21200 30.06000
C  16.98800 53.99800 31.53200
H  16.03500 53.22000 32.46000
N  14.19100 54.37500 24.63400
C  13.25500 54.73700 25.55000
C  12.20900 55.41400 24.84900
C  12.54400 55.39500 23.47000
C  13.79900 54.65800 23.33000
C  11.00800 55.92900 25.63000
C  11.78900 55.88500 22.24700
O  12.16500 55.77400 21.06700
C  10.45200 56.46700 22.42800
N  16.28800 52.82000 22.90800
C  15.48100 53.30200 21.92500
C  16.12100 53.03900 20.55100
C  17.46700 52.20500 20.88800
C  17.40700 52.21600 22.39200
C  15.26900 52.31500 19.48200
C  18.77900 52.83900 20.22700
C  19.30100 52.18800 18.93200
N  17.48400 51.97500 25.33200
C  18.43100 51.39500 24.51400
C  19.40100 50.67100 25.17200
C  19.08600 50.95500 26.50100
C  17.85700 51.65100 26.52900
C  20.51400 49.82900 24.57500
C  19.58600 50.79400 27.80300
O  20.68800 50.36200 28.13600
C  18.50900 51.40800 28.77800
C  18.09300 50.42800 29.72400
O  17.14000 49.62500 29.54600
O  18.91000 50.59000 30.84900
C  18.43600 49.88200 32.03500
H  12.63000 54.78100 27.59500
H  14.00400 54.50700 21.18000
H  19.07800 50.92700 22.49400
H  15.59000 52.21700 30.02600
H  13.93600 54.55500 29.49700
H  12.62500 52.68200 30.55700
H  13.53200 51.49200 29.71700
H  12.42200 52.56600 28.77500
H  16.24300 55.22300 30.05600
H  17.61500 54.23900 29.55400
H  17.21000 54.99200 31.92100
H  17.99000 53.57100 31.56600
H  10.27700 55.13100 25.76300
H  10.53700 56.73900 25.07300
H  11.27500 56.37900 26.58500
H  10.12000 56.66400 21.40900
H  10.55400 57.42700 22.93500
H  9.66200 55.89900 22.92000
H  16.45500 54.01600 20.20100
H  17.26200 51.17600 20.59500
H  15.75100 51.71800 18.70800
H  14.96400 53.18500 18.89900
H  14.42800 51.81100 19.95900
H  19.54500 52.89900 20.99900
H  18.54300 53.85300 19.90500
H  18.57600 51.55500 18.42000
H  20.12500 51.55500 19.26300
H  19.63600 52.94800 18.22600
H  20.32800 49.31500 23.63200
H  20.46600 49.13200 25.41100
H  21.41000 50.44200 24.48000
H  18.98400 52.19600 29.36300
H  18.68900 48.83300 31.88000
H  17.36800 49.87600 32.25200
H  18.91200 50.29900 32.92200
Mg -9.54400 42.46400 42.48500
C  -8.32100 39.12600 41.72800
C  -6.51100 43.51700 40.94400
C  -10.78200 45.43300 42.24700
C  -12.53900 40.96400 43.48000
N  -7.51900 41.38200 41.56400
C  -7.30100 40.06000 41.40000
C  -6.02300 39.76100 40.62600
C  -5.32900 41.23800 40.63700
C  -6.53300 42.14700 41.10500
C  -4.04600 41.36500 41.41100
C  -6.23600 39.16000 39.21800
C  -5.39200 37.92200 38.82700
H  -4.32700 38.29200 37.76500
N  -8.69200 44.19600 41.72800
C  -7.47800 44.43800 41.12200
C  -7.35100 45.88700 40.93100
C  -8.56700 46.48400 41.32100
C  -9.41000 45.35100 41.81200
C  -6.21000 46.55500 40.21600
C  -8.86800 48.01500 41.28500
O  -7.98100 48.78000 40.90100
C  -10.23300 48.58600 41.57200
N  -11.44300 43.07900 42.77700
C  -11.71200 44.43800 42.73100
C  -13.05700 44.70800 43.54500
C  -13.57400 43.25000 43.98200
C  -12.46500 42.36100 43.37700
C  -12.78200 45.63900 44.80000
C  -15.04300 42.89400 43.55700
C  -16.07900 42.96000 44.68900
N  -10.26500 40.49200 42.72800
C  -11.51400 40.07900 43.07700
C  -11.59700 38.65000 42.99300
C  -10.41800 38.25000 42.44900
C  -9.60300 39.39800 42.25000
C  -12.79400 37.86000 43.31000
C  -9.69500 37.03500 42.03400
O  -10.00200 35.82500 42.09200
C  -8.30100 37.61200 41.56500
C  -7.27600 36.73300 42.21100
O  -6.91100 36.73200 43.40500
O  -6.62000 35.97500 41.23400
C  -5.74200 34.99900 41.82200
H  -5.52900 43.87000 40.62100
H  -11.09000 46.46500 42.42800
H  -13.38900 40.39600 43.86400
H  -5.37300 39.05600 41.14500
H  -5.18400 41.61800 39.62600
H  -3.42000 40.49000 41.23800
H  -4.43400 41.46700 42.42400
H  -3.66000 42.31500 41.03900
H  -5.95800 40.00600 38.58900
H  -7.29200 38.93700 39.06200
H  -6.06100 37.18900 38.37700
H  -4.88700 37.48500 39.68800
H  -5.69600 47.32900 40.78600
H  -6.67100 47.02400 39.34700
H  -5.52700 45.81400 39.80200
H  -10.28900 48.50400 42.65700
H  -10.93200 47.99000 40.98500
H  -10.42800 49.63500 41.34700
H  -13.83800 45.27500 43.03700
H  -13.49100 43.18000 45.06600
H  -11.85500 46.17200 44.59000
H  -12.70200 45.06000 45.72000
H  -13.54700 46.41500 44.78800
H  -15.08000 41.95000 43.01400
H  -15.35200 43.70600 42.89900
H  -16.70000 43.84400 44.54600
H  -15.61800 43.06500 45.67100
H  -16.81500 42.15600 44.67200
H  -12.42200 36.90000 43.66700
H  -13.41600 37.77400 42.41900
H  -13.27700 38.33400 44.16400
H  -8.27400 37.41900 40.49300
H  -4.96800 35.53800 42.36700
H  -5.21300 34.52500 40.99500
H  -6.27700 34.19400 42.32700

