158

Mg -2.55600 17.74100 26.73600
C  -3.02100 15.71400 29.66200
C  -3.23900 20.46200 28.62400
C  -2.46200 19.51600 23.90300
C  -2.57900 14.78100 24.83400
N  -3.10900 18.04100 28.92200
C  -3.12200 17.09400 29.91100
C  -3.23800 17.90100 31.21300
C  -3.73900 19.32000 30.84100
C  -3.39700 19.28200 29.36000
C  -5.24400 19.66500 30.95100
C  -1.92700 18.02800 32.06200
C  -2.26200 18.46400 33.56200
H  -1.64600 17.59000 34.69700
N  -2.69400 19.76600 26.27500
C  -2.91000 20.71400 27.19500
C  -2.89600 22.01800 26.50600
C  -2.60500 21.74400 25.16700
C  -2.58800 20.30700 25.06100
C  -3.08900 23.33700 27.12500
C  -2.28000 22.66000 24.01800
O  -2.09100 22.27900 22.89200
C  -2.22800 24.09900 24.16300
N  -2.21000 17.25600 24.74300
C  -2.38500 18.12800 23.76600
C  -2.34300 17.48100 22.36500
C  -2.03800 16.01700 22.70700
C  -2.31700 15.98600 24.23700
C  -3.65000 17.77400 21.53400
C  -0.54200 15.58600 22.40200
C  0.60900 16.46500 22.98300
N  -2.77900 15.63800 27.11500
C  -2.70500 14.56000 26.23600
C  -2.80600 13.35900 26.93400
C  -2.90200 13.75600 28.29700
C  -2.90500 15.14400 28.37400
C  -2.80600 11.95500 26.35500
C  -3.10500 13.25700 29.65500
O  -3.22700 12.11900 30.07900
C  -3.19100 14.54600 30.58200
C  -2.20100 14.27500 31.63700
O  -1.01600 14.52700 31.56300
O  -2.73600 13.47200 32.64400
C  -1.78000 12.92100 33.61700
H  -3.38000 21.37900 29.19900
H  -2.43600 20.05100 22.95100
H  -2.43700 13.92000 24.17800
H  -3.97900 17.34300 31.78500
H  -3.11500 20.04300 31.36600
H  -5.76500 18.75100 31.23400
H  -5.66600 19.79800 29.95500
H  -5.53200 20.53600 31.54200
H  -1.32900 18.86500 31.70000
H  -1.43200 17.06400 31.94700
H  -3.34100 18.49100 33.71500
H  -1.91600 19.47100 33.79500
H  -3.31500 23.21100 28.18400
H  -3.93800 23.85800 26.68300
H  -2.19600 23.93400 26.94000
H  -1.37100 24.17500 24.83200
H  -3.18700 24.48800 24.50400
H  -1.91200 24.57300 23.23400
H  -1.50700 17.98600 21.88000
H  -2.75600 15.40400 22.16000
H  -4.24500 16.86500 21.62000
H  -3.42600 17.93700 20.48000
H  -4.24500 18.55200 22.01200
H  -0.27300 15.54200 21.34700
H  -0.42900 14.56500 22.76600
H  1.33500 16.79400 22.23900
H  1.00600 15.80600 23.75500
H  0.21600 17.30700 23.55300
H  -2.37000 11.97600 25.35600
H  -3.87300 11.75800 26.24200
H  -2.25300 11.29600 27.02400
H  -4.13900 14.66800 31.10600
H  -0.82700 12.66600 33.15300
H  -2.25800 12.07400 34.10800
H  -1.54000 13.63300 34.40700
Mg 44.57600 5.53200 48.44400
C  42.80100 8.51800 47.85900
C  41.69000 3.77000 47.45400
C  46.32900 2.62500 48.44600
C  47.43900 7.34600 48.46700
N  42.49500 6.10600 47.79800
C  42.00200 7.39500 47.55700
C  40.58800 7.38300 47.01100
C  40.17800 5.83400 47.14800
C  41.51200 5.17800 47.52200
C  39.06400 5.47100 48.17100
C  40.50800 8.07800 45.61500
C  39.03200 8.40200 45.21700
H  38.48400 7.86300 43.94900
N  44.04800 3.43500 48.09300
C  42.87700 2.94500 47.67000
C  42.96400 1.44500 47.71200
C  44.30900 1.15000 48.11700
C  44.98500 2.42600 48.34300
C  41.84600 0.53400 47.23600
C  44.80500 -0.24100 48.28900
O  44.17600 -1.25000 47.91100
C  46.19800 -0.51700 48.76800
N  46.53000 5.05300 48.69600
C  46.99500 3.79900 48.59500
C  48.54800 3.78900 48.39800
C  48.93000 5.30300 48.65000
C  47.57400 5.95200 48.58100
C  49.31900 2.76300 49.31600
C  49.88200 5.82300 47.50100
C  51.34300 6.07500 47.90400
N  45.09900 7.59700 48.43200
C  46.31400 8.19900 48.43000
C  46.16000 9.62800 48.34500
C  44.73700 9.83100 48.16100
C  44.19100 8.55300 48.12300
C  47.15800 10.66900 48.43400
C  43.64400 10.78100 48.03900
O  43.67300 12.01800 48.18000
C  42.38700 9.95100 47.91600
C  41.30400 10.24700 48.88500
O  41.17300 9.73400 50.02500
O  40.40000 11.11200 48.27900
C  39.20500 11.39300 48.97100
H  40.80700 3.15600 47.26900
H  46.93200 1.73000 48.28000
H  48.33000 7.97600 48.51500
H  39.94600 7.95100 47.68300
H  39.88100 5.35000 46.21800
H  38.25600 4.92000 47.69000
H  38.61400 6.40600 48.50800
H  39.30100 5.01300 49.13100
H  41.20100 7.58700 44.93100
H  40.95200 9.06900 45.52300
H  38.88100 9.48200 45.21600
H  38.42700 7.92900 45.99100
H  40.89800 1.07000 47.27300
H  41.69100 -0.35000 47.85500
H  42.07100 0.19200 46.22600
H  46.44700 -1.53500 49.06800
H  46.40000 0.10200 49.64200
H  46.81000 -0.35000 47.88200
H  48.56800 3.38300 47.38700
H  49.38200 5.45500 49.63100
H  48.66300 1.95600 49.64200
H  49.71400 3.26400 50.20000
H  50.15300 2.29300 48.79600
H  49.48700 6.68800 46.96700
H  49.86000 5.08800 46.69700
H  51.93100 5.18800 47.67000
H  51.54100 6.17000 48.97200
H  51.72300 6.95000 47.37700
H  47.86500 10.61700 47.60700
H  47.60000 10.72800 49.42900
H  46.69700 11.64200 48.26700
H  42.10800 10.29300 46.91900
H  38.48700 11.91900 48.34100
H  39.47300 12.12900 49.73000
H  38.79300 10.49200 49.42700

