158

Mg 34.95200 2.86400 30.11000
C  32.89200 3.89000 32.47000
C  37.49100 2.72500 32.24500
C  36.88500 2.04900 27.44600
C  32.36000 3.51100 27.64700
N  35.21000 3.34400 32.12200
C  34.18300 3.62800 32.96500
C  34.65800 3.71300 34.41200
C  36.19500 3.48100 34.32200
C  36.36400 3.23800 32.80800
C  37.10100 4.70700 34.70100
C  33.89600 2.79400 35.47400
C  33.22000 3.67200 36.64400
H  33.97700 4.78900 37.14700
N  36.91000 2.41900 29.92300
C  37.82300 2.33100 30.93300
C  39.14700 2.07800 30.33500
C  38.85500 1.80700 28.95500
C  37.46300 2.09400 28.71900
C  40.39700 2.00300 31.12800
C  39.94700 1.37200 27.93200
O  39.69000 1.19600 26.74400
C  41.39800 1.08500 28.37200
N  34.69900 2.88800 27.77700
C  35.58000 2.32600 26.95700
C  35.13100 2.27300 25.49300
C  33.66700 2.69700 25.62700
C  33.53400 3.07800 27.11800
C  36.08300 3.13000 24.64400
C  32.48600 1.83400 25.13500
C  32.35900 0.47900 25.86300
N  33.04300 3.58600 30.01800
C  32.07000 3.76600 29.02600
C  30.81300 3.95400 29.63900
C  31.03200 4.08900 30.97400
C  32.45800 3.83100 31.15400
C  29.55300 4.04700 28.87300
C  30.40300 4.40400 32.26900
O  29.24400 4.58600 32.54400
C  31.59700 4.36500 33.23800
C  31.63700 5.70200 33.85500
O  32.29800 6.61700 33.47400
O  30.79700 5.87300 34.93400
C  30.94700 7.07500 35.80700
H  38.28500 2.72400 32.99500
H  37.51300 1.77100 26.59800
H  31.56900 3.68900 26.91500
H  34.46500 4.74200 34.71900
H  36.48600 2.58200 34.86500
H  37.53700 4.46900 35.67100
H  36.48200 5.58400 34.88800
H  37.81300 4.81400 33.88300
H  34.54100 2.11300 36.03000
H  33.06700 2.23500 35.04200
H  32.99700 2.95000 37.42900
H  32.28700 4.01500 36.19700
H  41.23900 2.34600 30.52600
H  40.60200 0.95300 31.33500
H  40.36200 2.58900 32.04700
H  42.00700 1.95100 28.63300
H  41.88000 0.74500 27.45600
H  41.40800 0.28400 29.11100
H  35.19300 1.24300 25.14100
H  33.50300 3.57000 24.99600
H  37.01200 3.51500 25.06600
H  35.53100 3.98400 24.25100
H  36.37500 2.42700 23.86400
H  32.63500 1.61700 24.07700
H  31.54800 2.39000 25.15300
H  31.32500 0.14000 25.79600
H  32.69800 0.46300 26.89900
H  32.91300 -0.24000 25.25900
H  29.60900 4.85800 28.14700
H  28.68600 4.21600 29.51100
H  29.51700 3.06100 28.40900
H  31.40600 3.62300 34.01300
H  30.79800 6.74700 36.83600
H  30.27000 7.89100 35.55300
H  31.94700 7.50700 35.81100
Mg 6.27000 54.79000 40.87100
C  3.37900 52.96800 39.84100
C  8.25700 52.33100 39.82300
C  8.79100 57.01100 40.98000
C  4.09000 57.41100 41.69400
N  5.79900 53.00400 39.77300
C  4.57000 52.35900 39.56400
C  4.93000 51.01100 38.97100
C  6.38900 50.67500 39.40500
C  6.87700 52.11500 39.74500
C  6.56200 49.77300 40.64200
C  4.74100 50.79400 37.44700
C  4.21800 49.37100 37.10300
H  4.22000 48.81600 35.67000
N  8.23900 54.72000 40.30400
C  8.88500 53.54100 39.91600
C  10.28200 53.89300 39.80500
C  10.39400 55.24500 39.91500
C  9.14600 55.72700 40.42100
C  11.32100 52.81100 39.57000
C  11.65300 56.07000 39.72700
O  12.69900 55.59600 39.26200
C  11.61500 57.59600 39.85800
N  6.36600 56.92500 41.21700
C  7.57200 57.54800 41.32600
C  7.43700 58.91900 42.08100
C  5.86600 59.15400 42.09400
C  5.34100 57.77200 41.61600
C  8.12800 58.96800 43.44200
C  5.41600 60.26800 41.08200
C  4.80200 61.46800 41.73900
N  4.18000 55.08900 40.99800
C  3.47400 56.16300 41.43500
C  2.07000 55.85800 41.41100
C  1.95200 54.58300 40.82300
C  3.27700 54.16800 40.50200
C  0.99500 56.78700 41.83500
C  0.99000 53.48900 40.35000
O  -0.22400 53.44600 40.33100
C  1.97100 52.30500 39.79500
C  1.49200 52.08200 38.39400
O  1.62000 52.93200 37.50800
O  0.98100 50.81600 38.17500
C  0.86500 50.47200 36.75600
H  8.96800 51.52400 39.63400
H  9.59300 57.56300 41.47400
H  3.44600 58.13600 42.19600
H  4.22600 50.29100 39.38700
H  6.88800 50.07800 38.64100
H  7.04000 48.84000 40.34400
H  5.56900 49.42900 40.93100
H  7.11900 50.31500 41.40500
H  5.70900 50.79500 36.94700
H  4.10000 51.57200 37.03200
H  3.20100 49.39100 37.49400
H  4.91000 48.76400 37.68700
H  12.30300 53.09600 39.94800
H  11.30400 52.40300 38.56000
H  11.03300 51.95600 40.18200
H  10.64200 58.00400 39.58500
H  12.34600 58.00000 39.15800
H  11.94300 57.84700 40.86600
H  7.94200 59.66700 41.47000
H  5.52400 59.29700 43.11900
H  8.04000 57.99400 43.92200
H  7.62700 59.78900 43.95500
H  9.17400 59.26900 43.38500
H  4.80300 59.82100 40.30000
H  6.32400 60.63500 40.60400
H  3.81700 61.72100 41.34600
H  5.46700 62.32700 41.64800
H  4.68600 61.33800 42.81400
H  0.07700 56.32800 41.46800
H  1.02700 57.78300 41.39600
H  1.01100 56.84400 42.92400
H  1.84800 51.41400 40.41100
H  0.82500 49.39400 36.59900
H  1.71600 50.86500 36.19900
H  0.03000 51.02500 36.32700

