158

Mg 41.17900 9.31200 29.15100
C  42.65000 10.31000 32.28700
C  38.74800 7.89800 31.10900
C  39.71100 8.54000 26.39800
C  43.97300 10.53800 27.49900
N  40.79600 9.25700 31.47300
C  41.50000 9.64200 32.49900
C  40.82700 9.32500 33.85800
C  39.69300 8.29900 33.41700
C  39.70600 8.50300 31.92400
C  39.78900 6.86700 33.93800
C  40.35100 10.58000 34.63200
C  40.53300 10.54100 36.16600
H  41.49900 11.46600 36.83100
N  39.50700 8.30100 28.76500
C  38.62000 7.80900 29.65100
C  37.54200 7.13900 28.95900
C  37.66700 7.50900 27.59800
C  39.00100 8.11700 27.49600
C  36.43400 6.39100 29.67800
C  36.70600 7.38700 26.47600
O  36.84400 7.94500 25.38900
C  35.40300 6.73600 26.69000
N  41.85400 9.50000 27.25900
C  40.98400 9.17400 26.24000
C  41.57900 9.44500 24.80000
C  43.00600 10.01500 25.16600
C  42.99700 9.96600 26.76500
C  41.45800 8.20600 23.82700
C  43.38500 11.41400 24.64700
C  42.60600 12.66000 25.00100
N  43.06700 10.05400 29.76200
C  44.04800 10.61700 28.92000
C  45.10400 11.13900 29.76400
C  44.56700 11.07600 31.02200
C  43.34800 10.43900 31.00300
C  46.33900 11.67800 29.33300
C  44.87200 11.39400 32.40400
O  45.84900 11.88100 32.87400
C  43.63300 10.82500 33.33700
C  44.14800 9.93600 34.35400
O  44.10700 8.70200 34.29300
O  44.81100 10.67000 35.36700
C  45.67800 9.96500 36.31500
H  37.92500 7.56400 31.74500
H  39.25000 8.18200 25.47400
H  44.72800 11.10600 26.95200
H  41.54900 8.80400 34.48800
H  38.70800 8.65700 33.71400
H  38.81900 6.50000 34.27400
H  40.46700 6.72300 34.77900
H  40.07000 6.20500 33.11900
H  39.28900 10.72100 34.43000
H  40.67400 11.49800 34.14100
H  40.74800 9.54000 36.54000
H  39.59000 10.90700 36.57200
H  36.75600 5.99100 30.63900
H  36.11700 5.59600 29.00400
H  35.58300 6.99900 29.98300
H  35.55500 5.69900 26.99100
H  34.77700 6.73800 25.79800
H  34.84000 7.20300 27.49800
H  40.94100 10.24500 24.42400
H  43.82400 9.35900 24.86600
H  41.24700 7.27000 24.34300
H  42.41600 8.29000 23.31300
H  40.66500 8.40800 23.10700
H  43.32900 11.21400 23.57700
H  44.46800 11.46200 24.76400
H  41.73700 12.49600 25.63900
H  42.15000 13.05800 24.09500
H  43.29800 13.39100 25.41700
H  46.87000 12.18700 30.13800
H  46.07400 12.45300 28.61400
H  47.01100 10.97200 28.84500
H  43.30200 11.71500 33.87100
H  46.72700 10.26000 36.35600
H  45.71500 8.90600 36.06300
H  45.29900 10.04000 37.33400
Mg -11.45100 38.75600 42.48100
C  -10.14200 35.63400 41.65900
C  -8.95500 40.13900 40.71900
C  -13.19200 41.65000 42.56000
C  -14.52900 36.96200 43.24700
N  -9.76700 37.93800 41.33600
C  -9.39000 36.66700 41.17700
C  -8.13000 36.59600 40.33100
C  -7.53700 37.99000 40.37500
C  -8.87700 38.75200 40.81000
C  -6.29700 38.19300 41.17800
C  -8.41300 35.97300 38.94100
C  -7.60600 34.82000 38.57200
H  -6.61400 35.00200 37.39500
N  -11.00600 40.69000 41.84700
C  -9.88500 41.06400 41.20800
C  -9.95800 42.48900 41.00300
C  -11.17200 42.96800 41.55200
C  -11.87300 41.75900 42.03900
C  -8.88500 43.22600 40.16700
C  -11.67100 44.49300 41.56800
O  -10.90900 45.33800 41.06100
C  -12.93800 44.92600 42.14500
N  -13.51500 39.17200 42.86300
C  -13.89600 40.45800 42.96500
C  -15.32100 40.54500 43.51700
C  -15.77600 39.09400 43.62800
C  -14.55400 38.31800 43.21400
C  -15.44900 41.49200 44.74700
C  -16.92600 38.54800 42.75300
C  -18.13200 37.90200 43.40300
N  -12.20800 36.70800 42.70700
C  -13.38100 36.15100 43.08900
C  -13.21700 34.67900 43.09700
C  -11.95700 34.45400 42.52100
C  -11.42300 35.69800 42.22500
C  -14.14100 33.58900 43.59300
C  -11.15200 33.45300 42.00200
O  -11.33000 32.23700 42.02300
C  -9.78400 34.18700 41.48600
C  -8.61000 33.78400 42.37700
O  -7.63300 33.13100 42.01800
O  -8.76200 34.45600 43.60500
C  -7.49100 34.32300 44.45600
H  -8.06100 40.52700 40.22600
H  -13.84500 42.51500 42.68600
H  -15.39700 36.45400 43.67200
H  -7.39200 35.97100 40.83500
H  -7.28200 38.31900 39.36800
H  -5.68400 38.94500 40.68100
H  -5.87900 37.20800 41.38300
H  -6.66900 38.61300 42.11200
H  -8.15500 36.71900 38.18900
H  -9.47600 35.75700 38.83900
H  -8.34700 34.07200 38.29100
H  -7.13300 34.36100 39.44000
H  -9.04800 43.00500 39.11200
H  -7.94600 42.72900 40.40900
H  -8.80700 44.29400 40.37000
H  -13.78100 44.58600 41.54300
H  -13.01400 46.00400 42.29000
H  -13.03200 44.56300 43.16900
H  -15.87000 41.08700 42.74600
H  -15.88800 38.90100 44.69500
H  -14.54600 42.09300 44.85400
H  -15.77100 41.11000 45.71600
H  -16.24900 42.13800 44.38500
H  -16.43500 37.93000 42.00100
H  -17.30600 39.37500 42.15400
H  -18.16100 37.85400 44.49200
H  -18.26900 36.88900 43.02700
H  -19.04400 38.45000 43.16600
H  -14.52700 33.12800 42.68400
H  -14.91700 34.08600 44.17600
H  -13.63300 32.83300 44.19100
H  -9.54100 34.03800 40.43400
H  -7.63100 33.40500 45.02600
H  -7.36800 35.06100 45.24900
H  -6.57100 34.28400 43.87200

