158

Mg 36.11300 2.46000 30.07400
C  33.51700 2.92600 32.40900
C  38.28100 2.58800 32.66800
C  38.43500 1.51900 27.83200
C  33.69900 2.34300 27.47600
N  35.88400 2.78900 32.28000
C  34.76000 2.93400 33.03000
C  35.06300 3.02900 34.53700
C  36.66500 3.14600 34.54000
C  36.97700 2.74600 33.05800
C  37.06500 4.53600 34.92100
C  34.62400 1.74700 35.36900
C  34.17300 1.91400 36.87800
H  34.75400 3.05200 37.76900
N  38.08700 2.06400 30.18800
C  38.80100 2.23300 31.34700
C  40.14300 1.82300 31.08900
C  40.18400 1.47700 29.70900
C  38.87200 1.67600 29.13900
C  41.17300 1.72600 32.10400
C  41.30700 0.98600 28.86400
O  41.24200 0.83300 27.64700
C  42.63200 0.69400 29.47700
N  36.07800 2.24500 27.88600
C  37.20200 1.86300 27.23300
C  36.95500 1.60700 25.69000
C  35.38000 1.77600 25.51000
C  35.01000 2.15500 27.02700
C  37.74700 2.58200 24.79000
C  34.60300 0.59900 24.78100
C  33.93600 -0.43700 25.69500
N  34.09900 2.60000 29.91000
C  33.22900 2.60400 28.78200
C  31.83800 2.58500 29.24300
C  31.86400 2.78000 30.63100
C  33.26200 2.78900 30.97400
C  30.63600 2.51200 28.29000
C  31.12700 2.90500 31.88900
O  29.91800 2.88900 32.09600
C  32.16900 2.92300 33.06000
C  31.85900 4.19400 33.78900
O  32.16100 5.31700 33.46200
O  31.23900 3.89400 34.96000
C  31.29800 4.93200 36.02300
H  39.08900 2.76300 33.38200
H  39.11800 1.31900 27.00400
H  33.09500 2.19000 26.57900
H  34.47400 3.87600 34.88800
H  37.21400 2.46900 35.19400
H  38.03600 4.48300 35.41500
H  36.35800 5.06000 35.56400
H  37.37900 5.05800 34.01700
H  35.42100 1.00800 35.44800
H  33.78000 1.26100 34.87900
H  34.26900 0.89700 37.25600
H  33.11500 2.15800 36.78200
H  41.03000 2.51100 32.84600
H  42.18900 1.89200 31.74700
H  41.15700 0.77600 32.63800
H  42.49300 0.15400 30.41400
H  43.23800 1.59100 29.60000
H  43.23300 0.06800 28.81800
H  37.19700 0.55400 25.54500
H  34.97500 2.68500 25.06700
H  37.05400 3.03600 24.08200
H  38.59500 2.08300 24.32000
H  38.11700 3.31000 25.51200
H  35.14100 0.00300 24.04300
H  33.81600 0.94600 24.11100
H  34.52800 -0.44200 26.61000
H  33.92000 -1.44200 25.27300
H  32.89100 -0.26500 25.95400
H  30.86100 1.70300 27.59500
H  30.51300 3.48600 27.81800
H  29.76900 2.32000 28.92300
H  31.99800 1.99400 33.60400
H  32.34100 5.24600 35.98000
H  30.98100 4.74400 37.04800
H  30.78000 5.83500 35.70000
Mg 47.30900 24.41400 28.25700
C  48.02500 26.85200 30.77000
C  46.17900 22.35400 30.78700
C  46.78400 22.09300 25.97000
C  48.72600 26.47700 25.86700
N  47.30200 24.61800 30.45100
C  47.45100 25.68500 31.24400
C  47.06200 25.41300 32.70500
C  46.60400 23.85900 32.70500
C  46.68500 23.59600 31.17700
C  47.33800 22.94300 33.72100
C  45.91800 26.40200 33.15000
C  45.14900 26.09000 34.39900
H  45.36200 27.04200 35.65400
N  46.62900 22.47200 28.34900
C  46.16700 21.79100 29.47000
C  45.80300 20.43900 29.03800
C  46.07400 20.31000 27.67000
C  46.48600 21.66400 27.26400
C  45.36500 19.43100 30.07500
C  45.88100 19.03900 26.77400
O  46.43600 18.86300 25.67700
C  45.22900 17.85700 27.40000
N  47.65300 24.33700 26.19200
C  47.31800 23.32700 25.44600
C  47.65700 23.51500 23.96500
C  48.06200 25.00600 23.91300
C  48.24900 25.27200 25.43000
C  48.67800 22.58900 23.32900
C  47.04200 25.94600 23.21900
C  47.11000 25.97000 21.66600
N  48.27900 26.30600 28.22900
C  48.78200 26.98400 27.17800
C  49.35100 28.18500 27.56000
C  49.02200 28.22000 28.94100
C  48.43200 27.00800 29.33400
C  50.26000 29.05000 26.74700
C  49.02100 29.04000 30.16600
O  49.44600 30.22600 30.24700
C  48.47600 28.13500 31.33800
C  49.54000 28.04000 32.33600
O  50.61900 27.48800 32.22300
O  49.10300 28.71800 33.45600
C  49.79200 28.35500 34.75100
H  45.48600 21.80500 31.42700
H  46.67600 21.41200 25.12300
H  49.09200 27.16600 25.10300
H  47.86000 25.60000 33.42500
H  45.53700 23.70700 32.86700
H  48.18700 22.69900 33.08200
H  46.77300 22.02900 33.90100
H  47.74100 23.37900 34.63500
H  45.33400 26.65000 32.26300
H  46.44000 27.34800 33.29400
H  45.55900 25.15600 34.78200
H  44.08900 25.94200 34.19300
H  44.57800 18.79800 29.66300
H  45.03800 19.80000 31.04700
H  46.28800 18.86500 30.19800
H  44.19100 18.14000 27.57200
H  45.70800 17.37600 28.25400
H  45.23000 16.96500 26.77300
H  46.67700 23.35100 23.51900
H  48.98200 25.07300 23.33300
H  48.69500 22.68200 22.24300
H  48.36700 21.56000 23.51100
H  49.66200 22.70700 23.78300
H  47.17700 26.94400 23.63800
H  46.01700 25.76700 23.54500
H  47.84600 25.20800 21.41000
H  47.60900 26.87300 21.31500
H  46.23300 25.74300 21.05900
H  51.10200 29.44300 27.31700
H  49.57600 29.80900 26.36800
H  50.83500 28.56400 25.95900
H  47.70300 28.75000 31.79900
H  49.81900 27.27600 34.90200
H  49.09200 28.65700 35.53000
H  50.79600 28.77300 34.82700

