158

Mg 35.47600 2.45000 29.19700
C  33.55800 3.80800 31.94700
C  38.20500 2.48200 31.15800
C  37.21500 1.77500 26.44700
C  32.56300 2.99900 27.22500
N  35.80600 3.10600 31.32900
C  34.85400 3.38900 32.27900
C  35.56700 3.41500 33.67200
C  37.09500 3.15200 33.38500
C  37.05400 2.91400 31.82000
C  38.14200 4.19700 33.77000
C  34.88800 2.59700 34.87200
C  35.66500 1.63400 35.78500
H  36.65300 2.19300 36.76300
N  37.48400 1.97500 28.91100
C  38.45300 2.03100 29.81300
C  39.67100 1.52100 29.24600
C  39.46000 1.32500 27.83600
C  38.00600 1.71300 27.65900
C  40.85500 1.25500 30.06200
C  40.27000 1.01000 26.66300
O  39.95100 0.99700 25.50100
C  41.66500 0.67900 26.96400
N  34.95900 2.43000 27.16000
C  35.81000 1.99700 26.24500
C  35.19100 1.90300 24.89100
C  33.68600 2.00000 25.16400
C  33.72300 2.48400 26.61700
C  35.76300 2.87900 23.86700
C  32.93900 0.62100 25.12700
C  32.99100 -0.36700 23.90800
N  33.41100 3.16000 29.50700
C  32.44800 3.42300 28.57600
C  31.25100 3.97700 29.27900
C  31.71000 4.13800 30.67000
C  32.99600 3.61900 30.73100
C  29.83700 4.33600 28.74100
C  31.26500 4.43100 31.96000
O  30.17000 4.77700 32.28800
C  32.42800 4.17300 32.88900
C  32.66000 5.39300 33.73000
O  33.44900 6.26200 33.53600
O  31.71500 5.39900 34.75100
C  31.58400 6.70400 35.40200
H  39.09000 2.32100 31.77800
H  37.66000 1.49000 25.49200
H  31.71700 3.04900 26.53600
H  35.57800 4.44700 34.02500
H  37.52900 2.28700 33.88500
H  38.51900 4.80400 32.94700
H  39.04200 3.66000 34.07100
H  37.76900 4.79400 34.60200
H  34.17800 1.97400 34.32700
H  34.21300 3.16700 35.51000
H  36.09300 0.84000 35.17300
H  34.94400 1.06400 36.37200
H  41.00600 0.17800 30.13200
H  40.76900 1.58200 31.09800
H  41.74800 1.71400 29.63600
H  41.79800 -0.10200 27.71300
H  42.21100 1.59600 27.18500
H  42.05200 0.24100 26.04400
H  35.40400 0.90700 24.50300
H  33.18200 2.81300 24.64000
H  36.74800 3.25200 24.14800
H  35.22600 3.82300 23.76500
H  35.99100 2.40900 22.91000
H  31.96000 1.06700 24.95300
H  33.10100 0.09900 26.07000
H  31.98900 -0.76500 23.74400
H  33.66700 -1.18600 24.15400
H  33.45400 0.15400 23.07100
H  29.28400 3.44500 28.44400
H  30.02200 4.94500 27.85700
H  29.21900 4.79000 29.51600
H  32.23400 3.27300 33.47300
H  31.12400 7.30100 34.61500
H  32.45500 7.10200 35.92300
H  30.86800 6.67500 36.22300
Mg -2.57300 34.16000 26.43900
C  -3.91700 32.35800 29.18600
C  -1.08600 36.20500 28.71400
C  -1.57900 35.77000 23.76400
C  -4.58900 32.21400 24.32400
N  -2.65000 34.33400 28.66000
C  -3.09900 33.41900 29.60600
C  -2.75500 33.84700 31.08500
C  -1.90600 35.16500 30.81800
C  -1.94300 35.25500 29.29200
C  -2.39100 36.45500 31.46200
C  -1.87900 32.94700 32.00400
C  -2.56000 32.47000 33.25900
H  -1.74100 32.15400 34.53800
N  -1.50600 35.70100 26.27900
C  -0.90800 36.44000 27.30100
C  0.05800 37.29600 26.68800
C  -0.00800 37.07700 25.29100
C  -1.13300 36.16300 25.03000
C  0.94400 38.13600 27.51500
C  0.94800 37.60700 24.19300
O  0.72400 37.54200 23.02900
C  2.19800 38.40500 24.55200
N  -3.29000 34.26700 24.39000
C  -2.61000 34.88500 23.48000
C  -3.08400 34.57600 22.03800
C  -3.95900 33.38000 22.27600
C  -3.98200 33.26300 23.74600
C  -3.71200 35.77000 21.19500
C  -3.53200 32.04900 21.54100
C  -2.63200 30.88600 22.19200
N  -3.92700 32.58400 26.61200
C  -4.63200 31.81700 25.70500
C  -5.32800 30.73300 26.32900
C  -5.17000 31.01400 27.65700
C  -4.26500 32.08200 27.82700
C  -6.18600 29.76400 25.65700
C  -5.48900 30.50700 28.96700
O  -6.25600 29.60100 29.29900
C  -4.64400 31.28600 29.97600
C  -5.53400 31.92000 31.05500
O  -6.21200 32.91700 31.03200
O  -5.53700 31.02300 32.16700
C  -6.50900 31.39700 33.15600
H  -0.63200 36.88400 29.43800
H  -1.15600 36.25700 22.88300
H  -5.12800 31.62600 23.57800
H  -3.63300 34.00200 31.71300
H  -0.85400 35.01500 31.05900
H  -1.72800 36.69500 32.29300
H  -3.32600 36.33200 32.00900
H  -2.33900 37.32700 30.81000
H  -0.87600 33.33900 32.17100
H  -1.63300 32.08400 31.38600
H  -2.80900 31.44200 32.99600
H  -3.45100 33.06500 33.46200
H  1.11100 39.05500 26.95100
H  1.97000 37.77000 27.48100
H  0.55500 38.34500 28.51100
H  2.73200 38.14700 25.46700
H  1.90300 39.44300 24.70500
H  2.84500 38.17800 23.70500
H  -2.19500 34.23200 21.50900
H  -5.00600 33.50300 21.99900
H  -2.89600 36.35600 20.77200
H  -4.14800 36.55200 21.81700
H  -4.37200 35.43400 20.39500
H  -2.96400 32.39300 20.67700
H  -4.46200 31.53200 21.30300
H  -1.98900 31.29100 22.97300
H  -1.91800 30.47100 21.48000
H  -3.28100 30.08500 22.54600
H  -6.46300 29.94200 24.61800
H  -7.05900 29.61900 26.29300
H  -5.62000 28.83400 25.69200
H  -3.87600 30.68300 30.46100
H  -6.07700 32.12900 33.83900
H  -6.63900 30.50600 33.77000
H  -7.48500 31.67400 32.75700

