158

Mg 0.18300 8.10000 25.65800
C  1.03700 9.79200 28.70800
C  0.13800 5.24000 27.44400
C  0.00600 6.45700 22.74100
C  1.06400 11.09400 23.92600
N  0.57000 7.53000 27.73600
C  0.74000 8.40500 28.86700
C  0.82300 7.69700 30.29800
C  0.58600 6.21000 29.86600
C  0.37300 6.31700 28.27900
C  1.73400 5.26100 30.25700
C  -0.24600 8.10100 31.37500
C  0.21800 8.13300 32.85400
H  1.30200 7.18600 33.37700
N  0.00100 6.11100 25.16300
C  0.11000 5.08800 26.01100
C  0.23300 3.83900 25.28800
C  0.11200 4.12900 23.92600
C  0.03600 5.63600 23.90900
C  0.28600 2.50700 26.03600
C  -0.06500 3.22400 22.73700
O  -0.26500 3.59600 21.57800
C  0.18900 1.75900 23.04300
N  0.51200 8.65800 23.59600
C  0.08700 7.84300 22.64000
C  0.18300 8.57800 21.23400
C  0.32200 10.08200 21.66300
C  0.70900 9.94600 23.13700
C  1.33800 8.06800 20.30900
C  -0.96400 10.90900 21.45700
C  -2.38800 10.38500 22.01300
N  0.77800 10.08500 26.14000
C  1.18000 11.15200 25.32500
C  1.41200 12.31600 26.13400
C  1.45400 11.79200 27.42900
C  1.06400 10.42000 27.38900
C  1.65600 13.65400 25.67500
C  1.74900 12.21300 28.83400
O  2.11800 13.25900 29.32800
C  1.50100 10.85800 29.70300
C  2.65500 10.54400 30.54600
O  3.50600 9.74000 30.28800
O  2.45400 11.27500 31.71800
C  3.29700 11.01800 32.86700
H  0.02900 4.24500 27.88000
H  -0.16900 5.92100 21.80600
H  1.13800 12.03900 23.38400
H  1.81400 7.97200 30.66100
H  -0.30500 5.69300 30.22300
H  2.63500 5.69800 30.69000
H  1.93700 4.65300 29.37600
H  1.41600 4.53300 31.00300
H  -1.15100 7.50300 31.27100
H  -0.47100 9.10800 31.02500
H  -0.75400 7.85200 33.25800
H  0.36000 9.15400 33.20700
H  1.06000 1.89200 25.57600
H  -0.69000 2.02500 25.97800
H  0.49700 2.63400 27.09800
H  0.09300 1.26500 22.07700
H  -0.48500 1.38100 23.81200
H  1.19200 1.90800 23.44400
H  -0.72900 8.41700 20.66100
H  1.09100 10.51300 21.02200
H  1.43400 7.01400 20.57100
H  2.24900 8.66500 20.33500
H  1.09000 8.11800 19.24800
H  -1.05600 11.01800 20.37700
H  -0.75200 11.88100 21.90300
H  -3.00900 10.25600 21.12600
H  -2.77100 11.20000 22.62700
H  -2.22600 9.45000 22.54900
H  2.17000 13.69300 24.71500
H  2.28700 14.13500 26.42300
H  0.64700 14.06100 25.72600
H  0.62300 10.97600 30.33900
H  2.79900 10.19600 33.38300
H  3.32100 11.89300 33.51600
H  4.31100 10.66800 32.67700
Mg 47.18700 16.66100 28.55100
C  45.09100 16.24700 31.27800
C  49.34700 18.39300 30.61900
C  48.74600 18.08100 25.96500
C  44.76100 15.17800 26.56500
N  47.07000 17.30700 30.70000
C  46.24800 16.88900 31.63900
C  46.74000 17.26400 33.07700
C  47.98700 18.18500 32.78200
C  48.17400 17.99600 31.28800
C  47.78200 19.67000 33.03600
C  47.10900 16.05000 33.95800
C  46.65300 16.13400 35.48100
H  46.27600 17.54500 35.98600
N  48.93100 17.82100 28.29400
C  49.71300 18.27100 29.29000
C  50.90600 18.90200 28.76700
C  50.70000 18.95400 27.38400
C  49.41800 18.30800 27.10900
C  52.11000 19.36600 29.65900
C  51.56400 19.44500 26.20500
O  51.29700 19.36000 25.06300
C  52.93800 19.95700 26.59700
N  46.89300 16.53600 26.56600
C  47.56000 17.33900 25.68500
C  46.89300 17.22700 24.27400
C  45.83600 16.10800 24.53900
C  45.82000 15.94600 25.98800
C  46.27600 18.51300 23.85300
C  46.06500 14.74300 23.82600
C  46.95400 13.71300 24.63500
N  45.35900 15.65700 28.88500
C  44.48800 15.21100 27.94900
C  43.31400 14.69700 28.58400
C  43.48300 15.02900 29.95500
C  44.68700 15.71000 30.01800
C  42.11700 14.07100 27.90500
C  42.91300 15.06800 31.29800
O  41.82700 14.71200 31.75700
C  43.97200 15.79900 32.26200
C  43.25600 16.94400 32.95400
O  42.84200 17.99100 32.47400
O  43.05600 16.59600 34.30900
C  42.24300 17.55600 35.11200
H  50.13100 18.82100 31.24700
H  49.06400 18.66100 25.09600
H  43.91300 14.75700 26.02200
H  45.99900 17.87500 33.59400
H  48.84900 17.78600 33.31500
H  46.69800 19.59800 32.94800
H  48.15000 20.27300 32.20500
H  48.14700 19.98900 34.01200
H  48.19400 15.94600 33.95900
H  46.79800 15.13400 33.45600
H  47.48200 15.72800 36.06100
H  45.79500 15.46600 35.55800
H  52.26300 20.43000 29.47900
H  53.04000 18.93500 29.28800
H  51.99900 19.28500 30.74000
H  53.52400 19.12600 26.99000
H  52.80500 20.65100 27.42700
H  53.38100 20.46500 25.74000
H  47.69500 16.99300 23.57400
H  44.85100 16.46000 24.23300
H  46.60100 19.31400 24.51700
H  45.18600 18.53500 23.88000
H  46.68500 18.73400 22.86700
H  46.51200 14.95800 22.85500
H  45.09300 14.25200 23.87600
H  47.59000 14.11100 25.42600
H  47.69700 13.35600 23.92300
H  46.33700 12.97200 25.14300
H  41.23300 14.70400 27.97300
H  41.91400 13.19100 28.51400
H  42.25200 13.77300 26.86500
H  44.15400 14.99500 32.97500
H  41.16700 17.49100 34.95100
H  42.56400 18.55500 34.81600
H  42.41700 17.34300 36.16700

