158

Mg 17.37600 -1.03900 28.41300
C  16.11200 0.97200 31.03200
C  18.89600 -2.86000 30.85400
C  18.82300 -2.74600 25.97700
C  15.62500 0.98300 26.16000
N  17.67000 -0.78100 30.71400
C  16.96200 -0.01600 31.55300
C  17.26900 -0.32200 33.04800
C  18.27600 -1.49900 32.91500
C  18.32400 -1.72900 31.34800
C  19.69400 -1.23500 33.50300
C  15.94900 -0.59100 33.87900
C  15.69600 0.16700 35.18400
H  16.75300 0.07500 36.24000
N  18.77200 -2.58100 28.40500
C  19.15600 -3.22600 29.51700
C  19.92300 -4.44900 29.13400
C  19.87000 -4.44600 27.70000
C  19.12800 -3.26700 27.29100
C  20.41000 -5.40400 30.13300
C  20.49500 -5.38500 26.67000
O  20.28500 -5.22000 25.46900
C  21.39600 -6.62200 27.11000
N  17.25600 -0.87100 26.40700
C  17.98700 -1.67400 25.58200
C  17.77600 -1.27500 24.09100
C  16.66600 -0.24300 24.19200
C  16.40400 -0.06800 25.63200
C  19.08900 -0.82900 23.39800
C  15.28000 -0.39900 23.48300
C  14.28400 -1.35600 24.11600
N  16.11600 0.61000 28.43600
C  15.52300 1.33100 27.49600
C  14.83500 2.43700 27.99900
C  14.86400 2.25400 29.44900
C  15.78100 1.18000 29.65900
C  14.10600 3.45900 27.19700
C  14.38600 2.77900 30.65200
O  13.46600 3.58400 30.88800
C  15.26900 2.03400 31.73700
C  16.14500 3.09200 32.33700
O  17.25100 3.43400 31.91300
O  15.59100 3.49500 33.59400
C  16.46900 4.42400 34.27400
H  19.29900 -3.49900 31.64200
H  19.17900 -3.15500 25.02900
H  15.12900 1.64300 25.44600
H  17.70800 0.53700 33.55600
H  17.96900 -2.39500 33.45400
H  19.75600 -1.85700 34.39500
H  19.86200 -0.20200 33.80800
H  20.47000 -1.57700 32.81900
H  16.00200 -1.58400 34.32400
H  15.03700 -0.66500 33.28700
H  14.84400 -0.40300 35.55500
H  15.36500 1.18800 34.99500
H  21.49400 -5.44100 30.02400
H  19.97300 -6.36600 29.86600
H  20.21300 -5.15700 31.17600
H  20.83000 -7.20800 27.83400
H  22.26900 -6.28700 27.67100
H  21.58800 -7.19200 26.20100
H  17.41900 -2.20900 23.65800
H  17.05700 0.72500 23.87800
H  19.16200 0.20800 23.06900
H  19.28900 -1.48500 22.55100
H  19.80200 -0.97100 24.21000
H  15.52700 -0.52300 22.42900
H  14.81400 0.58300 23.56500
H  13.58400 -0.74400 24.68500
H  14.68600 -1.96500 24.92500
H  13.75300 -1.85100 23.30300
H  13.02000 3.36400 27.22100
H  14.30700 3.39100 26.12800
H  14.28600 4.45800 27.59500
H  14.56700 1.70200 32.50200
H  16.48200 5.42300 33.83700
H  17.49200 4.05300 34.33600
H  16.14000 4.52000 35.30900
Mg 10.11900 48.30300 25.77100
C  7.80200 48.32300 28.52900
C  12.38500 49.75900 27.91200
C  12.21500 48.27300 23.19200
C  7.49200 47.37900 23.76900
N  9.96800 49.15300 27.98000
C  9.07400 48.83200 28.95700
C  9.56100 49.16900 30.35100
C  10.97900 49.85600 30.04900
C  11.12300 49.61000 28.54100
C  11.07100 51.35700 30.49000
C  9.55100 48.03900 31.41400
C  10.62300 48.07900 32.51000
H  10.41800 47.23000 33.75600
N  12.05500 48.83100 25.63900
C  12.83900 49.41100 26.62300
C  14.12900 49.50300 26.05700
C  14.16800 48.94300 24.75700
C  12.75600 48.61200 24.44900
C  15.27600 50.01700 26.83500
C  15.36000 48.67800 23.77900
O  15.27500 48.37300 22.61700
C  16.72800 48.90800 24.36600
N  9.88500 47.88100 23.65400
C  10.93100 47.91200 22.74400
C  10.49100 47.48000 21.32900
C  8.99900 47.14800 21.54300
C  8.76000 47.46200 23.11700
C  10.86000 48.67600 20.34100
C  8.49700 45.74300 21.08500
C  8.75400 44.55400 22.11400
N  7.97700 48.03400 26.00900
C  7.08000 47.60000 25.07800
C  5.83000 47.39000 25.70300
C  6.08200 47.54700 27.08300
C  7.37900 48.03500 27.19000
C  4.51000 46.98300 25.06500
C  5.52100 47.44000 28.37700
O  4.45600 46.99600 28.74800
C  6.60200 47.92000 29.38300
C  6.70300 46.78500 30.32100
O  7.16500 45.68900 30.04200
O  6.14100 47.10000 31.55300
C  6.63700 46.14200 32.53600
H  13.09900 50.15400 28.63800
H  12.95500 48.30000 22.39000
H  6.70300 47.03300 23.09800
H  8.88700 49.97300 30.64600
H  11.86600 49.40700 30.49500
H  11.76700 51.21900 31.31800
H  10.16500 51.81700 30.88300
H  11.44100 52.02600 29.71300
H  9.55200 47.10800 30.84800
H  8.61400 48.22800 31.93800
H  10.66800 49.12100 32.82700
H  11.52900 47.77600 31.98500
H  15.14500 50.51400 27.79600
H  15.73400 50.80100 26.23200
H  16.01900 49.23100 26.96800
H  16.93200 48.23800 25.20100
H  16.96000 49.96100 24.52900
H  17.45100 48.62100 23.60200
H  11.13800 46.61400 21.18800
H  8.40400 47.85000 20.95900
H  10.96100 49.64300 20.83300
H  10.11700 48.70700 19.54400
H  11.77800 48.57700 19.76200
H  9.06900 45.60800 20.16700
H  7.44500 45.88400 20.83700
H  9.33100 44.82100 22.99900
H  9.07900 43.65000 21.60000
H  7.76600 44.28000 22.48500
H  4.38600 45.90000 25.06900
H  4.44500 47.21800 24.00300
H  3.78100 47.49600 25.69300
H  6.17100 48.71100 29.99800
H  6.33800 45.11500 32.33000
H  6.13400 46.37800 33.47400
H  7.72400 46.21500 32.57300

