158

Mg 48.34800 24.42900 27.98100
C  48.99100 26.81900 30.36300
C  47.40800 22.24800 30.57500
C  47.36800 22.29500 25.63900
C  49.16900 26.81900 25.46800
N  48.38200 24.53800 30.29700
C  48.51700 25.70000 31.02200
C  48.32900 25.43100 32.51000
C  47.75800 23.92600 32.53400
C  47.85800 23.54600 31.03600
C  48.46000 22.97700 33.45200
C  47.58700 26.51300 33.26300
C  47.94900 26.75700 34.76700
H  46.95700 26.71300 35.94700
N  47.54600 22.49200 28.05900
C  47.24000 21.77800 29.23100
C  46.73900 20.48000 28.70600
C  46.66200 20.51600 27.26200
C  47.20200 21.74700 26.93300
C  46.31500 19.45500 29.71200
C  46.38800 19.39000 26.34700
O  46.63900 19.47300 25.13100
C  45.42700 18.32500 26.75900
N  48.57500 24.44800 25.74400
C  48.00900 23.43300 25.06000
C  47.97800 23.72100 23.57900
C  48.27300 25.27700 23.59000
C  48.67700 25.56800 25.00200
C  49.00000 22.82800 22.79900
C  47.07400 26.14300 23.08500
C  45.69000 25.80300 23.68300
N  49.10500 26.26500 27.87100
C  49.38700 27.15600 26.80200
C  49.90400 28.43500 27.28500
C  49.76500 28.33200 28.67500
C  49.21700 27.02800 28.96000
C  50.42100 29.63200 26.57400
C  50.01800 29.04400 29.88500
O  50.51600 30.10400 30.09900
C  49.52400 28.07200 31.08400
C  50.59900 27.84500 32.08900
O  51.27800 26.84300 32.06600
O  50.58700 28.87000 32.98200
C  51.43900 28.63700 34.11400
H  47.04100 21.76400 31.48300
H  47.23300 21.51000 24.89200
H  49.27400 27.60500 24.71700
H  49.33500 25.47700 32.92600
H  46.73800 24.16900 32.83200
H  48.81200 23.51200 34.33500
H  49.23600 22.42500 32.92200
H  47.75700 22.25200 33.86200
H  46.55400 26.18600 33.37900
H  47.51400 27.45200 32.71500
H  48.47700 27.69900 34.91200
H  48.67100 25.96300 34.95400
H  45.24100 19.32400 29.84600
H  46.58400 19.68400 30.74400
H  46.81400 18.53500 29.40900
H  44.49000 18.58200 27.25300
H  45.85200 17.62700 27.48100
H  45.20700 17.77000 25.84700
H  47.00500 23.48700 23.14700
H  49.18600 25.55900 23.06600
H  48.62200 22.28900 21.93100
H  49.41700 22.07200 23.46400
H  49.73700 23.50100 22.36000
H  46.87200 25.85100 22.05400
H  47.26900 27.21200 23.17400
H  45.09000 25.41800 22.85900
H  45.15700 26.71600 23.94700
H  45.61300 25.06400 24.48000
H  51.47800 29.71400 26.82700
H  49.88400 30.50200 26.95200
H  50.39100 29.38600 25.51200
H  48.78000 28.71900 31.54900
H  50.73700 28.11700 34.76600
H  51.73800 29.60100 34.52700
H  52.33800 28.08600 33.83600
Mg 6.22700 53.65500 41.05200
C  5.48600 50.13600 40.83300
C  9.31200 52.86100 39.77100
C  6.67000 56.91300 40.60700
C  2.84200 54.26600 41.71100
N  7.22000 51.67600 40.18100
C  6.78600 50.39900 40.25900
C  7.94800 49.50500 39.90400
C  9.25400 50.37700 39.90800
C  8.56500 51.72700 39.77800
C  10.21600 50.20700 41.14200
C  7.69500 48.75900 38.47200
C  6.68000 49.25400 37.46600
H  7.08300 49.76900 36.07800
N  7.86000 54.75900 40.46900
C  9.05800 54.20500 40.07300
C  9.90000 55.35600 39.88900
C  9.20100 56.61000 40.14300
C  7.84200 56.18700 40.38300
C  11.40600 55.13400 39.56600
C  9.89600 57.95400 40.25100
O  11.13100 58.09900 40.09900
C  9.11900 59.16900 40.55500
N  4.95700 55.37600 41.06700
C  5.40000 56.57100 41.03600
C  4.39300 57.70500 41.37800
C  3.14300 56.78600 41.60500
C  3.69300 55.35100 41.52600
C  4.96700 58.69100 42.51200
C  1.85400 57.18300 40.77000
C  1.67000 56.50400 39.37200
N  4.51900 52.48900 41.32400
C  3.22200 52.88900 41.59300
C  2.44800 51.67700 41.91400
C  3.33800 50.60400 41.66000
C  4.52400 51.13300 41.20000
C  0.97800 51.58200 42.41300
C  3.44300 49.13000 41.76800
O  2.66300 48.32500 42.24100
C  4.82400 48.74600 41.14700
C  4.59300 47.97000 39.92200
O  3.93700 48.28700 38.95100
O  5.28100 46.83400 40.09100
C  5.06900 45.72200 39.17600
H  10.29000 52.71500 39.30600
H  6.75300 57.97200 40.35400
H  1.79800 54.43900 41.98300
H  8.10200 48.68400 40.60400
H  9.78600 50.27300 38.96200
H  10.26300 50.97300 41.91600
H  11.22800 50.07200 40.76200
H  9.99000 49.31600 41.72800
H  7.41100 47.73100 38.69700
H  8.65300 48.77900 37.95200
H  6.14000 50.03800 37.99700
H  6.02400 48.41300 37.24100
H  11.76400 55.48300 38.59800
H  11.75400 54.11900 39.76100
H  12.00200 55.71900 40.26600
H  9.84300 59.98300 40.60400
H  8.57300 59.12700 41.49700
H  8.52600 59.35200 39.65900
H  4.19700 58.35700 40.52700
H  2.89700 56.80000 42.66600
H  4.21500 58.80300 43.29300
H  5.12400 59.66900 42.05500
H  5.87700 58.30200 42.96800
H  1.73800 58.25800 40.63200
H  1.10200 57.01100 41.54000
H  2.55700 55.97600 39.02100
H  1.37900 57.17900 38.56700
H  0.80500 55.84600 39.44200
H  0.79200 52.40600 43.10100
H  0.74900 50.61400 42.86000
H  0.37500 51.81100 41.53500
H  5.34200 48.12200 41.87600
H  5.58100 46.02100 38.26100
H  4.00200 45.54000 39.04400
H  5.66700 44.89500 39.55700

