158

Mg 25.74900 1.04700 28.80000
C  27.64500 0.63900 31.57000
C  23.04300 1.22200 30.83100
C  23.83900 1.12400 26.05800
C  28.61200 0.02300 26.85200
N  25.40900 0.95000 30.97300
C  26.32000 0.82300 31.96600
C  25.69400 0.80500 33.36700
C  24.11800 1.00400 33.08200
C  24.15100 1.14200 31.54000
C  23.19700 -0.11800 33.66400
C  26.27600 1.96300 34.26600
C  25.56300 2.01000 35.61300
H  26.42700 1.77900 36.83100
N  23.74800 1.10100 28.50700
C  22.77300 1.27100 29.46300
C  21.48400 1.44300 28.81100
C  21.69200 1.41600 27.38900
C  23.17300 1.27500 27.27200
C  20.18400 1.44200 29.58100
C  20.68300 1.56200 26.24300
O  20.98200 1.42200 25.05100
C  19.22800 1.93600 26.54500
N  26.13500 0.45100 26.79700
C  25.23700 0.81100 25.88300
C  25.88000 0.94100 24.50600
C  27.30700 0.55700 24.73300
C  27.38600 0.42800 26.20900
C  25.14800 0.02300 23.36700
C  28.39300 1.57200 24.11000
C  29.14300 1.16000 22.77500
N  27.74100 0.51900 29.05900
C  28.73800 0.09200 28.21100
C  29.92100 -0.19400 29.00100
C  29.50200 0.04200 30.34500
C  28.19300 0.46000 30.31700
C  31.27500 -0.58700 28.49200
C  29.99700 0.01000 31.69800
O  31.09900 -0.30900 32.12000
C  28.78300 0.33800 32.63700
C  28.45100 -0.90900 33.41200
O  27.93500 -1.97700 33.01600
O  28.94600 -0.69700 34.73000
C  28.51500 -1.57000 35.79500
H  22.16800 1.40500 31.45700
H  23.29800 1.10500 25.10900
H  29.54600 -0.27100 26.36800
H  25.92000 -0.21100 33.69200
H  23.90600 1.94200 33.59600
H  22.94100 -0.84800 32.89600
H  22.31500 0.39500 34.05000
H  23.71100 -0.66500 34.45300
H  26.06700 2.85000 33.66800
H  27.35300 1.93100 34.43000
H  24.84000 1.19400 35.65100
H  24.98000 2.92700 35.69300
H  19.38400 1.10400 28.92300
H  19.90100 2.46600 29.82500
H  20.27500 0.93400 30.54200
H  18.78100 1.04300 26.98200
H  18.68900 2.18900 25.63200
H  19.21600 2.76800 27.25000
H  25.77400 2.00700 24.30600
H  27.53600 -0.40900 24.28500
H  24.38100 -0.56200 23.87400
H  25.84000 -0.56200 22.76000
H  24.66200 0.65700 22.62600
H  29.21800 1.62700 24.82100
H  27.91000 2.52900 23.91000
H  28.48300 0.34800 22.47000
H  30.16500 0.84100 22.98100
H  29.03500 1.92300 22.00400
H  32.02900 -0.30400 29.22500
H  31.49200 -0.08100 27.55200
H  31.33700 -1.66400 28.33500
H  28.93000 1.12600 33.37600
H  28.56700 -2.59700 35.43300
H  27.46400 -1.35100 35.98200
H  29.09400 -1.45500 36.71200
Mg -5.27700 25.79700 26.41700
C  -3.94000 27.48200 29.26000
C  -7.30200 23.93100 28.46700
C  -5.95400 24.10300 23.70000
C  -2.96700 27.68000 24.34900
N  -5.59800 25.67300 28.62600
C  -4.96300 26.49600 29.61700
C  -5.54700 26.14900 31.05000
C  -6.54800 24.97700 30.74100
C  -6.47700 24.86900 29.22700
C  -6.31700 23.62300 31.50100
C  -6.12900 27.42800 31.66700
C  -5.72400 27.77000 33.08000
H  -5.55800 26.59700 33.94900
N  -6.46800 24.28400 26.11900
C  -7.22200 23.64800 27.08300
C  -7.95100 22.59300 26.46100
C  -7.51200 22.54200 25.11100
C  -6.57400 23.65600 24.90200
C  -8.80600 21.63500 27.26400
C  -7.73900 21.56000 23.99100
O  -7.18800 21.58300 22.92600
C  -8.64800 20.41300 24.18900
N  -4.76100 26.17000 24.24500
C  -5.20200 25.20700 23.33100
C  -4.59900 25.47300 21.89100
C  -3.74300 26.73300 22.17500
C  -3.85200 26.90700 23.67000
C  -3.64000 24.30300 21.38200
C  -4.31200 28.12800 21.60100
C  -3.51500 28.57300 20.43300
N  -3.80900 27.27700 26.69900
C  -3.01500 27.90800 25.76000
C  -2.16100 28.82900 26.46200
C  -2.47300 28.77300 27.89200
C  -3.46500 27.72900 27.96200
C  -1.17300 29.69500 25.83900
C  -2.18400 29.18800 29.18100
O  -1.39500 30.07400 29.53100
C  -3.06800 28.39200 30.12200
C  -2.14100 27.61500 30.98700
O  -1.33700 26.76000 30.63700
O  -2.39300 27.84200 32.32900
C  -1.56000 27.32300 33.38900
H  -7.91900 23.32800 29.13500
H  -6.25200 23.52000 22.82600
H  -2.14300 28.16700 23.82300
H  -4.71000 25.65600 31.54500
H  -7.55200 25.34600 30.94800
H  -6.15400 22.90400 30.69800
H  -7.17200 23.33100 32.11100
H  -5.55700 23.61800 32.28300
H  -7.21800 27.42000 31.69100
H  -5.87900 28.26200 31.01200
H  -6.51500 28.45800 33.38000
H  -4.88600 28.46500 33.13500
H  -8.32800 21.11100 28.09200
H  -9.30700 20.88900 26.64700
H  -9.54400 22.26500 27.75900
H  -8.53200 19.91300 23.22700
H  -9.66500 20.78400 24.31700
H  -8.32500 19.69200 24.94000
H  -5.38400 25.68300 21.16500
H  -2.71000 26.57800 21.86500
H  -2.71400 24.57800 20.87600
H  -4.31300 23.78300 20.70100
H  -3.40500 23.65200 22.22400
H  -4.17000 28.86100 22.39500
H  -5.35300 28.09000 21.28100
H  -4.01400 28.35300 19.49000
H  -2.54400 28.07800 20.41800
H  -3.50600 29.64900 20.60200
H  -0.51700 29.11700 25.18900
H  -0.62300 30.23400 26.61000
H  -1.74000 30.40800 25.24100
H  -3.58500 29.11000 30.75900
H  -0.54500 27.38900 32.99500
H  -1.84600 26.27700 33.49700
H  -1.59100 27.91900 34.30200

