158

Mg 46.44100 17.65300 28.31300
C  44.96300 16.92500 31.49300
C  48.90400 19.36800 29.89100
C  47.69400 18.20700 25.38900
C  43.81900 15.78000 26.83600
N  46.79200 18.09500 30.36300
C  46.08500 17.69600 31.45600
C  46.82800 18.04400 32.76400
C  47.83300 19.12100 32.25800
C  47.86900 18.85400 30.68100
C  47.36000 20.53600 32.47300
C  47.42100 16.82400 33.46700
C  47.56100 16.86400 35.01800
H  47.26200 18.14700 35.79400
N  48.11200 18.64300 27.71700
C  49.08400 19.26500 28.51700
C  50.17100 19.73500 27.65700
C  49.79000 19.48100 26.33300
C  48.49300 18.71700 26.44400
C  51.40600 20.30700 28.19300
C  50.50200 19.88700 24.99200
O  49.99100 19.73700 23.92200
C  51.86600 20.63000 25.04200
N  45.89800 16.92500 26.44700
C  46.52000 17.50600 25.37300
C  45.80200 17.24300 24.03500
C  44.44300 16.49800 24.46200
C  44.72200 16.35800 25.99500
C  45.70900 18.54200 23.24100
C  44.14500 15.09700 23.83500
C  44.20700 15.10900 22.26600
N  44.71300 16.59600 29.00000
C  43.75000 15.90200 28.21700
C  42.73200 15.34300 29.11800
C  43.21100 15.77100 30.44300
C  44.39500 16.49500 30.28800
C  41.65100 14.33900 28.72000
C  42.92600 15.64800 31.87000
O  42.02700 15.05000 32.48800
C  44.06600 16.40800 32.60400
C  43.48300 17.47000 33.38900
O  43.13200 18.52900 32.86000
O  43.45300 17.15700 34.66000
C  42.95700 18.14900 35.60100
H  49.52400 20.08500 30.43200
H  48.06500 18.44100 24.38900
H  43.01600 15.33300 26.24600
H  46.14500 18.59700 33.40900
H  48.82000 19.02200 32.71100
H  48.19500 21.19700 32.24300
H  47.04600 20.52700 33.51700
H  46.51500 20.73000 31.81200
H  48.41400 16.58800 33.08500
H  46.75800 15.99400 33.22300
H  48.59000 16.55200 35.19900
H  46.97500 16.02300 35.39000
H  51.27500 20.71800 29.19400
H  51.80000 21.09400 27.55000
H  52.19800 19.57300 28.34100
H  51.78900 21.62900 25.47100
H  52.16400 20.66700 23.99400
H  52.63700 20.06800 25.56900
H  46.48200 16.56100 23.52500
H  43.62600 17.21900 24.42900
H  45.88400 19.33600 23.96700
H  44.71600 18.72200 22.83000
H  46.37300 18.53200 22.37600
H  43.11400 14.87000 24.10900
H  44.86500 14.35700 24.18400
H  44.54800 16.12100 22.05000
H  43.29600 14.78500 21.76300
H  45.06100 14.55800 21.87300
H  40.72300 14.87900 28.53200
H  41.59900 13.71400 29.61200
H  41.94300 13.71300 27.87700
H  44.67300 15.70900 33.17900
H  42.07200 17.68900 36.04100
H  42.75700 19.16200 35.25100
H  43.67900 18.39400 36.38000
Mg 48.76600 35.85300 28.22400
C  46.59600 34.33900 30.30000
C  48.77300 38.69800 30.26500
C  50.61800 37.54200 25.89100
C  48.48400 33.15400 26.01100
N  47.83800 36.37800 30.02100
C  47.19800 35.50500 30.79800
C  47.13800 35.91000 32.27400
C  47.24900 37.47900 32.12000
C  47.97700 37.57700 30.68700
C  46.04200 38.38500 32.17100
C  48.16300 35.15200 33.11800
C  49.49000 35.85200 33.63600
H  49.79200 35.86400 35.16200
N  49.64000 37.87700 28.12800
C  49.44900 38.89400 29.02800
C  50.22300 40.07900 28.63900
C  50.81600 39.72100 27.39500
C  50.39300 38.32200 27.12600
C  50.21500 41.33700 29.41200
C  51.65200 40.60200 26.37100
O  52.07200 40.19000 25.34200
C  51.82900 42.03800 26.71400
N  49.46000 35.44300 26.24100
C  50.20200 36.30100 25.51000
C  50.55200 35.69600 24.07500
C  49.97000 34.20100 24.17200
C  49.26400 34.27000 25.55300
C  50.28300 36.61600 22.81600
C  50.96500 32.97400 23.92900
C  50.52400 31.80500 23.12400
N  47.70900 34.13200 28.10500
C  47.71200 33.10800 27.18300
C  46.79400 32.03500 27.60000
C  46.25800 32.52100 28.78700
C  46.86500 33.78100 29.02400
C  46.46500 30.66200 26.98300
C  45.32800 32.24000 29.91000
O  44.56600 31.30600 30.12200
C  45.59000 33.43700 30.95500
C  45.80100 32.82500 32.31100
O  46.66400 31.94000 32.50800
O  44.87100 33.27300 33.27200
C  44.94200 32.74100 34.60000
H  48.87700 39.47300 31.02700
H  51.25400 37.96400 25.11000
H  48.48600 32.26200 25.38000
H  46.20500 35.55500 32.71200
H  47.91100 37.96500 32.83700
H  45.93800 38.72200 33.20300
H  45.19300 37.75300 31.91300
H  46.13500 39.23200 31.49100
H  48.51700 34.26100 32.59900
H  47.57100 34.88400 33.99400
H  49.68100 36.86400 33.27900
H  50.22300 35.14200 33.25300
H  51.11500 41.50600 30.00200
H  49.44300 41.21500 30.17200
H  50.03000 42.22300 28.80400
H  52.40100 42.58500 25.96400
H  52.38000 42.09900 27.65200
H  50.85700 42.47500 26.94500
H  51.63000 35.55100 24.14100
H  49.10100 34.00200 23.54400
H  49.77000 37.51800 23.15000
H  49.65900 36.10400 22.08300
H  51.25600 36.95900 22.46600
H  51.08700 32.53300 24.91800
H  51.89900 33.39600 23.55600
H  49.49600 31.98900 22.81000
H  50.56000 30.90200 23.73400
H  51.25600 31.86900 22.32000
H  47.33800 30.34500 26.41300
H  45.52500 30.69800 26.43400
H  46.42900 29.95300 27.81000
H  44.61000 33.90700 31.03500
H  45.92100 33.05100 34.96700
H  45.11800 31.66900 34.69400
H  44.02400 33.04200 35.10400

