158

Mg 24.34000 -5.47600 46.00700
C  26.59000 -3.17400 44.41300
C  21.96400 -4.41900 43.67800
C  22.24800 -7.82000 47.02400
C  26.97100 -6.88000 47.72100
N  24.38600 -4.12400 44.08300
C  25.33500 -3.16900 43.84700
C  24.85700 -2.18700 42.76600
C  23.30700 -2.34500 42.89600
C  23.18600 -3.71700 43.65200
C  22.58600 -1.13200 43.60800
C  25.49100 -2.44600 41.32800
C  26.10300 -1.29300 40.50700
H  25.78200 -1.39200 38.99900
N  22.44400 -6.13400 45.37900
C  21.65800 -5.58600 44.43900
C  20.39000 -6.36700 44.30700
C  20.35900 -7.28700 45.30800
C  21.73200 -7.17000 45.88700
C  19.38600 -5.88600 43.34100
C  19.18400 -8.25400 45.69700
O  18.15300 -8.24900 45.02300
C  19.21300 -9.05800 46.91800
N  24.52400 -7.15700 47.16500
C  23.50500 -7.94000 47.58800
C  24.03400 -9.07100 48.49000
C  25.47000 -8.66400 48.81800
C  25.69700 -7.51800 47.83900
C  23.22200 -9.47300 49.77000
C  26.53800 -9.84000 48.82900
C  27.35700 -9.84800 50.14000
N  26.32700 -5.13600 46.10200
C  27.27900 -5.74300 46.89500
C  28.57600 -5.04100 46.75700
C  28.29900 -3.97400 45.78600
C  26.97800 -4.15400 45.41600
C  29.78300 -5.43000 47.46000
C  28.88700 -2.76600 45.15600
O  29.99900 -2.24200 45.31400
C  27.76500 -2.22500 44.08100
C  27.45400 -0.82700 44.36900
O  26.68800 -0.32000 45.16200
O  28.28700 -0.03700 43.56100
C  28.29300 1.36100 43.92400
H  21.12600 -3.95400 43.15400
H  21.60700 -8.53500 47.54400
H  27.74900 -7.42000 48.26500
H  25.18100 -1.20800 43.11700
H  22.81100 -2.51200 41.94000
H  23.32000 -0.33200 43.70600
H  22.23300 -1.49500 44.57300
H  21.73800 -0.71400 43.06500
H  24.75900 -2.96700 40.71100
H  26.35100 -3.08700 41.51900
H  27.18900 -1.34200 40.42400
H  25.76700 -0.33600 40.90700
H  18.68400 -5.21100 43.83100
H  18.83400 -6.77100 43.02600
H  19.75200 -5.48000 42.39900
H  18.27200 -9.56700 47.12700
H  19.39600 -8.36900 47.74200
H  20.04000 -9.75800 46.79500
H  24.09000 -9.91200 47.79900
H  25.38900 -8.24400 49.82000
H  22.35600 -8.81100 49.77700
H  23.83000 -9.49600 50.67400
H  22.73800 -10.41500 49.51100
H  27.23500 -9.81200 47.99100
H  25.98400 -10.77600 48.89000
H  28.43200 -9.81900 49.96300
H  27.12000 -10.62100 50.87100
H  27.27300 -8.85400 50.57900
H  29.57000 -5.44800 48.52900
H  30.53400 -4.71500 47.12500
H  30.02700 -6.47400 47.26100
H  28.15300 -2.35800 43.07100
H  28.30000 1.56500 44.99500
H  27.42100 1.91200 43.57300
H  29.20200 1.81200 43.52600
Mg 48.43200 34.76800 26.42600
C  46.53400 33.32100 28.92500
C  48.86100 37.59200 28.23400
C  49.28200 36.45500 23.57000
C  47.49000 31.96100 24.21800
N  47.67800 35.39100 28.24600
C  47.08600 34.60400 29.18300
C  47.27300 35.27100 30.52300
C  47.44000 36.76600 30.18700
C  48.07600 36.61500 28.75500
C  46.15900 37.62500 30.18600
C  48.55500 34.68600 31.28300
C  48.44900 34.44500 32.78600
H  47.49000 35.26300 33.66700
N  49.16000 36.65700 25.97700
C  49.34100 37.65700 26.90300
C  50.11500 38.72200 26.30000
C  50.15600 38.45000 24.89800
C  49.55000 37.13100 24.75400
C  50.70600 39.84200 27.20400
C  50.92100 39.16700 23.78800
O  50.85600 38.82900 22.60300
C  51.66700 40.38500 24.11800
N  48.48900 34.24600 24.23700
C  48.76700 35.21300 23.28900
C  48.68100 34.60600 21.85700
C  48.34700 33.10300 22.20800
C  48.13500 33.07400 23.70300
C  47.68600 35.38200 20.90000
C  49.49100 32.23100 21.69900
C  49.29100 31.83300 20.28200
N  47.29400 32.89400 26.54400
C  46.97800 31.93400 25.62000
C  46.17600 30.90300 26.34800
C  46.01700 31.41100 27.63600
C  46.62000 32.62300 27.69400
C  45.65000 29.67400 25.78300
C  45.43800 31.22300 28.94200
O  44.76400 30.26700 29.33700
C  45.60400 32.46000 29.82600
C  46.15300 32.04300 31.12300
O  47.24700 31.63200 31.38500
O  45.20800 32.11700 32.14400
C  45.58600 31.53200 33.49100
H  48.94100 38.51200 28.81600
H  49.72900 36.96900 22.71600
H  47.28300 31.20900 23.45500
H  46.47900 35.17200 31.26400
H  48.09000 37.26300 30.90700
H  45.91300 37.97100 29.18200
H  46.37200 38.53400 30.74800
H  45.36300 37.07100 30.68500
H  49.42700 35.31000 31.08500
H  48.71400 33.70300 30.83900
H  49.45300 34.55900 33.19400
H  48.10900 33.42000 32.93400
H  51.78400 39.93600 27.07500
H  50.51900 39.60000 28.25000
H  50.29500 40.78800 26.85300
H  50.97000 41.22100 24.18200
H  52.26300 40.64400 23.24300
H  52.41900 40.23400 24.89200
H  49.59700 34.57000 21.26800
H  47.37400 32.86100 21.77900
H  46.78500 34.81400 20.66900
H  48.26000 35.56200 19.99100
H  47.28700 36.24100 21.43900
H  49.67600 31.40100 22.38100
H  50.45700 32.73000 21.77300
H  49.89300 32.49300 19.65800
H  48.25000 31.88400 19.96200
H  49.68100 30.82300 20.16200
H  46.43600 29.19600 25.19700
H  44.80100 29.77300 25.10700
H  45.29600 29.10600 26.64400
H  44.66700 32.95600 30.07900
H  46.64900 31.37800 33.67800
H  44.95900 30.67900 33.75000
H  45.35800 32.21600 34.30800

