158

Mg -1.54100 34.59900 25.88700
C  -3.17500 32.61800 28.44800
C  -0.18400 36.52000 28.26900
C  -0.21500 36.20800 23.40500
C  -3.49500 32.77900 23.47200
N  -1.57900 34.58500 28.13100
C  -2.34500 33.72900 28.91000
C  -2.12200 34.04300 30.42200
C  -1.36600 35.38600 30.34600
C  -0.98400 35.53700 28.89800
C  -2.18000 36.55300 30.77600
C  -1.28100 32.92600 31.19400
C  -1.98100 32.13100 32.29300
H  -1.23100 32.14000 33.64000
N  -0.26900 36.07800 25.81100
C  0.18200 36.79500 26.89500
C  1.07300 37.79700 26.42400
C  1.21800 37.61800 25.02100
C  0.18900 36.63700 24.68500
C  1.83700 38.69900 27.38200
C  2.21700 38.11700 23.99200
O  2.21600 37.93300 22.73400
C  3.21200 39.01200 24.56000
N  -1.88900 34.60600 23.79100
C  -1.21500 35.42200 22.96600
C  -1.63100 35.33900 21.52800
C  -2.49000 34.07500 21.54700
C  -2.67100 33.78800 23.05000
C  -2.42900 36.60400 21.03800
C  -1.87400 32.86600 20.83700
C  -0.53900 32.46200 21.40200
N  -3.06600 33.08900 25.92400
C  -3.79300 32.46500 24.83800
C  -4.58800 31.41800 25.39300
C  -4.33000 31.38900 26.77300
C  -3.46200 32.44500 27.02200
C  -5.17600 30.33200 24.61300
C  -4.62800 30.71800 28.07200
O  -5.34000 29.76700 28.21900
C  -3.86100 31.43500 29.17600
C  -4.90700 31.73500 30.21700
O  -5.47800 32.77500 30.25300
O  -4.92400 30.80300 31.18300
C  -5.54400 30.99000 32.49400
H  0.27700 37.13600 29.04400
H  -0.15600 36.91600 22.57600
H  -4.09400 32.26900 22.71500
H  -3.14400 34.16500 30.78000
H  -0.41200 35.39600 30.87200
H  -3.04000 36.61000 30.10900
H  -1.57000 37.45200 30.68800
H  -2.47400 36.32900 31.80100
H  -0.37400 33.36900 31.60400
H  -0.99900 32.23600 30.39800
H  -2.14100 31.12200 31.91300
H  -2.92000 32.62000 32.54900
H  2.92400 38.64800 27.32300
H  1.59600 38.67200 28.44400
H  1.77400 39.76600 27.17200
H  3.68100 38.49000 25.39500
H  2.69900 39.91000 24.90300
H  4.06700 39.19700 23.91000
H  -0.75000 35.31200 20.88600
H  -3.47200 34.23000 21.09900
H  -1.75500 37.42100 20.78000
H  -3.12500 36.97300 21.79100
H  -2.95500 36.33600 20.12100
H  -1.68200 33.17500 19.80900
H  -2.53400 32.00700 20.95400
H  0.18000 32.37700 20.58700
H  -0.64000 31.47500 21.85400
H  -0.15800 33.16300 22.14400
H  -4.66500 30.03700 23.69600
H  -6.16000 30.61800 24.24000
H  -5.45500 29.49300 25.25100
H  -3.04800 30.89000 29.65700
H  -4.90200 31.70700 33.00600
H  -5.72400 30.06100 33.03500
H  -6.53800 31.43500 32.53000
Mg -5.27500 25.32600 25.39700
C  -3.67000 26.83300 28.32100
C  -6.96300 23.37000 27.63500
C  -6.72500 23.81400 22.82800
C  -3.24700 27.20800 23.38500
N  -5.14100 25.02200 27.61500
C  -4.51600 25.81900 28.64300
C  -5.06100 25.44700 30.07800
C  -5.91300 24.17100 29.75800
C  -6.04700 24.25700 28.23400
C  -5.34500 22.72600 30.27900
C  -5.85500 26.68900 30.72000
C  -5.68600 27.01600 32.23600
H  -5.36600 25.77000 33.12500
N  -6.65900 23.74700 25.21300
C  -7.27800 23.15900 26.29800
C  -8.14300 22.16700 25.71300
C  -8.00800 22.19600 24.30300
C  -7.11900 23.33100 24.03500
C  -8.93600 21.23700 26.63200
C  -8.71600 21.24100 23.21100
O  -8.59100 21.44300 22.04300
C  -9.59400 20.24500 23.66900
N  -4.93000 25.38900 23.45000
C  -5.81300 24.77200 22.54000
C  -5.46100 25.26000 21.11300
C  -4.52000 26.41500 21.33400
C  -4.09500 26.28100 22.78600
C  -4.81700 24.14100 20.21000
C  -4.86000 27.76200 20.72700
C  -4.45400 27.86600 19.20700
N  -3.69200 26.75200 25.72900
C  -3.02900 27.45900 24.80800
C  -2.21700 28.42800 25.55400
C  -2.41600 28.20300 26.90800
C  -3.36000 27.19400 26.97800
C  -1.30800 29.50600 24.96800
C  -1.98300 28.62800 28.25100
O  -1.05900 29.35600 28.71100
C  -2.83100 27.81600 29.10900
C  -1.96800 27.11700 30.10300
O  -1.02900 26.39300 29.82400
O  -2.25300 27.53100 31.34700
C  -1.51800 26.87600 32.43800
H  -7.48700 22.85200 28.44200
H  -7.22200 23.47500 21.91600
H  -2.70700 27.95300 22.79800
H  -4.18800 25.26100 30.70300
H  -6.92200 24.24700 30.16400
H  -5.48700 21.93600 29.54200
H  -5.95200 22.40200 31.12400
H  -4.31500 22.86600 30.60700
H  -6.90900 26.65500 30.44300
H  -5.38900 27.59000 30.32300
H  -6.62300 27.47000 32.55500
H  -4.85800 27.70900 32.38300
H  -8.60200 21.30100 27.66800
H  -9.08700 20.20300 26.32100
H  -9.90100 21.73600 26.72100
H  -8.96300 19.54400 24.21600
H  -10.13000 19.81500 22.82300
H  -10.28400 20.78000 24.32100
H  -6.38000 25.51800 20.58600
H  -3.58900 26.18400 20.81500
H  -5.19700 23.15100 20.46400
H  -3.75100 24.17800 20.43000
H  -4.97000 24.36400 19.15400
H  -4.52500 28.57600 21.37100
H  -5.94700 27.79100 20.79800
H  -4.42800 26.84700 18.82000
H  -3.48300 28.35700 19.26900
H  -5.11000 28.52800 18.64200
H  -1.89800 30.08900 24.26000
H  -0.45000 29.07700 24.45100
H  -1.00200 30.16600 25.78000
H  -3.51200 28.39100 29.73700
H  -2.01800 27.05500 33.39000
H  -0.54200 27.35400 32.52800
H  -1.47100 25.80300 32.25400

