158

Mg -3.19500 34.44500 26.81500
C  -4.95800 32.92200 29.44000
C  -1.93500 36.64500 29.03400
C  -1.47900 35.63700 24.33400
C  -4.85200 32.23900 24.49400
N  -3.41500 34.68200 29.04800
C  -4.13800 33.96000 29.92800
C  -4.04800 34.54400 31.35500
C  -3.27400 35.86500 31.05700
C  -2.83700 35.74700 29.65000
C  -4.13300 37.22300 31.22900
C  -3.53900 33.53200 32.43400
C  -4.25500 33.48500 33.80600
H  -3.52300 33.08200 35.08300
N  -1.95200 35.98600 26.64800
C  -1.54700 36.78400 27.64300
C  -0.64600 37.79800 27.08900
C  -0.49600 37.53600 25.72900
C  -1.35800 36.38400 25.48700
C  -0.09400 38.95000 27.86500
C  0.38000 38.25900 24.67500
O  0.29400 37.92700 23.50100
C  1.31900 39.33000 25.03900
N  -3.42200 34.19400 24.67300
C  -2.39800 34.69700 23.92900
C  -2.31100 34.05000 22.57500
C  -3.27300 32.84900 22.68500
C  -3.99100 33.20700 23.99000
C  -2.79500 35.06300 21.38900
C  -2.55000 31.47000 22.56500
C  -3.31900 30.41100 21.67800
N  -4.59600 32.93100 26.94200
C  -5.16200 32.12500 25.87700
C  -5.93300 31.04700 26.46000
C  -5.92000 31.37500 27.88000
C  -5.09200 32.52200 28.09200
C  -6.54400 29.79900 25.77100
C  -6.43900 30.98700 29.20000
O  -7.09400 30.04600 29.57000
C  -5.83100 31.96200 30.17800
C  -6.93600 32.65000 30.90400
O  -7.37600 33.74900 30.63600
O  -7.33200 31.96500 31.99700
C  -8.34100 32.54300 32.90700
H  -1.57000 37.34500 29.78900
H  -0.73800 35.88200 23.56900
H  -5.14900 31.47200 23.77600
H  -5.02400 34.94300 31.63100
H  -2.40800 35.80000 31.71600
H  -3.48400 38.01300 31.60700
H  -4.99900 36.98000 31.84600
H  -4.61300 37.61500 30.33200
H  -2.48300 33.71400 32.63500
H  -3.54900 32.50600 32.06600
H  -5.10800 32.84300 33.58600
H  -4.68300 34.48400 33.88200
H  -0.18000 38.85200 28.94800
H  -0.71300 39.81100 27.61200
H  0.97200 39.12900 27.72500
H  1.91800 39.55200 24.15600
H  1.87700 38.85800 25.84800
H  0.88100 40.24600 25.43600
H  -1.27400 33.76900 22.39200
H  -4.03700 32.93500 21.91200
H  -3.56500 34.69400 20.71200
H  -1.80900 35.12300 20.92800
H  -3.17300 36.02100 21.74700
H  -2.42200 31.06200 23.56700
H  -1.58100 31.59900 22.08300
H  -2.54400 29.92200 21.08600
H  -4.13500 30.81100 21.07700
H  -3.68900 29.57700 22.27400
H  -6.32600 29.93100 24.71100
H  -7.61500 29.97200 25.87600
H  -6.18100 28.87000 26.21100
H  -5.21700 31.42800 30.90400
H  -8.98400 33.29300 32.44600
H  -7.79700 32.93200 33.76700
H  -8.93200 31.69000 33.23900
Mg -12.55500 15.90800 41.79500
C  -9.30200 14.52100 41.56300
C  -11.20100 18.85400 40.45900
C  -15.70000 16.99500 41.46300
C  -13.78700 12.68200 42.63500
N  -10.53600 16.48200 40.89000
C  -9.35500 15.79500 40.99700
C  -8.23800 16.58400 40.30500
C  -8.71600 18.02500 40.23600
C  -10.25000 17.81800 40.61400
C  -8.01800 18.98500 41.26800
C  -7.83300 16.06600 38.95700
C  -6.47000 15.38000 38.69900
H  -5.62000 15.94800 37.57300
N  -13.33300 17.66400 41.08400
C  -12.62300 18.76800 40.58500
C  -13.58100 19.82400 40.23100
C  -14.87000 19.34600 40.66900
C  -14.68300 17.95200 41.11100
C  -13.10200 21.10000 39.66200
C  -16.07500 20.27400 40.68600
O  -15.97800 21.45500 40.35600
C  -17.38400 19.88600 41.18100
N  -14.47100 15.02500 42.01800
C  -15.60000 15.63600 41.84700
C  -16.81500 14.73400 42.05400
C  -16.18700 13.37300 42.37200
C  -14.73100 13.69400 42.22300
C  -17.91000 15.24700 43.05300
C  -16.53200 12.14600 41.39400
C  -18.05600 11.66000 41.75300
N  -11.71800 13.99200 42.21100
C  -12.34200 12.78500 42.59300
C  -11.28000 11.72100 42.76500
C  -10.14900 12.36000 42.40500
C  -10.41200 13.72700 42.06100
C  -11.37700 10.27900 43.15200
C  -8.69500 12.16200 42.18800
O  -8.02300 11.15700 42.33800
C  -8.14600 13.54500 41.61300
C  -7.21600 13.99500 42.62100
O  -7.45900 14.49100 43.68200
O  -5.93300 13.79600 42.12100
C  -4.81000 14.31300 42.85500
H  -10.84000 19.84700 40.18300
H  -16.71600 17.32700 41.23900
H  -14.13900 11.68200 42.89900
H  -7.39400 16.53500 40.99200
H  -8.66800 18.55700 39.28600
H  -7.16500 18.40900 41.62800
H  -8.79200 19.12600 42.02200
H  -7.76700 20.01200 41.00500
H  -8.01400 16.83800 38.20900
H  -8.60700 15.33200 38.73400
H  -6.63100 14.31000 38.82300
H  -5.88000 15.57900 39.59400
H  -12.84900 21.80700 40.45300
H  -13.77700 21.56500 38.94300
H  -12.17300 20.99800 39.10200
H  -17.72800 19.05000 40.57300
H  -18.02500 20.76500 41.24700
H  -17.19200 19.55300 42.20100
H  -17.36300 14.66900 41.11400
H  -16.49000 13.07400 43.37500
H  -17.40700 16.10300 43.50200
H  -17.94000 14.43700 43.78200
H  -18.89500 15.40900 42.61400
H  -15.84200 11.33800 41.63700
H  -16.39300 12.26000 40.31900
H  -17.88000 10.64700 42.11400
H  -18.71900 11.70000 40.89000
H  -18.53500 12.24800 42.53600
H  -10.60200 9.79400 42.55900
H  -12.34700 9.79600 43.03100
H  -11.05700 10.27200 44.19400
H  -7.75200 13.27100 40.63400
H  -4.05300 13.65000 42.43700
H  -4.66600 14.13500 43.92100
H  -4.61200 15.36400 42.64000

