158

Mg 1.58900 7.61600 25.43800
C  1.68200 9.21200 28.35300
C  1.53400 4.50600 27.10300
C  1.30300 5.83000 22.41800
C  2.34800 10.33300 23.63400
N  1.52700 6.91700 27.58500
C  1.54300 7.83500 28.61900
C  1.62500 7.04800 29.97600
C  1.79500 5.56400 29.49500
C  1.59600 5.63200 27.97000
C  3.17500 4.92400 29.79800
C  0.44400 7.32200 30.86200
C  0.53300 7.05200 32.35900
H  1.96200 6.72400 33.09700
N  1.33400 5.49600 24.84600
C  1.42700 4.42500 25.70500
C  1.40500 3.21300 24.97800
C  1.27200 3.55300 23.56200
C  1.29600 4.99400 23.54200
C  1.65800 1.83700 25.60300
C  1.07500 2.67800 22.31000
O  1.10000 3.11800 21.18600
C  1.12000 1.13600 22.62500
N  1.43400 8.01200 23.34100
C  1.36000 7.17800 22.30600
C  1.60700 7.90600 20.93700
C  1.69600 9.38900 21.34200
C  1.88500 9.24200 22.85500
C  2.89000 7.36600 20.17800
C  0.52600 10.35200 20.90000
C  -0.82500 10.13700 21.71900
N  1.94400 9.37700 25.87300
C  2.31600 10.43600 25.07000
C  2.42600 11.66600 25.76500
C  2.18300 11.31500 27.13400
C  1.87800 9.87500 27.07200
C  2.73000 13.01400 25.12200
C  2.12700 11.69000 28.46600
O  2.29900 12.85200 28.88700
C  1.78500 10.36900 29.32000
C  2.87600 10.26300 30.31600
O  3.99500 9.74800 30.10500
O  2.49700 10.83400 31.54100
C  3.63900 10.79800 32.47500
H  1.35700 3.66300 27.77400
H  1.28100 5.35600 21.43400
H  2.57900 11.27500 23.13300
H  2.38100 7.53100 30.59500
H  1.08800 5.00600 30.11000
H  3.02000 3.94000 30.24200
H  3.81500 5.53200 30.43700
H  3.65300 4.97900 28.82000
H  -0.42200 6.72500 30.57500
H  0.12000 8.34800 30.69000
H  -0.22200 6.33500 32.68200
H  0.21300 7.97100 32.84900
H  2.48800 1.36500 25.07900
H  0.73200 1.26600 25.66600
H  2.02100 1.80800 26.63100
H  0.35000 0.79400 23.31700
H  2.06100 0.87400 23.10900
H  0.99100 0.66700 21.65000
H  0.72500 7.59200 20.37900
H  2.62200 9.76300 20.90600
H  3.65300 6.88700 20.79200
H  3.37100 8.18100 19.63800
H  2.58300 6.59400 19.47200
H  0.28800 10.04000 19.88400
H  0.90400 11.37000 20.80600
H  -0.68800 9.39300 22.50400
H  -1.69700 9.96300 21.08900
H  -1.02800 11.11300 22.16000
H  3.75600 13.27600 25.38000
H  1.91500 13.57000 25.58500
H  2.50800 13.14700 24.06300
H  0.83000 10.50100 29.82800
H  4.51400 11.27000 32.02700
H  3.93600 9.75900 32.61500
H  3.54200 11.12300 33.51100
Mg 26.33900 0.14800 29.02200
C  27.92700 0.01200 32.24600
C  23.24300 0.14200 30.74100
C  24.69500 0.11300 26.14800
C  29.34200 -0.66000 27.63500
N  25.71200 -0.01700 31.21500
C  26.50500 0.19100 32.30200
C  25.72700 0.61700 33.54900
C  24.29900 0.50400 33.05900
C  24.41700 0.11900 31.58900
C  23.47200 -0.57800 33.79400
C  26.10500 2.00000 34.16100
C  25.40300 2.40000 35.50500
H  26.32300 2.62800 36.67900
N  24.27500 0.29600 28.52800
C  23.19500 0.21400 29.36900
C  21.95900 0.23200 28.60200
C  22.31600 0.40000 27.25200
C  23.80500 0.31000 27.22400
C  20.62700 0.09600 29.28200
C  21.53000 0.64400 26.00100
O  22.00700 0.75600 24.84400
C  20.09500 0.64300 26.03300
N  26.99200 -0.22400 27.24200
C  26.09800 -0.16400 26.17600
C  26.88900 -0.31900 24.86100
C  28.38000 -0.38500 25.34400
C  28.25800 -0.37300 26.85300
C  26.56600 -1.43300 23.80900
C  29.28200 0.77500 24.87300
C  29.98100 0.54600 23.53000
N  28.25400 -0.18500 29.69200
C  29.36500 -0.50500 28.98200
C  30.55400 -0.47600 29.80200
C  29.97900 -0.25600 31.13800
C  28.66300 -0.10400 31.00600
C  31.93300 -0.79700 29.48400
C  30.36500 -0.06600 32.52500
O  31.47600 -0.29600 33.07500
C  28.99600 0.19200 33.23100
C  28.96500 -0.66000 34.35700
O  28.97200 -1.87600 34.34400
O  28.89400 0.07700 35.52400
C  28.63700 -0.69800 36.75200
H  22.35100 0.10600 31.37000
H  24.31700 0.23900 25.13100
H  30.27900 -0.97100 27.16900
H  25.92000 -0.18100 34.26500
H  23.74600 1.43700 33.16700
H  22.70400 -0.06500 34.37100
H  24.02700 -1.08600 34.58300
H  23.04800 -1.23400 33.03400
H  25.87200 2.73700 33.39200
H  27.17200 1.98100 34.38300
H  24.64800 1.68400 35.83100
H  24.83400 3.30400 35.28400
H  20.25500 1.12000 29.24100
H  20.70900 -0.22400 30.32100
H  19.90600 -0.58700 28.83300
H  19.85700 1.30900 26.86200
H  19.70900 -0.33200 26.33100
H  19.53800 0.93400 25.14300
H  26.69600 0.57900 24.27400
H  28.84600 -1.35700 25.18400
H  27.40800 -2.08500 23.57600
H  26.16300 -0.89000 22.95500
H  25.73700 -2.04400 24.16500
H  29.96000 0.94600 25.70900
H  28.69600 1.68800 24.77100
H  30.90500 -0.02000 23.65400
H  30.12200 1.49400 23.01200
H  29.45300 -0.19700 22.93200
H  32.40500 -0.00200 28.90800
H  31.88200 -1.74100 28.94200
H  32.49000 -0.90500 30.41500
H  29.12500 1.25200 33.45200
H  27.77300 -1.36400 36.76400
H  28.52200 -0.03200 37.60700
H  29.51400 -1.32300 36.92200

