158

Mg 9.26700 3.79600 26.72400
C  10.49500 2.32300 29.58400
C  7.14100 5.68200 28.61800
C  7.99900 5.07300 23.85000
C  10.82500 1.26000 24.80300
N  8.76700 3.82100 28.82600
C  9.50600 3.26600 29.86900
C  9.05800 3.75000 31.28500
C  7.96400 4.82500 30.95800
C  7.90400 4.71500 29.38800
C  6.65200 4.61300 31.71300
C  10.31100 4.14800 32.14900
C  10.24700 5.16700 33.24800
H  11.02400 4.77600 34.54000
N  7.87400 5.22400 26.30500
C  7.14700 5.94600 27.21300
C  6.38000 6.95900 26.57800
C  6.60400 6.76100 25.13900
C  7.54500 5.64600 25.07700
C  5.39800 7.88300 27.22600
C  5.88800 7.43100 23.94000
O  6.06100 7.12600 22.81100
C  4.88400 8.52500 24.10700
N  9.32000 3.16500 24.66500
C  8.81200 3.94800 23.67300
C  9.19900 3.43800 22.26300
C  10.06000 2.20400 22.59700
C  10.07700 2.20000 24.10000
C  8.00600 3.27400 21.31100
C  11.48300 2.04700 22.03800
C  11.91700 3.05100 20.92700
N  10.52100 2.13400 27.07900
C  11.03200 1.14800 26.15700
C  11.77100 0.13000 26.96300
C  11.72500 0.63400 28.30600
C  10.90600 1.74300 28.33700
C  12.41200 -1.12900 26.45700
C  12.16600 0.57900 29.72000
O  13.04300 -0.11400 30.18500
C  11.28400 1.56400 30.56400
C  10.40400 0.75000 31.49000
O  9.25200 0.48200 31.23700
O  11.06600 0.49800 32.68400
C  10.20100 -0.17500 33.67000
H  6.63900 6.43500 29.22800
H  7.63200 5.35000 22.86000
H  11.35800 0.46500 24.27800
H  8.73200 2.86100 31.82500
H  8.29400 5.85000 31.13000
H  5.87100 4.11900 31.13600
H  6.29000 5.61400 31.94600
H  6.86000 4.10900 32.65600
H  11.23600 4.32300 31.60100
H  10.51700 3.18100 32.60800
H  9.20000 5.27700 33.53000
H  10.63300 6.11700 32.88000
H  5.62200 8.12900 28.26400
H  4.41200 7.43000 27.33000
H  5.16500 8.81300 26.70600
H  4.72500 9.07500 23.18000
H  5.10600 9.38000 24.74700
H  3.96800 8.00900 24.39300
H  9.87400 4.20500 21.88400
H  9.49000 1.30400 22.36800
H  7.92200 2.21200 21.07800
H  8.21100 3.97200 20.49900
H  7.10600 3.41000 21.91000
H  11.65000 0.99000 21.83100
H  12.26300 2.22800 22.77800
H  11.13600 3.08900 20.16800
H  12.81500 2.73000 20.39900
H  12.11500 4.06100 21.28400
H  12.22500 -1.99700 27.08900
H  13.49700 -1.03100 26.41500
H  12.13200 -1.32900 25.42200
H  11.95700 2.18200 31.15800
H  9.35600 0.35900 34.10400
H  10.72700 -0.52100 34.56000
H  9.72500 -1.07800 33.28700
Mg -5.78200 25.13700 25.39100
C  -4.02800 26.44400 28.09200
C  -7.20000 22.83400 27.60600
C  -7.13700 23.50700 22.69200
C  -3.97800 27.23400 23.28500
N  -5.58600 24.75900 27.59700
C  -4.88100 25.43300 28.51100
C  -5.28900 25.01200 29.88600
C  -5.92300 23.63200 29.65700
C  -6.28700 23.74200 28.18400
C  -5.18200 22.37100 30.10700
C  -6.17200 26.04100 30.55100
C  -6.19500 26.09100 32.11600
H  -5.51200 25.00600 32.98100
N  -7.09200 23.52700 25.19900
C  -7.59100 22.75800 26.20900
C  -8.51800 21.78500 25.71100
C  -8.54400 21.97700 24.27700
C  -7.54100 23.09100 23.94400
C  -9.04200 20.61100 26.49100
C  -9.35600 21.15800 23.26700
O  -9.42100 21.35400 22.05400
C  -10.30200 20.01400 23.72600
N  -5.44100 25.24000 23.32000
C  -6.20700 24.46300 22.42200
C  -5.90400 24.87200 21.01200
C  -5.05600 26.18400 21.14000
C  -4.76700 26.22600 22.63200
C  -5.22600 23.89800 20.01700
C  -5.84100 27.38900 20.50500
C  -7.02900 28.02600 21.13700
N  -4.34600 26.54900 25.66400
C  -3.64900 27.22500 24.67500
C  -2.79400 28.16400 25.25200
C  -2.83300 27.89800 26.63500
C  -3.84000 26.88400 26.82200
C  -1.96800 29.32700 24.65200
C  -2.34400 28.21400 27.93500
O  -1.53000 29.06600 28.24900
C  -3.13800 27.31900 28.97400
C  -2.16400 26.54000 29.85300
O  -1.38900 25.63600 29.51300
O  -2.41900 26.97300 31.14800
C  -1.59500 26.33300 32.18300
H  -7.51000 22.14300 28.39200
H  -7.49600 22.99200 21.79800
H  -3.33900 27.79700 22.60200
H  -4.41900 24.94000 30.53800
H  -6.82800 23.58900 30.26200
H  -5.08000 21.67000 29.27800
H  -5.77600 21.81800 30.83400
H  -4.25300 22.68100 30.58600
H  -7.19000 25.87200 30.19800
H  -5.82200 27.01800 30.21700
H  -7.21900 26.03100 32.48600
H  -5.84500 27.04400 32.51300
H  -8.71900 20.74500 27.52300
H  -8.73000 19.65500 26.07200
H  -10.13100 20.65500 26.53300
H  -11.13200 20.42300 24.30100
H  -9.62100 19.32300 24.22400
H  -10.68400 19.46800 22.86300
H  -6.83400 25.04000 20.46900
H  -4.21200 26.16400 20.45000
H  -5.51000 22.84600 20.03700
H  -4.15600 23.97600 20.21000
H  -5.63300 24.14400 19.03600
H  -6.00600 27.17300 19.44900
H  -5.04300 28.12800 20.42700
H  -6.80800 28.98300 21.60900
H  -7.45800 27.28400 21.81100
H  -7.85000 28.21600 20.44500
H  -0.94800 28.99100 24.46900
H  -1.97700 30.15200 25.36400
H  -2.44800 29.60700 23.71400
H  -3.78400 27.91900 29.61600
H  -1.72600 26.92900 33.08600
H  -0.55100 26.44100 31.89100
H  -1.72000 25.25400 32.28300

