158

Mg 53.10300 23.41100 45.28300
C  50.56300 25.63300 44.19600
C  51.30300 20.81200 44.27200
C  55.93000 21.66000 45.69300
C  54.77800 26.37000 46.37700
N  51.28000 23.25300 44.07200
C  50.29800 24.23800 43.85700
C  49.00000 23.65800 43.26400
C  49.16100 22.23100 43.84600
C  50.67400 22.03400 44.08100
C  48.32600 21.97900 45.09600
C  49.06200 23.79800 41.68000
C  47.73600 24.34000 41.03100
H  47.10300 23.43200 39.88100
N  53.56000 21.49100 44.90000
C  52.66200 20.51900 44.53200
C  53.26600 19.23700 44.43100
C  54.58100 19.36000 44.94500
C  54.75700 20.89000 45.23000
C  52.63100 18.01900 43.89500
C  55.71100 18.31700 45.12600
O  55.46400 17.14400 44.87400
C  57.09400 18.52600 45.60600
N  55.04000 23.94600 45.85300
C  56.04000 23.02600 45.90400
C  57.36800 23.70500 46.32900
C  56.98200 25.13600 46.45100
C  55.46900 25.14300 46.24400
C  58.12100 23.02600 47.51100
C  57.72500 26.17100 45.53300
C  58.77200 26.99900 46.30100
N  52.78400 25.53200 45.40100
C  53.47500 26.56400 45.96200
C  52.67900 27.79000 46.00100
C  51.53200 27.49600 45.22800
C  51.63900 26.12400 44.90400
C  53.05600 29.06600 46.67200
C  50.41500 28.03900 44.59700
O  49.99500 29.17400 44.54600
C  49.73700 26.79400 43.86000
C  49.73600 27.15300 42.34700
O  50.74000 27.41300 41.70000
O  48.48200 27.52700 41.94500
C  48.48800 28.24500 40.63300
H  50.66300 19.94400 44.10100
H  56.88500 21.13800 45.78300
H  55.42400 27.17200 46.73900
H  48.07300 24.12000 43.60200
H  48.79900 21.61100 43.02600
H  48.99200 21.63500 45.88700
H  47.62500 21.19900 44.79900
H  47.81600 22.84600 45.51500
H  49.30800 22.85500 41.19000
H  49.92400 24.38800 41.37000
H  48.04300 25.25200 40.51900
H  46.93300 24.57300 41.73000
H  51.55600 17.99400 44.07500
H  52.97100 17.13700 44.43800
H  52.85600 17.80700 42.85000
H  57.60200 18.82400 44.68900
H  57.51300 17.58500 45.96400
H  57.33300 19.22600 46.40600
H  57.98800 23.49300 45.45800
H  57.19300 25.32200 47.50400
H  57.53600 22.28200 48.05200
H  58.45100 23.73000 48.27600
H  59.10000 22.61600 47.26200
H  57.01800 26.80400 44.99600
H  58.35200 25.75100 44.74600
H  58.34600 28.00100 46.24700
H  59.63300 26.99900 45.63300
H  59.04900 26.68800 47.30800
H  52.17000 29.51100 47.12500
H  53.34600 29.75200 45.87600
H  53.79600 29.00100 47.47000
H  48.68700 26.73700 44.14800
H  47.55400 28.78500 40.78500
H  48.43100 27.54800 39.79700
H  49.30400 28.92000 40.37700
Mg -1.93400 34.90000 26.85400
C  -3.20400 32.92600 29.50800
C  -0.53300 36.94200 29.17100
C  -1.08900 36.92100 24.29700
C  -3.37800 32.63400 24.62300
N  -2.02600 34.95900 29.11800
C  -2.51700 34.03300 30.02000
C  -2.23200 34.43600 31.52400
C  -1.42000 35.79400 31.33800
C  -1.23100 35.88300 29.78700
C  -1.99800 37.08300 31.89500
C  -1.44400 33.33100 32.37600
C  -2.18300 32.98100 33.66700
H  -1.27700 32.96600 34.90600
N  -1.03300 36.75200 26.75500
C  -0.52200 37.43100 27.81000
C  0.18200 38.61700 27.35100
C  -0.06100 38.68700 25.90500
C  -0.73000 37.39000 25.60500
C  0.75800 39.64400 28.31100
C  0.25900 39.80200 24.90100
O  -0.16600 39.78300 23.76000
C  0.97400 40.99600 25.42100
N  -2.19800 34.69500 24.75100
C  -1.77000 35.73000 23.89300
C  -2.12800 35.29300 22.41800
C  -2.44100 33.81300 22.55300
C  -2.73400 33.68700 24.01700
C  -3.29500 36.12800 21.71200
C  -1.29500 32.80500 22.09400
C  -0.04800 32.76200 22.96500
N  -3.08500 33.19800 26.98900
C  -3.60700 32.38600 25.99100
C  -4.36100 31.33500 26.58000
C  -4.18600 31.51700 27.97400
C  -3.33400 32.58400 28.12400
C  -5.44500 30.54000 25.93500
C  -4.61100 31.01300 29.26600
O  -5.37800 30.11200 29.50900
C  -3.86700 31.87400 30.35100
C  -4.82600 32.56600 31.28800
O  -5.60100 33.42800 30.97200
O  -4.79600 31.93700 32.47800
C  -5.76200 32.26200 33.47900
H  -0.11800 37.63000 29.91100
H  -0.77900 37.56100 23.46800
H  -3.69700 31.81900 23.97000
H  -3.20100 34.72300 31.93300
H  -0.41800 35.67300 31.74900
H  -2.90800 36.98700 32.48800
H  -2.29200 37.72800 31.06800
H  -1.23300 37.61900 32.45700
H  -0.42300 33.64600 32.59200
H  -1.48700 32.42000 31.77900
H  -2.78100 32.08300 33.51800
H  -2.93600 33.75700 33.80700
H  0.09900 40.51200 28.32100
H  1.73900 40.04800 28.06100
H  0.93000 39.23900 29.30800
H  1.00800 41.69700 24.58700
H  2.00900 40.76900 25.67400
H  0.36800 41.33800 26.26100
H  -1.24100 35.34500 21.78600
H  -3.26600 33.56600 21.88400
H  -3.46900 37.01900 22.31500
H  -4.29000 35.70600 21.57900
H  -2.82100 36.38200 20.76300
H  -1.03900 33.11200 21.08000
H  -1.71800 31.80400 22.17300
H  0.83600 33.01900 22.38200
H  0.13600 31.77200 23.38200
H  -0.22100 33.45800 23.78600
H  -5.00600 29.79500 25.27100
H  -6.09700 31.11700 25.27900
H  -6.03300 30.07700 26.72700
H  -3.09700 31.27800 30.84100
H  -6.61000 32.83600 33.10700
H  -5.44300 32.79100 34.37600
H  -6.10200 31.31900 33.90600

