158

Mg -1.93400 17.19900 26.24300
C  -2.14200 14.92500 28.97000
C  -2.47600 19.84700 28.54600
C  -2.37800 19.23900 23.66500
C  -2.44500 14.44000 24.20600
N  -2.04400 17.36700 28.50200
C  -2.07000 16.32000 29.39100
C  -2.41200 16.88100 30.84100
C  -2.49000 18.44800 30.66500
C  -2.35800 18.58700 29.11600
C  -3.84700 19.09800 31.13000
C  -1.37900 16.38800 31.91500
C  -1.08900 17.32800 33.08600
H  -0.41100 16.75000 34.21300
N  -2.27400 19.17700 26.13300
C  -2.44500 20.12700 27.15500
C  -2.55800 21.40500 26.60400
C  -2.40000 21.31400 25.16600
C  -2.35500 19.85300 24.92800
C  -2.88300 22.61300 27.44600
C  -2.61400 22.32200 24.09200
O  -2.62100 22.12900 22.88700
C  -2.82500 23.68700 24.49200
N  -2.46300 16.86400 24.17200
C  -2.46700 17.87000 23.30200
C  -2.63400 17.44700 21.83600
C  -2.63500 15.89200 22.04300
C  -2.51400 15.69200 23.60300
C  -3.96800 18.00400 21.29800
C  -1.56900 15.18400 21.29900
C  -1.78300 15.21900 19.76200
N  -2.31300 15.14500 26.45800
C  -2.32500 14.15200 25.55700
C  -2.40000 12.84500 26.11700
C  -2.29200 13.10800 27.52700
C  -2.27700 14.50200 27.64900
C  -2.69300 11.54400 25.41100
C  -2.27800 12.48600 28.80800
O  -2.20800 11.28100 29.05900
C  -2.26300 13.69100 29.83100
C  -1.20900 13.30800 30.78300
O  -0.02500 13.45600 30.58600
O  -1.83900 12.78100 31.91900
C  -0.92100 12.35700 32.96900
H  -2.65800 20.60800 29.30800
H  -2.48400 19.85300 22.76800
H  -2.52700 13.66200 23.44400
H  -3.35700 16.36000 30.99600
H  -1.72200 18.96000 31.24500
H  -4.46500 19.37600 30.27600
H  -3.58100 20.01800 31.65000
H  -4.33600 18.38000 31.78900
H  -0.54400 16.14100 31.26100
H  -1.78100 15.46700 32.33900
H  -1.95100 17.94700 33.33400
H  -0.37400 18.10200 32.80900
H  -3.92400 22.88600 27.27300
H  -2.32600 23.50400 27.15600
H  -2.81100 22.48400 28.52600
H  -2.96500 24.36600 23.65100
H  -1.90100 24.00500 24.97300
H  -3.68300 23.76500 25.16000
H  -1.82600 17.81600 21.20500
H  -3.64700 15.52400 21.87100
H  -4.17400 18.91700 21.85800
H  -4.69900 17.19800 21.25000
H  -3.69500 18.37800 20.31200
H  -1.31900 14.14900 21.53100
H  -0.67100 15.78500 21.43600
H  -1.17900 16.04200 19.37800
H  -2.83200 15.45400 19.58100
H  -1.45800 14.33500 19.21400
H  -2.09200 11.41700 24.51100
H  -3.74400 11.64600 25.13900
H  -2.48200 10.66200 26.01500
H  -3.25100 13.76900 30.28600
H  -0.26000 13.19000 33.20800
H  -0.36100 11.49900 32.59600
H  -1.52400 12.27400 33.87300
Mg 25.92300 -0.15400 29.37800
C  27.69900 -0.15400 32.29700
C  23.05600 0.17300 31.19900
C  24.29300 -0.55000 26.44900
C  28.86400 -0.63700 27.56100
N  25.45600 0.15100 31.48500
C  26.37400 0.06700 32.53500
C  25.67500 0.25800 33.90500
C  24.15600 0.24000 33.57200
C  24.19300 0.20100 31.99200
C  23.37100 -0.92800 34.27600
C  26.24400 1.58600 34.54400
C  26.94700 1.50500 35.97700
H  26.69300 2.50900 37.12800
N  23.95200 -0.19200 28.92700
C  22.89900 -0.04500 29.77900
C  21.67300 -0.04000 29.00200
C  22.02000 -0.12300 27.60800
C  23.52100 -0.29800 27.63900
C  20.26500 0.07800 29.62900
C  21.04700 -0.16300 26.43600
O  21.41000 -0.37400 25.29000
C  19.59000 0.08100 26.69100
N  26.45900 -0.51800 27.20200
C  25.59200 -0.59000 26.21300
C  26.22200 -0.67700 24.78100
C  27.73300 -0.74300 25.18200
C  27.70300 -0.65700 26.74600
C  25.69200 -1.85900 23.89600
C  28.72900 0.26000 24.52200
C  28.40300 1.71400 24.71900
N  27.83400 -0.51500 29.84100
C  28.99600 -0.66000 28.99600
C  30.22200 -0.66500 29.79300
C  29.74300 -0.47400 31.09700
C  28.30400 -0.39100 31.06900
C  31.67100 -0.85000 29.22000
C  30.15200 -0.35600 32.48000
O  31.29000 -0.31400 32.94400
C  28.88100 -0.07200 33.26100
C  28.82500 -1.18600 34.25000
O  28.33200 -2.30100 34.03000
O  29.38400 -0.79400 35.44100
C  29.44800 -1.80300 36.48700
H  22.12100 0.36800 31.72900
H  23.64100 -0.84700 25.62500
H  29.79900 -0.74200 27.00700
H  26.00600 -0.62000 34.45900
H  23.69900 1.17800 33.88700
H  22.98100 -1.70800 33.62200
H  22.47700 -0.48100 34.71100
H  23.94000 -1.44400 35.04900
H  25.44000 2.31100 34.67500
H  26.97300 2.02900 33.86600
H  27.96500 1.72500 35.65800
H  26.92700 0.44400 36.22600
H  19.74800 -0.83600 29.33800
H  19.79100 1.04000 29.43100
H  20.29200 -0.08900 30.70600
H  19.06700 0.34800 25.77200
H  19.47600 1.02400 27.22600
H  19.09500 -0.68100 27.29300
H  26.10400 0.22000 24.17300
H  28.06300 -1.75500 24.94500
H  26.54200 -2.49500 23.64700
H  25.19500 -1.59300 22.96300
H  24.98100 -2.37800 24.53800
H  28.64000 0.06000 23.45400
H  29.75900 0.07400 24.82600
H  27.34100 1.93500 24.61600
H  29.05600 2.23400 24.01800
H  28.78700 2.15500 25.63900
H  32.38000 -0.34400 29.87500
H  31.77400 -0.39500 28.23500
H  31.91600 -1.90500 29.10700
H  29.02700 0.88100 33.77200
H  28.96900 -1.43400 37.39300
H  30.50200 -1.93900 36.73200
H  29.00300 -2.76900 36.24900

