158

Mg 0.43200 44.08300 25.98200
C  2.70600 44.11700 28.68300
C  -2.04500 43.25700 28.18000
C  -1.59200 43.38800 23.34600
C  3.14100 44.22700 23.86800
N  0.39200 43.81800 28.24000
C  1.39600 43.87900 29.15600
C  0.92100 43.78600 30.55300
C  -0.55200 43.21300 30.32800
C  -0.76500 43.54400 28.80100
C  -0.71900 41.74100 30.59000
C  0.94600 45.15900 31.32400
C  0.98300 44.98000 32.88900
H  0.30600 43.80700 33.63200
N  -1.57900 43.54500 25.77800
C  -2.45600 43.26200 26.78900
C  -3.73700 42.94000 26.22400
C  -3.65900 43.10800 24.85000
C  -2.23900 43.46000 24.56000
C  -4.89600 42.60200 27.09400
C  -4.77900 43.18700 23.77500
O  -4.54100 43.45600 22.62300
C  -6.17100 42.91400 24.20000
N  0.72000 43.71700 23.95300
C  -0.26800 43.51100 23.07800
C  0.29800 43.40000 21.62100
C  1.64400 44.15300 21.78200
C  1.89500 44.00100 23.30100
C  0.43200 41.91200 21.26500
C  1.62600 45.63400 21.21700
C  2.85000 46.07000 20.38100
N  2.52300 44.24700 26.17400
C  3.55200 44.25400 25.22400
C  4.83900 44.44400 25.80800
C  4.52500 44.33400 27.13700
C  3.16500 44.24600 27.36600
C  6.21400 44.71100 25.02900
C  5.12600 44.22500 28.48400
O  6.28000 44.03500 28.83300
C  3.96100 44.22200 29.50000
C  4.23100 43.04100 30.38600
O  4.04900 41.87200 30.16600
O  4.66700 43.51700 31.62100
C  4.97800 42.45800 32.60100
H  -2.88000 43.01500 28.84100
H  -2.34000 43.33100 22.55200
H  3.91800 44.48500 23.14500
H  1.54000 43.05900 31.07900
H  -1.33100 43.72800 30.89100
H  -1.73200 41.34600 30.66800
H  -0.13800 41.43300 31.45900
H  -0.29800 41.24200 29.71700
H  0.11400 45.79700 31.02600
H  1.78300 45.76600 30.97800
H  0.63600 45.92600 33.30600
H  2.04300 45.11000 33.11000
H  -5.70300 41.98500 26.70000
H  -5.24200 43.54600 27.51600
H  -4.51000 41.99900 27.91600
H  -6.37300 41.96000 24.68600
H  -6.76400 42.83600 23.28900
H  -6.50900 43.68500 24.89200
H  -0.44900 43.94200 21.04000
H  2.40400 43.63400 21.19700
H  -0.07200 41.64500 20.33600
H  -0.06100 41.21200 21.93900
H  1.47300 41.60000 21.18200
H  1.47200 46.38000 21.99600
H  0.66700 45.72500 20.70800
H  3.30400 46.92100 20.88900
H  2.59000 46.59000 19.45900
H  3.62000 45.34000 20.13200
H  6.66200 45.58800 25.49700
H  5.98800 44.88900 23.97800
H  6.87100 43.85100 25.15800
H  4.08400 45.09700 30.13900
H  5.58100 41.69300 32.11300
H  4.14900 41.97400 33.11700
H  5.71400 42.93700 33.24700
Mg -11.09100 16.35400 40.77300
C  -7.56900 16.22400 40.89900
C  -10.75400 19.81100 40.56900
C  -14.31400 16.67600 40.10600
C  -11.05300 12.95400 40.23000
N  -9.28800 17.83400 40.50500
C  -7.97800 17.52300 40.65500
C  -7.07000 18.78200 40.66400
C  -8.18700 19.96600 40.82900
C  -9.47500 19.16400 40.62400
C  -8.11700 20.76600 42.23700
C  -6.39400 18.88400 39.23000
C  -4.89100 18.62200 39.04600
H  -4.38800 17.63000 38.03000
N  -12.41700 18.00700 40.53000
C  -12.05300 19.39900 40.43600
C  -13.26200 20.19900 40.29500
C  -14.39200 19.35700 40.14900
C  -13.78200 17.94000 40.21800
C  -13.18500 21.70100 40.04300
C  -15.90300 19.70900 39.92500
O  -16.28200 20.91100 39.84500
C  -16.92000 18.71400 39.88700
N  -12.44300 15.03900 40.12100
C  -13.76200 15.36300 40.06700
C  -14.64700 14.07900 39.95400
C  -13.63300 12.97000 39.78700
C  -12.27900 13.69200 40.00000
C  -15.74700 13.85200 41.05200
C  -13.66600 12.39200 38.37800
C  -13.62100 10.90200 38.08500
N  -9.62600 14.82700 40.73300
C  -9.77800 13.52000 40.61300
C  -8.52400 12.87100 40.94300
C  -7.57900 13.86200 41.13000
C  -8.34600 15.05900 40.89600
C  -8.22500 11.34900 40.94500
C  -6.18500 14.23100 41.41000
O  -5.14800 13.55200 41.52200
C  -6.15600 15.80300 41.34300
C  -5.61000 16.49800 42.60100
O  -4.46200 16.89500 42.72200
O  -6.59400 16.70900 43.56100
C  -6.15000 17.70600 44.57700
H  -10.68400 20.89400 40.69600
H  -15.38600 16.62800 39.90200
H  -11.03700 11.87100 40.09800
H  -6.25800 18.92100 41.37800
H  -8.02800 20.77400 40.11600
H  -7.44700 20.21200 42.89500
H  -9.01900 20.78700 42.84800
H  -7.84200 21.81800 42.16000
H  -6.65600 19.82600 38.74800
H  -6.98000 18.27300 38.54400
H  -4.49800 18.39500 40.03700
H  -4.45100 19.58100 38.77100
H  -12.18000 22.08900 39.88000
H  -13.74500 22.24700 40.80200
H  -13.61200 21.95200 39.07200
H  -16.86300 18.24900 38.90200
H  -17.84700 19.21700 40.16200
H  -16.66500 18.03100 40.69700
H  -15.07800 14.28300 38.97400
H  -13.62800 12.18900 40.54600
H  -15.74600 14.80300 41.58500
H  -15.64400 13.00300 41.72800
H  -16.72200 13.69200 40.59100
H  -12.88700 12.85500 37.77100
H  -14.55700 12.82700 37.92400
H  -13.39500 10.42600 39.03900
H  -12.86600 10.78400 37.30800
H  -14.58100 10.54700 37.71100
H  -9.14800 10.82800 40.69000
H  -7.82800 11.09600 41.92800
H  -7.45700 11.14900 40.19700
H  -5.44600 16.04500 40.55300
H  -6.89300 17.71500 45.37400
H  -6.08300 18.71600 44.17100
H  -5.15400 17.49700 44.96700

