158

Mg 26.08000 1.47600 28.99900
C  27.71000 0.85800 31.94300
C  23.08300 1.55400 30.90600
C  24.38900 2.05500 26.18500
C  28.95600 1.07300 27.21100
N  25.48100 1.20500 31.23300
C  26.37900 1.03900 32.27600
C  25.67800 1.16200 33.59800
C  24.13800 0.96100 33.17300
C  24.22200 1.16600 31.67400
C  23.43600 -0.37200 33.57000
C  26.02000 2.46300 34.37200
C  26.45700 2.28000 35.85200
H  26.15000 3.31100 36.97400
N  23.99100 1.83600 28.54700
C  23.00000 1.80500 29.46900
C  21.74100 2.08300 28.81600
C  22.03200 2.34800 27.45700
C  23.53300 2.06200 27.29900
C  20.46200 2.24500 29.59600
C  21.10100 2.75300 26.25300
O  21.53300 2.92900 25.13800
C  19.60100 2.93900 26.56100
N  26.63900 1.51000 26.97100
C  25.76000 1.78400 25.96400
C  26.47100 1.79100 24.65600
C  28.02000 1.57500 25.00400
C  27.91000 1.45800 26.48500
C  25.89100 0.71900 23.60600
C  28.92700 2.76900 24.49000
C  29.92600 2.48300 23.41000
N  27.91500 0.81300 29.37400
C  28.95700 0.73600 28.57400
C  30.14100 0.33700 29.37900
C  29.66900 0.44500 30.65400
C  28.32400 0.77900 30.63700
C  31.47900 -0.01600 28.94000
C  30.13500 0.42500 32.03600
O  31.21400 0.24200 32.58400
C  28.84000 0.65900 32.92400
C  28.68500 -0.46300 33.81400
O  28.23900 -1.54200 33.40200
O  29.08800 -0.20900 35.11200
C  28.86900 -1.25800 36.15500
H  22.13300 1.56800 31.44400
H  23.89700 2.27900 25.23700
H  29.91000 0.91900 26.70300
H  25.89800 0.27000 34.18500
H  23.62600 1.77300 33.69100
H  22.39400 -0.11400 33.75800
H  23.81900 -0.78500 34.50300
H  23.46400 -0.97400 32.66200
H  25.11800 3.07400 34.34300
H  26.81200 3.01400 33.86600
H  27.53500 2.19700 35.71400
H  26.09200 1.32200 36.22200
H  19.85300 1.34900 29.47300
H  19.74100 3.01700 29.32600
H  20.52400 2.58000 30.63100
H  18.99100 3.15200 25.68300
H  19.54100 3.69400 27.34500
H  19.20800 2.05200 27.05700
H  26.40800 2.73800 24.12000
H  28.37400 0.64700 24.55600
H  24.98600 0.23600 23.97400
H  26.59100 -0.07500 23.34600
H  25.75400 1.28900 22.68700
H  29.43300 3.25000 25.32700
H  28.32300 3.57300 24.06900
H  29.79900 1.43300 23.14900
H  30.95400 2.65300 23.72700
H  29.71400 3.09600 22.53300
H  31.88200 0.86100 28.43300
H  31.26900 -0.82800 28.24400
H  32.07200 -0.30900 29.80600
H  29.13900 1.50100 33.54800
H  28.07600 -0.82700 36.76700
H  29.76200 -1.25400 36.78000
H  28.71500 -2.26700 35.77400
Mg 47.34700 16.25800 28.86800
C  45.32600 16.06400 31.86600
C  49.56500 18.07700 30.51900
C  48.77800 16.66300 26.01300
C  44.41900 14.76300 27.26600
N  47.32600 16.99700 30.84000
C  46.52700 16.71200 31.95600
C  47.12400 17.24700 33.29000
C  48.25700 18.17500 32.78900
C  48.41200 17.70600 31.28100
C  47.87800 19.68300 32.88300
C  47.58700 16.05900 34.20700
C  47.02700 16.18900 35.64000
H  46.79500 17.58300 36.35700
N  48.99000 17.15900 28.33900
C  49.86600 17.81700 29.11500
C  51.04100 18.18400 28.41900
C  50.92300 17.62300 27.08900
C  49.53300 17.11900 27.10200
C  52.11900 19.03700 29.04300
C  51.89400 17.59900 25.94800
O  51.66400 17.12700 24.85400
C  53.24000 18.17100 26.20400
N  46.68400 15.67300 26.86400
C  47.51900 16.04900 25.83500
C  46.82200 15.68400 24.48400
C  45.43900 15.04700 24.96700
C  45.47800 15.14200 26.42100
C  46.66200 16.95700 23.51900
C  45.31000 13.62900 24.53500
C  45.03300 13.49400 23.06900
N  45.34700 15.52800 29.38500
C  44.32000 14.95900 28.63100
C  43.25100 14.53900 29.51600
C  43.61300 14.99000 30.76400
C  44.84000 15.54100 30.65500
C  41.94700 13.82500 28.97500
C  43.11900 15.14600 32.10600
O  42.05800 14.84300 32.59600
C  44.25500 15.67800 32.90300
C  43.68700 16.86500 33.66200
O  43.56400 18.03100 33.23200
O  43.18300 16.41700 34.84500
C  42.55600 17.49000 35.69100
H  50.26700 18.67200 31.10600
H  49.19800 16.68300 25.00500
H  43.60500 14.17200 26.84100
H  46.31500 17.79700 33.77100
H  49.17200 18.08800 33.37400
H  47.89000 20.15900 31.90200
H  48.62500 20.24200 33.44700
H  47.00100 19.76000 33.52500
H  48.66700 15.92100 34.25500
H  47.16900 15.13600 33.80500
H  47.52500 15.49400 36.31600
H  46.05900 15.68900 35.64200
H  52.36500 19.86500 28.37900
H  53.05600 18.47900 29.04900
H  51.81900 19.40000 30.02600
H  53.90600 18.04400 25.35100
H  53.66400 17.77100 27.12600
H  53.07500 19.23500 26.37200
H  47.40600 14.94700 23.93400
H  44.56100 15.62700 24.68200
H  46.79400 16.61700 22.49200
H  47.38600 17.73600 23.75700
H  45.64800 17.34900 23.59100
H  44.50100 13.21200 25.13400
H  46.28300 13.15900 24.68400
H  45.84100 12.92500 22.60800
H  45.16600 14.43100 22.52800
H  44.13000 12.91300 22.88300
H  42.23500 12.81300 28.69100
H  41.53600 14.31000 28.08900
H  41.29100 13.74900 29.84200
H  44.51900 14.90700 33.62800
H  41.75700 17.92200 35.08900
H  43.21800 18.33400 35.88800
H  42.14600 17.07700 36.61300

