158

Mg 24.02900 -5.76300 46.16100
C  26.08700 -3.26800 44.38900
C  21.39500 -4.53600 44.34700
C  22.41800 -8.48200 46.88800
C  27.09900 -7.13200 47.34800
N  23.86600 -4.00800 44.49900
C  24.74200 -3.06600 44.06400
C  24.06300 -2.16700 43.09700
C  22.52900 -2.37700 43.28600
C  22.60000 -3.70800 44.10300
C  21.81700 -1.25700 44.14600
C  24.53500 -2.42700 41.65300
C  25.26900 -1.28900 40.82100
H  26.18700 -1.62000 39.58500
N  22.09400 -6.33800 45.81000
C  21.13300 -5.74100 45.06100
C  19.98800 -6.55000 45.06500
C  20.21900 -7.67600 45.88600
C  21.60900 -7.53800 46.26800
C  18.67300 -6.09000 44.36400
C  19.19800 -8.75300 46.35100
O  17.99600 -8.77400 45.97100
C  19.55000 -9.86300 47.27300
N  24.63200 -7.60200 46.93600
C  23.72100 -8.51200 47.17200
C  24.35400 -9.62400 48.03300
C  25.90200 -9.23600 48.15100
C  25.89400 -7.90600 47.47000
C  23.79000 -9.75900 49.42500
C  26.76700 -10.28300 47.50500
C  27.77100 -10.84300 48.43100
N  26.11500 -5.29300 46.08100
C  27.19300 -5.87000 46.70700
C  28.39200 -5.11400 46.41800
C  28.00600 -4.10300 45.55600
C  26.57200 -4.22500 45.31100
C  29.77300 -5.42700 46.98300
C  28.50000 -2.99100 44.69900
O  29.66600 -2.64300 44.39200
C  27.23900 -2.47000 43.85700
C  26.96800 -1.05800 44.19500
O  26.32700 -0.66100 45.13700
O  27.67400 -0.32100 43.32100
C  27.91900 1.07600 43.58000
H  20.58000 -4.02000 43.83400
H  21.90000 -9.43400 47.02600
H  28.02200 -7.64700 47.62200
H  24.40100 -1.18200 43.42000
H  21.95800 -2.53500 42.37100
H  22.08400 -1.35700 45.19800
H  20.73300 -1.17500 44.06400
H  22.16500 -0.26600 43.85500
H  23.72500 -2.60800 40.94700
H  25.22800 -3.26500 41.58600
H  25.77300 -0.67700 41.56900
H  24.52400 -0.56700 40.48600
H  18.00200 -6.03200 45.22200
H  18.20100 -6.80500 43.69100
H  18.72700 -5.12300 43.86400
H  18.73900 -10.24000 47.89600
H  20.22300 -9.44900 48.02300
H  20.11200 -10.67000 46.80200
H  24.16800 -10.54000 47.47200
H  26.21200 -9.10700 49.18700
H  22.75800 -10.11200 49.42100
H  23.93200 -8.82800 49.97400
H  24.34300 -10.62000 49.80000
H  27.22300 -9.88700 46.59700
H  26.11300 -11.14100 47.35000
H  28.02400 -10.13400 49.21900
H  28.72700 -11.12300 47.98800
H  27.32000 -11.65900 48.99600
H  30.03700 -6.45500 46.73200
H  29.64300 -5.46000 48.06500
H  30.57900 -4.78300 46.63300
H  27.59800 -2.58400 42.83400
H  28.32700 1.44900 42.64000
H  28.74600 1.09200 44.29000
H  27.08600 1.73000 43.83800
Mg 41.43100 8.64000 29.24300
C  43.18300 9.61000 32.15900
C  39.18900 6.86300 31.22400
C  40.01600 7.55300 26.44900
C  44.06500 9.95400 27.37700
N  41.18400 8.37800 31.37800
C  42.01300 8.89700 32.42000
C  41.39800 8.53700 33.73300
C  40.37500 7.37400 33.43500
C  40.28900 7.42100 31.89300
C  40.81000 5.93000 33.90100
C  40.77900 9.75300 34.53300
C  40.88200 9.69600 36.02800
H  41.58000 10.89000 36.66700
N  39.81200 7.30500 28.92700
C  38.97700 6.79100 29.83400
C  37.90200 6.17200 29.14000
C  38.07900 6.47100 27.74300
C  39.37600 7.08500 27.62700
C  36.75800 5.39200 29.85100
C  37.19300 6.00500 26.60900
O  37.66400 5.92200 25.49000
C  35.87300 5.45500 26.89500
N  42.12900 8.46800 27.31800
C  41.29500 8.07300 26.28500
C  41.95900 8.26900 24.90900
C  43.30200 8.94700 25.21100
C  43.21700 9.08100 26.73600
C  42.12200 6.88800 24.23800
C  43.51800 10.33000 24.48000
C  42.50100 11.47800 24.75800
N  43.22500 9.68900 29.62600
C  44.19600 10.19600 28.77800
C  45.18700 10.86600 29.51300
C  44.83200 10.66100 30.85400
C  43.67400 9.88300 30.88900
C  46.36300 11.58500 28.93600
C  45.27900 10.96600 32.19000
O  46.11700 11.71700 32.64500
C  44.21000 10.28200 33.08600
C  44.77800 9.25100 34.00200
O  45.22500 8.16700 33.72900
O  44.72800 9.76100 35.26900
C  45.18100 9.02800 36.43100
H  38.47900 6.25600 31.78900
H  39.35300 7.40600 25.59300
H  44.86400 10.45800 26.83000
H  42.19000 8.02300 34.27600
H  39.33300 7.51000 33.72500
H  41.06400 5.33100 33.02600
H  40.05600 5.51700 34.57100
H  41.68600 6.04300 34.54000
H  39.70200 9.80000 34.37800
H  41.20000 10.68500 34.15700
H  41.44500 8.78800 36.24600
H  39.94600 9.59000 36.57600
H  36.98200 5.32200 30.91500
H  36.49400 4.38900 29.51600
H  35.83100 5.96500 29.82500
H  35.17600 5.49800 26.05800
H  35.35900 6.06300 27.64000
H  36.10400 4.44500 27.23400
H  41.26000 8.95300 24.42800
H  44.11400 8.23600 25.06100
H  41.78400 6.03700 24.83000
H  43.13100 6.76100 23.84600
H  41.44400 6.88700 23.38400
H  43.49600 10.11600 23.41200
H  44.55700 10.59000 24.68500
H  42.02300 11.08700 25.65600
H  41.77300 11.40600 23.95000
H  42.94500 12.46800 24.85600
H  46.33700 11.99400 27.92600
H  47.10900 10.79200 28.97900
H  46.59000 12.40900 29.61200
H  43.62600 10.96300 33.70600
H  44.34000 8.73100 37.05800
H  45.85000 9.53900 37.12300
H  45.74200 8.16800 36.06500

