158

Mg 47.08400 24.47000 28.48700
C  47.90900 26.55700 31.20900
C  46.34600 21.94300 30.75600
C  46.65800 22.49400 25.91700
C  48.10800 27.04100 26.35600
N  47.15500 24.31300 30.69800
C  47.34400 25.33800 31.64600
C  47.00400 24.84300 33.10900
C  46.72600 23.33800 32.87600
C  46.71400 23.15000 31.37700
C  47.82300 22.49600 33.54100
C  45.85000 25.64700 33.89600
C  46.18600 26.35900 35.24500
H  45.03500 26.56200 36.26600
N  46.74600 22.45500 28.35800
C  46.32400 21.61300 29.35700
C  46.00300 20.35200 28.71900
C  46.26100 20.51000 27.31400
C  46.56100 21.90200 27.19800
C  45.59800 19.09500 29.51900
C  46.06900 19.47200 26.21200
O  46.19300 19.67800 25.00600
C  45.75700 17.97500 26.53700
N  47.62600 24.67100 26.37600
C  47.20700 23.68100 25.57500
C  47.37100 24.08200 24.07900
C  47.39100 25.62300 24.24100
C  47.70400 25.83400 25.70000
C  48.67300 23.40400 23.47100
C  46.13900 26.45800 23.88500
C  44.90900 26.27700 24.79100
N  47.70600 26.40800 28.65700
C  48.17200 27.32900 27.71400
C  48.50800 28.60700 28.27300
C  48.38900 28.34400 29.68500
C  47.99200 26.94100 29.83500
C  49.05900 29.96200 27.70300
C  48.50000 28.99800 30.97900
O  48.68300 30.16500 31.38300
C  48.22900 27.84900 31.97500
C  49.48300 27.57700 32.76200
O  50.50200 27.10300 32.26100
O  49.22600 27.85700 34.06200
C  50.29300 27.79200 35.07800
H  46.11900 21.16700 31.49000
H  46.52200 21.83400 25.05700
H  48.23500 27.94700 25.75900
H  48.03500 24.96000 33.44400
H  45.73000 23.16400 33.28500
H  48.68400 22.24200 32.92200
H  47.25700 21.58500 33.73600
H  48.23900 22.79700 34.50200
H  45.07200 24.95300 34.21400
H  45.22400 26.29500 33.28300
H  46.63100 27.31800 34.98000
H  46.97800 25.74100 35.66900
H  44.62400 18.68900 29.24400
H  45.55600 19.13800 30.60700
H  46.19000 18.25100 29.16600
H  45.70500 17.39200 25.61700
H  44.73700 17.87800 26.90700
H  46.46600 17.60500 27.27800
H  46.45300 23.72600 23.61000
H  48.21200 25.98200 23.62100
H  48.44200 22.56000 22.82100
H  49.46000 23.24000 24.20700
H  48.93900 24.16600 22.73900
H  45.80800 26.14100 22.89600
H  46.42200 27.51100 23.88500
H  44.88900 25.46700 25.52100
H  44.06300 26.20000 24.10800
H  44.95400 27.18600 25.39000
H  48.55900 30.22300 26.77100
H  50.11200 29.91300 27.42400
H  48.98600 30.85400 28.32500
H  47.46800 28.14800 32.69500
H  49.88000 27.20600 35.89900
H  50.41800 28.75200 35.57700
H  51.25100 27.46000 34.67800
Mg -10.28100 40.36500 42.35900
C  -9.03700 37.05200 41.43500
C  -7.52900 41.64900 40.87300
C  -11.80600 43.19700 42.43000
C  -13.39500 38.62100 42.93400
N  -8.58200 39.33100 41.15300
C  -8.20500 38.04300 40.96700
C  -6.91000 37.83900 40.26900
C  -6.32700 39.39400 40.29100
C  -7.56900 40.23800 40.76300
C  -5.12600 39.68200 41.26400
C  -7.09100 37.23100 38.82500
C  -6.30600 35.98800 38.44100
H  -5.29500 36.29500 37.26700
N  -9.70500 42.24300 41.82700
C  -8.51700 42.55500 41.25400
C  -8.39600 43.95900 41.22000
C  -9.64600 44.51000 41.61700
C  -10.46400 43.33000 41.94200
C  -7.10500 44.66600 40.80100
C  -10.02200 45.95700 41.75100
O  -9.28200 46.86000 41.30500
C  -11.27200 46.36900 42.47200
N  -12.29400 40.85300 42.58700
C  -12.66400 42.12900 42.68600
C  -14.08000 42.29200 43.01300
C  -14.70700 40.78100 43.05500
C  -13.40000 40.01200 42.76100
C  -14.56700 43.13500 44.29100
C  -15.76100 40.55100 41.98400
C  -16.97000 39.64600 42.43200
N  -11.08100 38.32500 42.45600
C  -12.31000 37.82700 42.79900
C  -12.22600 36.38600 42.90700
C  -10.97900 36.03000 42.38000
C  -10.31500 37.28600 42.11200
C  -13.40300 35.44600 43.29800
C  -10.10800 34.92600 41.96100
O  -10.24600 33.73800 41.96500
C  -8.81800 35.56000 41.37100
C  -7.62000 35.11200 42.18500
O  -7.21300 35.62600 43.19400
O  -7.15900 33.96400 41.62200
C  -5.94200 33.41800 42.18700
H  -6.57700 42.06300 40.53400
H  -12.39800 44.08300 42.67000
H  -14.37300 38.23600 43.23100
H  -6.14000 37.32000 40.83900
H  -5.99400 39.77800 39.32600
H  -4.88400 38.78200 41.83000
H  -5.22400 40.57600 41.88100
H  -4.29500 39.92700 40.60300
H  -6.93500 38.00900 38.07700
H  -8.13100 36.94100 38.67600
H  -6.99200 35.17500 38.20700
H  -5.87400 35.66500 39.38800
H  -7.03600 44.40100 39.74600
H  -6.26100 44.29800 41.38600
H  -7.09600 45.75000 40.91600
H  -11.41300 45.84100 43.41600
H  -11.97000 46.04500 41.70100
H  -11.30900 47.45400 42.37000
H  -14.49600 42.81900 42.15500
H  -15.08900 40.50000 44.03600
H  -14.74300 42.42100 45.09400
H  -15.46600 43.73600 44.15500
H  -13.81400 43.80800 44.70300
H  -15.35700 40.03400 41.11400
H  -16.24700 41.49400 41.73200
H  -17.90200 40.21000 42.39900
H  -16.80700 39.22400 43.42300
H  -17.04200 38.77800 41.77600
H  -14.29600 35.87000 42.83800
H  -13.46900 35.55600 44.38100
H  -13.20300 34.40300 43.05300
H  -8.76700 35.21600 40.33800
H  -5.93900 32.37400 41.87500
H  -5.81000 33.44400 43.26900
H  -5.03600 33.89500 41.81400

