158

Mg 26.53900 49.95500 26.67300
C  24.51400 51.28100 29.27000
C  28.89800 49.05100 29.02600
C  28.42500 48.82600 24.16500
C  24.19000 51.03000 24.45800
N  26.65700 50.09200 28.91200
C  25.77100 50.69500 29.75600
C  26.12300 50.42900 31.23600
C  27.64500 49.86500 31.08100
C  27.76500 49.62900 29.57200
C  28.80100 50.74600 31.71600
C  25.21000 49.31100 31.76000
C  24.69900 49.36500 33.23000
H  25.44600 49.97100 34.47900
N  28.53900 49.21300 26.59500
C  29.26900 48.81900 27.64500
C  30.41100 48.11100 27.21500
C  30.36100 48.13700 25.78400
C  29.05800 48.70000 25.41700
C  31.49500 47.63400 28.06100
C  31.44200 47.70600 24.78700
O  31.16600 47.85000 23.58700
C  32.82500 47.15000 25.34700
N  26.29500 49.85300 24.60400
C  27.21900 49.29300 23.79200
C  26.74100 49.32100 22.30700
C  25.40500 50.09100 22.49200
C  25.24500 50.30000 23.97800
C  27.76800 50.00400 21.24500
C  24.18700 49.43000 21.80000
C  23.67000 48.14200 22.47700
N  24.69400 50.89800 26.86500
C  23.89200 51.34300 25.82800
C  22.77700 51.97800 26.30400
C  22.91300 51.99300 27.72200
C  24.12200 51.32400 27.92800
C  21.61000 52.51800 25.46000
C  22.29000 52.35600 28.96500
O  21.21800 52.81600 29.20900
C  23.36000 51.93300 30.03500
C  23.77900 53.09100 30.99000
O  24.89100 53.62900 30.93100
O  22.83500 53.30600 31.96400
C  23.28700 54.15600 33.08400
H  29.70600 48.76100 29.70200
H  28.93100 48.41800 23.28700
H  23.46200 51.34300 23.70700
H  26.11100 51.32200 31.86100
H  27.78000 48.94500 31.65000
H  29.47800 51.12200 30.94900
H  29.34900 49.97800 32.26100
H  28.40600 51.58800 32.28400
H  25.51200 48.27600 31.60400
H  24.29800 49.38500 31.16900
H  24.59700 48.33300 33.56800
H  23.71100 49.81700 33.15400
H  31.25800 47.89300 29.09300
H  32.42400 48.13600 27.79300
H  31.51300 46.54700 28.13600
H  33.27200 48.06300 25.73900
H  33.52900 46.73700 24.62500
H  32.77700 46.33500 26.06900
H  26.49400 48.31100 21.98200
H  25.44900 51.07700 22.03000
H  28.76600 50.05700 21.68000
H  27.33900 50.92200 20.84300
H  27.83700 49.23500 20.47500
H  24.49600 49.17000 20.78800
H  23.34100 50.10900 21.69100
H  24.11900 47.95100 23.45200
H  23.80500 47.27400 21.83200
H  22.59600 48.21100 22.65200
H  21.48500 52.21300 24.42100
H  21.78400 53.59400 25.44800
H  20.66600 52.28300 25.95000
H  22.90600 51.16000 30.65500
H  23.93600 53.58900 33.75100
H  22.52900 54.47700 33.79800
H  23.76300 55.06200 32.70900
Mg -12.82200 39.36800 42.78100
C  -11.11100 36.36600 41.76100
C  -10.42500 41.10900 41.04000
C  -14.61900 41.99500 43.26100
C  -15.46200 37.22200 43.82600
N  -10.92300 38.71300 41.54700
C  -10.45600 37.43700 41.31700
C  -9.19500 37.52200 40.34000
C  -8.87300 39.06500 40.30600
C  -10.09300 39.70700 40.97900
C  -7.55800 39.51800 40.95400
C  -9.34200 36.87400 38.97700
C  -8.14700 36.02700 38.43600
H  -7.23200 36.75300 37.56900
N  -12.51100 41.31300 42.33000
C  -11.50600 41.85300 41.55100
C  -11.75800 43.26300 41.39000
C  -12.88600 43.60100 42.23200
C  -13.41400 42.29500 42.65700
C  -10.75700 44.25400 40.66700
C  -13.40600 45.04000 42.59200
O  -12.90200 45.97700 41.94300
C  -14.29100 45.25900 43.69600
N  -14.80300 39.52900 43.34300
C  -15.27200 40.80600 43.58100
C  -16.58000 40.75700 44.35300
C  -16.82300 39.19300 44.63900
C  -15.63500 38.63000 43.87500
C  -16.73100 41.71900 45.56700
C  -18.17800 38.69200 44.14400
C  -19.12100 38.41200 45.43300
N  -13.23200 37.20400 42.77600
C  -14.34800 36.53700 43.22200
C  -14.07700 35.12700 43.29800
C  -12.79800 34.99700 42.67500
C  -12.37200 36.29200 42.42800
C  -14.94700 34.07200 43.90900
C  -11.74600 34.05000 42.38600
O  -11.72600 32.79600 42.49000
C  -10.67700 34.90800 41.66000
C  -9.33100 34.62800 42.20800
O  -8.90000 35.00300 43.25000
O  -8.78200 33.48900 41.60600
C  -7.53900 32.88200 42.13000
H  -9.65000 41.65600 40.49900
H  -15.17900 42.91100 43.46300
H  -16.29200 36.57400 44.11500
H  -8.42100 36.88700 40.77100
H  -8.74600 39.39100 39.27400
H  -7.13600 38.78000 41.63700
H  -7.63600 40.35100 41.65200
H  -6.88900 39.83400 40.15300
H  -9.36800 37.62100 38.18400
H  -10.28600 36.33600 38.88300
H  -8.64100 35.22400 37.88900
H  -7.74300 35.38000 39.21500
H  -10.29100 45.05400 41.24200
H  -11.25300 44.73200 39.82200
H  -9.83100 43.85200 40.25600
H  -15.32500 45.34200 43.36000
H  -14.14100 46.23100 44.16600
H  -14.12000 44.54600 44.50200
H  -17.37100 41.09700 43.68500
H  -16.69300 38.99700 45.70400
H  -16.82700 41.26000 46.55100
H  -17.65700 42.27000 45.40900
H  -15.91600 42.44100 45.62300
H  -18.03800 37.77900 43.56600
H  -18.64700 39.44600 43.51300
H  -20.05900 38.92700 45.22700
H  -18.72100 39.01300 46.25000
H  -19.23500 37.38700 45.78700
H  -15.21000 34.47100 44.88900
H  -14.69200 33.01500 43.97700
H  -15.90600 34.23500 43.41700
H  -10.65900 34.56900 40.62400
H  -6.68800 33.54200 42.29600
H  -7.17800 32.21900 41.34500
H  -7.72400 32.31300 43.04200

