158

Mg 25.44400 -0.15200 29.80100
C  27.47700 -0.14100 32.55600
C  22.81400 0.24200 31.88300
C  23.64800 -0.09800 27.02600
C  28.29600 -1.04000 27.76000
N  25.21400 -0.09600 31.99700
C  26.13000 -0.05600 32.95400
C  25.57800 0.06900 34.45800
C  24.01600 0.05900 34.08600
C  24.01700 0.03200 32.60600
C  23.04300 -1.00800 34.68500
C  26.00000 1.34600 35.23200
C  26.82800 1.37700 36.53200
H  26.39500 2.47000 37.65600
N  23.40600 0.04900 29.49000
C  22.47700 0.22000 30.48400
C  21.16600 0.44300 29.89300
C  21.42200 0.50500 28.44400
C  22.88600 0.13200 28.23000
C  19.87200 0.59000 30.66600
C  20.50700 0.71900 27.24100
O  20.89700 0.63400 26.07800
C  19.11600 1.19500 27.50300
N  25.84000 -0.59700 27.58600
C  24.93700 -0.40900 26.67800
C  25.56200 -0.45600 25.25300
C  27.04700 -0.73900 25.55500
C  27.10700 -0.90700 27.03400
C  25.01800 -1.48900 24.27100
C  28.07200 0.35200 24.95900
C  29.34200 -0.09800 24.27800
N  27.46800 -0.57300 30.03500
C  28.49100 -0.95800 29.18200
C  29.77300 -0.96700 29.89300
C  29.36900 -0.64700 31.19500
C  27.96800 -0.46000 31.26400
C  31.20700 -1.30800 29.35000
C  29.95600 -0.40000 32.52000
O  31.11900 -0.35900 32.94600
C  28.71000 -0.15700 33.51500
C  28.54600 -1.22200 34.51000
O  28.00300 -2.30800 34.30000
O  29.21100 -0.86400 35.64100
C  28.98300 -1.70300 36.86300
H  22.01700 0.33600 32.62400
H  23.08700 0.19700 26.13700
H  29.18700 -1.26600 27.17100
H  25.85800 -0.83700 34.99700
H  23.68100 1.07100 34.31000
H  23.54500 -1.27400 35.61500
H  23.00200 -1.86200 34.01000
H  22.06700 -0.58700 34.92700
H  25.07600 1.85800 35.50300
H  26.58400 2.01200 34.59600
H  27.85500 1.59300 36.23800
H  26.83400 0.43000 37.07200
H  20.02400 -0.16400 31.43800
H  18.91400 0.24600 30.27600
H  19.77100 1.57700 31.11900
H  18.43900 0.44000 27.90200
H  18.67000 1.61900 26.60400
H  19.17200 1.94300 28.29500
H  25.51900 0.50800 24.74700
H  27.36000 -1.75500 25.31300
H  24.42500 -2.29900 24.69600
H  25.89100 -1.96000 23.81900
H  24.47100 -0.96700 23.48600
H  28.38200 1.01900 25.76400
H  27.45900 0.90300 24.24600
H  29.51500 -1.16900 24.16600
H  30.20800 0.26300 24.83200
H  29.30100 0.19200 23.22800
H  31.32500 -0.70400 28.45000
H  31.16400 -2.33600 28.98900
H  31.93600 -1.01600 30.10500
H  28.89000 0.82400 33.95600
H  27.96000 -1.76600 37.23200
H  29.65700 -1.37300 37.65300
H  29.34000 -2.70600 36.62800
Mg 44.14000 3.40300 47.50700
C  41.71400 5.88000 46.76300
C  41.55000 1.12200 47.19000
C  46.47800 0.95200 47.56800
C  46.57300 5.71200 46.76700
N  41.88600 3.57700 47.20300
C  41.09900 4.67400 46.91800
C  39.69200 4.28900 46.50100
C  39.64700 2.91400 47.21000
C  41.12200 2.48600 47.14100
C  39.08600 2.81200 48.60300
C  39.47100 4.32400 44.97600
C  38.31700 5.15900 44.41100
H  38.61700 6.41700 43.61300
N  44.06100 1.26600 47.40600
C  42.89000 0.50200 47.32800
C  43.28900 -0.82900 47.49000
C  44.72000 -0.90000 47.63600
C  45.17500 0.46600 47.53600
C  42.37600 -1.94500 47.34800
C  45.62900 -2.16000 47.65600
O  45.10600 -3.27100 47.65700
C  47.08400 -2.12600 47.52300
N  46.22900 3.35000 47.04200
C  47.00500 2.28000 47.25100
C  48.47700 2.60900 47.28400
C  48.52100 4.08100 46.97800
C  47.03800 4.42900 46.94500
C  49.12700 2.30000 48.65700
C  49.34200 4.61000 45.75200
C  50.75500 5.15800 46.02500
N  44.15500 5.45900 47.01500
C  45.25900 6.25200 46.76200
C  44.78000 7.59700 46.66600
C  43.40700 7.49400 46.61800
C  43.08500 6.18500 46.81500
C  45.55700 8.89500 46.45600
C  42.11000 8.26500 46.54800
O  41.82200 9.45500 46.59000
C  41.03600 7.16400 46.59600
C  40.08100 7.37000 47.68300
O  40.42100 7.40700 48.86900
O  38.74800 7.53600 47.28300
C  37.81300 7.56900 48.40100
H  40.74300 0.39500 47.08000
H  47.31000 0.28500 47.80100
H  47.38700 6.43900 46.71700
H  38.98500 5.03800 46.85800
H  39.16500 2.14000 46.61200
H  38.50500 3.66300 48.95800
H  39.90400 2.63800 49.30200
H  38.45500 1.92400 48.65900
H  39.19600 3.30400 44.70600
H  40.38100 4.48900 44.39900
H  37.64300 5.47600 45.20700
H  37.83000 4.37500 43.83100
H  41.39900 -1.66600 46.95300
H  42.15600 -2.44600 48.29100
H  42.77900 -2.74400 46.72600
H  47.49000 -1.46800 46.75500
H  47.53000 -3.12000 47.46900
H  47.39700 -1.78900 48.51100
H  49.06000 2.04600 46.55500
H  48.77800 4.67000 47.85800
H  48.37500 2.25300 49.44400
H  49.88100 3.07600 48.78900
H  49.78800 1.43600 48.59100
H  48.80700 5.16400 44.98100
H  49.53400 3.65000 45.27200
H  50.77900 5.16600 47.11500
H  50.92400 6.14600 45.59800
H  51.54400 4.47700 45.70800
H  46.31600 9.02300 47.22800
H  44.99100 9.81100 46.62300
H  46.17300 8.93400 45.55800
H  40.53900 7.21500 45.62800
H  37.62000 8.61000 48.65700
H  38.10500 6.94100 49.24300
H  36.85900 7.16700 48.05800

