158

Mg 24.70100 -7.14900 47.32400
C  27.34900 -5.26100 46.29500
C  22.95700 -6.18200 44.66000
C  22.67900 -9.84300 47.75900
C  27.05600 -8.89200 49.50600
N  25.20100 -5.96000 45.66500
C  26.28300 -5.17100 45.41100
C  26.09300 -4.30800 44.18200
C  24.67800 -4.66900 43.69400
C  24.20700 -5.60400 44.78100
C  23.71700 -3.51000 43.39700
C  27.23500 -4.41200 43.09800
C  27.87200 -3.11400 42.61100
H  27.81600 -2.71200 41.19800
N  22.89200 -7.71000 46.59300
C  22.32300 -7.16600 45.44700
C  21.03500 -7.80300 45.20000
C  20.88500 -8.75900 46.24200
C  22.15800 -8.83500 46.96600
C  20.08300 -7.22800 44.11800
C  19.65800 -9.57600 46.44300
O  18.69900 -9.46500 45.75000
C  19.60400 -10.51600 47.56200
N  24.81900 -9.09100 48.47000
C  23.81000 -9.92600 48.46500
C  24.03700 -11.12400 49.38300
C  25.34000 -10.70500 50.10900
C  25.83400 -9.60800 49.19400
C  22.92800 -11.48900 50.36200
C  26.39600 -11.80900 50.24900
C  26.72700 -12.26100 51.65900
N  26.71900 -7.01600 47.98600
C  27.55400 -7.69600 48.83600
C  28.82000 -7.07400 48.91200
C  28.77000 -6.02700 47.98900
C  27.47800 -6.05800 47.41200
C  30.08200 -7.50000 49.66900
C  29.54600 -4.94900 47.38100
O  30.69200 -4.54800 47.57800
C  28.54600 -4.38200 46.31500
C  28.25100 -2.98700 46.76200
O  28.12000 -2.51700 47.92600
O  28.16500 -2.21400 45.64000
C  27.86700 -0.80400 45.86700
H  22.28200 -5.87000 43.86000
H  22.03800 -10.72500 47.69800
H  27.72500 -9.36500 50.22700
H  26.10600 -3.27300 44.52500
H  24.69500 -5.28100 42.79200
H  23.22600 -3.61600 42.43000
H  24.24600 -2.56100 43.31100
H  22.94800 -3.53300 44.16900
H  26.81600 -4.83600 42.18500
H  27.86600 -5.20700 43.49400
H  28.93100 -3.09500 42.87200
H  27.30000 -2.29300 43.04300
H  19.14700 -7.78600 44.07600
H  20.57500 -7.21500 43.14600
H  19.75600 -6.21800 44.36600
H  20.03500 -9.95000 48.38800
H  20.10100 -11.47000 47.38600
H  18.57500 -10.61700 47.90400
H  24.20300 -11.92900 48.66700
H  24.96600 -10.25400 51.02800
H  22.45300 -10.53900 50.61000
H  23.24700 -12.08000 51.22100
H  22.21700 -12.06000 49.76500
H  27.28100 -11.48800 49.69900
H  25.93700 -12.70800 49.83600
H  26.07900 -11.78800 52.39700
H  27.78800 -12.02100 51.72700
H  26.62900 -13.34600 51.63700
H  30.04100 -8.23300 50.47500
H  30.38200 -6.65400 50.28700
H  30.89600 -7.66500 48.96400
H  29.04400 -4.29000 45.35000
H  28.41000 -0.44700 46.74100
H  26.80800 -0.62500 46.05700
H  28.20800 -0.21900 45.01200
Mg 48.04300 34.31800 27.22300
C  46.19100 32.93000 29.86900
C  48.40900 37.19400 29.14900
C  48.94800 36.07900 24.48300
C  47.13700 31.66500 25.15300
N  47.35200 35.01100 29.19800
C  46.75000 34.17700 30.17500
C  46.94500 34.74800 31.59200
C  47.33000 36.20300 31.25000
C  47.79400 36.13600 29.78100
C  46.21100 37.23200 31.41400
C  48.13000 33.89500 32.25300
C  48.05000 33.70900 33.74700
H  47.17000 34.75800 34.53300
N  48.68800 36.28900 26.95200
C  48.78400 37.34100 27.81600
C  49.31200 38.56300 27.17300
C  49.52100 38.21000 25.77700
C  49.03500 36.78100 25.72000
C  49.59400 39.89300 27.92400
C  50.00800 39.12600 24.59000
O  50.16000 38.71900 23.45800
C  50.51900 40.50500 24.82700
N  47.88900 33.98700 25.09800
C  48.43700 34.81600 24.19800
C  48.64300 34.25800 22.78500
C  47.99800 32.82900 22.96900
C  47.64300 32.80500 24.49300
C  48.13600 35.10500 21.56700
C  48.96700 31.72300 22.59100
C  50.26200 31.64200 23.40900
N  46.98500 32.57600 27.41600
C  46.75500 31.56600 26.51700
C  46.03500 30.52400 27.22500
C  45.63800 31.07400 28.50800
C  46.33800 32.33200 28.61900
C  45.85100 29.17500 26.70800
C  44.91400 30.82000 29.67100
O  44.23300 29.86900 29.99400
C  45.08000 32.13700 30.52000
C  45.29500 31.72300 31.90600
O  46.08800 30.86600 32.30600
O  44.46300 32.40400 32.73700
C  44.35700 31.95300 34.14400
H  48.62200 38.12400 29.68200
H  49.22500 36.66100 23.60200
H  46.70000 30.92300 24.48100
H  46.00600 34.66400 32.13900
H  48.25200 36.53200 31.72900
H  46.75800 38.16900 31.51600
H  45.50700 37.01700 32.21800
H  45.64600 37.36500 30.49200
H  49.01400 34.50000 32.05300
H  48.26200 32.94400 31.73700
H  49.06500 33.86700 34.11000
H  47.75900 32.67000 33.90300
H  50.34700 40.54300 27.47800
H  49.90400 39.60500 28.92900
H  48.59900 40.32000 28.05200
H  51.49400 40.41200 25.30500
H  49.74100 41.09500 25.31200
H  50.79700 40.88800 23.84500
H  49.72800 34.24800 22.67500
H  47.12700 32.59400 22.35900
H  47.38500 35.86800 21.77500
H  47.68900 34.45200 20.81700
H  49.00200 35.61500 21.14600
H  49.27000 31.99400 21.57900
H  48.47700 30.76900 22.39600
H  50.37500 32.45900 24.12200
H  51.11500 31.63800 22.73000
H  50.26700 30.70700 23.97000
H  45.45100 28.54800 27.50500
H  46.81800 28.80000 26.37100
H  45.09400 29.09900 25.92700
H  44.13600 32.66900 30.40000
H  44.06100 30.90400 34.14400
H  43.61500 32.59600 34.61800
H  45.34900 32.07000 34.58000

