158

Mg 25.21300 0.97300 29.91700
C  27.04700 1.07800 32.81200
C  22.31900 1.34000 31.80200
C  23.36700 0.60000 27.16700
C  28.15400 0.48600 28.15000
N  24.69900 1.12300 32.05700
C  25.65500 1.31700 33.00700
C  24.93600 1.74700 34.32600
C  23.44000 1.80400 34.08400
C  23.43900 1.41800 32.57900
C  22.63500 0.67100 34.88300
C  25.48900 3.20700 34.72400
C  26.21900 3.30000 36.08400
H  25.64900 4.21100 37.20200
N  23.13000 0.90700 29.48200
C  22.16500 1.16700 30.38900
C  20.88600 1.19000 29.74600
C  21.17900 0.89200 28.33000
C  22.57400 0.73900 28.31200
C  19.53400 1.42200 30.46600
C  20.17400 0.74400 27.23900
O  20.39900 0.52500 26.05700
C  18.62700 0.80200 27.62200
N  25.67700 0.48500 27.99000
C  24.73700 0.60500 26.96400
C  25.46500 0.59900 25.60800
C  26.92100 0.78100 26.00200
C  26.94200 0.53800 27.48900
C  25.21800 -0.60300 24.71700
C  27.43800 2.20800 25.63700
C  26.64500 3.46100 26.21400
N  27.22400 0.78800 30.32400
C  28.28500 0.55300 29.54000
C  29.45400 0.35400 30.36000
C  29.05100 0.66100 31.66200
C  27.67800 0.85600 31.59900
C  30.86200 0.11700 29.86000
C  29.50000 0.96200 33.02700
O  30.61500 0.95300 33.54100
C  28.23100 1.30200 33.83600
C  28.18300 0.38200 34.98800
O  27.75000 -0.76200 35.03800
O  28.65700 1.06700 36.08400
C  28.53800 0.21000 37.29000
H  21.46600 1.72000 32.36800
H  22.79800 0.49700 26.24100
H  29.02300 0.52700 27.49000
H  25.20700 1.01100 35.08300
H  22.91100 2.74400 34.24000
H  21.92400 1.18600 35.53000
H  23.30400 0.11300 35.53800
H  22.08500 0.03500 34.19000
H  24.56900 3.78300 34.82000
H  26.10400 3.55200 33.89200
H  27.18900 3.70100 35.78900
H  26.47000 2.28900 36.40500
H  19.12100 2.38000 30.14900
H  19.60600 1.63600 31.53200
H  18.86800 0.58400 30.26100
H  18.27200 1.55900 28.32100
H  18.38600 -0.23100 27.87100
H  17.98900 1.07400 26.78100
H  25.12000 1.47300 25.05400
H  27.54500 0.05400 25.48400
H  26.15700 -0.91100 24.25600
H  24.60300 -0.32800 23.86000
H  24.89200 -1.50200 25.24100
H  27.33000 2.23300 24.55300
H  28.51000 2.19200 25.83300
H  25.81400 3.25400 26.88800
H  26.16100 3.99100 25.39200
H  27.26100 4.11400 26.83200
H  31.07200 0.12200 28.79000
H  31.03500 -0.85800 30.31600
H  31.53900 0.75100 30.43300
H  28.31600 2.31500 34.22900
H  28.66100 0.89800 38.12700
H  29.30700 -0.56300 37.28200
H  27.53400 -0.20500 37.38200
Mg 30.03500 57.72400 40.20500
C  27.22000 55.67800 39.23000
C  32.01000 55.25000 38.91800
C  32.54900 59.86800 40.50200
C  27.69600 60.32200 40.96400
N  29.56800 55.70600 38.93400
C  28.41900 54.98900 38.89000
C  28.64100 53.56700 38.38100
C  30.16700 53.56900 38.09900
C  30.64400 54.86700 38.69500
C  31.01100 52.34500 38.63500
C  27.80900 53.06600 37.10600
C  27.58200 54.10000 35.99300
H  28.19900 53.85600 34.63200
N  32.08000 57.47600 39.96800
C  32.71900 56.38500 39.37400
C  34.15400 56.69400 39.31500
C  34.30800 58.08000 39.71900
C  32.93700 58.57100 40.07800
C  35.14100 55.61300 38.82800
C  35.63900 58.88200 39.79200
O  36.66800 58.41000 39.38600
C  35.70700 60.26900 40.31700
N  30.07400 59.81900 40.66200
C  31.28200 60.44500 40.91200
C  31.13100 61.97900 41.19900
C  29.55500 62.00600 41.54700
C  29.03600 60.64900 40.94700
C  32.04100 62.39300 42.36000
C  28.83900 63.22100 40.95000
C  28.00400 63.91500 42.08700
N  27.89600 57.99300 40.20900
C  27.13900 59.09200 40.54600
C  25.78800 58.79500 40.44700
C  25.77600 57.41600 39.94100
C  27.08800 57.02600 39.74200
C  24.51300 59.72100 40.77400
C  24.83800 56.31000 39.68700
O  23.64100 56.17800 39.81200
C  25.76800 55.13900 39.17900
C  25.50400 53.94500 40.00200
O  25.96500 53.61900 41.13000
O  24.62700 53.13400 39.37500
C  24.54700 51.73500 39.84700
H  32.61600 54.53500 38.35800
H  33.35800 60.58600 40.34700
H  26.96500 61.09700 41.20400
H  28.48100 52.93900 39.25700
H  30.23400 53.82300 37.04200
H  30.30100 51.55100 38.86800
H  31.53200 52.52400 39.57600
H  31.63700 52.05200 37.79200
H  26.81400 52.72500 37.39300
H  28.23200 52.14200 36.71200
H  27.96600 55.04500 36.37600
H  26.50800 54.26300 35.89900
H  35.54600 55.82800 37.83900
H  34.59000 54.67700 38.74100
H  35.91400 55.39200 39.56400
H  36.72200 60.65500 40.41200
H  35.42100 60.19200 41.36600
H  35.26800 61.06800 39.72000
H  31.39700 62.48200 40.26900
H  29.46300 61.95000 42.63200
H  32.36900 61.45100 42.79900
H  31.54300 62.92900 43.16800
H  32.89000 62.99200 42.02900
H  28.19900 62.83200 40.15900
H  29.52000 63.91000 40.45000
H  28.08100 63.61900 43.13300
H  26.97100 63.82800 41.75100
H  28.09800 65.00100 42.08500
H  23.68800 59.29500 40.20300
H  24.78200 60.72100 40.43400
H  24.23800 59.59900 41.82200
H  25.55000 54.89200 38.14000
H  25.43600 51.16000 39.58900
H  23.78700 51.27600 39.21500
H  24.34700 51.68800 40.91800

