158

Mg 16.65000 -0.33900 28.26200
C  15.59400 1.76100 30.97300
C  18.51800 -2.10400 30.53600
C  18.16000 -1.88700 25.78700
C  15.26200 2.04600 26.08200
N  16.94500 -0.27100 30.56400
C  16.35000 0.68800 31.41100
C  16.70300 0.35300 32.90600
C  17.84400 -0.74300 32.63700
C  17.76700 -1.08900 31.15400
C  19.35200 -0.46000 33.05000
C  15.57700 -0.03200 33.91000
C  15.58200 0.74000 35.23400
H  16.95500 1.15400 35.84400
N  17.89000 -1.96500 28.18400
C  18.63600 -2.56500 29.17800
C  19.44800 -3.65000 28.64900
C  19.14000 -3.72800 27.29800
C  18.33100 -2.49200 26.99000
C  20.40000 -4.57000 29.41500
C  19.48600 -4.73600 26.27500
O  18.96900 -4.78700 25.13300
C  20.38800 -6.03900 26.59700
N  16.58400 -0.08100 26.21500
C  17.36600 -0.79900 25.38900
C  17.32800 -0.33300 23.91500
C  16.25700 0.90000 24.03300
C  15.97400 0.94900 25.57400
C  18.81200 0.17000 23.49500
C  14.98000 0.67800 23.17800
C  14.34300 1.91000 22.46200
N  15.58200 1.50700 28.40800
C  15.04100 2.32400 27.43700
C  14.26800 3.35900 28.03700
C  14.46000 3.22700 29.44400
C  15.28100 2.05400 29.63700
C  13.47000 4.45700 27.36600
C  14.14900 3.70600 30.80300
O  13.54600 4.65200 31.15700
C  14.81200 2.71000 31.82000
C  15.77700 3.49600 32.52600
O  16.88800 3.83500 32.22600
O  15.15200 3.87500 33.70000
C  15.87700 4.86600 34.53200
H  19.18500 -2.72600 31.13600
H  18.71700 -2.40200 25.00100
H  14.76700 2.74200 25.40100
H  17.10400 1.29900 33.26800
H  17.54000 -1.64300 33.17000
H  19.52000 0.48600 33.56600
H  20.01400 -0.47200 32.18400
H  19.73000 -1.31500 33.61100
H  15.84600 -1.04600 34.20700
H  14.60100 -0.12900 33.43500
H  15.20700 0.01800 35.95800
H  14.92000 1.60500 35.25000
H  19.90300 -5.48500 29.73500
H  20.67700 -4.10300 30.36000
H  21.32800 -4.81400 28.89700
H  19.99300 -6.53200 27.48500
H  21.37300 -5.62900 26.82100
H  20.35600 -6.79300 25.81000
H  16.99800 -1.20200 23.34600
H  16.72200 1.85200 23.77900
H  19.50300 0.38200 24.31000
H  18.70100 1.10500 22.94600
H  19.25400 -0.60800 22.87300
H  14.24100 0.29100 23.88000
H  15.21200 0.03800 22.32700
H  14.90900 2.74500 22.87500
H  13.29200 2.06400 22.70700
H  14.48200 1.87100 21.38200
H  12.40000 4.26800 27.29000
H  13.92200 4.68200 26.40000
H  13.55800 5.40200 27.90000
H  14.06100 2.31300 32.50300
H  16.45900 5.66300 34.06900
H  16.52500 4.53600 35.34400
H  15.08500 5.42000 35.03700
Mg 25.58600 1.97600 29.61200
C  27.57400 1.64700 32.43600
C  22.66200 1.97200 31.75000
C  23.48600 1.96900 26.94000
C  28.18000 1.01600 27.56100
N  25.13200 1.79500 31.81500
C  26.14900 1.83200 32.73000
C  25.56600 2.10400 34.19600
C  24.05800 2.02600 33.99900
C  23.89400 1.97800 32.43000
C  23.40700 0.87000 34.89800
C  26.14000 3.39500 34.90300
C  27.09100 3.06000 36.04200
H  27.16200 3.95800 37.37400
N  23.43200 2.05600 29.44300
C  22.48300 1.98000 30.42000
C  21.10800 1.96100 29.84400
C  21.32100 2.15400 28.39600
C  22.78900 2.01400 28.23300
C  19.91100 1.88800 30.64400
C  20.33900 2.35800 27.31400
O  20.65800 2.49400 26.15700
C  18.89400 2.48400 27.59500
N  25.79700 1.52000 27.59000
C  24.84000 1.90300 26.69600
C  25.38100 1.96300 25.23500
C  26.92500 1.64400 25.45800
C  27.02300 1.47600 26.95500
C  24.71000 0.99900 24.19300
C  27.97700 2.61300 24.91400
C  29.02500 2.02000 23.93400
N  27.52000 1.52500 29.91800
C  28.50000 1.08800 29.01000
C  29.72000 0.89600 29.64400
C  29.45900 1.21100 30.99900
C  28.09500 1.55400 31.13300
C  30.93900 0.34600 28.91700
C  30.00800 1.11000 32.37100
O  31.09400 0.74600 32.74700
C  28.84600 1.49900 33.32500
C  28.54800 0.42200 34.39600
O  28.01100 -0.62600 34.28600
O  29.27700 0.73600 35.55900
C  29.09400 -0.14000 36.73200
H  21.75600 1.97000 32.36000
H  22.86000 2.13900 26.06100
H  28.89900 0.59200 26.85700
H  25.89600 1.25800 34.79900
H  23.76100 3.00500 34.37500
H  22.77300 0.33400 34.19200
H  22.88000 1.32800 35.73400
H  24.18700 0.19600 35.25200
H  25.34300 4.08100 35.19000
H  26.76000 3.93800 34.18900
H  28.06900 2.91600 35.58300
H  26.76500 2.13900 36.52600
H  19.12900 2.60500 30.39300
H  20.02000 1.97200 31.72500
H  19.53600 0.86500 30.60600
H  18.54000 1.49100 27.87300
H  18.41700 3.00000 26.76200
H  18.69300 3.23100 28.36200
H  25.19100 2.98700 24.91300
H  27.23000 0.64800 25.13700
H  23.73700 1.41600 23.93200
H  24.43900 0.08700 24.72600
H  25.42000 0.93800 23.36800
H  28.36000 3.00300 25.85700
H  27.55600 3.48800 24.41900
H  29.60700 2.81300 23.46500
H  28.50800 1.46000 23.15400
H  29.56500 1.27600 24.51900
H  31.31400 1.20900 28.36600
H  30.71500 -0.48400 28.24700
H  31.60200 0.00100 29.71000
H  29.12700 2.42800 33.82200
H  28.05000 -0.43700 36.83900
H  29.45500 0.35200 37.63500
H  29.66300 -1.03200 36.47000

