158

Mg 40.56700 9.05400 30.51000
C  42.50100 10.36900 32.97200
C  38.36200 7.84300 32.99800
C  38.68900 7.60400 28.16100
C  43.12100 9.48300 28.20800
N  40.48300 9.03100 32.78200
C  41.30000 9.82400 33.52000
C  40.87300 9.90400 34.96600
C  39.59200 8.92200 34.96300
C  39.43300 8.56900 33.50900
C  39.74700 7.64800 35.93200
C  40.74700 11.30800 35.56300
C  39.94300 11.49000 36.86400
H  40.60100 12.11300 38.08400
N  38.76800 8.00000 30.57300
C  38.07900 7.56000 31.69300
C  36.82700 6.99400 31.23400
C  36.82900 6.95800 29.84500
C  38.18400 7.52100 29.45200
C  35.76600 6.46800 32.15000
C  35.82000 6.41800 28.87900
O  36.00900 6.40800 27.65500
C  34.58200 5.76900 29.34400
N  40.93400 8.42600 28.47600
C  39.94200 8.07400 27.70200
C  40.34900 7.93100 26.25000
C  41.80500 8.55200 26.19800
C  42.01200 8.78700 27.71400
C  40.21500 6.48300 25.72700
C  42.04000 9.82600 25.35900
C  43.19200 9.69800 24.38700
N  42.42100 9.72200 30.49100
C  43.34300 9.96200 29.47700
C  44.43800 10.66600 29.98700
C  44.14300 10.88100 31.31700
C  42.90300 10.26000 31.59500
C  45.54900 11.23500 29.19300
C  44.67600 11.38000 32.52600
O  45.75200 11.90000 32.78700
C  43.60500 11.18600 33.61300
C  44.17600 10.58200 34.86300
O  44.27300 9.35400 35.21100
O  44.58800 11.53400 35.76500
C  45.04900 11.24700 37.10600
H  37.71600 7.54400 33.82600
H  38.06000 7.20500 27.36300
H  43.88900 9.62600 27.44500
H  41.69900 9.41700 35.48500
H  38.69600 9.42200 35.33000
H  40.70500 7.52900 36.43800
H  39.68600 6.75600 35.30800
H  38.89700 7.63400 36.61500
H  40.32400 11.90900 34.75800
H  41.72900 11.68900 35.84000
H  39.78100 10.45400 37.16500
H  39.03400 12.06100 36.67200
H  35.70900 5.41100 31.89000
H  34.82500 6.99200 31.98200
H  36.05300 6.44500 33.20100
H  33.89000 5.59100 28.52100
H  33.99500 6.39000 30.02200
H  34.75900 4.76300 29.72400
H  39.79400 8.66300 25.66300
H  42.63000 7.85000 26.08000
H  40.10000 5.69800 26.47500
H  41.02300 6.10600 25.10000
H  39.40300 6.35700 25.01100
H  42.27400 10.58600 26.10400
H  41.13900 10.21000 24.88000
H  44.09700 10.14000 24.80300
H  42.98700 10.17900 23.43000
H  43.52300 8.67700 24.19600
H  45.82000 10.52600 28.41000
H  46.41500 11.25200 29.85400
H  45.31000 12.20100 28.74800
H  43.29700 12.17400 33.95400
H  44.18900 10.92200 37.69200
H  45.53300 12.14600 37.48900
H  45.80300 10.46500 37.19700
Mg 47.21300 35.55700 26.69900
C  45.61900 33.94000 29.37100
C  47.78000 38.25500 28.72400
C  48.11500 37.27100 23.93500
C  46.10000 32.89100 24.62700
N  46.72400 36.01100 28.73000
C  46.21100 35.18300 29.65100
C  46.53000 35.75900 31.05100
C  46.73800 37.24200 30.81400
C  47.15600 37.15600 29.36000
C  45.49400 38.14500 31.11300
C  47.69200 34.99800 31.68500
C  48.01600 35.00200 33.24300
H  47.05600 35.89100 34.06300
N  47.97100 37.48800 26.31900
C  48.10800 38.50000 27.29500
C  48.60800 39.67000 26.71000
C  48.85000 39.37100 25.29400
C  48.30100 37.99800 25.10100
C  48.84400 40.90800 27.48000
C  49.37500 40.24500 24.22000
O  49.41000 39.87100 23.04000
C  49.91500 41.64800 24.51400
N  47.11000 35.07300 24.57300
C  47.52400 35.97000 23.64300
C  47.48700 35.47300 22.25200
C  47.23700 33.94800 22.50600
C  46.78300 33.93700 23.97900
C  46.54600 36.18100 21.24800
C  48.50200 33.11400 22.33900
C  48.61600 32.08800 21.15200
N  46.13000 33.80200 26.86200
C  45.81600 32.79500 25.99100
C  45.17000 31.70100 26.63300
C  45.00600 32.09900 28.03000
C  45.63800 33.38400 28.06800
C  44.53600 30.46600 26.04300
C  44.42200 31.78900 29.28600
O  43.81200 30.80100 29.66400
C  44.69700 32.99000 30.20400
C  45.09700 32.53800 31.53200
O  46.09700 31.86600 31.84600
O  44.20000 33.02300 32.42500
C  44.59400 32.83200 33.82500
H  47.96800 39.18400 29.26800
H  48.44700 37.71600 22.99400
H  45.83900 32.03200 24.00600
H  45.67400 35.61800 31.71000
H  47.54100 37.64100 31.43400
H  45.73900 38.97200 31.77900
H  44.65000 37.56300 31.48200
H  45.19500 38.59300 30.16500
H  48.58900 35.23900 31.11500
H  47.60900 33.94800 31.40500
H  49.02300 35.38900 33.40300
H  47.90500 33.96700 33.56800
H  49.72900 41.38300 27.05800
H  48.96200 40.72800 28.54800
H  48.04600 41.59700 27.20000
H  50.19600 42.12400 23.57500
H  50.73300 41.90600 25.18700
H  49.09000 42.25700 24.88300
H  48.45500 35.57200 21.76100
H  46.46400 33.51200 21.87300
H  45.84000 35.48500 20.79600
H  47.19100 36.66500 20.51500
H  45.95200 36.95500 21.73500
H  48.51600 32.49900 23.23900
H  49.40500 33.72400 22.35300
H  48.53400 31.07500 21.54600
H  49.54500 32.07600 20.58200
H  47.83000 32.25300 20.41600
H  45.25200 29.65600 26.18000
H  44.39900 30.65500 24.97800
H  43.52600 30.23900 26.38300
H  43.74400 33.49800 30.34900
H  43.86000 33.44400 34.35000
H  45.59700 33.23300 33.96900
H  44.40300 31.81500 34.16700

