158

Mg 48.03600 14.98000 28.58100
C  45.60500 14.83300 31.03400
C  50.03900 16.97600 30.42600
C  50.18300 15.30800 25.85700
C  45.92100 12.89500 26.57800
N  47.87200 15.86300 30.44300
C  46.79800 15.61900 31.39400
C  47.17100 16.20600 32.78800
C  48.51300 17.01900 32.49200
C  48.83400 16.67600 31.01900
C  48.27900 18.56100 32.56800
C  47.41000 15.13000 33.89400
C  46.73600 15.37100 35.25200
H  47.56000 15.67700 36.52000
N  49.91200 15.91600 28.14300
C  50.58500 16.66300 29.11400
C  51.84900 17.06000 28.55000
C  51.84500 16.70400 27.18000
C  50.60100 15.93900 27.05500
C  52.87500 17.78700 29.36200
C  52.95400 16.81500 26.15000
O  52.94500 16.33600 25.04300
C  54.22500 17.65900 26.43500
N  47.91100 14.36800 26.43700
C  48.99400 14.50600 25.59600
C  48.70500 13.78300 24.23800
C  47.30900 13.15400 24.48600
C  47.03000 13.43300 25.98100
C  48.61100 14.74100 23.00600
C  47.21100 11.64200 24.09600
C  48.05200 10.64800 24.97400
N  46.22400 13.97800 28.71500
C  45.40500 13.28100 27.79000
C  44.12000 13.00000 28.44300
C  44.21100 13.59200 29.69800
C  45.44300 14.22100 29.79000
C  42.99200 12.12300 27.93000
C  43.48400 13.80800 30.92700
O  42.36100 13.46000 31.18800
C  44.38700 14.66900 31.80400
C  43.75500 15.94900 32.08700
O  43.36900 16.76000 31.32300
O  43.87400 16.21700 33.40400
C  43.40300 17.53000 33.91200
H  50.62900 17.68700 31.00800
H  50.92900 15.46800 25.07600
H  45.27500 12.20700 26.02900
H  46.35400 16.87700 33.05400
H  49.34800 16.69400 33.11300
H  47.23500 18.87400 32.56000
H  48.82000 19.14300 31.82200
H  48.69200 18.76400 33.55600
H  48.48800 14.99800 33.98000
H  47.12300 14.13600 33.55100
H  46.14800 14.49300 35.52000
H  45.98300 16.15800 35.20300
H  52.46700 18.22900 30.27100
H  53.24900 18.65900 28.82600
H  53.73100 17.19300 29.68400
H  54.84800 17.29200 27.25100
H  53.92000 18.69100 26.60900
H  54.80400 17.67900 25.51200
H  49.45400 13.08700 23.85800
H  46.49300 13.63900 23.95000
H  49.42500 14.55300 22.30600
H  48.71100 15.81100 23.18800
H  47.68300 14.59500 22.45200
H  47.48600 11.61900 23.04200
H  46.15800 11.36400 24.08700
H  48.48100 11.16800 25.83100
H  48.81200 10.23700 24.31000
H  47.45100 9.86500 25.43800
H  43.36900 11.47300 27.14000
H  42.18100 12.71700 27.50800
H  42.73200 11.43900 28.73800
H  44.63300 14.05500 32.67000
H  43.15000 17.25000 34.93500
H  42.52400 17.86600 33.36200
H  44.19300 18.27700 33.99500
Mg 8.29100 47.28600 28.42000
C  6.89100 46.89800 31.71200
C  11.28100 47.81700 29.94000
C  9.53300 48.16900 25.44700
C  5.02200 47.89900 27.25100
N  8.90100 47.41900 30.54300
C  8.23900 47.14500 31.76200
C  9.15500 47.45800 32.95500
C  10.45100 48.10900 32.38400
C  10.19300 47.75400 30.82200
C  10.63600 49.63600 32.57800
C  9.47500 46.19100 33.82200
C  9.23200 46.34800 35.29000
H  9.84700 45.23900 36.19200
N  10.22900 47.82500 27.80300
C  11.36300 47.72200 28.54800
C  12.52700 47.91100 27.64900
C  11.99400 48.02900 26.30500
C  10.50700 48.00800 26.46600
C  14.01600 47.74700 28.06500
C  12.75700 48.16700 24.99400
O  12.18700 48.21900 23.93400
C  14.28000 48.24100 24.95900
N  7.45600 48.02100 26.74300
C  8.12400 48.08500 25.54600
C  7.23600 48.03700 24.31200
C  5.84400 48.25500 24.96500
C  6.14600 48.08800 26.43500
C  7.40900 48.99000 23.13000
C  4.75500 47.26500 24.37600
C  3.43500 47.92000 24.07800
N  6.26900 47.19100 29.23500
C  5.08000 47.40500 28.57200
C  3.99600 47.14300 29.48100
C  4.67000 46.90000 30.71200
C  6.07800 47.03200 30.55100
C  2.54300 47.13000 29.24000
C  4.52700 46.51300 32.11400
O  3.53600 46.23700 32.73600
C  5.93300 46.48700 32.83700
C  6.24500 45.07600 33.18100
O  6.72100 44.20300 32.44900
O  5.71300 44.75700 34.42700
C  6.08700 43.40200 34.88300
H  12.28000 47.94800 30.36200
H  9.92400 48.37800 24.45000
H  4.04800 47.92800 26.75900
H  8.64600 48.19900 33.57200
H  11.37700 47.62400 32.69300
H  10.13300 50.03000 33.46100
H  10.28300 50.20300 31.71600
H  11.71600 49.76600 32.63900
H  10.49300 45.82000 33.70700
H  8.91500 45.37000 33.37200
H  8.17200 46.32400 35.54400
H  9.55100 47.34500 35.59500
H  14.53600 48.67300 27.82000
H  14.47000 46.82600 27.70100
H  14.20800 47.76800 29.13800
H  14.72500 48.91300 25.69300
H  14.45600 48.53500 23.92400
H  14.48800 47.19200 25.16900
H  7.37300 47.03000 23.91900
H  5.52900 49.29800 24.96500
H  6.53000 49.63200 23.06700
H  7.43600 48.51800 22.14800
H  8.38100 49.47700 23.21600
H  4.54100 46.42100 25.03100
H  4.98300 46.85400 23.39200
H  3.18400 47.91800 23.01700
H  3.44900 49.00500 24.17800
H  2.63300 47.54300 24.71200
H  2.25000 48.13400 28.93100
H  2.00900 46.75300 30.11200
H  2.25100 46.54000 28.37100
H  5.95500 47.13100 33.71700
H  5.91200 43.32400 35.95600
H  7.14000 43.23300 34.65600
H  5.37700 42.70900 34.43200

