158

Mg 8.69300 46.86600 26.34900
C  6.72200 46.92100 29.20200
C  11.35700 47.80300 28.33200
C  10.51700 47.07800 23.59200
C  5.75300 46.80600 24.34100
N  8.96600 47.24400 28.54100
C  8.01700 47.18700 29.48800
C  8.49200 47.61500 30.90900
C  9.96400 48.17000 30.52800
C  10.16200 47.73400 29.02800
C  10.03000 49.65800 30.69400
C  8.32100 46.41800 31.87900
C  9.34800 46.24700 33.03100
H  9.14400 45.32900 34.24300
N  10.77600 47.17700 26.01000
C  11.68500 47.54800 26.93600
C  12.99600 47.59600 26.30400
C  12.75000 47.27800 24.94900
C  11.30000 47.21300 24.80900
C  14.29100 47.90400 27.07700
C  13.83400 46.98500 23.82800
O  13.42800 46.78900 22.71200
C  15.34500 46.93800 24.10900
N  8.15600 47.06500 24.23800
C  9.15600 47.13900 23.29200
C  8.56300 47.17900 21.83400
C  7.09100 46.83700 22.08600
C  6.97500 46.89500 23.63100
C  8.85100 48.58800 21.20200
C  6.67800 45.53100 21.42400
C  5.31900 45.37300 20.69800
N  6.67600 46.79800 26.63300
C  5.59800 46.69700 25.77900
C  4.44700 46.47700 26.61500
C  4.83100 46.62400 27.90500
C  6.20600 46.80200 27.92300
C  3.06400 46.15200 26.24100
C  4.36200 46.60400 29.26400
O  3.23900 46.45800 29.78800
C  5.56100 46.81600 30.12700
C  5.57100 45.52200 30.89700
O  5.95300 44.43800 30.45600
O  4.99200 45.68600 32.17200
C  4.93100 44.40700 32.93900
H  12.22800 48.10700 28.91700
H  11.10900 47.02100 22.67700
H  4.85100 46.67500 23.74100
H  7.90800 48.45200 31.29100
H  10.74700 47.77700 31.17600
H  9.76500 49.81800 31.73900
H  9.34000 50.15500 30.01200
H  11.07400 49.96500 30.63200
H  8.28300 45.56700 31.19900
H  7.41800 46.53700 32.47900
H  9.62800 47.27300 33.27300
H  10.20700 45.92600 32.44200
H  14.04300 48.14200 28.11100
H  14.72800 48.84700 26.74900
H  14.96100 47.04500 27.03600
H  15.67500 47.94900 24.35000
H  15.92200 46.65500 23.22900
H  15.55300 46.29900 24.96700
H  9.23400 46.51300 21.29100
H  6.38900 47.60900 21.77000
H  7.97300 49.11700 20.83300
H  9.47300 48.47900 20.31300
H  9.21700 49.33900 21.90200
H  6.49900 44.82000 22.23000
H  7.51000 45.11000 20.86000
H  4.60700 46.07200 21.13600
H  4.87400 44.38700 20.83100
H  5.42800 45.60400 19.63900
H  2.26400 46.70400 26.73200
H  2.94900 45.09000 26.46000
H  2.85700 46.29100 25.18000
H  5.42700 47.60700 30.86400
H  4.76200 43.50900 32.34500
H  4.20700 44.52000 33.74500
H  5.90400 44.39400 33.43000
Mg -8.73100 40.10800 43.19400
C  -8.07200 36.79900 42.29200
C  -5.91200 40.99700 41.32800
C  -9.64400 43.40400 43.30100
C  -11.79600 39.26500 44.33900
N  -7.16200 38.99800 42.07200
C  -7.07500 37.66500 41.90000
C  -5.90600 37.31300 40.99800
C  -5.05900 38.61400 40.94900
C  -6.09700 39.63800 41.41900
C  -3.81800 38.74000 41.82400
C  -6.49400 36.75100 39.68400
C  -5.59100 35.58500 38.99100
H  -4.74600 36.08900 37.77800
N  -7.87000 41.95800 42.43000
C  -6.72500 42.09000 41.73600
C  -6.46500 43.53300 41.41200
C  -7.56100 44.26700 41.99900
C  -8.43700 43.24300 42.61700
C  -5.34900 44.09400 40.55100
C  -7.64800 45.79700 42.05800
O  -6.88000 46.52800 41.44300
C  -8.79700 46.50700 42.85000
N  -10.49800 41.26200 43.62100
C  -10.63100 42.56400 43.77200
C  -11.97000 43.06600 44.30100
C  -12.61400 41.70700 44.71700
C  -11.55600 40.65300 44.15400
C  -11.87600 44.25300 45.33900
C  -14.14800 41.46000 44.44400
C  -14.48400 41.35800 42.92300
N  -9.69700 38.32200 43.52300
C  -11.00800 38.14200 43.94200
C  -11.28800 36.66200 43.88800
C  -10.12500 36.14900 43.29300
C  -9.21200 37.16800 43.06000
C  -12.52600 35.89800 44.42500
C  -9.50300 34.93500 42.95400
O  -9.98500 33.77700 43.02100
C  -8.19500 35.29600 42.14700
C  -7.08300 34.57800 42.69700
O  -6.44500 34.86400 43.69800
O  -6.57800 33.71200 41.73200
C  -5.29600 33.03500 42.00000
H  -5.00900 41.24900 40.76800
H  -9.88800 44.43500 43.56600
H  -12.72600 38.98800 44.83800
H  -5.35100 36.54200 41.53200
H  -4.96600 38.81300 39.88100
H  -3.88600 39.44600 42.65100
H  -2.92800 39.14000 41.33700
H  -3.62000 37.73200 42.19100
H  -6.48900 37.55200 38.94500
H  -7.52900 36.41100 39.69900
H  -6.27000 34.77600 38.72500
H  -4.87200 35.05300 39.61400
H  -5.63300 44.94100 39.92600
H  -4.95600 43.34200 39.86600
H  -4.60900 44.35900 41.30600
H  -8.74600 47.56900 42.61300
H  -8.70500 46.33000 43.92200
H  -9.75400 46.16500 42.45600
H  -12.53300 43.34400 43.41000
H  -12.44500 41.57600 45.78600
H  -10.82800 44.44000 45.57300
H  -12.37000 44.07600 46.29500
H  -12.27800 45.16800 44.90500
H  -14.69000 42.34800 44.76800
H  -14.42800 40.58300 45.02800
H  -14.82100 40.35100 42.67700
H  -13.59100 41.59000 42.34200
H  -15.17900 42.10500 42.53900
H  -12.68500 36.22200 45.45400
H  -12.28700 34.83500 44.43100
H  -13.43300 36.06500 43.84400
H  -8.37700 35.07700 41.09500
H  -4.51500 33.73300 42.30300
H  -4.89700 32.55200 41.10800
H  -5.34900 32.31200 42.81400

