158

Mg -1.54600 16.90700 26.08400
C  -1.92700 14.81400 28.85000
C  -1.78300 19.61500 28.14300
C  -1.87400 18.79900 23.24700
C  -1.70300 14.11000 23.91700
N  -1.76400 17.09600 28.24100
C  -1.80800 16.14300 29.21200
C  -2.02200 16.76600 30.58900
C  -1.99500 18.31400 30.26500
C  -1.94700 18.39600 28.79900
C  -3.17400 19.07000 30.84600
C  -1.18900 16.34400 31.76300
C  -0.88100 17.31500 32.86700
H  -0.39000 16.78700 34.18900
N  -1.69300 18.92000 25.73300
C  -1.75300 19.91300 26.70300
C  -1.73900 21.17400 26.04700
C  -1.85100 20.99400 24.65800
C  -1.86300 19.55200 24.48700
C  -1.65600 22.47000 26.83600
C  -2.03100 21.93900 23.53800
O  -2.11400 21.61100 22.34000
C  -2.13000 23.39500 23.84700
N  -1.80500 16.53500 23.88500
C  -1.81900 17.47300 22.96000
C  -1.88800 16.98400 21.46300
C  -1.53100 15.50100 21.73100
C  -1.58000 15.37200 23.29000
C  -3.25000 17.22500 20.77600
C  -0.15400 15.14100 21.21500
C  1.12600 15.85300 21.87600
N  -1.75100 14.96000 26.28500
C  -1.82500 13.94800 25.36000
C  -2.07800 12.62700 26.03500
C  -1.98300 12.93100 27.41200
C  -1.81100 14.35600 27.47600
C  -2.30500 11.33200 25.33100
C  -1.95300 12.36800 28.79800
O  -1.95700 11.19300 29.12100
C  -2.05600 13.56700 29.71000
C  -0.95900 13.29400 30.73900
O  0.23400 13.59900 30.72400
O  -1.50400 12.48500 31.81800
C  -0.51700 11.77300 32.57500
H  -1.79600 20.55400 28.70000
H  -2.00900 19.28500 22.27800
H  -1.80100 13.29900 23.19200
H  -3.06300 16.53200 30.81400
H  -1.02500 18.66500 30.61800
H  -3.82100 19.41600 30.03900
H  -2.80700 19.93100 31.40500
H  -3.72300 18.51800 31.60900
H  -0.16800 16.14500 31.43600
H  -1.63100 15.43000 32.16100
H  -1.76000 17.93000 33.05800
H  -0.15500 18.07000 32.56400
H  -0.78500 23.01500 26.47000
H  -1.54500 22.29000 27.90500
H  -2.45200 23.18100 26.61900
H  -1.28800 23.79500 24.41200
H  -3.12000 23.44400 24.30100
H  -2.24200 23.92300 22.90000
H  -1.10600 17.54300 20.95000
H  -2.26500 14.95700 21.13700
H  -3.92500 17.64100 21.52300
H  -3.72300 16.37000 20.29300
H  -3.09400 18.03200 20.06000
H  -0.13300 15.39500 20.15600
H  0.00200 14.07300 21.36200
H  1.73100 14.98700 22.14600
H  0.73400 16.27100 22.80300
H  1.53400 16.51800 21.11500
H  -1.37300 10.76900 25.37800
H  -2.70800 11.40500 24.32100
H  -3.06600 10.88900 25.97400
H  -3.01800 13.36900 30.18400
H  0.35800 12.39900 32.75000
H  0.00800 10.98700 32.03200
H  -0.90500 11.40700 33.52600
Mg 8.50500 3.55800 27.03700
C  9.83000 1.69100 29.85700
C  6.72600 5.39600 29.07800
C  7.10800 4.80100 24.28600
C  9.90100 0.90700 24.90000
N  8.32400 3.45500 29.23900
C  8.98000 2.75300 30.23200
C  8.63300 3.33000 31.64100
C  7.60200 4.44900 31.26800
C  7.46600 4.40200 29.76400
C  6.26100 4.42300 31.98700
C  9.86100 3.92500 32.38700
C  9.54800 4.40800 33.77000
H  10.65700 5.09500 34.60700
N  7.07400 4.94300 26.70200
C  6.55400 5.67000 27.68700
C  5.81400 6.70500 27.06000
C  5.91200 6.57300 25.67600
C  6.73800 5.39100 25.50300
C  4.94400 7.76800 27.84500
C  5.40500 7.45700 24.57000
O  5.71800 7.27700 23.38700
C  4.41300 8.55800 24.92600
N  8.43900 2.88600 24.91100
C  7.79700 3.65900 23.98500
C  8.11900 3.28000 22.55800
C  9.08900 2.08600 22.76000
C  9.23100 1.95900 24.21900
C  6.90600 2.97000 21.69300
C  10.37000 2.09500 21.92200
C  10.60700 0.80200 21.18900
N  9.65200 1.74600 27.24300
C  10.16800 0.80600 26.26900
C  10.78900 -0.32300 26.95500
C  10.83300 0.13800 28.34500
C  10.09100 1.27300 28.45200
C  11.61800 -1.41100 26.32800
C  11.33700 -0.21800 29.72600
O  12.04000 -1.14700 30.02700
C  10.70200 0.84200 30.71900
C  9.97800 0.15300 31.81900
O  8.88000 -0.42300 31.76400
O  10.64300 0.39000 33.00500
C  10.01600 -0.04500 34.27200
H  6.21300 6.10900 29.72600
H  6.63400 5.21900 23.39500
H  10.25600 0.12300 24.22800
H  8.10700 2.62800 32.28700
H  7.90600 5.47500 31.47500
H  5.52800 3.87500 31.39500
H  5.91500 5.45400 32.07200
H  6.36500 4.03700 33.00100
H  10.40400 4.62000 31.74600
H  10.45400 3.01400 32.46800
H  9.29000 3.46100 34.24400
H  8.78600 5.18800 33.75000
H  5.54900 8.67200 27.78600
H  4.78700 7.47600 28.88400
H  3.93800 7.81500 27.42700
H  3.61600 8.07400 25.49000
H  4.08800 9.05800 24.01400
H  4.92000 9.29600 25.54700
H  8.63700 4.15600 22.16800
H  8.44800 1.21500 22.62600
H  6.05700 2.64300 22.29300
H  7.20500 2.21300 20.96800
H  6.61200 3.87400 21.15900
H  11.20800 2.28900 22.59200
H  10.32000 2.99800 21.31400
H  9.83200 0.04700 21.31600
H  11.47900 0.27600 21.57700
H  10.88800 1.02800 20.16000
H  11.08400 -1.95700 25.55000
H  11.77200 -2.27000 26.98100
H  12.54600 -1.00800 25.92400
H  11.50900 1.42100 31.16800
H  9.79200 0.87200 34.81700
H  10.76000 -0.44300 34.96200
H  9.13300 -0.68300 34.24600

