158

Mg 17.11500 -1.87600 27.70300
C  16.36700 0.41800 30.42500
C  18.92600 -3.67900 29.89800
C  18.31000 -3.48400 25.13300
C  15.64200 0.59200 25.59800
N  17.54300 -1.66400 29.99700
C  17.08000 -0.78600 30.90600
C  17.40100 -1.13900 32.39700
C  18.38000 -2.38600 32.18100
C  18.31900 -2.60300 30.61300
C  19.81500 -2.26100 32.80300
C  16.21000 -1.35900 33.37900
C  16.47100 -1.07500 34.87600
H  17.86200 -0.44200 35.32300
N  18.17500 -3.52500 27.59200
C  18.87000 -4.13000 28.58500
C  19.43200 -5.37900 28.06000
C  19.39600 -5.27000 26.65700
C  18.64900 -3.99600 26.36700
C  20.27500 -6.39900 28.84100
C  20.18400 -6.11400 25.57700
O  20.30400 -5.65300 24.50700
C  21.10800 -7.23600 25.92700
N  16.79500 -1.60800 25.73600
C  17.57700 -2.35800 24.83500
C  17.30600 -1.87500 23.37600
C  16.42100 -0.63700 23.55800
C  16.21200 -0.58400 25.05200
C  18.57800 -1.66600 22.59800
C  15.01800 -0.62300 22.85900
C  14.86300 0.42300 21.71600
N  16.15300 0.15900 27.88400
C  15.57500 0.92400 26.94200
C  15.06700 2.10600 27.53500
C  15.32100 1.91800 28.89100
C  16.02300 0.75200 29.05200
C  14.32300 3.16600 26.86000
C  15.20300 2.55400 30.12700
O  14.50500 3.54800 30.38500
C  15.91800 1.67400 31.18800
C  16.96300 2.39900 31.99400
O  18.17300 2.25200 31.89900
O  16.32900 3.30900 32.73600
C  17.11400 3.83900 33.81600
H  19.47600 -4.29100 30.61600
H  18.84500 -3.97000 24.31500
H  15.19400 1.29800 24.89600
H  18.05000 -0.35800 32.79300
H  17.95900 -3.34100 32.49500
H  19.79000 -1.53400 33.61500
H  20.55300 -1.93900 32.06700
H  20.13600 -3.19700 33.26000
H  15.87000 -2.38400 33.22900
H  15.40200 -0.70800 33.04500
H  16.31300 -2.04200 35.35400
H  15.61400 -0.50200 35.23000
H  20.06900 -7.43300 28.56500
H  20.26400 -6.31900 29.92800
H  21.28500 -6.02200 28.67800
H  21.51500 -7.74600 25.05300
H  20.46200 -8.01900 26.32500
H  21.96100 -6.97500 26.55200
H  16.79100 -2.59800 22.74400
H  16.91700 0.28800 23.26200
H  19.47300 -1.86900 23.18600
H  18.85100 -0.61900 22.47000
H  18.56000 -2.16500 21.62900
H  14.20600 -0.36500 23.53900
H  14.87000 -1.63900 22.49200
H  15.86600 0.65900 21.36100
H  14.45400 1.35400 22.11000
H  14.29200 0.04900 20.86600
H  14.93700 3.39700 25.98900
H  14.24800 4.02500 27.52700
H  13.36300 2.80900 26.48800
H  15.20100 1.44800 31.97600
H  17.56500 4.72500 33.37000
H  17.83300 3.14700 34.25500
H  16.40400 4.19500 34.56200
Mg 46.99500 24.67200 28.31700
C  47.30700 27.02700 30.59800
C  46.57300 22.34400 30.75900
C  46.94300 22.38100 26.00900
C  47.72600 27.09800 25.79900
N  46.67100 24.71500 30.43700
C  46.85300 25.80100 31.17100
C  46.63100 25.53400 32.67200
C  46.80600 24.02800 32.69300
C  46.69000 23.65200 31.23300
C  48.11000 23.60000 33.43200
C  45.40300 26.20900 33.31600
C  45.26900 25.87000 34.83000
H  45.25200 26.95700 35.86000
N  46.65700 22.69400 28.35000
C  46.54000 21.91700 29.48400
C  46.32400 20.55200 29.08000
C  46.42700 20.49700 27.65200
C  46.69900 21.90100 27.27100
C  45.86900 19.39800 30.02000
C  46.40200 19.24200 26.69300
O  46.39000 19.42600 25.47100
C  46.35800 17.80000 27.13200
N  47.18800 24.80400 26.18200
C  47.19300 23.63300 25.48200
C  47.47000 23.97700 23.93600
C  47.22600 25.49300 23.86200
C  47.47100 25.83500 25.33000
C  48.84600 23.57700 23.44200
C  45.88400 26.13600 23.38800
C  44.63300 25.49100 23.94200
N  47.62400 26.64800 28.16400
C  47.92100 27.50200 27.12300
C  48.19300 28.84500 27.63200
C  47.87500 28.76000 28.98700
C  47.59200 27.35500 29.28600
C  48.54400 29.98800 26.72700
C  47.81800 29.47200 30.26000
O  48.11800 30.57900 30.65100
C  47.41100 28.36500 31.31600
C  48.55300 28.34400 32.28500
O  49.64900 27.85500 32.08500
O  48.11300 28.74400 33.53100
C  49.01000 28.50400 34.70900
H  46.55900 21.68600 31.63100
H  46.82200 21.69700 25.16600
H  47.81800 27.86200 25.02400
H  47.52000 26.05500 33.02700
H  46.02800 23.56300 33.29700
H  48.98400 23.38300 32.81800
H  47.82500 22.72800 34.02000
H  48.37600 24.35800 34.16900
H  44.48300 25.84300 32.86000
H  45.45600 27.29500 33.24100
H  46.12500 25.24200 35.07700
H  44.35900 25.29800 35.01600
H  46.54800 18.58300 29.76700
H  44.86000 19.20900 29.65300
H  45.95100 19.67900 31.07000
H  47.35600 17.56700 27.50400
H  46.07400 17.12000 26.32900
H  45.60600 17.62500 27.90200
H  46.79300 23.51300 23.22000
H  48.04900 25.90600 23.27800
H  49.24400 22.90300 24.20100
H  49.52400 24.39500 23.20000
H  48.85600 23.10400 22.46000
H  45.95600 26.06400 22.30300
H  45.89000 27.20500 23.59800
H  44.02400 26.32000 24.30400
H  44.80900 24.72800 24.70000
H  44.10000 24.94300 23.16600
H  48.36500 30.96100 27.18600
H  48.01000 29.90300 25.78000
H  49.58400 29.91100 26.41100
H  46.49800 28.68000 31.82000
H  49.58300 27.58200 34.61400
H  48.26800 28.43000 35.50300
H  49.53000 29.43800 34.92400

