158

Mg 2.22100 -0.77200 44.32100
C  5.41900 0.31300 43.54100
C  0.88900 1.90400 42.65300
C  -0.74600 -2.45400 44.05400
C  3.64700 -3.84400 45.43500
N  3.09400 0.96600 43.32400
C  4.38700 1.14300 42.99500
C  4.61900 2.42500 42.21900
C  3.19800 3.00600 42.09400
C  2.31800 1.90000 42.67100
C  3.05600 4.46800 42.63600
C  5.41700 2.32200 40.83900
C  5.88000 3.66700 40.30100
H  5.45800 4.04400 38.87800
N  0.26700 -0.25700 43.63400
C  -0.02300 0.94800 43.09300
C  -1.46800 0.95200 42.84100
C  -1.96900 -0.38400 43.14900
C  -0.79400 -1.13400 43.56500
C  -2.11200 2.00700 42.05400
C  -3.47900 -0.90100 43.02100
O  -4.37500 -0.05500 42.90800
C  -4.02200 -2.33600 43.20000
N  1.65600 -2.93300 44.52700
C  0.30500 -3.20100 44.57400
C  0.07100 -4.73500 45.04000
C  1.49000 -5.10300 45.57400
C  2.32800 -3.90900 45.15800
C  -1.08100 -4.91400 46.05400
C  1.94200 -6.51000 45.16000
C  1.23800 -7.70300 45.76500
N  4.14100 -1.58600 44.67200
C  4.57900 -2.75800 45.13200
C  6.00300 -2.77000 45.29900
C  6.41600 -1.55900 44.72100
C  5.27400 -0.87800 44.28300
C  6.80000 -3.91400 45.95200
C  7.52900 -0.75900 44.38400
O  8.73000 -0.94100 44.62700
C  6.93100 0.54400 43.65500
C  7.21700 1.73800 44.60800
O  7.02400 1.81400 45.79300
O  7.75500 2.77900 43.86800
C  8.28400 3.92700 44.64600
H  0.50700 2.80600 42.16900
H  -1.67500 -3.01800 43.94500
H  4.17300 -4.65500 45.94300
H  5.27900 3.11200 42.74800
H  3.10100 3.13000 41.01500
H  3.10400 5.22000 41.84900
H  3.76100 4.81500 43.39100
H  2.04600 4.65400 43.00100
H  4.77300 1.81800 40.11800
H  6.33800 1.74400 40.92400
H  6.96900 3.68700 40.25100
H  5.53300 4.53800 40.85700
H  -2.16700 1.69400 41.01100
H  -1.60800 2.96000 42.21000
H  -3.14300 2.07200 42.40100
H  -5.08700 -2.37600 42.97200
H  -3.88000 -2.73100 44.20600
H  -3.50600 -2.93500 42.44900
H  -0.12300 -5.22400 44.08500
H  1.55800 -5.03200 46.66000
H  -1.88200 -5.43500 45.53000
H  -1.54400 -3.95800 46.29700
H  -0.82100 -5.40200 46.99400
H  3.01700 -6.63600 45.29100
H  1.77700 -6.62100 44.08800
H  1.85500 -8.49600 46.18800
H  0.82200 -8.18100 44.87800
H  0.53300 -7.44200 46.55400
H  6.46400 -4.15200 46.96100
H  7.82600 -3.54700 45.90300
H  6.79400 -4.79700 45.31300
H  7.54600 0.77000 42.78400
H  9.11000 4.40500 44.12100
H  8.73800 3.60200 45.58200
H  7.44600 4.55700 44.94300
Mg 8.51100 48.98400 26.00800
C  6.23000 49.26200 28.68000
C  10.91100 50.34500 28.11000
C  10.64100 48.66800 23.55300
C  5.77400 48.42900 23.75800
N  8.50600 49.62700 28.12000
C  7.53400 49.58400 29.07500
C  8.11500 49.79400 30.50700
C  9.51800 50.38500 30.24100
C  9.62400 50.16500 28.69000
C  9.70800 51.81300 30.75100
C  8.09100 48.53700 31.34500
C  7.69500 48.68200 32.85300
H  7.83500 47.46200 33.77100
N  10.51000 49.47700 25.82200
C  11.32000 49.95000 26.83200
C  12.68200 49.93300 26.35600
C  12.66900 49.36600 24.99200
C  11.22200 49.17200 24.74800
C  13.83100 50.57500 27.07000
C  13.85900 49.15700 23.94700
O  13.63500 49.04900 22.73900
C  15.24900 49.22500 24.40300
N  8.22400 48.67300 23.91600
C  9.35700 48.50900 23.17600
C  8.98900 48.04400 21.74500
C  7.44700 47.93000 21.82600
C  7.08100 48.35300 23.24900
C  9.49200 48.89600 20.56500
C  6.88900 46.48200 21.47000
C  5.65300 46.36700 20.49500
N  6.40400 48.82500 26.14700
C  5.42000 48.68600 25.15000
C  4.10200 48.76500 25.77700
C  4.36500 48.98400 27.15200
C  5.80100 49.04000 27.37100
C  2.69300 48.52300 25.23800
C  3.75700 49.13300 28.41400
O  2.61400 49.13000 28.77800
C  4.89900 49.46800 29.43900
C  4.64200 48.74900 30.69100
O  4.87300 47.55500 30.86900
O  4.14700 49.62800 31.66500
C  3.78700 49.14200 33.00100
H  11.68400 50.66300 28.81200
H  11.33600 48.45900 22.73600
H  4.86200 48.26500 23.18000
H  7.53600 50.47900 31.12600
H  10.24800 49.74000 30.73000
H  8.85700 52.04000 31.39300
H  9.74500 52.59900 29.99600
H  10.72000 51.88400 31.15000
H  9.04200 48.01500 31.23800
H  7.50400 47.73100 30.90400
H  6.63000 48.90600 32.80600
H  8.21700 49.59500 33.14000
H  14.14900 51.30400 26.32500
H  14.68100 49.91700 27.24800
H  13.53500 51.01000 28.02500
H  15.94300 48.78500 23.68700
H  15.46500 48.63500 25.29400
H  15.56700 50.24600 24.61500
H  9.35400 47.03400 21.55600
H  6.90000 48.53300 21.10200
H  10.36400 49.49400 20.83200
H  8.79900 49.64400 20.18100
H  9.72100 48.44900 19.59800
H  6.71500 45.77000 22.27800
H  7.57500 45.78800 20.98400
H  6.10900 46.05600 19.55600
H  5.15600 47.32100 20.32300
H  5.02700 45.53100 20.81000
H  2.03400 49.39100 25.24500
H  2.06400 47.86600 25.83800
H  2.76000 48.19300 24.20100
H  4.86600 50.51300 29.74800
H  2.79800 49.57000 33.16600
H  4.39400 49.51200 33.82800
H  3.92000 48.07000 33.14700

