158

Mg 41.49300 7.85900 29.10300
C  43.53300 9.32200 31.41500
C  39.59800 6.45200 31.64000
C  39.46400 6.41300 26.77100
C  43.70700 8.95300 26.50400
N  41.61000 7.86700 31.29000
C  42.47900 8.67900 32.02900
C  42.15600 8.63200 33.54500
C  40.90600 7.64900 33.59200
C  40.67200 7.27900 32.06900
C  41.00700 6.36500 34.49800
C  41.76200 10.11300 33.95800
C  40.82700 10.31300 35.24300
H  41.22000 11.47700 36.18300
N  39.70200 6.61300 29.22600
C  39.06600 6.15800 30.33800
C  37.87500 5.43400 29.93300
C  37.83400 5.48700 28.49000
C  39.04300 6.19500 28.09500
C  37.06900 4.67400 30.95200
C  36.72500 4.98300 27.53500
O  36.79000 5.12700 26.33700
C  35.54000 4.24700 28.07900
N  41.68900 7.60600 26.93800
C  40.64300 7.03400 26.23700
C  40.86200 7.23600 24.68500
C  42.14200 8.19800 24.62500
C  42.44000 8.38500 26.11300
C  41.11800 5.88200 23.92100
C  41.84700 9.48600 23.80500
C  41.18700 10.58600 24.49100
N  43.28300 8.98600 28.95700
C  44.11400 9.20100 27.85600
C  45.36000 9.80100 28.34500
C  45.10300 9.97800 29.75800
C  43.83200 9.42000 30.03100
C  46.65300 10.17700 27.61000
C  45.65700 10.45800 30.94400
O  46.74200 10.97100 31.27600
C  44.69100 10.10300 32.06200
C  45.36900 9.19500 33.06200
O  45.81500 8.06800 32.87600
O  45.42300 9.83500 34.30100
C  46.05400 9.03600 35.42000
H  39.03800 6.11800 32.51600
H  38.82400 6.14700 25.92600
H  44.47700 9.23800 25.78500
H  42.97200 8.24900 34.15800
H  39.97100 8.10000 33.92300
H  41.32600 5.51100 33.90200
H  40.01400 6.17900 34.90900
H  41.65100 6.47300 35.37100
H  41.25600 10.61400 33.13200
H  42.68400 10.63200 34.21800
H  40.86700 9.37800 35.80200
H  39.79100 10.36000 34.90800
H  37.43000 4.96100 31.94000
H  36.91300 3.60800 30.78300
H  36.04500 5.04400 30.92000
H  35.35400 4.63200 29.08200
H  35.80900 3.19400 28.15500
H  34.74700 4.22500 27.33200
H  39.95800 7.68900 24.27700
H  42.88100 7.70300 23.99400
H  40.45900 5.92900 23.05400
H  40.93000 5.01800 24.55800
H  42.12400 5.68300 23.55300
H  41.24100 9.18400 22.95100
H  42.81200 9.80800 23.41200
H  41.82600 11.46900 24.50700
H  40.99900 10.32900 25.53400
H  40.20200 10.77300 24.06300
H  46.55700 10.01600 26.53600
H  47.61300 9.74700 27.89600
H  46.76000 11.25600 27.72000
H  44.35700 11.00200 32.58000
H  47.12500 9.23900 35.39200
H  45.83200 7.97200 35.34500
H  45.83200 9.39900 36.42300
Mg -6.89700 25.75500 26.13900
C  -5.17900 27.73400 28.50900
C  -7.56400 23.65800 28.68100
C  -7.98800 23.57900 23.84600
C  -5.47400 27.74800 23.55800
N  -6.48900 25.78800 28.43200
C  -5.87400 26.68300 29.17000
C  -6.11200 26.48500 30.60400
C  -6.71700 25.03800 30.65100
C  -6.97800 24.79300 29.15200
C  -5.75600 24.00500 31.30800
C  -7.16600 27.39000 31.22000
C  -7.35500 27.71100 32.72000
H  -6.93400 26.79200 33.87800
N  -7.84300 23.95200 26.27500
C  -8.08600 23.24700 27.45600
C  -8.91400 22.19300 27.17100
C  -9.04200 22.09400 25.78300
C  -8.25200 23.17200 25.20900
C  -9.64300 21.35600 28.31800
C  -9.88500 21.08700 25.01300
O  -9.87500 21.14300 23.78800
C  -10.75700 19.89200 25.74900
N  -6.69500 25.68900 23.91000
C  -7.35500 24.66000 23.22900
C  -7.12000 24.91800 21.69000
C  -6.54500 26.39700 21.62500
C  -6.29400 26.72300 23.12500
C  -6.13800 23.90700 21.08600
C  -7.44400 27.44900 21.03100
C  -6.85200 28.31600 19.91200
N  -5.56200 27.33500 26.03800
C  -5.01500 28.03100 24.89300
C  -4.10800 29.09100 25.31800
C  -4.15300 28.96800 26.70900
C  -5.02000 27.93200 27.07400
C  -3.29900 30.06500 24.52600
C  -3.63700 29.53900 27.91100
O  -2.83400 30.46600 27.98900
C  -4.33900 28.76700 29.11500
C  -3.26400 28.25300 30.00900
O  -2.29000 27.54300 29.68600
O  -3.44200 28.66900 31.33200
C  -2.67800 27.98900 32.38900
H  -7.68800 23.12800 29.62700
H  -8.28600 22.92300 23.02600
H  -5.15600 28.39600 22.73900
H  -5.13400 26.44700 31.08400
H  -7.70300 24.93100 31.10500
H  -5.13200 24.51300 32.04400
H  -5.25400 23.39600 30.55700
H  -6.51500 23.40900 31.81400
H  -8.13800 27.04300 30.87100
H  -6.94900 28.42100 30.93900
H  -8.44200 27.78700 32.69800
H  -6.96800 28.70400 32.94800
H  -9.60300 20.28800 28.10400
H  -10.66400 21.72300 28.42000
H  -9.11800 21.44400 29.26900
H  -11.51500 20.32600 26.40000
H  -10.09100 19.20600 26.27100
H  -11.38200 19.24100 25.13700
H  -8.06100 24.78000 21.15700
H  -5.55200 26.34600 21.17800
H  -5.80300 23.24400 21.88500
H  -5.23500 24.25800 20.58700
H  -6.69900 23.23800 20.43400
H  -7.71500 28.15400 21.81700
H  -8.36200 27.03500 20.61200
H  -6.15400 27.74900 19.29600
H  -6.29400 29.15900 20.32000
H  -7.54000 28.83900 19.24900
H  -3.79400 31.02500 24.67800
H  -3.26000 29.98400 23.44000
H  -2.28800 30.16500 24.92200
H  -4.92200 29.46500 29.71500
H  -1.88700 28.59700 32.82800
H  -2.42600 26.97800 32.06600
H  -3.36500 27.84300 33.22300

