158

Mg 55.15800 23.79600 45.09600
C  52.36900 25.75400 43.95800
C  53.46300 21.04300 43.78600
C  57.91100 22.11000 45.23700
C  56.86800 26.78500 45.91700
N  53.16400 23.49500 43.82100
C  52.18800 24.45400 43.56800
C  50.96000 23.81700 42.95300
C  51.16700 22.32700 43.36500
C  52.70300 22.22100 43.66700
C  50.33700 21.80300 44.61000
C  50.95600 24.13900 41.37800
C  49.67100 24.11600 40.56600
H  49.80600 23.95100 39.00800
N  55.67900 21.79900 44.67800
C  54.81600 20.78900 44.20100
C  55.57300 19.47700 44.19100
C  56.90700 19.80200 44.49400
C  56.86900 21.24000 44.80600
C  54.92900 18.21200 43.74900
C  58.06600 18.85200 44.51800
O  57.96200 17.62500 44.32200
C  59.58000 19.24500 44.54100
N  57.08500 24.34300 45.58300
C  58.02500 23.43800 45.54700
C  59.41700 24.11900 45.86700
C  59.07200 25.58900 46.23300
C  57.61500 25.60200 45.88600
C  60.39000 23.36900 46.83700
C  59.92700 26.59300 45.34900
C  60.32300 27.87900 46.17100
N  54.68300 25.79600 45.15100
C  55.45500 26.87500 45.53000
C  54.58900 27.99800 45.67300
C  53.38000 27.60000 45.02400
C  53.50100 26.26600 44.65900
C  54.86400 29.25300 46.34800
C  52.04500 28.10500 44.68100
O  51.53800 29.22900 44.91300
C  51.35900 26.91200 43.81100
C  51.18400 27.43500 42.48200
O  52.07400 27.55800 41.56500
O  49.88200 27.89800 42.35400
C  49.29400 28.08700 41.00600
H  52.81800 20.21100 43.49500
H  58.85600 21.58500 45.39400
H  57.38600 27.68300 46.26000
H  50.04600 24.25700 43.35300
H  50.87200 21.66900 42.54700
H  49.87700 22.58500 45.21500
H  50.98800 21.22900 45.26800
H  49.60300 21.07500 44.26200
H  51.63300 23.35100 41.04900
H  51.42500 25.11500 41.25700
H  49.03900 24.98300 40.75700
H  49.16600 23.26400 41.02100
H  55.35900 17.99500 42.77200
H  53.83900 18.24500 43.76800
H  55.20800 17.32800 44.32200
H  59.59700 19.75700 43.57900
H  60.25300 18.40000 44.39400
H  59.96900 19.88400 45.33300
H  59.80800 24.10200 44.85000
H  59.20100 25.80300 47.29300
H  59.86100 22.54100 47.30900
H  60.75200 24.03200 47.62300
H  61.23900 22.96400 46.28600
H  59.37800 26.90300 44.46000
H  60.81700 26.06700 45.00300
H  60.40000 28.75200 45.52200
H  61.36600 27.72900 46.44800
H  59.69500 28.09300 47.03500
H  54.00700 29.84600 46.66900
H  55.58900 29.83300 45.77700
H  55.38300 29.02800 47.27900
H  50.37900 26.80400 44.27500
H  49.83500 27.63300 40.17600
H  49.24000 29.16700 40.87000
H  48.30000 27.65700 40.87600
Mg 48.07500 15.31500 28.70400
C  46.02600 15.51000 31.46900
C  50.44700 16.97500 30.42100
C  49.75500 15.63700 25.77700
C  45.36800 13.90800 26.89100
N  48.03100 16.35000 30.55300
C  47.22100 16.10700 31.61800
C  47.86500 16.40900 33.00400
C  49.17300 17.23200 32.59600
C  49.23600 16.80800 31.09100
C  49.23100 18.77400 32.76700
C  48.10000 15.13100 33.87500
C  47.80800 15.40400 35.33700
H  47.94700 16.88900 35.83800
N  49.91500 16.06700 28.20300
C  50.75000 16.76400 29.07100
C  51.98900 17.06200 28.41400
C  51.81800 16.55200 27.06400
C  50.45900 16.07300 26.96000
C  53.20900 17.81300 29.09400
C  52.81200 16.64600 25.85800
O  52.52600 16.19600 24.73800
C  54.07700 17.37700 26.00800
N  47.57200 14.88300 26.60200
C  48.43900 15.12100 25.61500
C  47.86400 14.73600 24.32400
C  46.49600 14.01500 24.71700
C  46.48600 14.21600 26.16200
C  47.73900 15.79300 23.13200
C  46.28100 12.54200 24.17700
C  47.39000 11.54400 24.65200
N  46.16400 14.61700 29.15600
C  45.17900 14.09900 28.26100
C  43.97100 13.85300 29.09100
C  44.27500 14.48600 30.35000
C  45.64100 14.83100 30.37800
C  42.76200 13.19500 28.65700
C  43.65600 14.85400 31.67300
O  42.51500 14.65300 32.18400
C  44.83600 15.46200 32.46900
C  44.26800 16.74900 33.00500
O  43.96200 17.78700 32.44800
O  44.13300 16.56600 34.36400
C  43.80900 17.67300 35.28100
H  51.17600 17.49800 31.04200
H  50.41700 15.70900 24.91100
H  44.53900 13.45600 26.34200
H  47.14200 17.06900 33.48400
H  50.02400 16.80400 33.12600
H  48.27700 19.10500 33.17700
H  49.18000 19.25800 31.79100
H  50.05400 19.15000 33.37400
H  49.14500 14.83000 33.95600
H  47.49800 14.31800 33.46900
H  48.44500 14.82100 36.00300
H  46.75500 15.16200 35.47600
H  52.90300 18.78600 29.48100
H  54.11400 17.80500 28.48700
H  53.40500 17.35600 30.06400
H  54.61100 17.62000 25.08800
H  54.76900 16.83500 26.65200
H  53.80700 18.36900 26.37100
H  48.60500 14.03700 23.93500
H  45.69100 14.64500 24.33800
H  46.72900 15.59000 22.77400
H  48.57700 15.63400 22.45300
H  47.79800 16.79500 23.55600
H  46.19000 12.59200 23.09200
H  45.35700 12.14000 24.59400
H  47.21300 11.40500 25.71900
H  48.39900 11.87800 24.40600
H  47.17000 10.66700 24.04500
H  41.86700 13.81100 28.57500
H  42.52500 12.46500 29.43000
H  42.91100 12.88100 27.62400
H  45.03100 14.82900 33.33500
H  44.63600 18.38000 35.23400
H  43.87500 17.30100 36.30300
H  42.86300 18.19500 35.13600

