158

Mg 0.29200 7.99700 25.46300
C  0.86800 9.76100 28.45000
C  0.13500 5.11800 27.42200
C  -0.12100 6.22500 22.68200
C  0.82800 10.87100 23.60100
N  0.39200 7.51300 27.68000
C  0.48500 8.43700 28.67800
C  0.43900 7.83100 30.03200
C  0.36600 6.26200 29.75200
C  0.27100 6.26500 28.24500
C  1.46900 5.28800 30.37400
C  -0.70300 8.41500 30.86300
C  -0.53500 8.17400 32.40700
H  -0.53400 6.66100 32.80400
N  0.04200 5.97500 25.07600
C  0.07400 4.94800 25.99100
C  0.03600 3.61900 25.25400
C  -0.02800 3.97300 23.84000
C  -0.00600 5.48300 23.84300
C  0.27300 2.24000 25.90100
C  -0.10400 3.03000 22.61600
O  -0.05400 3.45800 21.44900
C  -0.12900 1.55300 22.82900
N  0.34300 8.49700 23.40200
C  0.06600 7.57200 22.45700
C  -0.10200 8.22700 21.06600
C  0.03500 9.79400 21.45700
C  0.46700 9.71600 22.88500
C  0.93300 7.75100 19.95100
C  -1.24100 10.67500 21.23400
C  -2.18500 10.98800 22.41200
N  0.81100 9.86300 25.86600
C  1.00000 10.94800 25.01700
C  1.42800 12.02200 25.75800
C  1.43200 11.66900 27.13900
C  0.99700 10.27000 27.12800
C  1.64300 13.51800 25.23600
C  1.64200 12.14100 28.54000
O  2.14600 13.16500 28.92600
C  1.14100 10.88400 29.42200
C  2.22400 10.46800 30.32400
O  3.24600 9.89600 30.03500
O  1.89200 10.89900 31.59500
C  2.86600 10.49400 32.64500
H  0.25000 4.26300 28.09200
H  -0.19600 5.71000 21.72100
H  0.97600 11.74500 22.96300
H  1.41000 7.98500 30.50200
H  -0.59700 5.82400 30.01300
H  1.01400 4.52900 31.01000
H  2.14100 5.87700 30.99900
H  2.04900 4.87400 29.54900
H  -1.60000 7.84600 30.62100
H  -0.75200 9.50000 30.77100
H  -1.26400 8.73500 32.99200
H  0.32100 8.68200 32.85200
H  -0.69200 1.78900 25.66800
H  0.36700 2.27000 26.98700
H  1.14700 1.70200 25.53300
H  -1.09400 1.43500 23.32200
H  0.74000 1.25800 23.41600
H  -0.04900 1.07800 21.85200
H  -1.09100 7.94600 20.70400
H  0.87600 10.25000 20.93500
H  1.21900 8.57900 19.30200
H  0.56700 6.93600 19.32600
H  1.79100 7.28300 20.43400
H  -1.81800 10.18300 20.45100
H  -0.89200 11.62500 20.83000
H  -1.72600 10.58900 23.31700
H  -3.06200 10.37800 22.19600
H  -2.42700 12.03500 22.59800
H  1.13500 13.64900 24.28100
H  2.68100 13.81400 25.38700
H  1.18900 14.21700 25.93800
H  0.24500 11.17100 29.97300
H  3.50100 11.25500 33.10000
H  3.50700 9.63700 32.43500
H  2.23900 10.23200 33.49700
Mg 53.50600 23.99700 45.24700
C  50.87700 26.36900 44.73000
C  51.32700 21.56800 44.61900
C  56.18300 22.20500 44.54100
C  55.64000 26.96400 45.39700
N  51.39300 23.99800 44.69200
C  50.52800 25.04800 44.45200
C  49.16100 24.56000 43.96900
C  49.18300 23.16700 44.65700
C  50.72100 22.82400 44.59800
C  48.64000 23.03400 46.15200
C  49.04800 24.52300 42.37900
C  47.67800 24.09300 41.79000
H  47.51600 24.06600 40.24800
N  53.78200 22.09700 44.70000
C  52.72200 21.21500 44.63500
C  53.25800 19.90900 44.40000
C  54.73400 19.99000 44.39000
C  54.99100 21.43700 44.53900
C  52.43300 18.64800 44.25000
C  55.68300 18.86800 44.36400
O  55.28100 17.74400 44.31900
C  57.13900 19.04000 44.30400
N  55.56600 24.54600 44.91200
C  56.47300 23.53300 44.71300
C  57.89200 24.12000 44.88700
C  57.68500 25.65800 44.72600
C  56.17800 25.76300 45.05000
C  58.58000 23.72900 46.21800
C  58.00800 26.33200 43.32300
C  56.78500 26.64600 42.40200
N  53.28200 26.21700 45.40600
C  54.23400 27.18000 45.58000
C  53.52600 28.47100 45.58800
C  52.22000 28.20700 45.25000
C  52.12500 26.80500 45.12600
C  54.24800 29.76600 45.70600
C  50.95600 28.77500 44.85800
O  50.57800 29.93300 44.82300
C  50.04800 27.61400 44.57100
C  49.39800 27.79000 43.18800
O  50.01900 27.76500 42.13200
O  48.03200 27.94500 43.36200
C  47.36300 28.04500 42.08400
H  50.68300 20.69100 44.70600
H  57.07900 21.60600 44.36600
H  56.25200 27.86300 45.48900
H  48.39000 25.22400 44.36100
H  48.73700 22.37200 44.05700
H  49.26000 22.45400 46.83600
H  47.59400 22.72900 46.12900
H  48.62500 24.00600 46.64600
H  49.72900 23.74200 42.04100
H  49.45900 25.41800 41.91000
H  46.87800 24.74000 42.14800
H  47.40600 23.10300 42.15900
H  51.41500 18.76000 44.62300
H  52.86600 17.80100 44.78300
H  52.35400 18.42900 43.18500
H  57.67600 18.19400 44.73400
H  57.25300 19.81800 45.05800
H  57.54600 19.24300 43.31300
H  58.56100 23.85600 44.06900
H  58.34800 26.08900 45.47600
H  59.03700 24.59200 46.70300
H  59.44300 23.09100 46.02900
H  57.86800 23.23900 46.88100
H  58.72800 25.72000 42.78100
H  58.65400 27.20000 43.45000
H  55.82000 26.14800 42.49300
H  56.95500 26.71600 41.32800
H  56.54400 27.67600 42.66500
H  54.51400 30.14400 44.71900
H  55.16200 29.71500 46.29700
H  53.51600 30.40800 46.19600
H  49.33000 27.56100 45.38900
H  46.39500 28.41000 42.42800
H  47.17800 27.11900 41.54000
H  47.73800 28.73200 41.32600

