158

Mg 1.60300 -0.92900 44.12800
C  4.89100 0.10900 43.62000
C  0.46500 1.79400 42.52000
C  -1.43900 -2.51500 44.00900
C  3.04300 -4.11300 45.05300
N  2.55700 0.63200 43.10200
C  3.88600 0.96000 43.21400
C  4.11300 2.48200 42.76300
C  2.65500 2.98300 42.47300
C  1.82800 1.71600 42.70200
C  2.22400 4.25200 43.20700
C  4.98500 2.51100 41.45500
C  5.15300 1.32100 40.41600
H  6.45900 1.25200 39.68600
N  -0.28100 -0.37600 43.35400
C  -0.49500 0.82100 42.80000
C  -1.91400 0.82300 42.46500
C  -2.52100 -0.33900 42.93000
C  -1.38200 -1.15500 43.42000
C  -2.46200 1.95100 41.81600
C  -3.97400 -0.75500 42.75800
O  -4.80000 0.00800 42.30800
C  -4.52600 -2.11800 43.01700
N  0.92500 -2.95700 44.50300
C  -0.39700 -3.31300 44.45000
C  -0.60600 -4.76400 44.97300
C  0.80300 -5.25000 45.19200
C  1.64900 -4.04200 44.88100
C  -1.49700 -4.83700 46.24100
C  1.16600 -6.60100 44.55100
C  0.88300 -7.86100 45.43200
N  3.61000 -1.90600 44.28700
C  3.97200 -3.14700 44.72700
C  5.39600 -3.15400 44.83700
C  5.80300 -1.85400 44.47700
C  4.70100 -1.18900 43.95300
C  6.19800 -4.23300 45.31700
C  6.95200 -0.93700 44.40600
O  8.12600 -1.16300 44.82500
C  6.36100 0.41100 43.87200
C  6.40400 1.38700 44.99900
O  5.85200 1.38200 46.07600
O  7.29900 2.45500 44.64300
C  7.65400 3.48300 45.61100
H  0.16400 2.73100 42.04800
H  -2.42000 -2.97700 44.13800
H  3.42800 -5.05800 45.44000
H  4.57500 3.05900 43.56400
H  2.53800 3.23300 41.41800
H  1.45300 4.03500 43.94600
H  1.80200 4.95600 42.49000
H  3.04600 4.65500 43.79900
H  5.89200 2.86400 41.94600
H  4.70900 3.44500 40.96500
H  4.38400 1.54300 39.67700
H  4.86000 0.39700 40.91500
H  -2.08700 1.80500 40.80300
H  -2.27300 2.86900 42.37100
H  -3.52700 1.86100 41.60200
H  -4.07400 -2.93600 42.45600
H  -5.57600 -2.10300 42.72400
H  -4.45000 -2.36900 44.07500
H  -0.98800 -5.29900 44.10300
H  0.95600 -5.39700 46.26100
H  -2.13900 -3.96100 46.32500
H  -0.96900 -4.86100 47.19400
H  -2.29000 -5.58300 46.18800
H  2.22800 -6.64700 44.30800
H  0.70200 -6.74400 43.57500
H  0.48900 -8.74900 44.93700
H  0.13100 -7.61000 46.18000
H  1.81500 -8.13100 45.92800
H  5.67900 -4.53500 46.22600
H  7.17300 -3.80900 45.56000
H  6.26300 -5.12200 44.69100
H  7.05500 0.75900 43.10700
H  6.92500 3.51300 46.42100
H  7.65100 4.39700 45.01800
H  8.64700 3.23300 45.98300
Mg -5.85800 25.41700 25.77600
C  -4.37700 26.38500 28.84600
C  -7.88300 23.15800 27.60400
C  -6.68400 23.84100 22.74100
C  -3.22400 27.02300 24.06300
N  -6.06600 24.89100 27.98800
C  -5.47600 25.52100 29.05800
C  -6.04600 25.11700 30.35700
C  -6.90800 23.83500 29.87300
C  -6.98300 23.94200 28.36500
C  -6.30200 22.38900 30.27100
C  -6.90000 26.15200 31.08700
C  -6.69800 26.27200 32.62200
H  -6.07500 25.09300 33.43000
N  -7.25200 23.88300 25.24200
C  -7.95900 23.11400 26.16300
C  -8.78700 22.21500 25.33900
C  -8.44700 22.40300 23.91500
C  -7.44400 23.43200 23.89700
C  -9.81700 21.25500 25.99800
C  -8.89700 21.54300 22.71300
O  -8.47400 21.67500 21.62900
C  -9.79200 20.44700 22.94400
N  -5.12900 25.48300 23.68800
C  -5.55500 24.73600 22.56200
C  -4.84600 25.20900 21.21800
C  -3.84400 26.27300 21.77800
C  -4.11100 26.34900 23.30200
C  -4.31000 24.04300 20.34600
C  -3.81200 27.65900 21.01200
C  -2.63000 27.94900 20.17700
N  -4.17300 26.56700 26.28600
C  -3.19700 27.21200 25.53000
C  -2.22200 27.89100 26.37000
C  -2.62500 27.46500 27.64500
C  -3.81900 26.73500 27.59100
C  -0.95000 28.54500 25.91900
C  -2.21900 27.66600 29.04000
O  -1.35600 28.39400 29.48100
C  -3.33100 27.03800 29.83900
C  -2.74100 26.04700 30.78100
O  -2.42800 24.88800 30.52100
O  -2.42800 26.72400 31.89900
C  -1.72200 25.95000 32.91900
H  -8.36800 22.41800 28.24300
H  -6.80100 23.36900 21.76400
H  -2.52800 27.55000 23.40700
H  -5.26800 24.72000 31.00900
H  -7.92900 23.74200 30.24000
H  -5.44600 22.44900 30.94200
H  -6.01000 21.84300 29.37500
H  -7.08800 21.83000 30.77900
H  -7.96300 25.94400 30.96100
H  -6.66500 27.12300 30.65100
H  -7.71500 26.33100 33.01000
H  -6.06500 27.14400 32.78300
H  -10.30800 21.78900 26.81200
H  -9.39500 20.28500 26.26100
H  -10.56200 21.02400 25.23600
H  -9.89500 19.86200 22.03000
H  -10.80400 20.78300 23.17000
H  -9.39300 19.84200 23.75800
H  -5.51500 25.80300 20.59500
H  -2.84600 25.83600 21.74200
H  -3.25700 23.91700 20.59800
H  -4.47600 24.28900 19.29700
H  -4.88800 23.15900 20.61600
H  -3.82000 28.37900 21.83000
H  -4.79900 27.88200 20.60700
H  -2.90400 28.56900 19.32300
H  -2.29700 27.02500 19.70500
H  -1.84900 28.53300 20.66200
H  -1.20800 29.21200 25.09600
H  -0.31700 27.77200 25.48500
H  -0.39700 29.03300 26.72100
H  -3.85900 27.81300 30.39400
H  -1.83200 24.86800 32.84000
H  -1.71400 26.34600 33.93400
H  -0.75200 26.06200 32.43400

