158

Mg 47.66900 25.10800 28.61200
C  48.64400 27.31000 30.98700
C  46.23800 23.11900 30.99800
C  46.65400 22.97000 26.11300
C  49.57800 26.97300 26.06600
N  47.71100 25.06100 30.78900
C  47.87100 26.28500 31.55500
C  47.42000 26.01800 32.95400
C  46.66200 24.55300 32.94200
C  46.97200 24.17200 31.49300
C  47.27400 23.53200 34.00900
C  46.42500 27.17400 33.55000
C  47.06400 28.00900 34.68300
H  46.11100 28.31000 35.91100
N  46.64600 23.24400 28.56600
C  46.12100 22.62500 29.67100
C  45.50700 21.37300 29.23000
C  45.49500 21.37300 27.80200
C  46.35700 22.52700 27.39800
C  45.10500 20.37000 30.24000
C  44.82100 20.31300 26.88200
O  44.96900 20.36000 25.63200
C  43.82600 19.30400 27.48200
N  48.11500 24.97700 26.36300
C  47.51900 23.97900 25.57900
C  48.01700 24.09500 24.18400
C  48.58100 25.56300 24.10700
C  48.81700 25.84800 25.54600
C  49.13400 23.05100 23.86500
C  47.65900 26.63500 23.43600
C  48.09000 26.91900 21.96700
N  48.94600 26.63000 28.48200
C  49.60400 27.36000 27.43000
C  50.18500 28.58400 27.98700
C  49.77700 28.60000 29.32800
C  49.09700 27.40100 29.62300
C  51.10900 29.52000 27.25100
C  49.89900 29.44600 30.54900
O  50.55100 30.48700 30.79300
C  49.07200 28.67800 31.67300
C  50.04100 28.44600 32.80100
O  50.76900 27.49200 32.92800
O  49.85800 29.44100 33.74700
C  50.59400 29.18700 35.02500
H  45.75200 22.45200 31.71300
H  46.47400 22.18800 25.37200
H  50.16300 27.59400 25.38500
H  48.38000 25.97400 33.46800
H  45.59400 24.77100 32.96400
H  46.46700 23.13200 34.62300
H  47.96700 24.04600 34.67500
H  47.74500 22.71500 33.46300
H  45.47000 26.80200 33.92200
H  46.13100 27.75000 32.67200
H  47.37000 28.92500 34.17900
H  48.01700 27.56300 34.96800
H  45.42100 19.37200 29.93700
H  44.02700 20.33900 30.39300
H  45.49900 20.59100 31.23200
H  43.16400 18.97800 26.68100
H  43.26000 19.56400 28.37700
H  44.44200 18.43600 27.71800
H  47.27700 23.97200 23.39400
H  49.52800 25.58700 23.56900
H  50.11500 23.52500 23.85600
H  48.89700 22.47600 22.97000
H  49.38700 22.44000 24.73100
H  47.86400 27.46600 24.11100
H  46.64500 26.26600 23.59200
H  48.37300 27.94900 21.74600
H  47.24200 26.65500 21.33500
H  49.01500 26.42300 21.67400
H  51.96000 28.93000 26.91100
H  51.42300 30.36700 27.86000
H  50.63100 29.89400 26.34600
H  48.19200 29.20500 32.04000
H  50.44500 30.07600 35.63700
H  51.65800 28.98100 34.90900
H  50.20600 28.35600 35.61500
Mg 6.12800 55.01500 41.14900
C  3.71800 52.51100 41.14800
C  8.35400 52.59300 40.04800
C  8.32100 57.44000 40.46700
C  3.72000 57.35900 41.84900
N  5.93200 52.83400 40.43400
C  4.88500 52.06600 40.52900
C  5.27700 50.61100 40.10900
C  6.75000 50.53900 40.11400
C  7.05500 52.10500 40.18600
C  7.44700 49.63700 41.16900
C  4.61100 50.44900 38.67500
C  4.19200 49.07200 38.24300
H  4.95600 48.47600 37.04400
N  8.17700 55.04400 40.45900
C  8.90000 53.97500 40.11400
C  10.22900 54.30200 39.75900
C  10.30500 55.71200 39.90400
C  8.94400 56.19700 40.33500
C  11.20900 53.18300 39.31400
C  11.47300 56.49100 39.59700
O  12.49900 55.96500 39.20400
C  11.36700 57.97400 39.72200
N  5.99800 57.04600 40.96100
C  6.99600 57.88100 40.65000
C  6.58800 59.29200 40.62900
C  5.11200 59.26800 40.98400
C  4.88500 57.79100 41.24600
C  7.44500 60.09200 41.62900
C  4.16000 59.69000 39.80700
C  2.96500 60.61500 40.09700
N  4.12300 55.00000 41.44600
C  3.29500 56.01200 41.94700
C  2.06500 55.44100 42.37300
C  2.20500 54.08600 42.09800
C  3.42900 53.86800 41.50900
C  0.92200 56.24700 42.90200
C  1.52200 52.87700 42.12700
O  0.47100 52.58200 42.63800
C  2.50700 51.75800 41.46500
C  1.77200 51.05400 40.42400
O  1.17800 51.62300 39.51300
O  1.71500 49.65400 40.56400
C  0.86000 48.99700 39.60800
H  8.98700 51.73900 39.79900
H  8.89800 58.24300 40.00300
H  2.91600 58.05800 42.08700
H  4.80600 49.84500 40.72500
H  7.08500 50.26400 39.11300
H  6.93900 48.69400 41.37200
H  7.60300 50.29400 42.02500
H  8.43700 49.56600 40.72000
H  5.33800 50.78700 37.93600
H  3.70800 51.04000 38.52600
H  3.14500 49.10100 37.93900
H  4.31800 48.41800 39.10600
H  10.63500 52.53600 38.65100
H  11.51400 52.57200 40.16400
H  12.02000 53.49000 38.65300
H  12.34200 58.44700 39.83800
H  10.77500 58.14000 40.62300
H  10.90300 58.38900 38.82800
H  6.75700 59.81100 39.68500
H  4.89400 59.71700 41.95400
H  7.95100 59.44900 42.34900
H  6.90300 60.92900 42.06900
H  8.26600 60.55800 41.08300
H  3.61800 58.81300 39.45100
H  4.64300 59.99400 38.87900
H  2.10900 60.10800 39.65300
H  3.17400 61.47500 39.46100
H  2.79700 60.90400 41.13500
H  0.55100 56.97200 42.17700
H  1.24100 56.71700 43.83100
H  0.16900 55.47700 43.07700
H  2.69200 51.06900 42.28900
H  1.46200 48.15400 39.26900
H  0.54800 49.54800 38.72100
H  0.05500 48.55000 40.19100

