158

Mg 24.93200 1.66200 29.62100
C  27.08200 1.67400 32.29800
C  22.30500 2.05300 31.75100
C  23.02800 1.98800 26.88600
C  27.80700 1.58200 27.42700
N  24.71100 1.61400 31.80400
C  25.71400 1.67100 32.73200
C  25.20900 2.04900 34.08000
C  23.59800 1.87700 33.96800
C  23.51000 1.87300 32.46600
C  22.86200 0.67300 34.61700
C  25.58400 3.47900 34.61200
C  26.39400 3.61400 35.91500
H  25.85600 4.43800 37.09400
N  22.92900 1.78000 29.37400
C  22.03400 1.95200 30.36100
C  20.69100 1.97900 29.78200
C  20.88100 2.06300 28.35800
C  22.28900 1.95200 28.11100
C  19.40100 2.17800 30.64700
C  19.77700 2.20700 27.32900
O  20.01700 2.25000 26.15700
C  18.35500 2.08200 27.81200
N  25.39600 1.48600 27.38300
C  24.32900 1.73300 26.53500
C  24.84300 2.00800 25.15000
C  26.44200 2.00400 25.28000
C  26.59300 1.66400 26.80100
C  24.25200 1.04900 24.02600
C  27.12300 3.36000 24.97200
C  26.48300 4.61900 25.50000
N  26.94300 1.36300 29.76800
C  27.98600 1.40700 28.81300
C  29.27500 1.39000 29.50500
C  29.00900 1.55400 30.85700
C  27.56300 1.40500 30.94600
C  30.63100 1.21100 28.81000
C  29.54500 1.78100 32.14100
O  30.71100 1.84700 32.55300
C  28.34200 1.91800 33.08300
C  28.61700 0.89700 34.12600
O  28.24200 -0.25600 34.01100
O  29.14100 1.49400 35.25600
C  29.08600 0.50500 36.38000
H  21.44700 2.29000 32.38300
H  22.32100 2.15800 26.07100
H  28.65200 1.64400 26.73900
H  25.71300 1.26400 34.64400
H  23.01000 2.70900 34.35700
H  22.34900 0.12400 33.82800
H  22.14200 0.95500 35.38600
H  23.66400 0.08200 35.06000
H  24.62800 3.97000 34.79600
H  26.23300 3.99900 33.90700
H  27.28000 4.16500 35.60200
H  26.64800 2.62000 36.28400
H  19.08700 3.21200 30.50800
H  19.56700 1.82700 31.66600
H  18.62800 1.48900 30.30800
H  18.31600 1.07000 28.21500
H  17.64800 2.01600 26.98500
H  17.95200 2.81100 28.51500
H  24.60300 3.03800 24.88500
H  26.76800 1.12000 24.73200
H  23.50000 1.50500 23.38200
H  23.72700 0.23800 24.53100
H  25.08900 0.60500 23.48800
H  26.97100 3.50700 23.90300
H  28.19500 3.37100 25.17100
H  25.87300 4.51700 26.39800
H  25.71200 4.94600 24.80300
H  27.20600 5.43200 25.56900
H  30.70700 1.82500 27.91300
H  30.77700 0.21100 28.40100
H  31.43300 1.43200 29.51500
H  28.22500 2.86600 33.60800
H  28.20000 0.71500 36.97900
H  29.92100 0.76300 37.03200
H  28.93300 -0.53200 36.08100
Mg 45.53800 5.13300 46.58000
C  43.81000 8.14200 46.14000
C  42.71800 3.51300 45.50900
C  47.37600 2.37000 46.35100
C  48.51200 7.01700 46.77500
N  43.46900 5.81900 45.97600
C  42.97000 7.03000 45.90500
C  41.47900 7.06400 45.52400
C  41.15600 5.56700 45.38200
C  42.54800 4.88800 45.66400
C  40.12700 5.03400 46.47300
C  41.17400 7.99700 44.28000
C  42.22600 7.84300 43.17700
H  41.62500 7.49700 41.82400
N  45.06000 3.17400 46.17500
C  43.88700 2.72300 45.67000
C  44.01700 1.29400 45.44500
C  45.32600 0.92000 45.67100
C  45.99600 2.16500 46.09200
C  42.75800 0.50200 44.96700
C  45.88900 -0.53600 45.59400
O  45.10000 -1.41900 45.22200
C  47.29200 -0.92400 46.06500
N  47.71000 4.75400 46.67100
C  48.21200 3.53700 46.61100
C  49.69200 3.47600 46.62200
C  50.03900 5.02900 46.78600
C  48.69500 5.66800 46.68100
C  50.21600 2.66400 47.79000
C  51.14000 5.55700 45.78400
C  52.58100 5.48000 46.42100
N  46.10600 7.09900 46.50100
C  47.34900 7.70800 46.61200
C  47.16100 9.15000 46.56900
C  45.75700 9.31100 46.55400
C  45.18700 8.07300 46.32900
C  48.24700 10.11600 46.67800
C  44.69100 10.36000 46.57000
O  44.82000 11.59200 46.52200
C  43.36500 9.56200 46.41200
C  42.53100 9.61900 47.77900
O  42.48200 8.76800 48.59900
O  41.91500 10.82300 47.94400
C  41.20800 11.08300 49.20500
H  41.78000 3.02800 45.23300
H  48.03000 1.53600 46.08900
H  49.46400 7.50900 46.98500
H  40.90800 7.70600 46.19400
H  40.84200 5.19700 44.40600
H  40.62100 4.63600 47.36000
H  39.55200 4.29800 45.91100
H  39.51200 5.90300 46.70600
H  41.21100 9.05300 44.54700
H  40.11300 7.90300 44.04500
H  42.82400 6.96400 43.41300
H  42.89600 8.70100 43.24000
H  43.04200 -0.25900 44.24100
H  42.07000 1.15800 44.43400
H  42.18500 0.09800 45.80200
H  47.41400 -1.99800 46.21200
H  47.47400 -0.44500 47.02700
H  48.05300 -0.70500 45.31600
H  50.11100 3.18600 45.65800
H  50.39700 5.19000 47.80300
H  50.76200 1.75200 47.55300
H  49.42000 2.26900 48.42100
H  50.83500 3.28300 48.44100
H  50.95600 6.58200 45.46300
H  51.15700 5.04400 44.82200
H  53.04100 4.60800 45.95600
H  52.60200 5.40000 47.50700
H  53.11800 6.37300 46.10300
H  48.74800 9.95100 47.63200
H  47.92500 11.15200 46.57300
H  48.91300 10.00900 45.82200
H  42.74600 10.02600 45.64400
H  40.69700 12.04500 49.17400
H  41.93400 11.10900 50.01800
H  40.56700 10.23700 49.45300

