158

Mg 24.38000 -5.75500 45.50800
C  26.51500 -3.26700 44.30700
C  21.79800 -4.33400 43.87400
C  22.53400 -8.53600 46.10300
C  27.23800 -7.37800 46.87200
N  24.27500 -4.12400 44.06000
C  25.22400 -3.19200 43.75100
C  24.62100 -2.01600 43.02000
C  23.06600 -2.21900 43.23600
C  23.02700 -3.68200 43.70300
C  22.36800 -1.28300 44.30300
C  24.96600 -1.87100 41.50500
C  24.96900 -0.46400 40.93600
H  25.70700 -0.49100 39.53300
N  22.41800 -6.32800 45.08200
C  21.50500 -5.51600 44.43100
C  20.20300 -6.24000 44.49800
C  20.37900 -7.49100 45.11800
C  21.79600 -7.47400 45.52800
C  18.89600 -5.57500 43.93900
C  19.26800 -8.48500 45.24000
O  18.15000 -8.30200 44.80800
C  19.45200 -9.69900 46.15200
N  24.82600 -7.71400 46.27100
C  23.92000 -8.69100 46.38600
C  24.51100 -9.98800 46.94300
C  25.92700 -9.52000 47.42200
C  26.03300 -8.11500 46.75900
C  23.76100 -10.61700 48.13900
C  27.15200 -10.31700 47.01100
C  28.04100 -10.67300 48.21300
N  26.52100 -5.42400 45.64200
C  27.53700 -6.16900 46.29000
C  28.77900 -5.43500 46.21200
C  28.43600 -4.22800 45.45800
C  27.05100 -4.34300 45.09700
C  29.98000 -5.92000 46.79400
C  28.93700 -2.92100 44.89700
O  30.04600 -2.31500 44.94900
C  27.72500 -2.30200 44.03500
C  27.42700 -0.91200 44.59200
O  26.71100 -0.58900 45.50800
O  27.88000 -0.00900 43.67700
C  27.31000 1.36700 43.75000
H  20.89700 -3.83700 43.50900
H  22.01100 -9.40700 46.50300
H  28.02500 -7.89400 47.42600
H  24.88200 -1.13100 43.60000
H  22.41100 -2.14500 42.36800
H  21.48100 -0.87500 43.81600
H  22.92500 -0.46100 44.75200
H  21.98800 -1.78400 45.19300
H  24.19400 -2.34700 40.90000
H  25.89300 -2.37200 41.22600
H  25.54700 0.15000 41.62600
H  23.99300 0.00100 40.79700
H  18.55300 -5.97200 42.98300
H  18.82000 -4.48700 43.92100
H  18.03800 -5.78700 44.57600
H  18.41900 -9.97600 46.36200
H  20.01400 -9.33900 47.01400
H  19.99800 -10.55400 45.75300
H  24.58100 -10.73900 46.15600
H  25.97200 -9.30200 48.48900
H  23.08300 -9.82700 48.46000
H  24.50300 -11.01500 48.83200
H  23.13300 -11.41600 47.74400
H  27.82900 -9.80200 46.32900
H  26.93500 -11.18800 46.39200
H  27.44200 -10.61800 49.12200
H  28.95700 -10.09100 48.10800
H  28.44800 -11.68300 48.16200
H  29.74000 -6.51700 47.67400
H  30.63500 -5.14000 47.18300
H  30.49400 -6.53400 46.05500
H  27.96600 -2.24300 42.97300
H  27.43200 1.94600 42.83400
H  27.72500 1.88400 44.61400
H  26.23200 1.24000 43.85200
Mg 48.89900 44.65700 43.08700
C  45.43600 45.06900 42.31800
C  48.59400 41.45200 42.25400
C  52.17700 44.64400 43.15700
C  48.98200 48.18200 43.84000
N  47.12100 43.38200 42.23000
C  45.80100 43.73300 42.06200
C  45.03700 42.53600 41.62800
C  46.03300 41.33300 41.95600
C  47.33700 42.06700 42.09300
C  45.65100 40.65800 43.27200
C  44.41700 42.47300 40.21300
C  45.05100 43.24100 39.03500
H  45.02900 42.55300 37.65800
N  50.26500 43.26600 42.58100
C  49.95900 41.94900 42.36200
C  51.25500 41.24600 42.21900
C  52.28500 42.09700 42.53600
C  51.56100 43.38500 42.75800
C  51.36100 39.75100 41.78400
C  53.72700 41.73000 42.63200
O  54.08800 40.56200 42.39600
C  54.71300 42.68500 43.19000
N  50.35600 46.22600 43.46600
C  51.65200 45.87300 43.53900
C  52.60100 47.10800 43.78400
C  51.54300 48.24100 44.13700
C  50.18100 47.52300 43.89800
C  53.74400 46.91900 44.76500
C  51.73700 49.65000 43.49300
C  51.91100 50.71000 44.58000
N  47.50100 46.31000 43.18000
C  47.67600 47.62000 43.47600
C  46.44800 48.33700 43.17900
C  45.55100 47.37900 42.73000
C  46.21800 46.16400 42.73900
C  46.24200 49.81700 43.24000
C  44.23600 47.24400 42.11800
O  43.33300 48.05400 41.83800
C  44.08600 45.66200 41.85800
C  42.77500 45.21900 42.55900
O  41.85800 44.65800 41.94700
O  42.89200 45.47900 43.93500
C  41.68600 45.09200 44.63200
H  48.54300 40.37200 42.09600
H  53.26700 44.59800 43.19200
H  48.99200 49.24700 44.08400
H  44.14200 42.56400 42.25000
H  46.08400 40.51100 41.24200
H  45.63400 39.56800 43.28700
H  44.70700 41.05700 43.64200
H  46.37500 41.01400 44.00500
H  43.42400 42.89200 40.37900
H  44.46900 41.41000 39.98200
H  46.09100 43.47400 39.26200
H  44.50400 44.16600 38.85300
H  50.36700 39.51100 41.40800
H  51.55700 39.20200 42.70500
H  52.12500 39.59400 41.02200
H  55.05000 43.50200 42.55100
H  55.51800 42.05500 43.57000
H  54.27400 43.26000 44.00500
H  52.92100 47.31400 42.76300
H  51.68600 48.37300 45.21000
H  53.59400 46.04300 45.39700
H  53.79100 47.84500 45.33800
H  54.70000 46.73800 44.27500
H  50.95800 49.86300 42.76100
H  52.70200 49.65900 42.98700
H  52.80200 51.31500 44.41200
H  51.91500 50.38200 45.62000
H  51.01800 51.33400 44.57700
H  47.17600 50.18700 42.81700
H  46.00600 50.23400 44.21900
H  45.40200 49.99700 42.56900
H  43.91900 45.48200 40.79600
H  41.91700 45.20400 45.69200
H  41.47600 44.06600 44.32900
H  40.83100 45.71500 44.37100

