158

Mg 49.80000 47.05300 43.52100
C  46.48800 47.41800 42.53300
C  49.84700 43.95900 42.07800
C  53.09000 46.92000 44.15500
C  49.90800 50.55700 44.25100
N  48.32500 45.75800 42.46900
C  47.09900 46.20600 42.09100
C  46.32200 45.02000 41.40500
C  47.39500 43.83900 41.44100
C  48.61000 44.51800 42.03600
C  47.04000 42.63300 42.34900
C  45.83700 45.45700 39.94500
C  44.30500 45.33600 39.85000
H  43.67400 44.74700 38.60200
N  51.31500 45.59200 43.19000
C  51.15900 44.40700 42.61100
C  52.40100 43.75600 42.58400
C  53.35800 44.58200 43.16400
C  52.60500 45.75900 43.54200
C  52.46100 42.28300 42.07800
C  54.80900 44.22000 43.29200
O  55.21300 43.16400 42.86900
C  55.78200 45.19300 43.82300
N  51.26400 48.51700 44.09800
C  52.51400 48.18800 44.34200
C  53.28100 49.38900 44.92400
C  52.33100 50.54000 44.68200
C  51.08400 49.87500 44.28700
C  53.70700 49.04500 46.42000
C  52.74500 51.51000 43.56000
C  53.65600 52.71200 43.91400
N  48.48200 48.70900 43.51600
C  48.63800 49.99300 43.82000
C  47.41600 50.62800 43.77600
C  46.48300 49.66600 43.34200
C  47.23000 48.48100 43.10100
C  47.11900 52.08200 44.05400
C  45.06200 49.34700 43.08900
O  44.03200 50.06600 43.12600
C  45.03800 47.85600 42.54800
C  44.19300 46.98600 43.34700
O  44.52300 46.34500 44.34600
O  42.89300 47.09100 42.92100
C  41.99900 46.11800 43.47900
H  49.94500 43.00100 41.56400
H  54.06900 46.80500 44.62500
H  49.99200 51.62700 44.45300
H  45.46800 44.75100 42.02700
H  47.66700 43.48900 40.44500
H  46.24600 42.97200 43.01500
H  47.94500 42.32300 42.87200
H  46.63300 41.90200 41.65000
H  46.24900 44.86400 39.12900
H  46.11000 46.47200 39.65800
H  43.80000 46.29700 39.94700
H  43.93200 44.61900 40.58100
H  51.53400 41.83300 41.72400
H  52.90300 41.72600 42.90300
H  53.06000 42.30000 41.16700
H  55.84700 46.02700 43.12500
H  56.78400 44.77000 43.90000
H  55.53400 45.52200 44.83200
H  54.13100 49.70700 44.32000
H  52.32100 51.10400 45.61500
H  53.16200 48.17800 46.79500
H  53.48800 49.93200 47.01300
H  54.78900 48.91200 46.42900
H  51.84200 51.85800 43.06000
H  53.28600 50.91400 42.82500
H  53.70100 52.87600 44.99100
H  53.11400 53.55200 43.47800
H  54.67600 52.56700 43.55900
H  46.09500 52.30800 43.75500
H  47.76300 52.61800 43.35600
H  47.24700 52.48100 45.06000
H  44.76900 47.73700 41.49800
H  40.97000 46.32600 43.18400
H  42.01100 46.25400 44.56000
H  42.42500 45.13500 43.28200
Mg 48.83900 35.37000 28.37200
C  46.70700 33.93500 30.75500
C  49.12300 38.11600 30.54900
C  50.56000 37.03100 26.06200
C  47.92800 32.92600 26.17400
N  48.01800 35.95800 30.38200
C  47.36500 35.04800 31.22100
C  47.30000 35.61000 32.66100
C  47.47500 37.10300 32.35200
C  48.25600 37.09600 31.05300
C  46.05000 37.79300 32.30500
C  48.41100 34.80500 33.39600
C  49.32600 35.52900 34.45900
H  48.69900 36.19200 35.68500
N  49.88500 37.34900 28.35800
C  49.81700 38.31600 29.36900
C  50.69100 39.34600 28.90200
C  51.12200 39.07800 27.53400
C  50.49800 37.79300 27.24100
C  51.12200 40.51800 29.92500
C  51.96300 39.84400 26.68300
O  52.08400 39.56600 25.49800
C  52.54300 41.19100 27.11200
N  49.04600 35.07900 26.37400
C  50.00600 35.81300 25.67200
C  50.54100 34.99500 24.40400
C  49.64200 33.79900 24.41000
C  48.86100 33.85200 25.73900
C  50.49500 35.77500 23.07300
C  50.34700 32.47400 24.28700
C  50.71300 32.15300 22.84400
N  47.60300 33.63000 28.43600
C  47.27800 32.67800 27.41700
C  46.45000 31.69900 27.97600
C  46.14800 32.14100 29.29400
C  46.85800 33.32600 29.54700
C  45.95800 30.49700 27.35900
C  45.37600 31.82800 30.50800
O  44.68200 30.83300 30.79300
C  45.57400 33.13900 31.39300
C  45.69000 32.73300 32.79500
O  46.43800 31.95000 33.30600
O  44.74000 33.38800 33.55100
C  44.77000 33.07200 34.96700
H  49.33600 38.87100 31.30900
H  51.20300 37.44800 25.28400
H  47.70300 32.19300 25.39700
H  46.29900 35.32200 32.98100
H  48.03200 37.61300 33.13800
H  45.24000 37.08200 32.46100
H  45.79400 38.42800 31.45700
H  46.02600 38.49500 33.13900
H  49.17200 34.30300 32.79900
H  47.91500 34.07200 34.03300
H  49.84400 36.32600 33.92500
H  50.13800 34.87600 34.77700
H  52.20100 40.59400 30.05800
H  50.92000 40.25100 30.96200
H  50.64600 41.49200 29.81200
H  51.75200 41.92400 27.27400
H  53.21700 41.44400 26.29300
H  53.29900 40.96300 27.86300
H  51.56700 34.72800 24.65600
H  48.89700 33.86600 23.61700
H  51.51600 36.00800 22.77000
H  50.03000 36.72400 23.34100
H  49.86500 35.29200 22.32600
H  49.71500 31.71400 24.74600
H  51.26300 32.25400 24.83500
H  50.36400 32.85200 22.08400
H  50.54900 31.09900 22.62000
H  51.80200 32.19000 22.81500
H  46.70000 29.70800 27.47700
H  45.62400 30.82900 26.37600
H  45.06700 30.23500 27.92900
H  44.65000 33.71500 31.37100
H  44.72200 32.01600 35.23600
H  44.10800 33.69200 35.57000
H  45.75000 33.39500 35.32000

