158

Mg 8.85700 3.77400 27.57700
C  10.23200 2.26100 30.47100
C  6.90900 5.78600 29.82100
C  7.61300 5.36000 24.92400
C  10.72600 1.67600 25.57300
N  8.67000 3.96300 29.88400
C  9.38300 3.28900 30.88200
C  8.94100 3.69600 32.28300
C  8.03400 4.90100 32.00100
C  7.81100 4.85500 30.47800
C  6.65400 5.05500 32.75800
C  10.10000 4.02300 33.21300
C  9.93200 4.98600 34.40700
H  10.73200 4.66600 35.67200
N  7.36200 5.28500 27.36400
C  6.73000 6.02100 28.40300
C  5.94900 7.12600 27.75200
C  6.20800 7.03000 26.32500
C  7.09900 5.86000 26.15400
C  5.00600 8.06400 28.50000
C  5.81300 7.92400 25.15600
O  6.01600 7.73400 23.96400
C  4.94800 9.18300 25.47000
N  9.17100 3.58100 25.55300
C  8.56200 4.38500 24.61000
C  8.88300 3.92700 23.17100
C  9.97700 2.76400 23.37200
C  10.00700 2.66400 24.93500
C  7.59800 3.59300 22.35700
C  11.33400 3.08100 22.69500
C  11.88300 2.03400 21.72100
N  10.17200 2.22800 27.89700
C  10.87600 1.49300 27.03200
C  11.65900 0.45700 27.75600
C  11.45400 0.83000 29.08100
C  10.53400 1.90000 29.14100
C  12.43400 -0.67100 27.14500
C  11.78500 0.36700 30.42300
O  12.58400 -0.51800 30.87800
C  11.04800 1.31500 31.38500
C  10.21100 0.49100 32.33200
O  9.06900 0.06700 32.08000
O  10.73800 0.43500 33.59200
C  9.86600 -0.07200 34.58400
H  6.34900 6.44000 30.49200
H  7.35000 5.85700 23.98700
H  11.49400 1.03500 25.13500
H  8.41200 2.78700 32.56800
H  8.54800 5.85500 32.11700
H  6.42900 6.10800 32.92700
H  6.52700 4.45900 33.66200
H  5.83000 4.67800 32.15200
H  11.01700 4.29200 32.68900
H  10.30400 3.06100 33.68300
H  8.88800 4.84200 34.68600
H  10.17700 5.97100 34.01000
H  5.49200 9.02200 28.68600
H  4.90700 7.60500 29.48300
H  4.14200 8.09500 27.83600
H  3.99000 8.82500 25.84900
H  4.77700 9.65500 24.50300
H  5.35300 9.83400 26.24400
H  9.37600 4.67000 22.54400
H  9.53700 1.87400 22.92100
H  7.84500 2.75100 21.70900
H  7.18600 4.50500 21.92600
H  6.87900 3.19200 23.07100
H  12.06000 3.37300 23.45400
H  11.24600 4.00500 22.12200
H  11.04300 1.36900 21.52000
H  12.73300 1.47200 22.10900
H  12.16500 2.52800 20.79100
H  13.29000 -0.26800 26.60400
H  11.75600 -1.09700 26.40500
H  12.88100 -1.42900 27.78900
H  11.87200 1.78300 31.92400
H  9.30100 -0.93500 34.23200
H  9.20600 0.78200 34.73800
H  10.29400 -0.42800 35.52200
Mg 17.31100 -1.04700 27.46400
C  16.32600 0.65900 30.31200
C  19.51700 -2.82300 29.47200
C  18.88400 -2.36800 24.79700
C  15.79700 1.20600 25.53700
N  17.99000 -0.89300 29.71200
C  17.31700 -0.26500 30.69500
C  17.79100 -0.73500 32.03700
C  18.99000 -1.71800 31.76600
C  18.88800 -1.79700 30.20700
C  20.29500 -1.26000 32.40200
C  16.57900 -1.34500 32.87300
C  16.35100 -0.68300 34.23800
H  17.56500 -0.03000 34.96000
N  18.79700 -2.59800 27.17200
C  19.57700 -3.21300 28.11100
C  20.24800 -4.33900 27.56800
C  20.17100 -4.22900 26.18300
C  19.32400 -2.97400 25.97200
C  20.99200 -5.41200 28.37300
C  20.76200 -5.01200 25.04300
O  20.68800 -4.70900 23.84500
C  21.59600 -6.25700 25.44200
N  17.30900 -0.67900 25.51100
C  18.00800 -1.32300 24.54800
C  17.88400 -0.63700 23.15500
C  16.65700 0.21300 23.37100
C  16.59900 0.31100 24.87900
C  19.25100 0.17300 22.84000
C  15.32500 -0.04500 22.66700
C  14.19300 -0.63000 23.56200
N  16.18400 0.46800 27.82800
C  15.63700 1.34600 26.91200
C  14.78100 2.29600 27.54300
C  15.05800 2.02200 28.89700
C  15.95800 0.93900 29.01400
C  13.94400 3.43200 26.87500
C  14.77400 2.53400 30.18400
O  14.08800 3.48800 30.53900
C  15.56300 1.61000 31.18400
C  16.48600 2.42500 32.11300
O  17.67800 2.65900 32.01200
O  15.75200 2.84200 33.16800
C  16.42900 3.79700 33.95700
H  20.05100 -3.55700 30.07900
H  19.24000 -2.82900 23.87300
H  15.37600 2.00800 24.92700
H  18.08000 0.16600 32.57900
H  18.83900 -2.74500 32.09600
H  21.11200 -1.14900 31.69000
H  20.61500 -2.05500 33.07500
H  20.21300 -0.37400 33.03200
H  16.82600 -2.39300 33.04300
H  15.76200 -1.21700 32.16400
H  16.07800 -1.60300 34.75500
H  15.47400 -0.03500 34.25200
H  21.96500 -5.66000 27.94900
H  20.32500 -6.26800 28.26100
H  21.31500 -5.24500 29.40100
H  22.58500 -5.99500 25.81900
H  21.72100 -6.76900 24.48900
H  20.97300 -6.84500 26.11600
H  17.71800 -1.34100 22.33900
H  16.87300 1.21600 23.00200
H  19.50300 0.16000 21.77900
H  20.12900 -0.22500 23.35000
H  19.07200 1.20900 23.12500
H  15.49900 -0.79600 21.89700
H  15.01100 0.94700 22.34400
H  13.83400 0.12500 24.26100
H  14.61200 -1.48300 24.09500
H  13.28000 -0.78700 22.98700
H  13.55900 3.08600 25.91600
H  14.61600 4.23000 26.56100
H  13.09700 3.80400 27.45100
H  14.90600 1.09500 31.88600
H  16.97200 4.47800 33.30100
H  17.16100 3.38800 34.65200
H  15.80600 4.41100 34.60700

