158

Mg 51.91300 24.52000 45.28800
C  49.13200 26.49300 44.59700
C  50.22700 21.77000 44.09800
C  54.94200 22.76000 45.36000
C  53.73300 27.34900 46.35500
N  49.95000 24.16500 44.26400
C  48.95200 25.13100 44.11400
C  47.77000 24.51500 43.32900
C  47.94800 22.99300 43.63100
C  49.45200 22.93200 44.02600
C  47.03000 22.66800 44.74900
C  47.73600 24.93000 41.77900
C  49.14000 25.30200 41.20900
H  49.13200 25.48500 39.66600
N  52.53900 22.53900 44.81100
C  51.62000 21.57000 44.42900
C  52.39900 20.31500 44.37600
C  53.74100 20.59300 44.49100
C  53.81400 22.03100 44.94000
C  51.78400 19.03600 43.93500
C  54.90800 19.64600 44.27100
O  54.62400 18.59600 43.70900
C  56.38300 19.90700 44.54500
N  54.09000 25.01600 45.61700
C  55.05400 24.11600 45.65100
C  56.47200 24.69200 45.97000
C  56.09700 26.20000 46.32800
C  54.53900 26.22800 46.02600
C  57.23000 23.84600 47.13700
C  56.88500 27.20200 45.38900
C  57.65300 28.21600 46.12800
N  51.50300 26.53000 45.53500
C  52.32900 27.56500 45.97700
C  51.44800 28.74000 46.19300
C  50.21200 28.33700 45.63600
C  50.30800 27.01100 45.26700
C  51.88800 30.08200 46.77700
C  48.86900 28.76400 45.32600
O  48.40200 29.91000 45.44600
C  48.11600 27.66800 44.58800
C  47.68000 28.10500 43.29400
O  48.38200 28.31200 42.31200
O  46.32400 28.26100 43.38100
C  45.70000 28.86700 42.22500
H  49.63500 20.86200 43.96200
H  55.85000 22.16900 45.49100
H  54.27100 28.14000 46.88100
H  46.88800 24.94900 43.80000
H  47.73200 22.36500 42.76700
H  47.29600 21.66100 45.07000
H  46.02900 22.71900 44.32000
H  46.92300 23.37300 45.57300
H  46.99100 25.72400 41.71800
H  47.39400 24.10600 41.15300
H  49.76200 24.42200 41.37600
H  49.57600 26.19000 41.66600
H  51.41300 19.01800 42.91100
H  50.92800 18.76800 44.55400
H  52.50600 18.26100 44.19100
H  57.09700 19.20300 44.11700
H  56.55100 20.07100 45.60900
H  56.62200 20.82600 44.01000
H  57.04800 24.57000 45.05200
H  56.34900 26.50300 47.34400
H  56.45300 23.28400 47.65500
H  57.76400 24.56400 47.76000
H  57.91800 23.16800 46.63200
H  56.16200 27.84900 44.89300
H  57.52000 26.70400 44.65600
H  57.26200 29.21400 45.92800
H  58.71600 28.12100 45.91000
H  57.50100 28.14300 47.20500
H  51.06100 30.79100 46.73200
H  52.79500 30.34100 46.23000
H  52.16600 30.07700 47.83100
H  47.25000 27.50000 45.22800
H  44.62400 29.01800 42.31000
H  45.95000 28.36600 41.28900
H  46.06900 29.88200 42.08100
Mg 47.32600 15.67800 29.17800
C  44.98500 14.84000 31.83700
C  48.74800 17.85900 31.39000
C  49.17800 16.59800 26.62900
C  45.01600 13.96400 26.97600
N  46.84800 16.30100 31.41700
C  46.03600 15.60100 32.24600
C  46.28800 16.09800 33.72300
C  47.20600 17.34700 33.53000
C  47.69100 17.15500 32.04200
C  46.53800 18.67900 33.78900
C  46.84800 14.93600 34.66200
C  46.34000 14.89500 36.09300
H  47.47900 14.90600 37.16200
N  48.86500 17.01800 29.05600
C  49.27700 17.86300 30.02200
C  50.39500 18.64100 29.45200
C  50.56000 18.32700 28.14700
C  49.56500 17.29000 27.86900
C  51.10900 19.67000 30.40800
C  51.54300 18.81900 27.12600
O  51.58500 18.38100 25.97200
C  52.51900 19.93000 27.51700
N  47.11600 15.33500 27.14400
C  48.06100 15.82100 26.23100
C  47.62800 15.51100 24.78900
C  46.46500 14.51200 24.98700
C  46.17500 14.58400 26.47700
C  47.33400 16.59200 23.81100
C  46.59100 13.12600 24.39300
C  47.56900 12.09900 25.08400
N  45.37600 14.58100 29.32000
C  44.64400 13.87600 28.33500
C  43.51100 13.28000 28.97400
C  43.61200 13.67500 30.31100
C  44.73400 14.45300 30.48400
C  42.58000 12.40200 28.23600
C  42.91900 13.59500 31.59900
O  41.90200 12.99300 31.94400
C  43.77000 14.34100 32.62900
C  42.91000 15.45500 33.14000
O  42.69700 16.51300 32.63200
O  42.48700 15.12900 34.42800
C  41.82400 16.07400 35.24600
H  49.15300 18.55800 32.12500
H  49.82500 16.85200 25.78700
H  44.29700 13.66800 26.20800
H  45.24700 16.33700 33.94200
H  48.10800 17.28800 34.13900
H  46.56400 18.81300 34.87100
H  45.51500 18.79100 33.42900
H  47.10000 19.47100 33.29500
H  47.93300 15.01800 34.72600
H  46.59800 13.99100 34.18100
H  45.75700 13.98600 36.24100
H  45.70600 15.77500 36.20300
H  50.61300 19.69200 31.37900
H  51.12000 20.63400 29.89900
H  52.11000 19.30900 30.64600
H  53.25800 20.15800 26.74800
H  52.99900 19.63300 28.44900
H  51.95300 20.85400 27.63400
H  48.47500 15.00000 24.32900
H  45.57600 14.92600 24.51000
H  47.67500 17.54500 24.21500
H  46.27100 16.74700 23.62500
H  47.84300 16.51700 22.85000
H  46.96800 13.19900 23.37200
H  45.59300 12.68900 24.37300
H  47.14600 11.17300 25.47400
H  48.09000 12.60100 25.89900
H  48.36800 11.76900 24.42100
H  41.84000 11.99800 28.92700
H  43.12800 11.55100 27.83100
H  42.13400 12.96200 27.41400
H  44.08500 13.77400 33.50500
H  41.81400 15.58400 36.22000
H  40.82200 16.28200 34.87000
H  42.53700 16.89500 35.30900

