158

Mg 47.88600 23.87600 28.71200
C  49.00900 26.04800 31.19800
C  47.36900 21.60300 31.15200
C  47.19800 21.79900 26.28800
C  49.06500 26.29900 26.29100
N  48.22000 23.84800 30.87600
C  48.50900 24.93000 31.69400
C  48.26300 24.52900 33.18700
C  48.07100 22.99000 33.10400
C  47.92900 22.78700 31.65900
C  49.11500 22.14800 33.79900
C  47.06700 25.30400 33.92200
C  47.51000 26.29800 35.02500
H  46.46300 26.57400 36.12100
N  47.24500 22.01100 28.72700
C  46.97600 21.24200 29.84800
C  46.40400 19.99500 29.40800
C  46.36800 20.00900 27.98400
C  46.97800 21.29800 27.58100
C  45.97300 18.96400 30.34400
C  45.88500 18.94400 26.99800
O  45.85800 19.15500 25.77800
C  45.51000 17.57300 27.48400
N  48.28800 23.96500 26.62600
C  47.72800 23.00900 25.83300
C  47.72900 23.39000 24.34500
C  48.04600 24.93000 24.42100
C  48.50000 25.10400 25.88600
C  48.82600 22.54900 23.57800
C  46.89200 25.85000 23.96900
C  45.58400 25.79000 24.73900
N  48.82400 25.88400 28.67400
C  49.28400 26.69600 27.64000
C  49.88000 27.88900 28.20500
C  49.73700 27.77100 29.60100
C  49.14200 26.46800 29.83800
C  50.54400 28.99200 27.45100
C  50.11900 28.32300 30.93900
O  50.68200 29.35000 31.29000
C  49.54400 27.29300 31.99100
C  50.60600 26.98900 32.95900
O  51.49700 26.18500 32.83800
O  50.36800 27.72200 34.09200
C  51.21500 27.43800 35.30300
H  46.97300 20.99500 31.96800
H  46.84000 21.21700 25.43700
H  49.40400 26.91000 25.45200
H  49.14700 24.74600 33.78600
H  47.14600 22.58200 33.51400
H  49.95300 22.68200 34.24700
H  49.44400 21.36700 33.11300
H  48.71000 21.64300 34.67600
H  46.30400 24.60400 34.26200
H  46.63700 25.93500 33.14500
H  47.74300 27.25200 34.55300
H  48.43400 25.92500 35.46700
H  46.79000 18.24200 30.33800
H  45.02800 18.64700 29.90400
H  45.82200 19.32300 31.36200
H  46.27100 17.21800 28.17900
H  45.34400 16.78000 26.75400
H  44.66400 17.66900 28.16400
H  46.74600 23.28800 23.88500
H  48.90600 25.09500 23.77200
H  49.81300 23.01100 23.55600
H  48.47700 22.45800 22.54900
H  48.69600 21.53700 23.96300
H  46.65600 25.60500 22.93300
H  47.30400 26.85800 23.91600
H  45.53900 26.79700 25.15500
H  45.67100 24.91100 25.37800
H  44.74100 25.64200 24.06500
H  49.95600 29.34800 26.60500
H  51.47300 28.62000 27.02000
H  50.74300 29.89100 28.03500
H  48.76100 27.79600 32.55900
H  52.19700 27.07600 34.99700
H  50.61700 26.82000 35.97200
H  51.35200 28.42300 35.75000
Mg -12.21000 16.26400 41.77400
C  -9.09100 14.55100 41.37700
C  -10.68500 18.94100 40.39300
C  -15.25900 17.58400 41.25200
C  -13.67200 13.25800 42.84900
N  -10.14500 16.60300 40.95200
C  -9.07000 15.84800 40.82800
C  -7.87500 16.53900 40.22900
C  -8.35300 18.05700 40.18700
C  -9.84800 17.86600 40.46400
C  -7.67200 18.95900 41.30000
C  -7.35800 15.82900 38.90500
C  -5.90800 15.39600 38.79000
H  -4.93100 16.32400 37.99700
N  -12.88200 18.01500 41.10700
C  -12.08600 18.99900 40.63500
C  -12.86600 20.21700 40.43100
C  -14.22900 19.84100 40.56700
C  -14.16100 18.41900 40.93600
C  -12.37800 21.55000 39.94800
C  -15.38200 20.77800 40.13200
O  -15.16400 21.87700 39.66200
C  -16.82300 20.13700 39.94100
N  -14.22500 15.50600 42.00700
C  -15.31500 16.30600 41.74000
C  -16.55100 15.54700 42.04400
C  -16.03700 14.41300 42.97200
C  -14.54900 14.37700 42.60900
C  -17.70300 16.32700 42.75600
C  -16.72800 13.04400 42.59800
C  -16.87800 12.05300 43.77200
N  -11.57100 14.29500 41.95500
C  -12.26200 13.20100 42.55800
C  -11.37100 12.03600 42.79000
C  -10.07400 12.53700 42.35800
C  -10.27600 13.89400 41.88700
C  -11.81600 10.64400 43.14000
C  -8.61500 12.30200 42.23900
O  -7.94400 11.35300 42.53200
C  -7.96000 13.58600 41.51500
C  -6.86200 14.05400 42.39000
O  -6.98900 14.88800 43.26200
O  -5.67400 13.57700 41.95400
C  -4.50700 14.41500 42.29700
H  -10.21100 19.78800 39.89200
H  -16.23700 18.06800 41.29000
H  -14.18100 12.40600 43.30400
H  -7.01100 16.47000 40.89100
H  -8.20600 18.41800 39.16900
H  -7.96700 18.82900 42.34100
H  -7.85500 20.00600 41.06000
H  -6.58600 18.90900 41.22000
H  -7.51200 16.40900 37.99400
H  -8.02200 14.99500 38.68000
H  -5.89500 14.36400 38.43700
H  -5.66800 15.21800 39.83900
H  -12.95800 22.34800 40.41300
H  -12.46300 21.60300 38.86300
H  -11.34000 21.64600 40.26500
H  -16.65700 19.16800 39.46900
H  -17.24300 20.76800 39.15800
H  -17.34400 20.10900 40.89800
H  -16.88400 15.21200 41.06200
H  -16.19500 14.63900 44.02700
H  -17.38200 17.35500 42.92500
H  -18.09100 15.84400 43.65300
H  -18.47300 16.49800 42.00400
H  -16.18200 12.47100 41.84800
H  -17.72100 13.13500 42.15700
H  -17.90100 11.67800 43.79300
H  -16.67500 12.46100 44.76200
H  -16.22400 11.21200 43.53900
H  -12.26200 10.67000 44.13500
H  -10.91700 10.02800 43.12200
H  -12.49600 10.28100 42.37000
H  -7.60000 13.28800 40.53100
H  -4.15900 14.12600 43.28900
H  -4.54800 15.49200 42.13200
H  -3.75600 14.14000 41.55600

