158

Mg 2.72100 0.15300 44.70200
C  5.63100 2.19900 43.96700
C  0.84600 2.24300 42.80800
C  0.30400 -2.05300 45.00600
C  5.03800 -2.28500 45.92400
N  3.22100 1.91400 43.39100
C  4.40000 2.59800 43.28500
C  4.30300 3.77600 42.30300
C  2.76900 4.05200 42.30200
C  2.22900 2.65900 42.85700
C  2.44100 5.34400 43.14900
C  4.98500 3.43200 40.92300
C  6.16300 4.28000 40.37700
H  6.36500 4.39800 38.87700
N  0.82900 0.16600 44.07600
C  0.15800 1.13200 43.37800
C  -1.26600 0.73200 43.35600
C  -1.50200 -0.35200 44.12400
C  -0.05300 -0.80900 44.44200
C  -2.20700 1.62800 42.56300
C  -2.84700 -0.95800 44.57800
O  -3.90100 -0.44400 44.20300
C  -2.97300 -2.13200 45.50000
N  2.74100 -1.88800 45.27800
C  1.54000 -2.56100 45.37800
C  1.76700 -4.04000 45.83100
C  3.28000 -4.06900 46.14100
C  3.70400 -2.64200 45.76700
C  0.78800 -4.55700 46.97100
C  4.08800 -5.18200 45.41200
C  4.99300 -5.98000 46.40300
N  4.88100 -0.03700 44.99200
C  5.58500 -1.02900 45.64300
C  6.98700 -0.55200 45.86900
C  7.03400 0.74200 45.22100
C  5.73000 0.97700 44.75300
C  8.06200 -1.35300 46.52700
C  7.87500 1.92800 44.97600
O  9.03800 2.18700 45.35000
C  7.01200 2.87200 44.08600
C  7.01100 4.22300 44.71000
O  7.87900 5.03500 44.53900
O  5.78500 4.43800 45.41200
C  5.60500 5.87000 45.83000
H  0.26700 2.93200 42.18900
H  -0.51800 -2.77200 44.98900
H  5.72300 -3.01300 46.36200
H  4.86200 4.59500 42.75400
H  2.47600 4.12000 41.25400
H  1.58600 5.17600 43.80400
H  2.13900 6.07800 42.40200
H  3.30500 5.77100 43.65700
H  4.28800 3.39800 40.08500
H  5.34200 2.40200 40.95000
H  7.07600 3.83200 40.76800
H  6.10600 5.29200 40.77800
H  -3.24500 1.32700 42.70300
H  -1.90500 1.72900 41.52100
H  -2.10900 2.61800 43.00700
H  -2.17400 -2.09000 46.24100
H  -2.75500 -2.96700 44.83400
H  -4.01300 -2.23900 45.80700
H  1.65000 -4.65200 44.93600
H  3.47400 -4.10300 47.21300
H  0.16700 -3.79000 47.43300
H  1.43400 -5.07500 47.68000
H  0.07700 -5.23800 46.50200
H  4.76900 -4.65600 44.74200
H  3.37800 -5.75900 44.82000
H  4.30900 -6.33500 47.17400
H  5.73100 -5.34200 46.88700
H  5.41700 -6.82000 45.85300
H  7.92400 -1.71100 47.54800
H  8.85700 -0.60900 46.57800
H  8.37300 -2.25800 46.00700
H  7.42000 3.03700 43.08900
H  6.52900 6.44800 45.84700
H  5.14200 5.92700 46.81500
H  5.00000 6.32400 45.04500
Mg -11.00700 40.41800 42.52800
C  -9.15700 37.50500 41.45800
C  -8.70100 42.33800 40.75800
C  -12.98100 42.95600 42.98600
C  -13.58800 38.08400 43.47200
N  -9.12000 39.96500 41.25000
C  -8.55100 38.73600 41.00100
C  -7.21400 38.82000 40.19600
C  -7.00200 40.34900 40.20800
C  -8.34900 40.96300 40.81100
C  -5.73800 40.76800 40.82100
C  -7.33000 38.18600 38.78700
C  -6.77800 36.81400 38.53300
H  -5.79200 36.60800 37.40900
N  -10.84800 42.42400 42.03500
C  -9.81400 43.07500 41.29200
C  -10.10100 44.50500 41.19000
C  -11.30100 44.70400 41.96000
C  -11.80300 43.31800 42.31100
C  -9.19200 45.43500 40.51900
C  -11.95500 46.03600 42.24400
O  -11.53100 47.08600 41.81900
C  -13.18000 46.19800 42.99000
N  -12.93700 40.48600 43.17900
C  -13.55400 41.69700 43.32700
C  -15.05300 41.63700 43.78100
C  -15.23500 40.04400 43.78600
C  -13.88500 39.46400 43.45000
C  -15.33000 42.29000 45.15100
C  -16.27900 39.41200 42.78700
C  -17.59400 38.90900 43.38700
N  -11.31300 38.32100 42.55100
C  -12.38900 37.54100 42.98900
C  -11.94100 36.17500 43.09300
C  -10.72900 36.11300 42.42100
C  -10.41000 37.47100 42.08100
C  -12.76400 35.04100 43.64500
C  -9.69400 35.17900 42.03700
O  -9.61600 33.93900 42.05700
C  -8.62600 36.07200 41.48300
C  -7.37800 35.99800 42.30200
O  -7.02600 36.64200 43.29700
O  -6.51500 35.14000 41.67500
C  -5.34400 34.55400 42.44800
H  -7.91500 42.93500 40.28900
H  -13.71800 43.75800 42.90900
H  -14.41400 37.46700 43.83100
H  -6.42600 38.42300 40.83700
H  -6.83900 40.75800 39.21100
H  -5.46100 41.82200 40.79200
H  -4.90000 40.31400 40.29200
H  -5.71500 40.44100 41.86100
H  -6.84900 38.85300 38.07100
H  -8.37400 38.22800 38.47800
H  -7.63200 36.16500 38.33900
H  -6.39300 36.50600 39.50500
H  -9.01900 46.25400 41.21700
H  -9.60400 45.74100 39.55700
H  -8.22100 45.00700 40.27000
H  -13.08900 45.58400 43.88600
H  -13.99000 45.82500 42.36300
H  -13.33200 47.25500 43.20900
H  -15.80500 42.13300 43.16700
H  -15.34800 39.76000 44.83300
H  -14.46000 42.29900 45.80700
H  -16.12300 41.81100 45.72500
H  -15.61900 43.33500 45.04200
H  -15.78100 38.63300 42.20900
H  -16.54400 40.28900 42.19700
H  -17.91300 39.64200 44.12800
H  -17.25500 38.00700 43.89600
H  -18.35500 38.54200 42.69800
H  -12.06800 34.24000 43.89300
H  -13.44400 34.66600 42.88000
H  -13.36900 35.30900 44.51200
H  -8.39900 35.66800 40.49700
H  -4.55400 34.15600 41.81200
H  -5.78000 33.66400 42.90000
H  -4.93000 35.21500 43.21000

