158

Mg 1.60000 -1.60300 43.94000
C  5.08400 -1.09000 43.76800
C  1.14900 1.37600 42.20300
C  -1.62500 -2.39100 43.51100
C  2.24600 -4.79500 45.15500
N  2.93300 0.05200 43.24300
C  4.33100 0.05200 43.20700
C  4.89200 1.29500 42.58100
C  3.54000 2.11200 42.32600
C  2.43200 1.06700 42.58300
C  3.38300 3.40700 43.11400
C  5.77400 0.88600 41.39700
C  5.24400 0.04300 40.27200
H  5.67800 0.36000 38.85800
N  -0.05600 -0.61600 42.99900
C  -0.00900 0.59400 42.26700
C  -1.38000 0.88900 41.81200
C  -2.19400 -0.13100 42.28000
C  -1.29500 -1.15600 42.95400
C  -1.77100 2.24100 41.14000
C  -3.74500 -0.00600 42.25300
O  -4.25400 1.04700 41.81700
C  -4.67000 -1.01700 42.93300
N  0.49100 -3.38800 44.20200
C  -0.82900 -3.33200 44.09000
C  -1.50600 -4.66200 44.56500
C  -0.25700 -5.39300 45.19800
C  0.92200 -4.48300 44.83100
C  -2.73300 -4.44000 45.61800
C  -0.01500 -6.91200 44.80600
C  0.03300 -7.76900 46.12000
N  3.29800 -2.72500 44.53300
C  3.41900 -4.02300 44.95600
C  4.77100 -4.27900 45.36600
C  5.49600 -3.15200 44.89400
C  4.53600 -2.28200 44.31200
C  5.32700 -5.50000 46.00400
C  6.76400 -2.54800 44.80900
O  7.86300 -2.99600 45.15100
C  6.53600 -1.19600 44.08400
C  7.01600 -0.11300 44.96000
O  6.58300 0.18200 46.04000
O  8.04100 0.55000 44.25400
C  8.39600 1.87600 44.72900
H  1.13000 2.31700 41.65000
H  -2.66000 -2.73700 43.52800
H  2.57500 -5.79200 45.45500
H  5.50900 1.82800 43.30400
H  3.56800 2.31500 41.25500
H  4.31800 3.91200 43.35700
H  2.83900 3.16800 44.02800
H  2.79000 4.12200 42.54400
H  6.73600 0.53400 41.77100
H  5.98600 1.82700 40.88900
H  4.15800 0.10200 40.34900
H  5.60400 -0.94600 40.55400
H  -2.13600 2.98500 41.84700
H  -2.49700 2.14200 40.33300
H  -0.85800 2.64600 40.70200
H  -5.64400 -0.81800 42.48600
H  -4.64200 -0.75500 43.99000
H  -4.29000 -2.02900 42.79100
H  -1.83700 -5.23000 43.69500
H  -0.27900 -5.31700 46.28600
H  -2.56300 -5.02300 46.52300
H  -3.72500 -4.62800 45.20800
H  -2.73300 -3.37700 45.86100
H  0.89700 -7.06600 44.22900
H  -0.85200 -7.25200 44.19600
H  -0.79400 -8.47800 46.10700
H  -0.05000 -7.14700 47.01100
H  0.96500 -8.33000 46.05400
H  4.53000 -6.17400 46.31500
H  5.89500 -5.33800 46.92100
H  6.01600 -5.94800 45.28800
H  7.22200 -1.30500 43.24400
H  9.08300 1.98200 45.56800
H  7.51200 2.47100 44.95800
H  8.98000 2.45100 44.01000
Mg 42.26600 41.59500 27.10500
C  41.30400 43.63200 29.66200
C  43.31300 39.24700 29.61100
C  43.36800 39.56900 24.68500
C  41.41700 43.98700 24.78800
N  42.40000 41.51800 29.46100
C  41.78200 42.47400 30.20100
C  41.82200 42.02100 31.71800
C  42.58400 40.58100 31.61400
C  42.67800 40.35800 30.14900
C  43.83400 40.57000 32.51000
C  40.36500 42.00600 32.30600
C  40.20100 42.74700 33.64200
H  39.57800 41.96700 34.85100
N  43.10000 39.65900 27.13800
C  43.47900 38.90600 28.24600
C  44.13200 37.70000 27.75600
C  44.17200 37.76100 26.31300
C  43.53200 39.05200 25.97600
C  44.63700 36.52800 28.70600
C  44.54400 36.75100 25.26600
O  44.60100 36.91600 24.06800
C  44.91200 35.33900 25.74500
N  42.45800 41.73400 25.04200
C  42.88700 40.75700 24.25800
C  42.77000 41.01200 22.73800
C  41.98800 42.36600 22.77600
C  41.83600 42.74500 24.28900
C  44.16700 41.00800 22.06500
C  40.58100 42.24400 22.26600
C  39.63600 41.23000 22.97200
N  41.63900 43.47000 27.09400
C  41.35100 44.34700 26.10200
C  40.88500 45.64600 26.68600
C  40.73300 45.32700 28.03900
C  41.30400 44.02600 28.27900
C  40.37000 46.90000 25.91800
C  40.37300 45.87000 29.23900
O  39.98200 47.00700 29.51000
C  40.80900 44.81700 30.39800
C  41.89100 45.58300 31.13000
O  42.88200 46.15700 30.61400
O  41.51500 45.69700 32.40000
C  42.59800 46.16200 33.36200
H  43.61000 38.52500 30.37400
H  43.76300 38.95000 23.87700
H  41.02400 44.71900 24.08000
H  42.42000 42.78700 32.21100
H  42.06100 39.73300 32.05600
H  44.72000 40.64200 31.87900
H  43.87800 39.68800 33.14900
H  44.00500 41.39400 33.20300
H  40.10700 40.96200 32.48400
H  39.79500 42.48200 31.50800
H  39.56100 43.61300 33.47300
H  41.16400 43.09300 34.01800
H  43.80700 35.82500 28.77900
H  45.08400 36.82200 29.65600
H  45.51400 36.17500 28.16400
H  44.18600 35.02600 26.49600
H  45.93100 35.49500 26.10000
H  44.83100 34.67000 24.88800
H  42.10100 40.26400 22.31200
H  42.50900 43.12300 22.19000
H  44.86800 40.29000 22.49000
H  44.47700 42.04700 21.95600
H  44.16700 40.78600 20.99800
H  40.50500 41.95500 21.21800
H  40.11900 43.22400 22.38400
H  40.15200 40.28400 23.13800
H  38.85800 40.91100 22.27800
H  39.12600 41.66600 23.83100
H  39.56300 46.60800 25.24700
H  41.14000 47.58600 25.56500
H  39.88000 47.39800 26.75500
H  39.91700 44.59400 30.98400
H  43.50700 46.47200 32.84600
H  43.05100 45.47000 34.07100
H  42.27000 47.01800 33.95200

