158

Mg 23.60300 -5.32400 45.51000
C  25.91200 -3.27100 43.70500
C  21.12400 -4.18300 43.47200
C  21.78100 -8.07800 46.39800
C  26.51900 -7.03100 46.86600
N  23.62400 -3.93100 43.81500
C  24.65200 -3.24600 43.12400
C  24.08700 -2.45400 41.90500
C  22.56900 -2.44100 42.17000
C  22.40100 -3.63800 43.17500
C  22.06600 -1.05000 42.65800
C  24.65500 -2.88200 40.57200
C  25.76400 -1.95100 39.98400
H  25.73200 -1.77200 38.48700
N  21.70600 -5.97700 45.06500
C  20.88300 -5.33500 44.22200
C  19.64100 -6.08600 44.10300
C  19.76400 -7.15200 45.04400
C  21.10000 -7.16200 45.56700
C  18.40900 -5.60000 43.24700
C  18.66500 -8.08000 45.54100
O  17.49600 -7.96200 45.05700
C  18.86900 -8.94600 46.74700
N  24.03300 -7.27400 46.51200
C  23.09700 -8.20500 46.84900
C  23.67000 -9.39200 47.60400
C  25.13000 -8.97200 47.84800
C  25.27600 -7.67000 47.00900
C  22.95000 -9.82100 48.92400
C  26.22300 -10.06600 47.57600
C  26.82200 -10.72900 48.82700
N  25.71300 -5.05400 45.66100
C  26.74000 -5.81600 46.23200
C  27.97400 -5.22100 45.96200
C  27.74800 -4.23900 45.01400
C  26.32500 -4.19100 44.76900
C  29.27100 -5.63300 46.54000
C  28.39200 -3.28100 44.13900
O  29.63900 -3.06900 43.91900
C  27.20600 -2.51800 43.45800
C  27.22900 -1.08500 43.96700
O  26.38500 -0.46100 44.61700
O  28.34400 -0.50400 43.40300
C  28.58000 0.91300 43.60200
H  20.33000 -3.61600 42.98100
H  21.32900 -9.06400 46.51700
H  27.40300 -7.53400 47.26400
H  24.40500 -1.42700 42.08500
H  21.97100 -2.63700 41.28000
H  21.92300 -0.55700 41.69600
H  22.89800 -0.56900 43.17300
H  21.20600 -1.13700 43.32100
H  23.94800 -2.87400 39.74300
H  25.15900 -3.84800 40.54900
H  26.68700 -2.40700 40.34400
H  25.58300 -1.00500 40.49400
H  18.49300 -4.54400 42.99000
H  17.51800 -5.59000 43.87400
H  18.22200 -6.19100 42.35000
H  19.27400 -8.26700 47.49800
H  19.43100 -9.85300 46.52500
H  17.99500 -9.51800 47.05800
H  23.70000 -10.23900 46.91900
H  25.31000 -8.51800 48.82300
H  22.92600 -10.91100 48.91800
H  21.94600 -9.40500 48.84400
H  23.53400 -9.46800 49.77400
H  26.86900 -9.58400 46.84300
H  25.86500 -10.96800 47.07900
H  26.12300 -10.45800 49.61700
H  27.78500 -10.32000 49.13300
H  26.91500 -11.81300 48.75600
H  29.87000 -6.30100 45.92100
H  29.21400 -5.99600 47.56700
H  29.81400 -4.70700 46.72700
H  27.36000 -2.59300 42.38200
H  27.67200 1.51600 43.59600
H  29.25900 1.19600 42.79800
H  29.10700 1.09800 44.53800
Mg 16.86100 52.06500 26.13000
C  18.49200 50.74500 28.91900
C  14.32000 53.01200 28.25900
C  15.09000 53.03500 23.48000
C  19.37800 50.77800 24.06700
N  16.50500 52.03600 28.45500
C  17.32400 51.48800 29.30200
C  16.85100 51.77700 30.78200
C  15.40600 52.18500 30.55300
C  15.35600 52.49600 29.02700
C  14.33300 51.12200 31.00200
C  17.85200 52.75200 31.46900
C  18.17700 52.45100 32.92700
H  17.05000 51.79600 33.80300
N  15.03000 52.91800 25.91100
C  14.10600 53.21400 26.89300
C  12.91500 53.85500 26.30300
C  13.24000 53.97800 24.94800
C  14.54300 53.33300 24.72100
C  11.80400 54.49200 27.11900
C  12.37300 54.53500 23.82900
O  12.68300 54.54500 22.65400
C  11.09500 55.07600 24.17500
N  17.14800 51.88100 24.07500
C  16.31900 52.41800 23.16300
C  16.88000 52.29900 21.74500
C  18.30700 51.74800 21.95200
C  18.33000 51.46000 23.41400
C  15.99200 51.44200 20.78700
C  19.43300 52.70400 21.48900
C  19.50500 54.19200 21.84800
N  18.53300 50.82300 26.32800
C  19.52500 50.50500 25.43600
C  20.59800 49.74600 26.09900
C  20.18900 49.80200 27.51500
C  18.94400 50.53900 27.57800
C  21.88200 49.20100 25.50600
C  20.57000 49.44300 28.85500
O  21.51500 48.78600 29.23100
C  19.49700 50.05200 29.82200
C  18.94500 48.93000 30.54800
O  18.16800 48.11500 30.08300
O  19.29800 49.03800 31.84300
C  18.75800 48.10900 32.82500
H  13.49100 53.24000 28.93200
H  14.59200 53.10800 22.51100
H  20.28800 50.64200 23.48000
H  16.88400 50.80800 31.28000
H  15.10900 53.08800 31.08600
H  13.68400 51.60100 31.73500
H  14.89600 50.26000 31.36000
H  13.68900 50.73400 30.21300
H  17.49900 53.78300 31.48400
H  18.81800 52.65700 30.97200
H  18.37700 53.34700 33.51400
H  19.06200 51.82200 32.82100
H  12.06000 54.45500 28.17800
H  10.88800 53.90700 27.03900
H  11.64500 55.52200 26.79900
H  10.37800 54.39800 24.63800
H  10.53200 55.02900 23.24300
H  11.17900 56.08600 24.57700
H  16.91500 53.34900 21.45400
H  18.41800 50.75000 21.52900
H  16.51400 50.84300 20.04100
H  15.42700 51.97900 20.02400
H  15.32500 50.76600 21.32200
H  19.40900 52.87600 20.41300
H  20.37700 52.20300 21.70400
H  20.22900 54.35200 22.64700
H  18.55000 54.52600 22.25200
H  19.84400 54.72700 20.96100
H  21.94400 49.25800 24.41900
H  22.09400 48.14400 25.66900
H  22.73900 49.66100 25.99700
H  20.03800 50.69500 30.51700
H  19.28800 47.15900 32.76600
H  17.67200 48.02100 32.84400
H  18.96400 48.48900 33.82600

