158

Mg 56.36600 24.77200 44.79100
C  53.56200 26.36200 43.56300
C  55.24200 21.75100 43.69000
C  59.36200 23.54200 45.14000
C  57.64900 28.01100 45.51700
N  54.70800 24.14500 43.73900
C  53.69200 24.96600 43.35700
C  52.64200 24.14600 42.49600
C  52.95300 22.75300 43.00700
C  54.40400 22.85800 43.44300
C  52.03200 22.22000 44.07100
C  52.99000 24.18300 40.95500
C  51.76500 24.16000 39.99800
H  51.82100 24.64400 38.55300
N  57.15600 22.81100 44.58100
C  56.52200 21.70400 44.19200
C  57.47300 20.65600 44.35000
C  58.69500 21.11100 44.73900
C  58.44600 22.56200 44.79000
C  57.05000 19.26300 44.01200
C  59.98900 20.26600 44.99500
O  59.93700 19.04700 44.89000
C  61.32600 20.80300 45.40500
N  58.21800 25.63700 45.19600
C  59.35700 24.90400 45.26900
C  60.62600 25.75000 45.55700
C  59.99900 27.15400 45.73800
C  58.48100 26.92700 45.50800
C  61.61600 25.29400 46.52100
C  60.59700 28.35500 44.87100
C  60.38900 28.19900 43.36200
N  55.64400 26.80500 44.88300
C  56.25600 27.99500 45.25300
C  55.24500 29.06800 45.13200
C  54.12700 28.39600 44.45600
C  54.49300 27.07400 44.28700
C  55.44500 30.51900 45.54000
C  52.93500 28.68500 43.80800
O  52.37800 29.73100 43.51300
C  52.36300 27.32300 43.40300
C  51.98500 27.55500 41.95800
O  52.72200 27.57800 41.01800
O  50.61700 27.79100 41.92100
C  49.85200 28.05300 40.67500
H  54.74800 20.79800 43.49200
H  60.38500 23.17400 45.24700
H  58.12300 28.97100 45.73200
H  51.66000 24.55500 42.73200
H  52.99800 21.96900 42.25100
H  51.22600 22.92200 44.28400
H  52.44300 21.90600 45.03100
H  51.44400 21.32200 43.87900
H  53.61400 23.33700 40.66500
H  53.55700 25.07200 40.67700
H  51.03000 24.68200 40.61000
H  51.32500 23.16900 40.11200
H  57.86200 18.95400 43.35400
H  56.12100 19.17500 43.44900
H  56.96100 18.64300 44.90400
H  61.15200 21.19200 46.40800
H  61.50700 21.50200 44.58800
H  62.16300 20.10800 45.45700
H  61.11600 25.73500 44.58400
H  59.98500 27.45900 46.78400
H  61.19900 24.57400 47.22500
H  61.98500 26.20100 46.99900
H  62.39500 24.75300 45.98300
H  61.66100 28.36100 45.10800
H  60.15600 29.30100 45.18200
H  59.76900 27.31400 43.21500
H  61.35500 28.16300 42.85900
H  59.78800 29.05300 43.05200
H  54.84600 31.00100 44.76700
H  56.47300 30.87700 45.59600
H  55.04800 30.77100 46.52300
H  51.43000 26.98400 43.85300
H  49.01000 27.36000 40.66000
H  50.49900 27.65400 39.89500
H  49.42100 29.03700 40.49100
Mg 26.61800 49.94500 27.06300
C  24.43800 50.84500 29.59200
C  29.00100 49.16200 29.42600
C  28.62300 49.05900 24.69100
C  24.15400 51.00400 24.75600
N  26.77500 50.14000 29.23300
C  25.66800 50.32700 30.04400
C  26.06300 50.17100 31.57600
C  27.52200 49.78700 31.46800
C  27.81300 49.70200 29.99700
C  28.55600 50.67500 32.18700
C  25.09000 49.12300 32.29700
C  24.28100 49.60800 33.52700
H  24.39100 48.72800 34.80100
N  28.60500 49.25600 26.99800
C  29.41500 48.98100 28.10200
C  30.64600 48.48000 27.61600
C  30.59700 48.43700 26.17200
C  29.23600 48.91500 25.87400
C  31.70100 47.96300 28.48900
C  31.59900 48.00100 25.10200
O  31.38700 48.10000 23.91200
C  33.02400 47.52800 25.50800
N  26.44500 50.28700 24.99600
C  27.40500 49.70300 24.23300
C  26.88300 49.50200 22.77500
C  25.49200 50.07800 22.83500
C  25.30700 50.45700 24.28000
C  27.82800 50.16000 21.81000
C  24.30200 49.24600 22.27300
C  23.98700 47.90300 22.93100
N  24.77100 50.88500 27.10300
C  23.88400 51.25100 26.13600
C  22.74700 51.84700 26.69100
C  22.90900 51.66200 28.03600
C  24.15900 51.12800 28.27200
C  21.51500 52.27500 25.90400
C  22.26300 51.71400 29.27200
O  21.12300 52.14600 29.48100
C  23.23800 51.21600 30.42300
C  23.56900 52.45300 31.26900
O  24.20900 53.48500 30.95200
O  22.86400 52.28400 32.34400
C  22.82400 53.28800 33.31000
H  29.75300 48.80600 30.13300
H  29.06400 48.61300 23.79700
H  23.34500 51.25500 24.06700
H  26.01800 51.18300 31.97800
H  27.66300 48.77300 31.84200
H  28.71800 51.57900 31.60000
H  29.46500 50.13100 32.44200
H  28.09200 50.89500 33.14800
H  25.74500 48.31900 32.63300
H  24.50200 48.56200 31.57100
H  23.30600 49.61600 33.03800
H  24.52000 50.62900 33.82500
H  31.74400 46.87600 28.41200
H  31.88900 48.30100 29.50800
H  32.65700 48.34400 28.12800
H  33.57100 47.19700 24.62500
H  32.96400 46.63700 26.13300
H  33.50800 48.33700 26.05500
H  26.75100 48.43200 22.61200
H  25.50200 51.07800 22.40200
H  28.66000 50.68500 22.27800
H  27.31700 50.91600 21.21500
H  28.15000 49.36300 21.14000
H  24.46300 49.01200 21.22100
H  23.40000 49.85300 22.35800
H  22.91700 47.70000 22.96400
H  24.48300 47.85100 23.90000
H  24.50600 47.17200 22.31000
H  21.10700 51.50100 25.25400
H  21.87500 53.15100 25.36400
H  20.78100 52.42400 26.69600
H  22.76200 50.41600 30.99100
H  23.00700 54.30900 32.97300
H  23.62000 53.08200 34.02600
H  21.83000 53.25700 33.75600

