158

Mg 42.36900 41.34200 26.34300
C  41.70200 43.65600 28.68900
C  43.69900 39.23700 28.59500
C  43.69000 39.38700 23.76100
C  41.63900 43.86200 23.85400
N  42.72200 41.46700 28.43200
C  42.17800 42.40400 29.23000
C  42.40000 42.06200 30.68400
C  43.19400 40.68100 30.64500
C  43.13500 40.44100 29.13300
C  44.71400 40.72200 31.23900
C  41.05800 41.92800 31.46900
C  41.16800 41.47200 32.94100
H  40.48900 42.36300 33.99400
N  43.41100 39.38800 26.20100
C  43.85500 38.74800 27.27700
C  44.43500 37.48100 26.79300
C  44.31600 37.49000 25.32100
C  43.75200 38.78300 24.97100
C  45.06100 36.46700 27.78300
C  44.64900 36.34000 24.40400
O  44.38900 36.34700 23.20600
C  45.12600 35.00900 24.99900
N  42.44200 41.49300 24.12000
C  43.13300 40.64500 23.36400
C  43.03500 41.01100 21.92800
C  42.19500 42.29800 21.93200
C  42.15300 42.58900 23.43500
C  44.39200 41.12300 21.14700
C  40.83100 42.14000 21.33100
C  39.60200 41.79900 22.06200
N  41.76800 43.32700 26.24500
C  41.57500 44.24900 25.19200
C  41.11600 45.50500 25.68500
C  41.17000 45.32200 27.09600
C  41.65200 44.01100 27.33700
C  40.67800 46.68400 24.86100
C  40.78900 45.81900 28.42200
O  40.28700 46.88000 28.76700
C  41.10100 44.77600 29.51400
C  42.12100 45.34600 30.37400
O  43.18200 45.81700 29.99000
O  41.74600 45.24300 31.66800
C  42.73600 45.88500 32.62600
H  43.93200 38.44400 29.30900
H  44.04400 38.77900 22.92600
H  41.33500 44.59500 23.10400
H  43.04300 42.81100 31.14600
H  42.62900 39.91300 31.17400
H  44.94500 41.77100 31.42400
H  45.45700 40.58000 30.45500
H  44.77900 40.19500 32.19200
H  40.39000 41.23800 30.95400
H  40.37600 42.77300 31.56700
H  42.24600 41.42400 33.09400
H  40.88500 40.43800 33.13800
H  45.73200 37.05200 28.41200
H  45.62000 35.60200 27.42600
H  44.42400 36.10100 28.58800
H  44.52800 34.74300 25.87100
H  46.18200 35.06600 25.26100
H  45.02100 34.24400 24.22900
H  42.48300 40.13600 21.58500
H  42.72700 43.15500 21.51900
H  44.49200 40.23200 20.52700
H  45.24400 41.26400 21.81100
H  44.32900 41.92100 20.40600
H  40.96700 41.35100 20.59100
H  40.65400 43.10000 20.84500
H  39.69900 41.79600 23.14800
H  39.15500 40.85300 21.75700
H  38.87700 42.60600 21.95800
H  39.93500 46.39700 24.11800
H  41.48100 47.19000 24.32500
H  40.09300 47.34900 25.49600
H  40.20600 44.45000 30.04400
H  43.77800 45.60500 32.47300
H  42.50400 45.53000 33.63100
H  42.67900 46.97400 32.61700
Mg -2.35400 34.80200 26.60700
C  -3.55000 33.07900 29.26200
C  -0.91800 37.17800 28.75600
C  -1.39200 36.66000 23.95100
C  -4.31600 32.86600 24.42700
N  -2.25900 35.07300 28.73000
C  -2.73900 34.16500 29.65200
C  -2.29900 34.46600 31.10400
C  -1.47800 35.80700 30.83200
C  -1.53200 36.06700 29.31700
C  -1.85400 37.10000 31.64200
C  -1.53100 33.28300 31.76700
C  -2.05400 32.61200 33.05700
H  -1.18700 32.84000 34.33600
N  -1.30300 36.65500 26.38800
C  -0.72600 37.40200 27.38600
C  0.21200 38.28900 26.74100
C  0.19000 38.04300 25.40500
C  -0.89500 37.07500 25.17900
C  0.89800 39.44000 27.58400
C  1.05300 38.59300 24.31100
O  0.86000 38.39300 23.13200
C  2.26900 39.36800 24.59500
N  -3.05700 34.89300 24.53400
C  -2.39400 35.76400 23.68500
C  -2.86500 35.58100 22.26400
C  -3.78100 34.28000 22.39000
C  -3.78000 34.00700 23.87700
C  -3.60000 36.81700 21.63300
C  -3.00100 33.17400 21.63400
C  -1.56100 32.81800 22.09000
N  -3.60600 33.22600 26.77000
C  -4.26100 32.46300 25.75200
C  -4.81600 31.27900 26.45400
C  -4.61800 31.54500 27.83100
C  -3.85000 32.69400 27.99500
C  -5.49100 30.11700 25.80900
C  -4.89200 31.03300 29.18000
O  -5.49000 30.03600 29.61800
C  -4.20600 32.02900 30.13200
C  -5.32900 32.61300 30.93600
O  -5.95100 33.61700 30.67900
O  -5.49500 31.84900 32.08100
C  -6.64200 32.24500 32.94300
H  -0.42400 37.87200 29.44000
H  -1.02600 37.31100 23.15400
H  -4.73400 32.12100 23.74600
H  -3.14600 34.61400 31.77300
H  -0.41800 35.58100 30.94900
H  -1.07000 37.56700 32.23900
H  -2.73200 36.95300 32.27000
H  -2.23100 37.82300 30.91900
H  -0.51400 33.58200 32.02200
H  -1.40300 32.52400 30.99400
H  -2.20400 31.55000 32.86600
H  -3.07700 32.94500 33.23400
H  0.37500 39.61500 28.52400
H  0.77400 40.37200 27.03300
H  1.93700 39.28800 27.87400
H  2.66600 39.83000 23.69100
H  3.00000 38.71300 25.06900
H  1.89300 40.07200 25.33800
H  -1.94800 35.41600 21.69900
H  -4.78400 34.47100 22.00900
H  -3.24900 36.88700 20.60300
H  -3.42300 37.71400 22.22700
H  -4.68500 36.82100 21.52900
H  -3.00900 33.32800 20.55500
H  -3.57800 32.25400 21.53800
H  -1.27800 33.20900 23.06700
H  -0.83500 33.22700 21.38700
H  -1.52100 31.72900 22.10500
H  -5.05200 29.81500 24.85800
H  -6.49700 30.41300 25.51100
H  -5.53300 29.30100 26.53000
H  -3.54300 31.44900 30.77400
H  -7.41700 32.72900 32.34900
H  -6.25400 32.75600 33.82500
H  -7.04900 31.35600 33.42400

