158

Mg 0.13300 7.95300 26.74300
C  0.82300 10.03900 29.50500
C  -0.25500 5.36300 28.76500
C  -0.60800 6.11700 24.04300
C  0.67000 10.78300 24.66600
N  0.35500 7.74200 28.79800
C  0.49000 8.68700 29.82500
C  0.40500 8.09100 31.20900
C  0.48600 6.56300 30.84700
C  0.18100 6.52100 29.35800
C  1.78700 5.89300 31.16700
C  -0.90700 8.55800 31.93500
C  -0.77600 8.68300 33.50700
H  0.38100 8.13500 34.22700
N  -0.34300 6.02900 26.46900
C  -0.54800 5.07400 27.41500
C  -0.89100 3.84500 26.89100
C  -0.89000 4.01200 25.47300
C  -0.62900 5.46000 25.28000
C  -1.30200 2.60600 27.70500
C  -1.23900 3.02500 24.42100
O  -1.34900 3.44000 23.24500
C  -1.33600 1.60600 24.65600
N  0.06900 8.47100 24.60900
C  -0.30500 7.44400 23.76700
C  -0.34900 8.00400 22.32200
C  -0.02500 9.58800 22.51800
C  0.18400 9.67100 24.01300
C  0.65400 7.30400 21.26600
C  -1.08700 10.52800 21.88900
C  -2.30200 10.89100 22.77500
N  0.78400 9.92000 26.95000
C  0.97200 10.94500 26.03700
C  1.33900 12.20200 26.74100
C  1.34300 11.83600 28.12800
C  0.94900 10.50900 28.18100
C  1.49600 13.56700 26.08800
C  1.53300 12.25200 29.42500
O  1.94500 13.28800 29.81600
C  1.11900 11.18300 30.43500
C  2.28500 10.87600 31.42200
O  3.30100 10.18300 31.20500
O  2.06000 11.50100 32.63500
C  3.07500 11.49700 33.63700
H  -0.26200 4.57200 29.51800
H  -0.68200 5.61000 23.07800
H  0.82900 11.64300 24.01100
H  1.25400 8.23200 31.87800
H  -0.20500 5.95800 31.43500
H  2.59800 6.52700 31.52300
H  2.08400 5.24800 30.33900
H  1.49600 5.14200 31.90100
H  -1.58800 7.70700 31.94100
H  -1.26300 9.49300 31.50400
H  -1.69300 8.19100 33.83200
H  -0.97200 9.70100 33.84300
H  -1.62200 2.85700 28.71600
H  -0.56400 1.80600 27.63800
H  -2.19300 2.19900 27.22700
H  -0.43300 1.40800 25.23300
H  -1.14000 1.08600 23.71800
H  -2.23700 1.30200 25.18800
H  -1.41100 7.81400 22.16300
H  0.95600 9.85400 22.12300
H  0.02100 7.04200 20.41800
H  1.08500 6.42800 21.75000
H  1.48100 7.90800 20.89300
H  -1.58400 10.18700 20.98100
H  -0.61700 11.49500 21.71000
H  -3.23600 10.44700 22.42900
H  -2.35000 11.97700 22.86300
H  -2.20500 10.58700 23.81700
H  1.28800 14.38200 26.78200
H  0.77300 13.66300 25.27800
H  2.51500 13.71700 25.73300
H  0.25100 11.53100 30.99600
H  3.01000 12.41200 34.22700
H  4.09100 11.29300 33.30000
H  2.76100 10.77300 34.38900
Mg 16.53300 -1.45000 27.99200
C  15.73400 0.39800 30.82500
C  18.71600 -3.37900 30.01500
C  17.96700 -2.99700 25.29600
C  14.80600 0.74900 25.98200
N  17.22200 -1.40500 30.13900
C  16.65000 -0.68200 31.16100
C  17.37800 -0.79400 32.50800
C  18.37300 -1.96700 32.17500
C  18.06200 -2.27200 30.69400
C  19.89600 -1.77400 32.42900
C  16.35200 -1.08800 33.66900
C  16.82900 -1.75500 34.95600
H  17.23900 -0.89000 36.12500
N  18.00700 -3.19900 27.65900
C  18.70400 -3.84100 28.63100
C  19.39600 -4.95300 28.06800
C  19.12100 -4.90300 26.69600
C  18.35600 -3.69800 26.45800
C  20.28100 -5.92300 28.81400
C  19.64400 -5.75900 25.52300
O  19.42700 -5.37400 24.35600
C  20.45900 -7.07500 25.71700
N  16.43800 -1.14700 25.94500
C  17.12300 -1.89500 25.02900
C  16.75700 -1.42300 23.65800
C  15.56800 -0.40300 23.84100
C  15.61300 -0.24400 25.30800
C  18.02000 -0.86800 22.88200
C  14.10200 -0.68800 23.42800
C  13.86500 -0.17300 21.97500
N  15.38000 0.12600 28.27500
C  14.72800 0.92500 27.36100
C  13.91100 1.87800 28.05900
C  14.30900 1.73400 29.41600
C  15.20600 0.63300 29.51900
C  13.11900 2.88300 27.46600
C  14.08400 2.29600 30.70800
O  13.32700 3.23000 31.03300
C  14.99900 1.41300 31.78300
C  15.88600 2.35100 32.50300
O  16.83000 3.03000 32.10400
O  15.46000 2.49100 33.76600
C  15.94700 3.61900 34.53500
H  19.47500 -3.78500 30.68800
H  18.39700 -3.33900 24.35300
H  14.19100 1.38500 25.34100
H  17.88300 0.13700 32.76200
H  18.09200 -2.85300 32.74500
H  20.13900 -1.15000 33.28900
H  20.33300 -1.29800 31.55200
H  20.33700 -2.74500 32.65500
H  15.58200 -1.76400 33.29900
H  15.89000 -0.13800 33.93800
H  17.76800 -2.28800 34.80300
H  16.06300 -2.34800 35.45400
H  20.16400 -5.80500 29.89100
H  21.35000 -5.86300 28.60800
H  20.08400 -6.96300 28.55400
H  19.73700 -7.70900 26.23300
H  21.31400 -7.00500 26.39000
H  20.86100 -7.52600 24.81000
H  16.40900 -2.23100 23.01500
H  15.81500 0.57600 23.43100
H  18.87700 -0.75800 23.54700
H  17.73500 0.09900 22.46900
H  18.30800 -1.48900 22.03300
H  13.40700 -0.21500 24.12200
H  13.93900 -1.76500 23.40800
H  14.84700 0.06100 21.56400
H  13.33700 0.76400 22.15300
H  13.32900 -0.93700 21.41100
H  13.41400 3.21900 26.47200
H  13.17600 3.81700 28.02400
H  12.11900 2.45000 27.43500
H  14.25800 1.02500 32.48200
H  15.04100 3.96700 35.03100
H  16.28300 4.50400 33.99400
H  16.75000 3.19600 35.13900

