158

Mg 24.15600 -5.38100 45.25100
C  26.16700 -2.84500 43.79200
C  21.61400 -4.29800 43.11600
C  22.51900 -8.12000 46.00600
C  27.12600 -6.64300 46.63400
N  24.04200 -3.81600 43.55200
C  24.97400 -2.89800 43.14200
C  24.45900 -1.98200 42.10700
C  22.89800 -2.28100 42.15100
C  22.81400 -3.57600 42.93100
C  22.12300 -1.07400 42.74900
C  25.16600 -2.23800 40.74300
C  25.58700 -0.94900 39.86100
H  25.42600 -1.01700 38.28200
N  22.22300 -6.01600 44.73300
C  21.38900 -5.46000 43.85300
C  20.16200 -6.22700 43.92200
C  20.38300 -7.35300 44.71000
C  21.74400 -7.19200 45.22400
C  18.95000 -5.92500 43.05100
C  19.37600 -8.39700 45.14000
O  18.25800 -8.32500 44.66100
C  19.62700 -9.46900 46.30100
N  24.80800 -7.19600 46.10200
C  23.88800 -8.14200 46.39800
C  24.57700 -9.39000 47.05700
C  25.99300 -8.83300 47.42300
C  25.99900 -7.44500 46.74000
C  23.67600 -10.06000 48.21000
C  27.14300 -9.84500 47.02000
C  28.23500 -10.04500 48.07000
N  26.18100 -4.72800 45.44900
C  27.21400 -5.40400 46.00000
C  28.41100 -4.57900 45.95400
C  28.09300 -3.54800 45.12700
C  26.70000 -3.70700 44.76700
C  29.83800 -4.71000 46.59200
C  28.54100 -2.34300 44.49200
O  29.54800 -1.76000 44.56200
C  27.31100 -1.89100 43.51700
C  26.99600 -0.45600 43.85300
O  26.62200 -0.08200 44.92100
O  27.25900 0.41900 42.85800
C  27.13200 1.81200 43.22100
H  20.70300 -4.00600 42.59000
H  22.11000 -9.12300 46.14400
H  28.07300 -7.03600 47.01200
H  24.62100 -0.94500 42.40200
H  22.47900 -2.42600 41.15500
H  21.19600 -1.49600 43.13700
H  21.99200 -0.30400 41.98900
H  22.67800 -0.55900 43.53300
H  24.45400 -2.76600 40.10900
H  25.96700 -2.94100 40.96800
H  26.64200 -0.88900 40.12900
H  25.08400 -0.06200 40.24600
H  19.10200 -6.66000 42.26200
H  18.90900 -4.91600 42.64200
H  18.07900 -6.07000 43.69100
H  19.78100 -8.98700 47.26600
H  20.43900 -10.10500 45.95100
H  18.71800 -10.06700 46.23000
H  24.69000 -10.13300 46.26800
H  25.94400 -8.67700 48.50100
H  22.83000 -9.45800 48.54100
H  24.36200 -10.29900 49.02300
H  23.23700 -10.99300 47.85800
H  27.68600 -9.59600 46.10800
H  26.69600 -10.83000 46.89300
H  29.19300 -9.94700 47.55900
H  28.16700 -11.07600 48.41800
H  28.13000 -9.28600 48.84500
H  29.82500 -4.94400 47.65700
H  30.26500 -3.71300 46.47900
H  30.44600 -5.54200 46.23900
H  27.64800 -1.97400 42.48400
H  27.83600 2.43700 42.67200
H  27.38500 2.00100 44.26400
H  26.12900 2.14700 42.95500
Mg 9.81200 47.91500 26.37800
C  7.96200 47.71500 29.22400
C  12.45700 49.21600 28.18600
C  11.64700 48.15200 23.52800
C  7.04600 47.09200 24.49900
N  10.15800 48.39900 28.44100
C  9.26000 48.21300 29.45800
C  9.90200 48.58800 30.86200
C  11.17900 49.37900 30.43900
C  11.26000 48.98100 28.91200
C  11.12900 50.96000 30.49500
C  10.21500 47.31600 31.70800
C  11.00300 47.56000 32.97400
H  10.43100 46.89900 34.22200
N  11.82200 48.55900 25.94800
C  12.76600 48.94900 26.85400
C  14.09100 49.20800 26.12400
C  13.88400 48.87600 24.77400
C  12.43000 48.46700 24.71000
C  15.30800 49.66600 26.89400
C  14.84900 49.02000 23.60600
O  14.42800 48.64000 22.52400
C  16.35400 49.62900 23.72100
N  9.45600 47.80200 24.26900
C  10.30200 47.92200 23.29400
C  9.67700 47.79200 21.91400
C  8.24000 47.21100 22.25500
C  8.16800 47.46700 23.78200
C  9.78700 49.11000 21.15400
C  8.07800 45.66400 21.96300
C  9.03500 44.76200 22.78700
N  7.86000 47.50600 26.71800
C  6.78100 47.15400 25.87300
C  5.62700 46.91500 26.62700
C  6.05800 46.97400 27.92600
C  7.41300 47.44800 27.93800
C  4.33900 46.62600 26.08900
C  5.54600 46.94500 29.31800
O  4.43500 46.64200 29.74600
C  6.81900 47.23200 30.21400
C  7.11600 46.01700 30.91800
O  7.90700 45.18300 30.51600
O  6.38100 45.88700 32.09800
C  6.66600 44.69800 32.86900
H  13.18600 49.83800 28.70900
H  12.26900 48.21600 22.63300
H  6.21700 46.76300 23.86900
H  9.28300 49.32600 31.37100
H  12.12200 49.13200 30.92600
H  10.92500 51.30400 29.48100
H  12.00300 51.44100 30.93400
H  10.36200 51.27500 31.20200
H  10.82900 46.63100 31.12500
H  9.30200 46.81400 32.02800
H  11.20700 48.62800 33.05400
H  11.98100 47.12800 32.76300
H  15.13200 49.66600 27.96900
H  15.73200 50.63000 26.61200
H  16.12700 48.97000 26.71300
H  16.95100 49.00200 24.38500
H  16.27500 50.54100 24.31300
H  16.86400 49.76300 22.76700
H  10.23400 47.00200 21.40900
H  7.43500 47.73900 21.74400
H  10.37600 49.80600 21.75100
H  8.76600 49.45700 20.99300
H  10.35100 48.88700 20.24900
H  8.27900 45.49700 20.90500
H  7.03500 45.55200 22.26000
H  9.60300 45.27400 23.56300
H  9.71900 44.19500 22.15600
H  8.40200 44.02900 23.28800
H  4.34000 45.63400 25.63700
H  4.14000 47.40200 25.35000
H  3.72800 46.70100 26.98900
H  6.61800 48.10300 30.83700
H  7.26200 43.96600 32.32400
H  5.75400 44.21600 33.22000
H  7.20600 44.87900 33.79900

