158

Mg 16.88800 -2.84200 27.55500
C  16.23900 -0.46100 30.02000
C  19.19200 -4.31400 29.58200
C  18.51200 -4.03000 24.87400
C  15.38400 -0.47200 25.34700
N  17.59300 -2.45000 29.57100
C  17.09200 -1.52400 30.50600
C  17.74700 -1.76800 31.90900
C  18.68900 -2.97700 31.66800
C  18.55900 -3.20400 30.18500
C  20.18500 -2.86700 32.00100
C  16.54900 -2.11700 32.88200
C  16.57500 -1.25100 34.14500
H  17.93600 -0.78500 34.74200
N  18.28500 -4.27500 27.23200
C  19.15300 -4.74200 28.26700
C  19.88900 -5.88300 27.69400
C  19.61600 -5.87300 26.32900
C  18.73600 -4.71900 26.03400
C  20.63700 -6.87800 28.61500
C  20.21200 -6.79500 25.26100
O  19.80700 -6.77000 24.10500
C  21.25900 -7.70600 25.72800
N  16.75100 -2.50000 25.37800
C  17.56100 -3.06900 24.50900
C  17.43500 -2.53200 23.04500
C  16.16700 -1.66100 23.21600
C  16.09700 -1.49600 24.72700
C  18.63800 -1.84000 22.39900
C  14.85600 -2.30400 22.73600
C  13.84900 -1.22000 22.28300
N  15.76600 -1.05800 27.68300
C  15.18700 -0.28700 26.74800
C  14.53300 0.84300 27.27200
C  14.84400 0.79700 28.59500
C  15.68200 -0.35500 28.76600
C  13.84000 1.94200 26.56000
C  14.73800 1.57500 29.83300
O  14.27200 2.63400 30.09800
C  15.53900 0.62200 30.89600
C  16.46600 1.49100 31.65500
O  17.61900 1.67100 31.41200
O  15.72600 2.04400 32.69300
C  16.49500 3.06800 33.43700
H  19.99000 -4.73100 30.19900
H  19.01200 -4.49300 24.02000
H  14.88500 0.24900 24.69600
H  18.35300 -0.96200 32.32400
H  18.27700 -3.85400 32.16700
H  20.77000 -2.64600 31.10900
H  20.48100 -3.80100 32.48000
H  20.16800 -2.05500 32.72900
H  16.53700 -3.13600 33.26800
H  15.64200 -1.84400 32.34200
H  16.04900 -1.76900 34.94700
H  16.04800 -0.31000 33.98300
H  20.33000 -6.75700 29.65400
H  21.70000 -6.65900 28.51200
H  20.50600 -7.91000 28.29200
H  21.89400 -7.09400 26.36900
H  21.90900 -8.11700 24.95600
H  20.86100 -8.53000 26.32000
H  17.14200 -3.37200 22.41400
H  16.23100 -0.69200 22.72300
H  19.45500 -1.86200 23.12000
H  18.44800 -0.79100 22.16800
H  18.92500 -2.50200 21.58300
H  14.39500 -2.85100 23.55800
H  15.02100 -2.97300 21.89100
H  13.27500 -1.65700 21.46600
H  14.26600 -0.33700 21.80000
H  13.04800 -1.03000 22.99700
H  13.08500 2.33500 27.24200
H  13.40300 1.71200 25.58900
H  14.67300 2.64100 26.48400
H  14.81900 0.14200 31.55800
H  17.42100 2.61300 33.79000
H  15.83900 3.22100 34.29400
H  16.62200 3.93200 32.78600
Mg 30.93200 59.94700 40.57500
C  27.92700 58.46300 39.22200
C  32.65500 57.29700 39.06700
C  33.73500 61.51600 41.08800
C  29.01600 62.80200 41.37400
N  30.32500 58.12300 39.22900
C  29.08600 57.65300 38.91600
C  29.12200 56.38800 38.00800
C  30.64900 56.02100 38.15600
C  31.30600 57.21600 38.90700
C  31.06500 54.66000 38.79500
C  28.61200 56.70600 36.55200
C  27.62000 55.73800 35.91200
H  26.62200 56.28900 34.85000
N  32.87200 59.45800 40.31600
C  33.40100 58.32400 39.74100
C  34.83300 58.30100 39.82600
C  35.26000 59.49200 40.45800
C  33.91500 60.18100 40.65300
C  35.61800 57.25000 39.07500
C  36.76500 59.99900 40.81400
O  37.78100 59.37500 40.52800
C  36.98800 61.24300 41.64700
N  31.24500 61.86900 41.19400
C  32.59800 62.26800 41.29400
C  32.58500 63.80700 41.55600
C  31.10700 64.12500 41.90400
C  30.40100 62.87900 41.41800
C  33.71800 64.22000 42.60300
C  30.59200 65.49300 41.24200
C  29.73200 66.35900 42.16900
N  28.84900 60.57300 40.28600
C  28.23300 61.72600 40.77100
C  26.73500 61.60300 40.55800
C  26.65200 60.36200 39.88500
C  27.91200 59.74600 39.80300
C  25.71900 62.66400 40.74900
C  25.70400 59.46500 39.15700
O  24.55500 59.70000 38.77900
C  26.51500 58.18900 38.85400
C  25.92800 57.06500 39.57200
O  26.28900 56.64900 40.64200
O  24.92100 56.51400 38.82100
C  24.34500 55.23300 39.23200
H  33.27500 56.54800 38.56900
H  34.62600 62.14200 41.01100
H  28.52200 63.75500 41.57400
H  28.60200 55.58200 38.52500
H  31.05800 56.01600 37.14600
H  31.58700 54.08400 38.03100
H  30.26600 53.98800 39.11000
H  31.74800 54.70700 39.64400
H  29.45100 56.65700 35.85700
H  28.27100 57.73700 36.46200
H  27.06500 55.18700 36.67100
H  28.26100 54.97300 35.47300
H  35.53200 57.38500 37.99700
H  35.17500 56.28400 39.31700
H  36.66600 57.12700 39.35000
H  37.79900 61.18100 42.37200
H  36.10200 61.38700 42.26500
H  37.03900 62.11700 40.99800
H  32.89700 64.11900 40.55900
H  31.03100 64.23600 42.98500
H  34.12100 63.34400 43.11100
H  33.27400 64.84500 43.37900
H  34.54400 64.78900 42.17800
H  30.13900 65.25900 40.27800
H  31.44400 66.15400 41.08600
H  30.18700 67.32700 42.37600
H  29.44200 66.01600 43.16200
H  28.81600 66.62000 41.63800
H  25.94800 63.28700 41.61400
H  24.75500 62.19300 40.94400
H  25.79200 63.26400 39.84200
H  26.37100 58.01000 37.78900
H  23.32000 55.28400 39.60100
H  24.91100 54.67800 39.97900
H  24.36100 54.60300 38.34300

