158

Mg 37.12200 49.17100 24.98200
C  37.53700 47.27000 27.97200
C  35.81500 51.67000 26.89400
C  36.20500 50.74000 22.18500
C  38.29900 46.36800 23.20000
N  36.51700 49.33000 27.13000
C  36.95100 48.54200 28.18800
C  36.68200 49.15800 29.58500
C  36.04600 50.59600 29.15800
C  36.14000 50.51900 27.63100
C  34.61500 50.83500 29.64900
C  37.99500 49.41700 30.40400
C  37.87400 49.67400 31.95400
H  36.53600 49.63600 32.64400
N  36.13500 51.04700 24.56200
C  35.83000 51.95500 25.52500
C  35.29800 53.10300 24.83100
C  35.30600 52.83900 23.43000
C  35.89500 51.49000 23.33400
C  34.87000 54.35100 25.57600
C  34.87300 53.76600 22.24400
O  34.92900 53.38800 21.06900
C  34.51500 55.17900 22.43300
N  37.18300 48.65900 23.02600
C  36.74400 49.42600 22.01900
C  36.96900 48.84000 20.62300
C  37.69200 47.50100 20.97200
C  37.75300 47.49800 22.46200
C  35.70700 48.71600 19.75300
C  39.16800 47.41500 20.36900
C  40.11300 48.47200 20.89500
N  37.75300 47.20000 25.44000
C  38.22600 46.22300 24.58500
C  38.69800 45.10500 25.41000
C  38.32800 45.46200 26.70100
C  37.78000 46.74600 26.69700
C  39.24800 43.82100 25.01000
C  38.38000 45.03800 28.10600
O  38.73200 43.99000 28.61500
C  37.63000 46.14800 28.97300
C  36.24700 45.68300 29.35300
O  35.36300 45.26500 28.62600
O  36.15400 45.80400 30.71700
C  34.86500 45.46800 31.34700
H  35.40400 52.46200 27.52400
H  35.95400 51.27300 21.26500
H  38.83300 45.54200 22.72400
H  35.97600 48.58400 30.18500
H  36.73200 51.33300 29.57500
H  34.21300 49.99100 30.21000
H  34.05200 51.08100 28.74900
H  34.64700 51.76500 30.21700
H  38.58800 50.23000 29.98500
H  38.50300 48.47700 30.19200
H  38.27800 50.68000 32.06600
H  38.51100 48.93400 32.43900
H  35.63700 55.10400 25.39700
H  35.00100 54.20600 26.64800
H  33.87100 54.64800 25.25500
H  34.37900 55.67200 21.47100
H  35.35100 55.71600 22.88200
H  33.67200 55.07700 23.11600
H  37.71200 49.36400 20.02100
H  37.32600 46.51400 20.68900
H  35.21700 47.78800 20.05000
H  35.81600 48.64400 18.67100
H  34.97000 49.48200 19.99300
H  39.08100 47.52000 19.28800
H  39.61500 46.43500 20.54000
H  40.99600 48.02100 21.34800
H  39.72400 49.05300 21.73000
H  40.41000 49.17700 20.11800
H  39.40100 43.71100 23.93600
H  38.70500 42.91100 25.26800
H  40.23000 43.73100 25.47400
H  38.28000 46.43300 29.80000
H  34.99400 44.42400 31.63200
H  33.91800 45.49400 30.80700
H  34.81100 46.03900 32.27400
Mg 7.76200 52.99600 41.60600
C  6.94800 49.59200 41.35800
C  10.70000 52.21400 40.01100
C  8.25100 56.17100 41.15800
C  4.60000 53.54400 42.92900
N  8.68000 51.14500 40.75600
C  8.13600 49.88100 40.78400
C  9.06900 48.86600 40.12600
C  10.38500 49.68600 40.18400
C  9.93600 51.10700 40.30300
C  11.42200 49.15800 41.13900
C  8.59700 48.48200 38.68100
C  9.13700 49.32200 37.44200
H  8.14200 49.68800 36.41800
N  9.26100 54.11200 40.63400
C  10.38800 53.61900 40.00500
C  11.21100 54.71800 39.61800
C  10.48400 55.87800 39.83200
C  9.28300 55.40800 40.56800
C  12.50400 54.60000 39.03000
C  10.87400 57.22700 39.33600
O  11.95600 57.33100 38.71400
C  9.94800 58.39500 39.36800
N  6.59200 54.62900 42.05700
C  7.01800 55.84500 41.78500
C  6.14000 56.92400 42.47100
C  4.90800 56.06100 42.93700
C  5.39500 54.64000 42.65500
C  6.75900 57.82500 43.55600
C  3.62800 56.25300 42.19400
C  3.56600 56.02500 40.62300
N  6.09400 51.80100 42.31500
C  4.84900 52.16200 42.81900
C  3.98200 50.98200 43.02300
C  4.81200 49.99500 42.45300
C  6.05400 50.52400 42.03000
C  2.49900 50.96300 43.31300
C  4.95500 48.51500 42.24600
O  4.29000 47.54600 42.57300
C  6.24700 48.21900 41.49300
C  5.84900 47.49600 40.21400
O  4.96600 47.97900 39.47800
O  6.41100 46.29000 40.01100
C  6.10900 45.61400 38.79000
H  11.67000 52.01600 39.55000
H  8.45200 57.24500 41.13500
H  3.62300 53.80100 43.34200
H  9.12200 48.10500 40.90400
H  10.85700 49.42800 39.23600
H  12.34000 48.96900 40.58200
H  11.05800 48.33900 41.75900
H  11.72500 49.90900 41.86900
H  7.53100 48.67000 38.54800
H  8.70500 47.41300 38.49800
H  9.66600 48.48500 36.98600
H  9.74900 50.17700 37.72900
H  12.91000 53.60300 39.20200
H  13.27100 55.17900 39.54400
H  12.48900 54.72800 37.94800
H  9.84100 58.80700 40.37100
H  8.96800 58.08200 39.00900
H  10.17600 59.22500 38.69900
H  5.92400 57.48400 41.56100
H  4.84900 56.26500 44.00600
H  6.76300 58.87200 43.25200
H  7.78200 57.59200 43.85000
H  6.18700 57.84000 44.48400
H  3.43700 57.32500 42.25100
H  2.81100 55.69000 42.64700
H  4.30200 55.32300 40.23100
H  3.43500 56.97000 40.09600
H  2.65100 55.51800 40.31800
H  2.08400 51.97000 43.34400
H  2.32600 50.39100 44.22400
H  2.08700 50.36100 42.50200
H  6.84100 47.48300 42.03400
H  6.83100 44.82900 38.56800
H  6.19400 46.28800 37.93700
H  5.14500 45.10900 38.72800

