158

Mg -1.67200 17.61200 26.69600
C  -2.06600 15.31900 29.21600
C  -2.16400 20.25600 28.98200
C  -1.94500 19.83700 24.04400
C  -2.19700 15.01200 24.32000
N  -2.03300 17.71600 28.86600
C  -2.09300 16.66600 29.67600
C  -2.13500 17.10300 31.16600
C  -2.28600 18.70600 31.03400
C  -2.23200 18.87300 29.55200
C  -3.32300 19.37300 31.86700
C  -0.85400 16.70900 32.00200
C  -0.40700 17.66400 33.22900
H  -0.00600 16.98400 34.44000
N  -1.87600 19.68900 26.55100
C  -2.06600 20.60100 27.59300
C  -2.09300 21.97300 27.06000
C  -2.11900 21.81500 25.66800
C  -2.01800 20.39200 25.37400
C  -2.29200 23.21600 27.92000
C  -2.32400 22.89500 24.59200
O  -2.44500 22.65500 23.37600
C  -2.27600 24.33200 25.05800
N  -1.88100 17.47500 24.45100
C  -1.96100 18.56200 23.61700
C  -1.88700 18.03700 22.14900
C  -2.01200 16.50000 22.27700
C  -2.08500 16.28700 23.76300
C  -2.82700 18.65300 21.09400
C  -0.96900 15.59000 21.44700
C  -1.43900 14.90300 20.15400
N  -1.96900 15.62400 26.73100
C  -2.17000 14.69600 25.72600
C  -2.25100 13.36000 26.24600
C  -2.15300 13.53100 27.66600
C  -2.09000 14.91400 27.85600
C  -2.55500 12.09800 25.50300
C  -2.20100 12.87000 28.97000
O  -2.24700 11.66600 29.21900
C  -2.19900 14.05700 30.05600
C  -1.16400 13.81300 31.09900
O  0.04700 13.91700 31.02300
O  -1.82200 13.35700 32.25900
C  -0.92900 12.65200 33.24700
H  -2.35700 21.11700 29.62500
H  -1.88000 20.52500 23.19800
H  -2.35800 14.20700 23.59900
H  -2.98500 16.62200 31.65000
H  -1.31600 19.15200 31.25600
H  -4.04800 19.89900 31.24500
H  -2.82600 20.00900 32.60000
H  -3.82500 18.62900 32.48400
H  0.07800 16.55200 31.45900
H  -1.22700 15.86600 32.58200
H  -1.23500 18.32600 33.48300
H  0.47700 18.21800 32.91400
H  -1.49200 23.93300 27.73400
H  -2.30200 23.15300 29.00800
H  -3.21800 23.73900 27.68200
H  -3.24600 24.73100 25.35400
H  -2.09500 24.82600 24.10400
H  -1.47000 24.36800 25.79200
H  -0.83900 18.14600 21.86900
H  -3.03000 16.24600 21.97900
H  -2.71300 19.73200 20.98500
H  -3.86700 18.38200 21.27500
H  -2.54100 18.20600 20.14200
H  -0.47700 14.87000 22.10200
H  -0.08000 16.13000 21.12300
H  -1.40100 13.83200 20.35400
H  -0.72900 15.20300 19.38300
H  -2.43600 15.17600 19.80800
H  -3.36900 12.37600 24.83300
H  -2.79800 11.33400 26.24100
H  -1.64800 11.92000 24.92500
H  -3.11800 14.03900 30.64300
H  0.15000 12.58700 33.11000
H  -1.26500 11.61900 33.33200
H  -1.06500 13.15100 34.20700
Mg 26.45100 50.38400 26.48500
C  24.03800 51.60300 28.74800
C  28.58100 49.75100 29.05900
C  28.61400 49.46500 24.22300
C  24.27200 51.53600 23.89300
N  26.28700 50.70100 28.65800
C  25.19600 51.04100 29.38800
C  25.41900 50.72100 30.87900
C  26.99200 50.53800 30.91600
C  27.31800 50.26100 29.46800
C  27.73300 51.67200 31.58900
C  24.73200 49.37600 31.44000
C  23.91300 49.69300 32.75000
H  24.59800 50.37600 33.96000
N  28.37400 49.58800 26.60600
C  29.10100 49.39800 27.76400
C  30.43000 48.89300 27.43300
C  30.47100 48.92800 26.01800
C  29.07400 49.28300 25.51900
C  31.52900 48.67100 28.43300
C  31.57700 48.50100 25.09800
O  31.63100 48.67200 23.93900
C  32.83400 47.84500 25.73500
N  26.48000 50.68000 24.31900
C  27.43900 49.99200 23.64800
C  27.11500 49.93400 22.16900
C  25.63200 50.46000 22.09700
C  25.39100 50.87900 23.51900
C  28.16200 50.54700 21.09400
C  24.61900 49.51900 21.41000
C  23.96000 48.34900 22.21200
N  24.63900 51.51700 26.27800
C  23.90000 51.85300 25.23900
C  22.71200 52.52500 25.65500
C  22.61600 52.39700 27.01800
C  23.91500 51.82300 27.34700
C  21.75600 53.29500 24.73200
C  21.91500 52.59200 28.28300
O  20.76900 52.99200 28.55800
C  22.79100 52.09500 29.37300
C  22.88800 53.11800 30.39000
O  23.50500 54.18600 30.30500
O  22.11200 52.71800 31.47900
C  22.29900 53.53400 32.62700
H  29.24000 49.52100 29.89900
H  29.32600 49.23100 23.42900
H  23.56300 51.69900 23.07800
H  25.10400 51.56800 31.48800
H  27.12400 49.65600 31.54300
H  27.21200 52.33300 32.28200
H  28.31700 52.33500 30.95200
H  28.43400 51.18500 32.26700
H  25.36900 48.54000 31.72700
H  24.05200 49.10000 30.63400
H  23.45100 48.77100 33.10500
H  23.03700 50.25400 32.42300
H  31.91200 47.68400 28.17500
H  31.26700 48.56200 29.48500
H  32.38600 49.33700 28.32900
H  33.43800 47.30900 25.00300
H  32.52600 47.04100 26.40200
H  33.52500 48.58800 26.13300
H  27.02000 48.86800 21.96200
H  25.71000 51.41900 21.58600
H  28.96000 51.21400 21.42100
H  27.63700 51.26600 20.46500
H  28.57000 49.73400 20.49300
H  25.14900 48.99000 20.61700
H  23.78100 50.14700 21.11000
H  24.30500 48.22800 23.23900
H  24.19000 47.40200 21.72600
H  22.87700 48.46100 22.16600
H  22.11100 54.26600 24.38900
H  20.85000 53.52400 25.29300
H  21.64100 52.74400 23.79900
H  22.52200 51.15800 29.86000
H  22.45800 54.58000 32.36700
H  23.12000 53.07500 33.17800
H  21.44100 53.38600 33.28200

