158

Mg 42.87300 3.91500 47.18700
C  40.55700 6.35100 47.40200
C  40.48100 1.58900 47.41800
C  45.28200 1.44700 46.84000
C  45.34900 6.24300 46.15900
N  40.79100 3.98500 47.26400
C  40.01700 5.07400 47.47300
C  38.55500 4.65800 47.49100
C  38.65900 3.18500 47.83600
C  40.07800 2.88200 47.52300
C  38.40600 2.83200 49.37200
C  37.74800 5.02100 46.17300
C  38.23700 4.62800 44.85100
H  38.39800 5.76200 43.77400
N  42.85800 1.81100 46.98000
C  41.75700 1.06600 47.11500
C  42.10400 -0.35900 47.10800
C  43.47000 -0.47900 46.85000
C  43.96700 0.97800 46.83700
C  41.04400 -1.47300 47.17300
C  44.29400 -1.83200 46.71000
O  43.81900 -2.92400 46.82700
C  45.71900 -1.72700 46.40300
N  44.98400 3.83700 46.43400
C  45.80000 2.73100 46.68100
C  47.27300 3.07800 46.65800
C  47.25800 4.53900 46.02400
C  45.76200 4.93500 46.18800
C  48.03600 2.98900 48.11200
C  47.82000 4.62800 44.54800
C  49.14400 5.30500 44.32700
N  43.02500 5.89800 46.95500
C  44.07300 6.79900 46.53000
C  43.60900 8.18300 46.59900
C  42.29700 8.04800 47.04600
C  41.96400 6.66000 47.14400
C  44.48500 9.43000 46.35900
C  41.07700 8.83000 47.34500
O  40.84700 10.04500 47.33800
C  39.91800 7.73300 47.56300
C  39.20000 7.91800 48.79000
O  39.53600 7.37600 49.83200
O  38.14600 8.73000 48.63700
C  37.11800 8.94300 49.69000
H  39.68500 0.84800 47.51800
H  46.07200 0.69900 46.93400
H  46.20100 6.81500 45.78600
H  38.04000 5.21100 48.27600
H  37.99500 2.58600 47.21300
H  38.12100 3.77100 49.84700
H  39.34500 2.55400 49.85200
H  37.67600 2.02600 49.44000
H  37.73300 6.11100 46.20500
H  36.76000 4.59800 46.35800
H  37.43700 4.04200 44.40000
H  39.13400 4.01100 44.91200
H  40.30300 -1.64200 46.39200
H  40.49100 -1.31400 48.09900
H  41.48900 -2.45900 47.30900
H  46.28000 -1.55800 47.32200
H  45.85200 -1.03100 45.57500
H  46.11800 -2.63700 45.95700
H  47.72900 2.34300 45.99500
H  47.86600 5.19900 46.64200
H  47.41900 2.35600 48.75000
H  48.26900 3.92900 48.61200
H  49.03100 2.54600 48.05000
H  47.06300 5.05900 43.89400
H  47.97200 3.61300 44.18200
H  49.77300 4.68700 43.68600
H  49.66000 5.44900 45.27600
H  49.01500 6.22900 43.76300
H  45.53800 9.15700 46.42000
H  44.23500 10.28200 46.99100
H  44.33200 9.74000 45.32500
H  39.19200 7.92600 46.77300
H  37.53900 8.93000 50.69500
H  36.42400 8.10300 49.66900
H  36.56100 9.86700 49.53400
Mg 52.45000 24.42700 45.67200
C  49.85500 26.59700 44.79700
C  50.78800 21.73000 44.62000
C  55.38900 22.62000 45.99500
C  54.48100 27.31300 46.26500
N  50.57000 24.20400 44.76100
C  49.60100 25.18300 44.51800
C  48.19600 24.54500 44.38100
C  48.52400 23.02000 44.50100
C  50.05700 22.97100 44.61100
C  47.91500 22.34800 45.80800
C  47.43800 24.87100 43.03500
C  48.14200 24.68500 41.70000
H  47.50400 23.73600 40.74300
N  52.95000 22.40500 45.44100
C  52.16000 21.46700 44.97700
C  52.86500 20.15500 45.04900
C  54.11200 20.32000 45.68700
C  54.19400 21.82800 45.77200
C  52.22700 18.85000 44.41600
C  55.05600 19.24300 46.06900
O  54.82600 18.08100 45.78600
C  56.30900 19.55200 46.92100
N  54.63300 24.87800 45.97700
C  55.64000 23.97300 46.05400
C  56.99200 24.55100 46.42500
C  56.72300 26.08600 46.29500
C  55.18100 26.13000 46.25000
C  57.53900 24.01400 47.73600
C  57.33200 26.70100 44.92500
C  57.96000 28.10800 45.18300
N  52.20700 26.55000 45.77500
C  53.07400 27.58100 46.04700
C  52.44300 28.85700 45.99800
C  51.15100 28.49500 45.49100
C  51.09500 27.05800 45.37900
C  53.03500 30.12100 46.34100
C  49.89800 29.09600 45.00300
O  49.45500 30.24600 44.97700
C  48.98800 27.85000 44.44500
C  48.74900 28.03400 43.03100
O  49.40800 27.56300 42.08200
O  47.58300 28.74800 42.88800
C  47.06700 28.95300 41.51800
H  50.20200 20.82500 44.44600
H  56.22800 21.94400 46.17400
H  55.02100 28.25400 46.38800
H  47.47500 24.89000 45.12100
H  48.26700 22.45900 43.60200
H  47.88300 21.26800 45.66300
H  46.92200 22.71100 46.07400
H  48.65800 22.41500 46.60300
H  47.06500 25.89500 43.02000
H  46.57800 24.20200 43.05500
H  49.17100 24.34000 41.80600
H  48.04200 25.65800 41.22000
H  51.37500 19.01000 43.75500
H  51.94700 18.16200 45.21300
H  53.01900 18.40300 43.81500
H  56.69700 18.59200 47.26200
H  55.87600 20.15200 47.72100
H  56.95500 20.07500 46.21500
H  57.71000 24.18600 45.69100
H  57.12700 26.70300 47.09900
H  57.36700 22.95200 47.91300
H  56.99700 24.51500 48.53800
H  58.59600 24.25400 47.84900
H  56.62000 26.85900 44.11500
H  58.09200 26.04500 44.50200
H  59.00400 28.19400 44.87900
H  57.82900 28.47000 46.20300
H  57.58700 28.78900 44.41800
H  52.53800 30.89600 45.75800
H  54.11400 30.18000 46.19600
H  52.96700 30.26400 47.42000
H  48.04000 27.75100 44.97300
H  46.94700 28.02200 40.96500
H  47.80500 29.58100 41.02000
H  46.18400 29.58100 41.63900

