158

Mg 0.92600 7.64700 25.74900
C  1.75200 9.46000 28.50100
C  0.62500 4.84600 27.70300
C  -0.01900 6.00000 22.95500
C  1.45600 10.52700 23.70000
N  1.29200 7.24500 27.78700
C  1.50000 8.13300 28.79300
C  1.54400 7.39900 30.19000
C  1.55400 5.92700 29.74500
C  1.11700 5.99800 28.29700
C  2.82800 5.11400 29.85800
C  0.28600 7.86800 30.95500
C  0.33500 8.02900 32.52100
H  1.52500 7.38900 33.23000
N  0.38500 5.64500 25.39000
C  0.23700 4.64600 26.38800
C  -0.44400 3.50600 25.80800
C  -0.55200 3.84400 24.38300
C  -0.09600 5.18500 24.18300
C  -0.76600 2.26700 26.61500
C  -1.20400 2.94900 23.26300
O  -1.31700 3.28000 22.09800
C  -1.57900 1.51700 23.52900
N  0.93100 8.20200 23.59600
C  0.54600 7.25100 22.64100
C  0.46600 7.94300 21.22200
C  1.07500 9.31400 21.46100
C  1.15100 9.40100 22.97700
C  1.19700 7.11800 20.16700
C  0.22800 10.50100 20.87200
C  -0.94400 11.03300 21.75700
N  1.54000 9.59000 26.00500
C  1.56200 10.65600 25.12500
C  1.83500 11.83300 25.95200
C  1.88300 11.46500 27.25300
C  1.67100 10.06100 27.24300
C  2.09300 13.23000 25.39600
C  2.10300 11.84800 28.58100
O  2.40100 12.93300 28.96700
C  1.92800 10.57600 29.44100
C  3.07900 10.65000 30.41600
O  4.20600 10.33700 30.19200
O  2.58100 11.23700 31.56300
C  3.51500 11.16500 32.63000
H  0.49700 4.04700 28.43600
H  -0.41500 5.61100 22.01500
H  1.65700 11.30000 22.95500
H  2.44800 7.85200 30.59800
H  0.70900 5.54800 30.32000
H  3.32800 4.84100 28.92800
H  2.77400 4.16400 30.39000
H  3.51100 5.66600 30.50400
H  -0.42600 7.04700 30.87100
H  0.10800 8.87000 30.56600
H  -0.61300 7.71400 32.95500
H  0.35700 9.09100 32.76600
H  -1.79500 1.97000 26.41100
H  -0.53800 2.39200 27.67400
H  -0.10900 1.42600 26.39900
H  -2.30600 1.41000 24.33400
H  -0.64800 0.97000 23.68100
H  -2.06700 1.19500 22.61000
H  -0.60000 7.93300 20.99300
H  2.10400 9.32900 21.10000
H  0.62000 6.19600 20.08900
H  2.20400 6.84900 20.48500
H  1.15800 7.69700 19.24400
H  -0.24200 10.25400 19.92000
H  0.99900 11.25500 20.71200
H  -1.87100 10.94000 21.19200
H  -0.62700 12.07200 21.84900
H  -1.13200 10.49400 22.68600
H  1.92400 13.18900 24.32000
H  3.02700 13.67500 25.74000
H  1.25000 13.85600 25.69000
H  0.97500 10.73200 29.94600
H  3.81200 10.14400 32.87300
H  3.08500 11.39800 33.60500
H  4.34100 11.83200 32.38600
Mg 43.26300 4.65200 46.45200
C  41.31900 7.66600 46.10900
C  40.29500 2.94700 46.10200
C  45.05000 1.97400 45.92900
C  46.11300 6.70700 46.54600
N  41.10600 5.30000 46.13400
C  40.55200 6.53400 46.24800
C  39.03800 6.45200 46.38200
C  38.71400 4.91400 46.56700
C  40.11500 4.32500 46.17400
C  38.12300 4.46800 48.02600
C  38.26100 6.97400 45.10900
C  38.69700 6.68300 43.66700
H  39.16300 7.75400 42.81600
N  42.76600 2.71300 46.02500
C  41.49700 2.20900 45.88000
C  41.53900 0.77200 45.64800
C  42.92400 0.40400 45.56800
C  43.67500 1.67400 45.84800
C  40.30700 -0.13700 45.61300
C  43.45400 -0.98200 45.27800
O  42.73300 -1.95600 45.15700
C  44.96000 -1.32200 45.21000
N  45.26600 4.40200 46.27900
C  45.73800 3.13200 46.24600
C  47.28000 3.21000 46.48500
C  47.52100 4.65000 46.93900
C  46.23600 5.31600 46.50600
C  47.88700 2.10800 47.45100
C  48.86600 5.33300 46.60700
C  49.52400 6.08300 47.77700
N  43.72200 6.75400 46.44400
C  44.93500 7.41200 46.45900
C  44.69800 8.79900 46.41400
C  43.30100 8.96600 46.36800
C  42.73600 7.66100 46.19700
C  45.80400 9.84200 46.39200
C  42.34100 9.94700 46.26300
O  42.42600 11.18200 46.28800
C  40.97500 9.14100 46.13700
C  40.14400 9.53200 47.28800
O  40.25900 9.15800 48.44500
O  38.90600 10.04400 46.80100
C  37.75600 9.96600 47.73600
H  39.30400 2.49100 46.15100
H  45.78600 1.17700 46.04900
H  47.02900 7.30000 46.59700
H  38.75600 7.07600 47.22900
H  37.93800 4.65600 45.84600
H  37.10300 4.85000 48.08000
H  38.53400 5.12100 48.79600
H  38.30500 3.42000 48.26200
H  38.22000 8.05200 45.26500
H  37.21300 6.67500 45.11800
H  37.87500 6.19300 43.14600
H  39.54500 6.01200 43.80600
H  40.42800 -0.95500 46.32200
H  40.21700 -0.63300 44.64600
H  39.33700 0.32500 45.80100
H  45.58100 -0.81600 45.95000
H  45.35800 -0.90700 44.28400
H  45.12700 -2.39900 45.16500
H  47.77300 3.08000 45.52200
H  47.48200 4.66000 48.02800
H  48.30200 1.36000 46.77500
H  47.11000 1.56300 47.98700
H  48.54900 2.71900 48.06500
H  48.75100 6.03400 45.78100
H  49.44300 4.49000 46.22600
H  50.35800 5.44800 48.07700
H  48.95800 6.47300 48.62300
H  49.75300 7.10400 47.47400
H  45.29200 10.80300 46.33000
H  46.23600 9.95200 45.39700
H  46.58500 9.72000 47.14200
H  40.53800 9.44500 45.18500
H  37.93700 10.52700 48.65300
H  37.44800 8.92700 47.85600
H  36.86500 10.38100 47.26600

