158

Mg 8.69400 3.68200 27.24100
C  10.12300 1.98900 29.85100
C  6.94400 5.61800 29.42100
C  7.15300 5.08900 24.63200
C  9.77800 1.15700 25.02200
N  8.52100 3.72000 29.45300
C  9.40700 3.05800 30.30500
C  9.22400 3.58500 31.63300
C  8.05600 4.70800 31.57200
C  7.81500 4.72300 30.05500
C  6.79100 4.29500 32.40500
C  10.56100 4.13200 32.21600
C  11.08500 3.63100 33.56500
H  10.97800 4.69300 34.74300
N  7.36900 5.30000 27.01900
C  6.66700 5.96200 28.06600
C  5.82000 6.96300 27.59400
C  5.95100 6.88500 26.16200
C  6.87700 5.74800 25.85600
C  4.97100 7.85500 28.42800
C  5.37400 7.86400 25.02600
O  5.75600 7.76100 23.85800
C  4.42500 8.98000 25.36900
N  8.41700 3.17300 25.17300
C  7.86900 4.02100 24.32400
C  8.02700 3.47600 22.78000
C  9.07900 2.32900 22.94800
C  9.04900 2.19200 24.44700
C  6.71600 3.03600 22.05200
C  10.48700 2.56000 22.38200
C  11.22200 1.36700 21.83800
N  9.70500 1.87300 27.33100
C  10.17700 0.95400 26.36900
C  11.00500 -0.02200 27.00700
C  11.05100 0.40100 28.40600
C  10.19700 1.51500 28.52500
C  11.80100 -1.11200 26.39900
C  11.62500 0.15300 29.65200
O  12.33600 -0.76400 30.07000
C  10.99700 1.09000 30.64300
C  10.37800 0.24200 31.75400
O  9.50700 -0.58200 31.68800
O  11.03300 0.50100 32.89100
C  10.53300 -0.05500 34.16300
H  6.41200 6.35400 30.02700
H  6.62300 5.50100 23.77100
H  10.10500 0.32400 24.39700
H  8.99500 2.71900 32.25400
H  8.28100 5.72900 31.88000
H  6.02100 3.98900 31.69800
H  6.48500 5.14100 33.02100
H  7.05000 3.42000 33.00100
H  10.39700 5.20900 32.22000
H  11.36500 3.95100 31.50200
H  12.16500 3.54600 33.44200
H  10.61000 2.72200 33.93300
H  5.00000 7.67000 29.50200
H  3.93100 7.76300 28.11400
H  5.37100 8.86400 28.33200
H  3.49000 8.59200 25.77300
H  4.13800 9.53400 24.47600
H  4.99200 9.66700 25.99900
H  8.59700 4.22300 22.22600
H  8.74300 1.39800 22.49100
H  5.87000 3.41300 22.62700
H  6.65300 1.94900 21.99500
H  6.69300 3.42700 21.03500
H  11.17600 2.82400 23.18500
H  10.45500 3.31100 21.59300
H  12.23900 1.34900 22.22800
H  11.34900 1.34300 20.75600
H  10.74700 0.42200 22.10400
H  11.40800 -1.46500 25.44600
H  11.90900 -1.96200 27.07300
H  12.81400 -0.71000 26.37000
H  11.75600 1.67100 31.16700
H  9.62400 0.41200 34.54200
H  11.25700 0.15000 34.95200
H  10.37100 -1.13300 34.13700
Mg 9.13200 48.16800 26.26200
C  6.81200 48.35200 28.79200
C  11.63500 48.74400 28.42800
C  11.25400 47.79400 23.64700
C  6.58400 47.83400 23.90600
N  9.21000 48.38700 28.33800
C  8.17900 48.40400 29.24900
C  8.63800 48.68200 30.72100
C  10.13300 49.06000 30.45500
C  10.34300 48.65300 29.01600
C  10.58800 50.52800 30.70200
C  8.35100 47.48600 31.67800
C  9.22800 47.53900 33.00600
H  8.49700 47.33800 34.38000
N  11.17700 48.39100 25.99100
C  12.03700 48.62300 27.04500
C  13.36500 48.55400 26.55600
C  13.30900 48.26900 25.21700
C  11.87900 48.19200 24.86300
C  14.52900 48.77100 27.51800
C  14.40500 48.19400 24.20000
O  14.12800 47.98500 23.00400
C  15.87600 48.27600 24.59400
N  8.95800 48.28400 23.98100
C  9.95700 47.95600 23.23200
C  9.63700 47.53300 21.85100
C  8.05800 47.42900 21.91000
C  7.78300 47.86400 23.32400
C  10.15500 48.49500 20.74500
C  7.43100 46.12000 21.49000
C  6.26600 46.12100 20.42400
N  7.13000 48.22300 26.27900
C  6.24100 48.08900 25.25000
C  4.86900 48.22200 25.86800
C  5.09600 48.24800 27.26500
C  6.45300 48.30100 27.43800
C  3.44100 48.12500 25.20000
C  4.37200 48.33000 28.48100
O  3.20900 48.17500 28.74400
C  5.51400 48.40300 29.58400
C  5.22900 47.25700 30.50300
O  5.48700 46.10700 30.23100
O  4.71600 47.66600 31.68900
C  4.64500 46.65000 32.74400
H  12.32800 48.89600 29.25900
H  11.96300 47.32000 22.96500
H  5.76700 47.66000 23.20200
H  8.05200 49.48700 31.16500
H  10.83500 48.39500 30.95800
H  11.55400 50.41900 31.19500
H  9.96200 51.03000 31.43900
H  10.72000 51.07400 29.76700
H  8.35200 46.50600 31.20000
H  7.30500 47.58900 31.96500
H  9.68800 48.52700 33.00500
H  9.97300 46.76200 32.83400
H  14.22600 48.71900 28.56400
H  14.80200 49.75900 27.14700
H  15.37100 48.09300 27.37400
H  16.02500 47.49500 25.34100
H  16.19000 49.29500 24.81700
H  16.38700 47.84600 23.73300
H  9.99200 46.51200 21.71600
H  7.59900 48.26300 21.37900
H  10.50600 49.43300 21.17400
H  9.37300 48.68000 20.00800
H  10.92600 48.04200 20.12200
H  6.98700 45.69800 22.39100
H  8.20100 45.50000 21.03100
H  6.18600 47.14300 20.05500
H  5.31400 45.76700 20.82000
H  6.57800 45.42500 19.64600
H  2.80900 48.88000 25.66700
H  2.99100 47.15600 25.41600
H  3.60100 48.16800 24.12300
H  5.40900 49.31400 30.17300
H  3.76800 46.99000 33.29500
H  5.63400 46.46400 33.16000
H  4.38900 45.68500 32.30500

