158

Mg 53.76800 24.18000 43.99900
C  51.05700 26.20300 43.08200
C  52.39100 21.64700 42.13700
C  56.77100 22.54100 44.14000
C  55.19900 26.96900 45.59900
N  52.10500 24.07300 42.44400
C  51.11800 25.05700 42.33500
C  49.93800 24.49100 41.42400
C  50.24900 22.91800 41.37500
C  51.66400 22.85700 42.04700
C  49.21900 22.00600 41.99700
C  49.75700 25.07700 39.94400
C  51.09800 25.46000 39.38000
H  51.16200 25.99600 37.94600
N  54.38800 22.27400 43.41000
C  53.61100 21.34400 42.76400
C  54.26400 20.06900 42.86400
C  55.59100 20.33600 43.45300
C  55.61800 21.78600 43.66000
C  53.62000 18.77300 42.29400
C  56.64000 19.28400 43.65500
O  56.33600 18.08800 43.49100
C  58.08600 19.60000 44.23900
N  55.78200 24.81900 44.44900
C  56.82000 23.94300 44.51800
C  58.07200 24.64800 45.16900
C  57.46700 25.92700 45.80900
C  56.05700 25.89300 45.31100
C  58.98600 23.84500 46.17900
C  58.20200 27.27400 45.46400
C  58.29100 28.31000 46.59400
N  53.18700 26.14700 44.37500
C  53.82700 27.08900 45.19100
C  52.89800 28.21400 45.40000
C  51.83200 27.89600 44.55000
C  52.06600 26.66600 43.96400
C  53.19800 29.52000 46.16800
C  50.60600 28.43400 44.03100
O  50.10800 29.52700 44.35300
C  49.98200 27.30500 43.30500
C  49.54500 27.87600 42.05800
O  50.27800 28.39100 41.20200
O  48.15700 27.83900 41.95600
C  47.66000 28.49900 40.73200
H  51.92100 20.77700 41.67300
H  57.68900 21.97100 44.29300
H  55.59800 27.66700 46.33700
H  48.96000 24.65000 41.87700
H  50.26700 22.68600 40.31000
H  48.42600 22.64300 42.39000
H  49.65000 21.53900 42.88300
H  48.91900 21.21100 41.31500
H  49.05600 25.90800 39.88200
H  49.30700 24.30600 39.31700
H  51.63800 24.51300 39.39200
H  51.60900 26.15200 40.04900
H  54.23700 18.57200 41.41800
H  52.55100 18.88000 42.10900
H  53.84600 18.05100 43.07900
H  57.91900 20.13300 45.17500
H  58.63700 20.13900 43.46900
H  58.55600 18.63800 44.43800
H  58.60200 25.10800 44.33500
H  57.39200 25.82100 46.89100
H  59.92400 23.70000 45.64300
H  58.38100 22.99700 46.50100
H  59.08100 24.33000 47.15000
H  57.64700 27.84600 44.72000
H  59.20400 27.09300 45.07500
H  59.30600 28.66900 46.76100
H  58.02400 27.99400 47.60300
H  57.64900 29.16800 46.39500
H  52.31900 29.64800 46.79900
H  53.45000 30.28300 45.43200
H  54.13400 29.33800 46.69600
H  49.14800 26.87900 43.86400
H  47.79500 29.57400 40.85400
H  46.57500 28.42200 40.65400
H  48.19700 28.13700 39.85600
Mg 9.59300 48.60200 26.43800
C  7.58900 48.61600 29.26200
C  12.18000 49.78800 28.25600
C  11.32700 48.68200 23.60700
C  6.58000 48.15900 24.37900
N  9.77600 49.27200 28.52500
C  8.88300 49.10400 29.51100
C  9.57500 49.40700 30.91600
C  10.83100 50.27200 30.48300
C  10.99000 49.74300 29.01100
C  10.62600 51.81200 30.51500
C  9.96200 48.08200 31.60800
C  9.44800 47.85700 33.01300
H  9.80500 46.62200 33.71700
N  11.53800 48.96500 26.02300
C  12.50400 49.37900 26.94800
C  13.78300 49.38700 26.30800
C  13.60200 48.97800 24.94300
C  12.11500 48.87900 24.81400
C  15.11500 49.63000 27.07100
C  14.64400 48.82300 23.88200
O  14.28400 48.71300 22.74200
C  16.08400 48.91900 24.16600
N  8.99300 48.64300 24.28200
C  9.93700 48.61000 23.34900
C  9.31200 48.29500 21.91800
C  7.86100 47.89700 22.19900
C  7.79600 48.21100 23.71900
C  9.55200 49.49900 20.94200
C  7.59900 46.40900 21.95800
C  7.56100 46.10100 20.43600
N  7.44900 48.53900 26.68800
C  6.42800 48.20100 25.80500
C  5.26600 47.90400 26.58900
C  5.66200 48.04500 27.90300
C  7.02000 48.43000 27.95300
C  3.86400 47.59500 26.09600
C  5.18300 47.99000 29.28800
O  4.06200 47.78800 29.74600
C  6.45900 48.27400 30.22100
C  6.65000 47.03200 30.95800
O  7.31100 46.09600 30.57500
O  5.81500 46.94500 32.05300
C  5.77200 45.75800 32.89100
H  12.90800 50.37500 28.81900
H  11.94300 48.52700 22.71900
H  5.78300 47.85700 23.69600
H  8.86000 49.96700 31.51900
H  11.72800 49.98600 31.03300
H  11.52100 52.33500 30.85000
H  9.80700 52.06200 31.18900
H  10.42800 52.32200 29.57200
H  11.03800 47.92400 31.68400
H  9.63400 47.27100 30.95900
H  8.37700 47.72900 32.86000
H  9.42000 48.77900 33.59400
H  14.86900 49.70300 28.13000
H  15.55300 50.60600 26.86000
H  15.80900 48.81000 26.89000
H  16.65400 48.97000 23.23800
H  16.23200 47.96800 24.67700
H  16.36400 49.77600 24.77800
H  9.83200 47.44400 21.47900
H  7.05300 48.43800 21.70700
H  10.20500 49.16900 20.13400
H  9.99100 50.35700 21.45200
H  8.60500 49.85200 20.53300
H  6.65000 46.11700 22.40700
H  8.43500 45.84100 22.36700
H  7.34700 47.00400 19.86500
H  6.81200 45.31300 20.35200
H  8.45900 45.56900 20.12100
H  3.13200 48.09300 26.73100
H  3.52900 46.55900 26.05300
H  3.75100 47.96100 25.07500
H  6.16400 49.11700 30.84400
H  6.17500 45.94700 33.88600
H  6.35000 44.89500 32.56300
H  4.70800 45.52200 32.91700

