158

Mg 24.56000 -4.64900 45.73800
C  26.81900 -2.56600 44.32200
C  22.10100 -3.66900 43.62700
C  22.74800 -7.45700 46.55300
C  27.24900 -6.08900 47.74700
N  24.56600 -3.44000 43.96800
C  25.55000 -2.54300 43.70100
C  25.08600 -1.57500 42.61400
C  23.51800 -1.79300 42.52200
C  23.37900 -3.05900 43.43300
C  22.59900 -0.57400 42.81600
C  25.77300 -1.73400 41.18900
C  25.67600 -0.43700 40.33700
H  25.08700 -0.55300 38.89100
N  22.64000 -5.40300 45.24200
C  21.76200 -4.83800 44.39400
C  20.55700 -5.65000 44.29200
C  20.74300 -6.71100 45.20400
C  22.06000 -6.56300 45.70100
C  19.32100 -5.28300 43.41300
C  19.75200 -7.83500 45.55900
O  18.64900 -7.74200 45.01400
C  19.92500 -9.03900 46.44100
N  24.95700 -6.51600 46.89400
C  24.05500 -7.50700 46.99300
C  24.71800 -8.79300 47.41100
C  26.04700 -8.28900 48.11200
C  26.08800 -6.87600 47.58600
C  23.86000 -9.64900 48.34400
C  27.29200 -9.20100 47.96200
C  28.18600 -9.41100 49.19400
N  26.63700 -4.31000 46.15500
C  27.56300 -4.93800 46.96800
C  28.88100 -4.15100 46.90500
C  28.59700 -3.15800 45.85300
C  27.25000 -3.39800 45.36000
C  30.08100 -4.44600 47.80700
C  29.04100 -1.99800 45.08900
O  30.03600 -1.34000 45.18700
C  27.98900 -1.63900 44.06000
C  27.62500 -0.18800 44.25900
O  27.28000 0.26100 45.31700
O  27.64400 0.44200 43.08000
C  27.45500 1.88600 43.16500
H  21.27700 -3.09100 43.20400
H  22.27800 -8.43500 46.67200
H  28.04300 -6.50800 48.36800
H  25.16700 -0.59400 43.08100
H  23.16500 -2.00500 41.51300
H  21.74700 -0.73900 42.15700
H  23.13000 0.26400 42.36200
H  22.39800 -0.46100 43.88100
H  25.17100 -2.51500 40.72400
H  26.79300 -2.12000 41.21200
H  26.69000 -0.11800 40.09800
H  25.26300 0.38500 40.92300
H  18.34200 -5.31000 43.89300
H  19.15800 -5.92400 42.54600
H  19.30400 -4.24200 43.09200
H  19.96900 -8.76900 47.49600
H  20.73200 -9.66800 46.06300
H  19.01100 -9.63000 46.49900
H  24.94500 -9.47600 46.59200
H  25.81700 -8.16400 49.17000
H  24.35200 -9.86600 49.29300
H  23.58400 -10.55300 47.80200
H  22.99900 -9.04400 48.63000
H  27.84300 -8.81600 47.10400
H  26.96100 -10.19700 47.66600
H  29.17400 -9.35400 48.73700
H  27.98200 -10.37500 49.65900
H  28.12600 -8.65200 49.97500
H  30.74100 -5.06700 47.20100
H  29.90400 -4.94400 48.76000
H  30.65600 -3.52400 47.89700
H  28.41200 -1.73300 43.06000
H  27.87900 2.21900 44.11200
H  26.37700 1.99600 43.04700
H  27.80900 2.42400 42.28600
Mg 25.59900 1.64200 29.02200
C  27.74100 1.24000 31.89200
C  22.98500 2.08200 31.10300
C  23.64400 1.69000 26.31700
C  28.33100 0.65400 27.05500
N  25.39900 1.39900 31.22800
C  26.37700 1.54700 32.25300
C  25.78700 1.74200 33.61700
C  24.21100 1.80000 33.35000
C  24.15400 1.81100 31.82300
C  23.32900 0.60300 33.91100
C  26.28200 3.03900 34.25200
C  26.79100 2.87700 35.67100
H  26.31800 3.83500 36.75900
N  23.54200 1.78900 28.76700
C  22.64400 1.99800 29.76500
C  21.34900 2.26200 29.19000
C  21.49900 2.15500 27.70600
C  22.92500 1.84200 27.58100
C  20.18400 2.70700 30.13900
C  20.42200 2.27300 26.62100
O  20.66300 2.15200 25.43800
C  19.03600 2.60000 27.06700
N  25.88400 1.11800 27.02100
C  24.99900 1.34400 26.06100
C  25.64900 1.37300 24.64300
C  27.04400 0.84900 24.99400
C  27.12000 0.84800 26.44100
C  24.66800 0.72400 23.58900
C  28.11000 1.79400 24.30000
C  28.63100 3.05200 25.01400
N  27.68900 1.20100 29.33800
C  28.61300 0.77100 28.40600
C  29.89500 0.60800 29.06200
C  29.61100 0.75900 30.45200
C  28.26800 1.06800 30.56800
C  31.21700 0.43400 28.53900
C  30.09800 0.65300 31.80000
O  31.12800 0.32000 32.30300
C  28.91800 1.03200 32.79400
C  28.77200 -0.10300 33.82400
O  28.13500 -1.12100 33.72300
O  29.47700 0.27500 34.95900
C  29.42400 -0.77700 36.03100
H  22.16700 2.36300 31.76900
H  23.02200 1.95600 25.45900
H  29.16300 0.22900 26.48900
H  25.92100 0.86700 34.25400
H  23.75500 2.65600 33.84800
H  23.89100 -0.11400 34.51000
H  22.85200 0.01900 33.12400
H  22.66800 0.99400 34.68600
H  25.51500 3.81100 34.19600
H  27.18200 3.36300 33.72900
H  27.86900 3.04000 35.69500
H  26.62900 1.84500 35.98000
H  19.37700 3.28300 29.68700
H  20.42800 3.40500 30.94000
H  19.77300 1.89400 30.73700
H  18.84500 1.89400 27.87500
H  18.31300 2.60800 26.25100
H  19.13200 3.65500 27.32200
H  25.59100 2.44200 24.43700
H  27.16600 -0.17100 24.63000
H  24.26300 1.44200 22.87600
H  23.87700 0.24200 24.16300
H  25.21200 -0.03000 23.02000
H  27.61300 2.23700 23.43700
H  28.89700 1.08500 24.04100
H  29.67700 2.96800 25.31100
H  28.03400 3.24800 25.90400
H  28.44300 3.92000 24.38200
H  31.31700 0.55100 27.45900
H  31.61500 -0.50800 28.91600
H  31.82600 1.23300 28.96100
H  29.26900 1.94600 33.27200
H  30.44300 -0.85300 36.41200
H  28.95700 -1.73700 35.80800
H  28.96800 -0.31600 36.90600

