158

Mg 40.47600 9.26300 28.55700
C  42.29000 10.81200 31.35700
C  38.47600 7.77400 30.93900
C  38.82000 8.19500 26.08200
C  42.96600 10.67300 26.48700
N  40.37300 9.29900 30.85800
C  41.15900 10.05400 31.76700
C  40.64900 9.82000 33.22300
C  39.44900 8.88900 32.97900
C  39.44800 8.52900 31.49500
C  39.40900 7.50000 33.76500
C  40.37300 11.10300 34.04400
C  39.25700 11.10000 35.16100
H  39.65700 11.83600 36.47500
N  38.96800 8.03300 28.48400
C  38.18000 7.52000 29.58500
C  37.08000 6.70600 28.96700
C  37.14700 6.88800 27.56200
C  38.35500 7.62400 27.30800
C  36.08700 5.88700 29.81100
C  36.20800 6.30300 26.51600
O  36.56400 6.28800 25.36100
C  34.83600 5.59300 26.86600
N  40.91600 9.32900 26.59200
C  39.90600 8.99600 25.76100
C  40.29300 9.27800 24.27500
C  41.64400 9.96700 24.37400
C  41.88200 9.95100 25.89200
C  40.22900 8.09000 23.29100
C  41.79600 11.21400 23.51700
C  41.33800 12.61900 24.12000
N  42.25500 10.49200 28.80100
C  43.15000 10.91000 27.84800
C  44.30800 11.53000 28.41600
C  44.01200 11.47600 29.80100
C  42.70500 10.87300 29.98800
C  45.57100 11.94800 27.69900
C  44.55800 11.80300 31.09700
O  45.54200 12.51400 31.33600
C  43.47700 11.40900 32.16900
C  44.04000 10.46700 33.21900
O  44.55400 9.42300 32.86500
O  43.73600 10.90700 34.50800
C  43.86200 9.96000 35.61800
H  37.70100 7.42000 31.62300
H  38.30500 7.81800 25.19500
H  43.68900 10.86900 25.69200
H  41.40500 9.25900 33.77100
H  38.54900 9.50100 33.04800
H  38.35800 7.36700 34.02400
H  40.04000 7.64600 34.64100
H  39.74900 6.68800 33.12200
H  40.36100 11.88800 33.28800
H  41.32300 11.43000 34.46900
H  38.84200 10.15700 35.51600
H  38.37100 11.64400 34.83300
H  35.08500 6.14700 29.47000
H  36.16500 6.06000 30.88400
H  36.22900 4.81600 29.66600
H  35.09400 4.71400 27.45600
H  34.38800 5.17300 25.96500
H  34.25700 6.35400 27.39000
H  39.58100 10.05300 23.99000
H  42.39000 9.24000 24.05100
H  39.95300 7.13300 23.73300
H  41.19700 7.95400 22.80900
H  39.50000 8.34000 22.52000
H  41.27500 11.01000 22.58200
H  42.85000 11.27100 23.24300
H  41.18100 12.57400 25.19800
H  40.41100 12.82600 23.58500
H  42.02400 13.44600 23.93200
H  45.25900 12.84500 27.16400
H  45.86200 11.15800 27.00600
H  46.40200 12.15000 28.37500
H  43.20500 12.23300 32.82800
H  44.47000 9.08100 35.40100
H  42.84300 9.69700 35.90100
H  44.33600 10.37600 36.50800
Mg 30.16400 58.20900 39.99200
C  27.41000 56.30300 38.74700
C  32.21800 55.54300 39.04700
C  32.76500 60.17500 40.34900
C  28.03100 61.00000 40.18400
N  29.77700 56.20300 39.06400
C  28.56000 55.53700 38.76900
C  28.68000 54.01000 38.48800
C  30.21000 53.83200 38.75800
C  30.79500 55.26800 38.90400
C  30.48700 52.87200 39.94600
C  28.09600 53.57100 37.10700
C  28.87500 54.05600 35.83600
H  28.14800 54.67300 34.56900
N  32.29200 57.88400 39.79300
C  32.87100 56.72400 39.37000
C  34.25600 56.96100 39.42700
C  34.50500 58.35000 39.69700
C  33.17600 58.89300 40.05600
C  35.32500 55.87900 39.18400
C  35.89900 59.07200 39.69600
O  36.97900 58.48500 39.46700
C  35.96700 60.55100 40.18400
N  30.40200 60.28000 40.15200
C  31.57900 60.84200 40.44400
C  31.50300 62.31300 40.60000
C  29.98600 62.58500 40.71000
C  29.39800 61.23700 40.33800
C  32.27600 62.88200 41.84700
C  29.34800 63.81600 39.92700
C  28.19300 64.50500 40.72600
N  28.14300 58.59100 39.59300
C  27.42400 59.84800 39.77300
C  26.02400 59.58800 39.39400
C  25.99600 58.24300 39.03000
C  27.30600 57.68300 39.13400
C  24.85200 60.47700 39.45500
C  25.08100 57.19600 38.63500
O  23.88700 57.17600 38.47800
C  25.95300 55.89800 38.51600
C  25.44200 55.02400 39.65900
O  25.25200 55.35200 40.80400
O  25.18900 53.72100 39.16200
C  24.65300 52.75800 40.17800
H  32.94100 54.73800 38.89500
H  33.54700 60.92000 40.51100
H  27.33000 61.83600 40.14400
H  28.00600 53.65200 39.26600
H  30.68100 53.58600 37.80600
H  30.75200 53.54400 40.76200
H  31.26700 52.11800 39.83600
H  29.51200 52.51600 40.27600
H  27.03600 53.79000 36.97700
H  28.04000 52.48400 37.04300
H  29.40300 53.18300 35.45200
H  29.60200 54.75800 36.24400
H  36.27000 56.20500 38.74900
H  34.98800 55.05700 38.55300
H  35.59600 55.52800 40.18000
H  35.52500 60.62900 41.17700
H  35.37000 61.12800 39.47600
H  36.97100 60.96000 40.07200
H  31.95100 62.69500 39.68300
H  29.95600 62.66000 41.79700
H  33.24400 63.20300 41.46200
H  32.39700 62.19600 42.68500
H  31.77800 63.72600 42.32400
H  28.83900 63.31600 39.10300
H  30.06700 64.59200 39.66500
H  27.34800 64.70900 40.06900
H  28.52000 65.41200 41.23600
H  27.83300 63.87700 41.54100
H  24.79600 61.00500 38.50400
H  24.91000 61.28900 40.18100
H  24.02500 59.79700 39.66000
H  25.67200 55.47300 37.55300
H  24.11300 51.99300 39.62000
H  23.87600 53.17300 40.82100
H  25.36800 52.24200 40.81800

