158

Mg 8.94500 3.73200 27.07100
C  10.25700 2.16500 29.92700
C  7.00500 5.74300 29.07900
C  7.67200 5.29600 24.30600
C  10.43000 1.40500 25.09400
N  8.55700 3.80500 29.24900
C  9.34300 3.20700 30.24400
C  9.04600 3.74700 31.66300
C  8.11100 4.86600 31.35500
C  7.98000 4.92100 29.78700
C  6.68800 4.87000 32.09800
C  10.31500 4.22500 32.45400
C  9.96800 4.72900 33.85300
H  11.05100 4.47400 34.91600
N  7.46700 5.18500 26.73300
C  6.86200 5.92300 27.68600
C  5.96700 6.94900 27.07900
C  6.24800 6.93100 25.74200
C  7.16100 5.80400 25.48900
C  5.13800 7.94500 27.82200
C  5.81900 7.85600 24.61800
O  6.27000 7.74400 23.46500
C  4.90100 9.08200 24.92100
N  8.97400 3.36900 24.91000
C  8.46400 4.16600 24.01700
C  8.86400 3.74200 22.53900
C  9.61400 2.35300 22.86300
C  9.68200 2.37700 24.37700
C  7.87700 3.65100 21.34400
C  10.95500 2.14100 22.11900
C  10.84300 1.38000 20.76100
N  10.12400 2.15800 27.36100
C  10.67300 1.27500 26.47300
C  11.49200 0.30700 27.15300
C  11.45900 0.69000 28.50300
C  10.53200 1.75800 28.61500
C  12.10700 -0.86000 26.50300
C  11.92400 0.37000 29.86100
O  12.71100 -0.49300 30.24000
C  11.19500 1.30700 30.84300
C  10.50400 0.57100 31.85700
O  9.51700 -0.15000 31.74300
O  11.15900 0.84300 33.05700
C  10.53000 0.22100 34.25000
H  6.43800 6.41000 29.73300
H  7.46300 5.85800 23.39300
H  10.70000 0.54100 24.48400
H  8.58600 3.00600 32.31700
H  8.55900 5.81500 31.65300
H  5.95800 4.50500 31.37600
H  6.54600 5.89100 32.45100
H  6.52300 4.17400 32.92100
H  10.78300 5.00800 31.85700
H  11.09500 3.47000 32.36100
H  9.03000 4.26600 34.16100
H  9.75700 5.78300 33.67300
H  5.69500 8.88200 27.79600
H  4.96900 7.85000 28.89500
H  4.26400 8.14000 27.20100
H  5.28300 9.82300 25.62400
H  3.89400 8.80100 25.22700
H  4.87900 9.63200 23.98100
H  9.60200 4.47700 22.21700
H  8.90100 1.54500 22.70000
H  7.88800 2.61100 21.01600
H  8.17800 4.38300 20.59400
H  6.85700 3.92300 21.61500
H  11.67900 1.71300 22.81300
H  11.32800 3.15000 21.94300
H  11.59800 0.62900 20.52900
H  10.91300 2.18200 20.02600
H  9.82500 1.00200 20.67300
H  12.39500 -0.72300 25.46100
H  11.39200 -1.67800 26.41100
H  12.96700 -1.20600 27.07600
H  11.96300 1.95300 31.26800
H  9.49000 0.53100 34.35000
H  10.89700 0.75400 35.12700
H  10.66600 -0.84600 34.42300
Mg 9.58200 47.19100 25.33600
C  7.48700 47.57900 28.24800
C  12.03500 48.57500 27.15000
C  11.27900 47.08700 22.45900
C  6.55800 46.60000 23.53100
N  9.70700 47.86600 27.41500
C  8.76900 48.03400 28.40400
C  9.41200 48.65800 29.67300
C  10.77700 49.27600 29.13900
C  10.81200 48.50200 27.81200
C  10.76600 50.86700 29.04400
C  9.66000 47.54800 30.75600
C  9.05200 47.70400 32.17300
H  9.16800 46.51800 33.13100
N  11.42900 47.54400 24.86200
C  12.32600 48.10200 25.84100
C  13.61200 47.90600 25.28200
C  13.47600 47.55700 23.86600
C  12.02200 47.41000 23.62300
C  14.88500 48.29300 26.11300
C  14.54400 47.43600 22.85700
O  14.31800 47.18900 21.68900
C  15.99500 47.50900 23.31200
N  9.01400 46.91100 23.30000
C  9.92900 46.85400 22.26500
C  9.29400 46.57300 20.94400
C  7.79300 46.29200 21.34700
C  7.77600 46.56200 22.80100
C  9.40400 47.57000 19.78200
C  7.26800 44.91500 20.96100
C  7.66600 43.76300 21.87400
N  7.39500 47.17200 25.71900
C  6.35900 46.88800 24.91500
C  5.08900 46.83700 25.72200
C  5.51400 47.01900 27.05900
C  6.93700 47.34700 26.98700
C  3.80000 46.51600 25.19400
C  5.12700 47.12500 28.48000
O  4.05700 46.92700 29.04200
C  6.44500 47.46100 29.31900
C  6.73700 46.19200 30.14600
O  7.47900 45.26800 29.90600
O  5.96500 46.31200 31.24500
C  5.95400 45.12900 32.14600
H  12.83500 49.13200 27.64200
H  11.88000 47.05700 21.54700
H  5.62800 46.39300 22.99600
H  8.73100 49.44300 30.00000
H  11.63100 49.03300 29.77100
H  11.69200 51.25700 29.46800
H  9.82000 51.15900 29.50000
H  10.63400 51.26800 28.03900
H  10.73700 47.42700 30.86800
H  9.46000 46.61200 30.23300
H  8.00100 47.94500 32.01300
H  9.45500 48.59800 32.64800
H  14.70000 48.30000 27.18800
H  15.44800 49.16400 25.78000
H  15.60500 47.47600 26.06800
H  16.12000 48.50000 23.74800
H  16.74300 47.38300 22.53000
H  16.08600 46.71700 24.05500
H  9.76300 45.65700 20.58600
H  7.17500 47.03200 20.83800
H  9.88100 48.49500 20.10700
H  8.45200 47.89400 19.36200
H  10.03700 47.01000 19.09400
H  7.62700 44.70000 19.95400
H  6.18400 45.02800 20.94000
H  8.34400 43.10100 21.33500
H  6.72900 43.22300 22.00900
H  8.15000 44.10300 22.78900
H  3.37700 47.44200 24.80400
H  3.19700 46.19600 26.04400
H  3.87300 45.77800 24.39600
H  6.31600 48.27300 30.03400
H  6.82100 45.20400 32.80300
H  5.83000 44.18100 31.62400
H  5.00900 45.11400 32.68900

