158

Mg -2.47900 34.49100 26.74200
C  -3.81700 32.88700 29.50600
C  -1.02700 36.83600 28.81200
C  -1.55800 36.30700 24.04600
C  -3.92800 32.18900 24.67800
N  -2.53200 34.86000 28.95300
C  -2.94400 33.93100 29.82800
C  -2.43600 34.29300 31.25700
C  -1.61800 35.68600 31.03700
C  -1.77500 35.85200 29.48400
C  -2.01100 36.96600 31.84300
C  -1.61000 33.18500 32.09000
C  -2.25600 32.56700 33.31000
H  -1.36400 32.28700 34.47000
N  -1.45500 36.32000 26.51000
C  -0.84000 37.07500 27.44300
C  -0.17700 38.16400 26.80600
C  -0.29500 37.98400 25.36800
C  -1.16600 36.84300 25.31100
C  0.69200 39.12300 27.55100
C  0.26700 38.84600 24.21100
O  0.10400 38.65100 23.01100
C  1.13600 40.10900 24.49900
N  -2.82200 34.35300 24.63700
C  -2.32300 35.19900 23.71500
C  -2.35800 34.63400 22.26900
C  -2.99800 33.22800 22.50700
C  -3.23200 33.22100 24.03100
C  -3.08800 35.31500 21.12600
C  -2.19200 32.02800 21.91900
C  -0.77400 31.79200 22.52200
N  -3.67300 32.85200 26.96400
C  -4.19200 31.97600 26.03400
C  -4.84700 30.90700 26.69000
C  -4.78300 31.19600 28.09200
C  -4.08600 32.43000 28.17300
C  -5.50300 29.72600 26.12700
C  -5.10000 30.83000 29.46900
O  -5.77800 29.85700 29.83900
C  -4.50300 31.92100 30.44400
C  -5.66800 32.55400 31.21900
O  -6.53700 33.35200 30.83500
O  -5.53500 32.16000 32.50600
C  -6.52800 32.75400 33.44100
H  -0.36700 37.42700 29.45000
H  -0.99200 36.72400 23.21100
H  -4.22400 31.38800 23.99800
H  -3.35100 34.70900 31.67700
H  -0.61700 35.46900 31.41000
H  -2.84300 36.79100 32.52600
H  -2.26400 37.75000 31.12900
H  -1.10500 37.34200 32.31800
H  -0.64000 33.60800 32.35000
H  -1.37700 32.38100 31.39200
H  -2.74700 31.61400 33.11400
H  -3.07900 33.15800 33.71100
H  0.83200 40.09700 27.08300
H  1.66700 38.70700 27.80400
H  0.18200 39.34100 28.48900
H  0.70600 40.76300 25.25700
H  1.11700 40.77600 23.63700
H  2.08400 39.67100 24.81200
H  -1.33500 34.41000 21.96600
H  -4.02000 33.16100 22.13400
H  -3.64100 36.12900 21.59600
H  -3.79600 34.60900 20.69300
H  -2.40800 35.69500 20.36300
H  -1.98500 32.17800 20.85900
H  -2.76500 31.11600 22.08800
H  -0.33500 32.69000 22.95900
H  -0.07700 31.50300 21.73500
H  -0.83700 30.95700 23.22000
H  -4.93500 29.21300 25.35000
H  -6.39200 30.08000 25.60500
H  -5.69600 29.02200 26.93600
H  -3.90500 31.36900 31.16800
H  -6.35500 33.77600 33.77700
H  -6.68900 32.07500 34.27800
H  -7.50600 32.85700 32.97000
Mg -9.56700 18.34700 42.11600
C  -6.20800 17.58900 42.27600
C  -8.73100 21.67100 41.45300
C  -12.80600 18.86100 41.21000
C  -10.16400 14.79500 42.39400
N  -7.72700 19.48000 41.74500
C  -6.49500 18.97000 42.01900
C  -5.44500 19.99100 41.73200
C  -6.20300 21.35500 41.81700
C  -7.70600 20.79300 41.77100
C  -6.00300 22.34900 42.96800
C  -4.60900 19.89500 40.30100
C  -5.34000 19.28200 39.18300
H  -5.07400 19.78700 37.69000
N  -10.68200 20.03700 41.49100
C  -10.12400 21.29800 41.29600
C  -11.21300 22.21700 40.94400
C  -12.46400 21.50200 40.85800
C  -12.03000 20.07900 41.19800
C  -10.98500 23.71200 40.80500
C  -13.80700 22.08000 40.51200
O  -13.90300 23.28900 40.42400
C  -15.00000 21.22300 40.29100
N  -11.14500 17.00400 41.66500
C  -12.41000 17.48600 41.50200
C  -13.48000 16.37800 41.44500
C  -12.56000 15.08400 41.63800
C  -11.16400 15.62900 41.93900
C  -14.59100 16.47600 42.50500
C  -12.65200 14.09100 40.43800
C  -12.57900 12.57900 40.72100
N  -8.47600 16.45000 42.49600
C  -8.77000 15.13500 42.56900
C  -7.53700 14.32200 42.90600
C  -6.57200 15.35800 42.74000
C  -7.15400 16.59700 42.52800
C  -7.39500 12.91400 43.12600
C  -5.13800 15.43000 42.75100
O  -4.26400 14.58500 42.86700
C  -4.83800 16.90100 42.47000
C  -3.99900 17.35400 43.62100
O  -2.95400 17.99400 43.53000
O  -4.51200 16.94700 44.82600
C  -3.76200 17.26800 46.04100
H  -8.43300 22.70300 41.25200
H  -13.83800 19.06800 40.91800
H  -10.34000 13.73400 42.58500
H  -4.76300 19.91100 42.57800
H  -6.13300 21.84200 40.84400
H  -6.87400 22.79100 43.45100
H  -5.41700 23.19800 42.61500
H  -5.55500 21.80000 43.79600
H  -3.72000 19.31600 40.54700
H  -4.27300 20.87200 39.95200
H  -6.37400 19.43500 39.49000
H  -5.03400 18.23600 39.16000
H  -11.51800 24.05600 39.91800
H  -9.94000 24.00900 40.72300
H  -11.35400 24.25700 41.67300
H  -15.28300 20.67400 41.18900
H  -14.84700 20.49600 39.49300
H  -15.86700 21.84100 40.05300
H  -14.04600 16.33100 40.51500
H  -12.77100 14.50100 42.53400
H  -14.72900 17.55600 42.55300
H  -14.18900 16.08800 43.44200
H  -15.55200 16.10500 42.14900
H  -11.74900 14.37600 39.89700
H  -13.52300 14.26100 39.80500
H  -13.27600 12.11300 40.02500
H  -12.91900 12.36100 41.73400
H  -11.62600 12.05400 40.64800
H  -6.56500 12.56900 42.50900
H  -8.32800 12.38700 42.92500
H  -7.11500 12.71200 44.15900
H  -4.33200 16.84700 41.50600
H  -3.66200 16.35400 46.62600
H  -4.35100 18.02900 46.55300
H  -2.77600 17.68700 45.84100

