158

Mg 30.87000 58.07400 39.74500
C  27.96500 55.98800 38.96700
C  32.84500 55.40400 39.03100
C  33.44100 60.31200 39.75400
C  28.58000 60.77300 40.22600
N  30.45800 55.92900 39.04900
C  29.21700 55.30900 38.88700
C  29.43100 53.81600 38.44700
C  30.87600 53.58700 38.85300
C  31.49100 55.06400 38.88800
C  31.22500 52.87600 40.19100
C  29.18700 53.71200 36.94500
C  28.16400 52.79500 36.40100
H  27.26000 53.35700 35.33000
N  32.79700 57.87400 39.37300
C  33.46300 56.67800 39.20600
C  34.92000 56.96700 39.08600
C  35.10400 58.37700 39.16600
C  33.76600 58.91700 39.42400
C  35.93300 55.94200 38.96500
C  36.43900 59.19600 39.14000
O  37.52500 58.55400 39.26300
C  36.47100 60.74000 39.10800
N  30.99900 60.22900 39.99200
C  32.19000 60.87000 40.01400
C  32.08100 62.36100 40.46600
C  30.51200 62.44300 40.60900
C  29.94000 61.05900 40.15000
C  32.89500 62.73400 41.80500
C  29.93900 63.56200 39.74600
C  29.98300 63.24400 38.26000
N  28.71000 58.39100 39.73800
C  27.96600 59.52300 39.91200
C  26.49700 59.17600 39.75100
C  26.50300 57.82800 39.34700
C  27.84400 57.37900 39.42700
C  25.34300 60.10000 39.89800
C  25.59800 56.67700 38.92500
O  24.41200 56.62100 38.78100
C  26.56400 55.45600 38.72800
C  26.18300 54.31500 39.56200
O  26.33400 54.24700 40.76700
O  25.50800 53.34200 38.89800
C  24.99700 52.16800 39.71500
H  33.54900 54.57200 39.09800
H  34.18000 61.11600 39.74400
H  27.91300 61.60600 40.45500
H  28.65500 53.20200 38.90500
H  31.41600 53.06600 38.06200
H  32.17700 52.34500 40.18100
H  30.40900 52.23100 40.51600
H  31.29000 53.56900 41.02900
H  30.05900 53.37100 36.38700
H  28.84900 54.66800 36.54500
H  27.42900 52.46500 37.13500
H  28.57800 51.88400 35.96800
H  35.55400 55.13700 38.33500
H  36.28700 55.51400 39.90200
H  36.86700 56.32400 38.55300
H  36.09500 60.98400 40.10200
H  35.89800 61.08200 38.24600
H  37.49100 61.08700 38.94600
H  32.49600 62.89400 39.61100
H  30.11100 62.54400 41.61700
H  33.41800 61.88900 42.25500
H  32.37600 63.18900 42.64900
H  33.70200 63.41000 41.52500
H  30.73400 64.28000 39.94600
H  28.94500 63.87400 40.06400
H  29.00000 62.89400 37.94300
H  30.62600 62.38600 38.06600
H  30.22700 64.17600 37.75000
H  25.54000 60.97400 39.27700
H  25.16000 60.33900 40.94600
H  24.48800 59.59600 39.44900
H  26.53100 55.07500 37.70800
H  24.16100 52.43900 40.36000
H  25.76800 51.76600 40.37200
H  24.49900 51.47700 39.03400
Mg 17.16000 52.45800 26.21500
C  19.11700 50.78500 28.78200
C  14.84000 53.05000 28.58900
C  15.37900 53.54700 23.83900
C  19.53700 51.07900 23.95200
N  16.98100 51.84600 28.40500
C  17.91900 51.31700 29.25800
C  17.60000 51.61000 30.70400
C  16.04200 51.90000 30.58000
C  15.96800 52.35800 29.13900
C  15.01300 50.81400 30.90800
C  18.60000 52.67500 31.41500
C  19.08900 52.37100 32.80800
H  18.06400 51.67600 33.67000
N  15.39700 53.30100 26.17900
C  14.51800 53.47000 27.28600
C  13.34300 54.11300 26.88200
C  13.54100 54.34400 25.42000
C  14.76000 53.70600 25.07400
C  12.20400 54.53000 27.81100
C  12.66700 55.23800 24.53200
O  12.93700 55.51600 23.35900
C  11.44600 55.74800 25.07400
N  17.21300 52.05300 24.14000
C  16.42800 52.79800 23.35300
C  17.05000 53.02800 21.92600
C  18.38800 52.24700 22.09300
C  18.42200 51.85200 23.53800
C  16.03800 52.51900 20.84500
C  19.65900 52.98400 21.45000
C  20.01900 54.40700 21.93900
N  18.97600 51.28900 26.29900
C  19.72900 50.80600 25.31500
C  20.99900 50.22300 25.83700
C  20.70100 50.14200 27.15000
C  19.52300 50.85500 27.48100
C  22.12600 49.61000 24.95700
C  21.25100 49.70800 28.38800
O  22.30800 48.99900 28.54900
C  20.25500 50.08700 29.48100
C  19.74600 48.93700 30.28100
O  18.64100 48.39500 30.12800
O  20.55400 48.73900 31.35500
C  20.08200 47.76700 32.39300
H  13.97700 53.23900 29.23100
H  14.85000 54.07800 23.04500
H  20.39300 50.73800 23.36500
H  17.69000 50.62600 31.16400
H  15.77500 52.78100 31.16400
H  14.68100 50.89700 31.94300
H  15.41700 49.81800 30.72800
H  14.19800 50.85700 30.18500
H  18.11000 53.64500 31.32400
H  19.42900 52.70700 30.70900
H  19.44100 53.23600 33.37100
H  20.00400 51.78900 32.69700
H  12.18200 55.56100 28.16200
H  12.32800 54.17200 28.83400
H  11.21400 54.34000 27.39700
H  11.78500 56.44000 25.84500
H  10.83500 54.92000 25.43400
H  10.92600 56.28500 24.28000
H  17.19400 54.10400 21.82800
H  18.29800 51.27900 21.60000
H  15.58100 53.39700 20.38800
H  15.35500 51.78900 21.28000
H  16.60600 52.12100 20.00500
H  19.38800 53.04400 20.39600
H  20.57200 52.38900 21.49100
H  20.08200 55.10700 21.10600
H  21.05500 54.44900 22.27600
H  19.42700 54.77400 22.77800
H  22.44500 50.31600 24.19000
H  21.88400 48.63500 24.53400
H  22.94500 49.38000 25.63900
H  20.73100 50.73400 30.21700
H  19.99100 46.74400 32.03000
H  19.13800 48.23200 32.67600
H  20.80500 47.69600 33.20600

