158

Mg 26.85300 50.13100 26.09400
C  24.79900 51.26700 28.94500
C  29.28000 49.28100 28.39500
C  28.64200 49.14100 23.48400
C  24.46500 51.69800 24.08600
N  26.91100 50.08300 28.40600
C  25.94500 50.53600 29.35800
C  26.50900 50.28900 30.76700
C  28.01500 49.99400 30.58600
C  28.11100 49.78400 29.05700
C  29.06900 50.90500 31.32400
C  25.60400 49.19900 31.50800
C  25.00700 49.50900 32.88400
H  25.62800 50.39400 33.98800
N  28.68900 49.27000 25.94900
C  29.55000 49.02600 26.97800
C  30.67000 48.23500 26.43000
C  30.53100 48.21700 25.01100
C  29.26600 48.89500 24.74800
C  31.73900 47.54500 27.21700
C  31.38400 47.46300 23.87800
O  31.08700 47.53400 22.69000
C  32.45000 46.49200 24.20400
N  26.50700 50.43400 24.14500
C  27.45400 49.85100 23.27600
C  26.85500 49.91100 21.86000
C  25.57000 50.80600 21.91400
C  25.46800 51.00500 23.43300
C  27.78700 50.42500 20.71700
C  24.25100 50.30700 21.32800
C  23.73600 48.93000 21.76600
N  25.01300 51.19600 26.42200
C  24.22000 51.78600 25.45700
C  23.04400 52.36100 26.03900
C  23.26100 52.14900 27.44400
C  24.47400 51.41400 27.61800
C  21.97700 52.97500 25.19700
C  22.69900 52.50800 28.69700
O  21.71500 53.24100 28.92100
C  23.66200 51.84700 29.71200
C  24.02800 52.94400 30.63200
O  24.93300 53.77900 30.38500
O  23.32800 52.94400 31.81200
C  23.75100 54.02200 32.76100
H  30.01200 48.95200 29.13500
H  29.15800 48.76800 22.59800
H  23.69800 52.08600 23.41200
H  26.40500 51.29100 31.18500
H  28.21200 49.05300 31.09900
H  28.44500 51.75700 31.59500
H  29.81300 51.22400 30.59300
H  29.45700 50.33800 32.17000
H  26.23900 48.33500 31.70400
H  24.88900 48.95500 30.72300
H  24.94300 48.50400 33.30000
H  23.97700 49.83700 32.74400
H  31.95000 48.09500 28.13400
H  32.68100 47.76000 26.71200
H  31.56400 46.47200 27.30300
H  33.35000 47.06800 24.41800
H  32.55500 45.85000 23.32900
H  32.27300 45.89400 25.09700
H  26.53800 48.89600 21.61900
H  25.83300 51.80000 21.55100
H  28.70200 50.80200 21.17400
H  27.29800 51.22600 20.16300
H  28.10200 49.65500 20.01300
H  24.26300 50.09400 20.25900
H  23.52500 51.11600 21.40900
H  22.65800 49.04500 21.87400
H  24.21700 48.60500 22.68800
H  23.81100 48.18400 20.97400
H  21.34400 52.20400 24.75700
H  22.48300 53.59000 24.45300
H  21.50400 53.68500 25.87500
H  22.96700 51.12500 30.14100
H  24.17200 54.90000 32.27200
H  24.30900 53.59400 33.59500
H  22.78800 54.29300 33.19300
Mg -11.88800 38.57800 42.26000
C  -9.92000 35.84100 41.33000
C  -9.71900 40.57700 40.15900
C  -13.89000 41.16000 42.62600
C  -14.33900 36.43300 43.31500
N  -10.14500 38.23800 40.91100
C  -9.39900 36.98400 40.81900
C  -8.20800 37.15200 39.82700
C  -8.15800 38.71500 39.53900
C  -9.40300 39.22600 40.25500
C  -6.91000 39.57900 39.92300
C  -8.20000 36.17100 38.52200
C  -6.94600 35.27500 38.32200
H  -6.16000 35.22200 37.08100
N  -11.72400 40.68000 41.63200
C  -10.70300 41.28000 40.82800
C  -11.03000 42.70200 40.80100
C  -12.27800 42.93700 41.46200
C  -12.70700 41.57700 42.00200
C  -10.22900 43.67800 40.09600
C  -12.89700 44.36400 41.65000
O  -12.47900 45.39800 41.01600
C  -14.08600 44.57000 42.53200
N  -13.85100 38.79600 42.79500
C  -14.48300 39.94000 42.90900
C  -15.94300 39.80100 43.39900
C  -16.14000 38.30000 43.40200
C  -14.67600 37.79500 43.20300
C  -16.28300 40.59300 44.61200
C  -17.03000 37.85800 42.09500
C  -17.89000 36.69700 42.19200
N  -12.07800 36.52800 42.48900
C  -13.02800 35.76200 43.08700
C  -12.62200 34.43300 43.24500
C  -11.36500 34.35300 42.55700
C  -11.07100 35.68500 42.12400
C  -13.47500 33.34800 43.87000
C  -10.26100 33.49800 42.09500
O  -10.07500 32.28600 42.29600
C  -9.25300 34.40800 41.37300
C  -7.89000 34.27300 42.05200
O  -7.30700 33.21400 42.19500
O  -7.36200 35.45400 42.44200
C  -6.06000 35.55500 43.14600
H  -9.08400 41.24400 39.57200
H  -14.65300 41.93100 42.75500
H  -15.14200 35.82000 43.73000
H  -7.26600 36.92500 40.32600
H  -8.35200 38.91800 38.48600
H  -6.15100 38.89700 40.30600
H  -7.06000 40.36000 40.66900
H  -6.50900 40.03900 39.01900
H  -8.47200 36.79700 37.67200
H  -8.99600 35.44300 38.67800
H  -7.12200 34.28400 38.74000
H  -6.13600 35.67200 38.93500
H  -9.21400 43.31800 39.92600
H  -10.12600 44.49700 40.80700
H  -10.71000 44.02600 39.18200
H  -13.89900 44.20800 43.54300
H  -14.97200 44.06500 42.14900
H  -14.25500 45.63800 42.66900
H  -16.50600 40.28900 42.60300
H  -16.63200 37.97000 44.31700
H  -17.20000 41.17900 44.55000
H  -15.48000 41.32100 44.73400
H  -16.39600 40.06000 45.55600
H  -16.32100 37.63100 41.29900
H  -17.66000 38.68100 41.75800
H  -17.77200 36.04600 41.32600
H  -18.92800 37.01200 42.29800
H  -17.70600 36.16600 43.12700
H  -13.26600 33.50000 44.92900
H  -13.16900 32.31000 43.74000
H  -14.52600 33.56900 43.68200
H  -9.13500 33.93700 40.39800
H  -5.41600 36.28500 42.65600
H  -5.50900 34.63200 43.32900
H  -6.14700 36.10600 44.08200

