158

Mg 34.90800 2.49000 29.58800
C  32.84300 3.73000 32.11000
C  37.42600 2.32000 31.81200
C  37.10800 1.93200 26.97800
C  32.40700 3.38700 27.23400
N  35.10000 2.85500 31.70300
C  34.08200 3.27300 32.55900
C  34.56800 3.33500 33.99300
C  36.16600 3.19400 33.79000
C  36.22700 2.76600 32.35300
C  37.03700 4.46400 34.06300
C  33.83600 2.45900 34.97300
C  33.52300 3.03100 36.37100
H  34.59100 3.89900 37.04800
N  37.00500 2.02700 29.39300
C  37.79600 1.93800 30.53300
C  39.13100 1.59100 30.05800
C  39.09700 1.48500 28.60600
C  37.72200 1.74300 28.23300
C  40.31000 1.50300 31.01500
C  40.27700 1.28100 27.67600
O  40.18700 1.46700 26.47400
C  41.61500 0.84200 28.21900
N  34.79900 2.57400 27.46200
C  35.78400 2.30300 26.60600
C  35.37600 2.43600 25.19100
C  33.77500 2.41300 25.27500
C  33.61600 2.79000 26.73700
C  35.88600 3.74800 24.49600
C  33.12500 1.00100 25.03100
C  31.88000 0.86000 24.05300
N  32.95700 3.28400 29.65600
C  32.07800 3.58900 28.63200
C  30.82700 4.08400 29.19000
C  31.10600 4.09800 30.58900
C  32.39600 3.69400 30.79000
C  29.61600 4.58300 28.42200
C  30.53700 4.48600 31.81600
O  29.38800 4.93900 31.99800
C  31.69400 4.31200 32.94000
C  31.94500 5.65900 33.55700
O  32.88000 6.37900 33.20300
O  31.11300 5.97500 34.56400
C  31.46600 7.10400 35.45800
H  38.24600 2.31900 32.53300
H  37.86400 1.74000 26.21400
H  31.59100 3.49400 26.51500
H  34.47900 4.37800 34.29700
H  36.68900 2.41600 34.34700
H  37.54500 4.78300 33.15200
H  37.82900 4.11100 34.72300
H  36.51300 5.31700 34.49400
H  34.24500 1.44900 35.00000
H  32.87400 2.26100 34.50200
H  33.49100 2.25600 37.13700
H  32.62900 3.65000 36.30500
H  40.06900 1.75500 32.04800
H  41.24000 2.03500 30.81800
H  40.54100 0.44000 30.95200
H  42.27400 0.73900 27.35700
H  41.74300 -0.06500 28.81000
H  42.10200 1.63600 28.78400
H  35.63000 1.55600 24.60000
H  33.28600 3.20300 24.70500
H  36.40600 4.40300 25.19400
H  34.98600 4.25300 24.14600
H  36.65400 3.49500 23.76500
H  32.83400 0.53400 25.97200
H  33.89200 0.29700 24.70800
H  31.06100 0.31100 24.51600
H  32.33400 0.31300 23.22700
H  31.52500 1.83800 23.72700
H  29.20800 3.75400 27.84500
H  30.03000 5.26100 27.67400
H  28.89100 5.09300 29.05600
H  31.32800 3.65800 33.73200
H  30.81500 7.97800 35.45100
H  32.47500 7.44300 35.22000
H  31.35600 6.68700 36.45900
Mg -5.54500 24.66600 26.16500
C  -4.26700 26.31700 29.11200
C  -7.90700 23.20000 28.01200
C  -6.39200 23.07400 23.37100
C  -3.15300 26.59500 24.39300
N  -5.96500 24.63000 28.30400
C  -5.35200 25.40200 29.32500
C  -6.10300 25.18900 30.67300
C  -7.22600 24.11700 30.29700
C  -7.05100 24.02800 28.75100
C  -7.00300 22.67400 31.01000
C  -6.89600 26.46200 31.20100
C  -6.78900 26.64700 32.79700
H  -6.16400 25.50600 33.59900
N  -6.90800 23.26600 25.74600
C  -7.84700 22.81600 26.63600
C  -8.73100 21.92000 25.98500
C  -8.30400 21.85300 24.65300
C  -7.14600 22.76800 24.52100
C  -9.89800 21.27500 26.70100
C  -8.81200 20.93200 23.59600
O  -8.24300 20.89100 22.50200
C  -9.87700 19.87100 23.86600
N  -4.94400 24.89300 24.17700
C  -5.41400 24.02200 23.18800
C  -4.60000 24.28400 21.97200
C  -3.89300 25.67700 22.17800
C  -3.94400 25.71300 23.68800
C  -3.66100 23.07300 21.65500
C  -4.67500 26.86400 21.57500
C  -3.98800 27.61300 20.40000
N  -3.89700 25.96700 26.61300
C  -3.07700 26.65400 25.77000
C  -2.31600 27.64000 26.45500
C  -2.73200 27.43900 27.79100
C  -3.63000 26.44400 27.87400
C  -1.31200 28.60700 25.88200
C  -2.44600 27.97100 29.04900
O  -1.60200 28.76500 29.47900
C  -3.46900 27.29400 29.96100
C  -2.72500 26.59900 31.10500
O  -2.13000 25.59700 31.02500
O  -2.77700 27.47300 32.14900
C  -2.10200 27.00600 33.34600
H  -8.71900 22.81000 28.63000
H  -6.66100 22.40200 22.55300
H  -2.55200 27.23900 23.74600
H  -5.31000 24.71700 31.25400
H  -8.24600 24.48200 30.42400
H  -7.92400 22.40800 31.53000
H  -6.17000 22.60200 31.70900
H  -6.75700 21.89000 30.29500
H  -7.94500 26.44000 30.90500
H  -6.56600 27.33400 30.63600
H  -7.79800 26.90400 33.11700
H  -6.16500 27.49800 33.07200
H  -10.69400 21.38000 25.96300
H  -10.13600 21.73300 27.66100
H  -9.76700 20.20700 26.87000
H  -10.80900 20.41600 24.01300
H  -9.46200 19.36300 24.73600
H  -9.90000 19.18000 23.02300
H  -5.30000 24.45200 21.15300
H  -2.86000 25.62800 21.83400
H  -3.86900 22.26400 22.35600
H  -2.65000 23.40400 21.89000
H  -3.82800 22.66900 20.65700
H  -4.79300 27.69800 22.26600
H  -5.64700 26.55600 21.19000
H  -3.58900 28.55900 20.76800
H  -4.74500 27.70600 19.62200
H  -3.22300 26.92800 20.03600
H  -0.73100 28.97100 26.72900
H  -1.85500 29.41200 25.38600
H  -0.68700 28.10800 25.14100
H  -4.16600 27.90700 30.53200
H  -1.37900 27.75100 33.67700
H  -1.67700 26.00400 33.39500
H  -2.80000 27.09100 34.17900

