158

Mg 1.08800 7.90700 26.87100
C  2.14000 9.57900 29.66000
C  0.54200 5.15300 28.94900
C  0.82400 5.98500 24.11200
C  1.60700 10.55900 24.90100
N  1.31900 7.43000 29.14600
C  1.66200 8.30400 30.06800
C  1.42300 7.79900 31.50400
C  1.19900 6.18100 31.11800
C  0.98400 6.23600 29.63300
C  2.54100 5.33300 31.44700
C  0.32500 8.44900 32.41100
C  0.69600 8.91400 33.80800
H  1.90700 8.21500 34.56700
N  0.70800 5.86500 26.59300
C  0.45000 4.95100 27.57300
C  0.01200 3.74000 26.98800
C  0.09900 3.86600 25.55400
C  0.63300 5.22600 25.36300
C  -0.42000 2.55400 27.78000
C  -0.38500 2.98500 24.43700
O  -0.39900 3.43000 23.27500
C  -0.84000 1.60900 24.61200
N  0.93300 8.24700 24.75900
C  0.98900 7.35800 23.73900
C  0.86600 8.01700 22.31700
C  0.78000 9.52600 22.78900
C  1.19900 9.44200 24.22900
C  2.12900 7.57600 21.38800
C  -0.59700 10.16900 22.57200
C  -0.70800 11.61200 21.89400
N  1.72700 9.68700 27.17800
C  1.84000 10.74700 26.29900
C  2.28900 11.90800 27.02900
C  2.38800 11.45600 28.37000
C  2.06300 10.11600 28.42300
C  2.46100 13.31800 26.51800
C  2.77800 12.02600 29.67000
O  3.09400 13.14600 30.05800
C  2.65000 10.73100 30.56800
C  3.94100 10.42400 31.30500
O  4.85600 9.75800 30.93500
O  3.97000 11.06900 32.53800
C  5.01600 11.04700 33.57600
H  0.20400 4.33900 29.59400
H  0.67800 5.40900 23.19600
H  1.78800 11.48200 24.34600
H  2.37600 7.82200 32.03300
H  0.31200 5.62000 31.41200
H  2.48200 4.78000 32.38500
H  3.39200 6.01100 31.39200
H  2.82300 4.73700 30.57900
H  -0.40300 7.65100 32.55900
H  -0.04200 9.33700 31.89700
H  -0.11300 8.80300 34.53000
H  1.06900 9.93100 33.68800
H  -1.50300 2.60600 27.89400
H  -0.09800 2.48000 28.81900
H  -0.26400 1.64700 27.19700
H  -1.45400 1.55400 25.51100
H  0.02500 0.96300 24.76100
H  -1.37800 1.17600 23.76800
H  -0.09600 7.70000 21.91500
H  1.58500 10.06800 22.29300
H  2.94100 8.29200 21.52000
H  1.89400 7.64000 20.32600
H  2.48600 6.59600 21.70600
H  -1.17000 10.25000 23.49500
H  -1.22000 9.48800 21.99200
H  -1.01900 12.33200 22.65100
H  -1.39400 11.70700 21.05200
H  0.21700 12.06400 21.53700
H  2.08500 13.35200 25.49600
H  3.52400 13.48500 26.69300
H  1.91100 14.11000 27.02700
H  1.96200 11.06900 31.34300
H  5.36600 12.06800 33.73200
H  5.76000 10.29600 33.31000
H  4.51500 10.74400 34.49500
Mg 47.77600 15.78700 28.18700
C  45.91200 15.45000 31.20200
C  49.73200 18.16600 29.72300
C  49.18700 16.61500 25.19400
C  45.23100 13.91900 26.50000
N  47.80900 16.72500 30.22900
C  47.04000 16.30800 31.27300
C  47.58700 17.04900 32.48500
C  48.63600 18.06800 31.96600
C  48.83200 17.52800 30.56800
C  48.23000 19.61100 31.89100
C  48.10000 15.98900 33.53700
C  47.87800 16.18800 35.00500
H  47.89700 17.57200 35.56600
N  49.40200 17.01200 27.62200
C  50.07200 17.91800 28.35400
C  51.09600 18.55600 27.56400
C  51.05000 18.01800 26.27700
C  49.86500 17.07800 26.31400
C  52.04100 19.57500 28.13900
C  51.87700 18.31600 25.06000
O  51.79100 17.60100 24.08900
C  52.76700 19.45800 25.13400
N  47.31100 15.33700 26.18500
C  48.00100 15.83600 25.12500
C  47.38900 15.36900 23.76600
C  46.26800 14.41400 24.18300
C  46.31700 14.47100 25.74600
C  46.95300 16.56900 22.91500
C  46.36000 12.89300 23.75800
C  45.19900 12.34900 22.87100
N  45.96100 14.74300 28.70200
C  45.10100 13.97700 27.93800
C  44.07900 13.35900 28.82700
C  44.37000 13.92800 30.06500
C  45.51300 14.72100 29.98500
C  42.97400 12.54400 28.19700
C  43.94200 13.96100 31.45300
O  43.01800 13.39500 31.97100
C  44.89700 14.92100 32.20200
C  44.25600 16.01600 32.96900
O  44.10000 17.12500 32.37100
O  43.89800 15.68100 34.26700
C  43.15600 16.73200 34.99200
H  50.11200 19.10200 30.13600
H  49.49400 16.83100 24.16900
H  44.52700 13.32600 25.91300
H  46.71400 17.60100 32.83300
H  49.51600 17.90700 32.58800
H  48.01000 19.92400 30.87000
H  48.97700 20.26700 32.33800
H  47.26800 19.85700 32.33800
H  49.14700 15.77900 33.31700
H  47.79800 15.05200 33.07000
H  48.74000 15.67300 35.43000
H  46.96600 15.64800 35.25900
H  53.06700 19.37000 27.83300
H  52.03000 19.56900 29.22900
H  51.62600 20.49000 27.71500
H  52.07300 20.24900 25.41900
H  53.00800 19.84700 24.14500
H  53.64700 19.28000 25.75200
H  48.16100 14.75200 23.30600
H  45.31000 14.82100 23.86000
H  47.31500 16.44900 21.89400
H  47.47800 17.43600 23.31800
H  45.89200 16.74300 23.09400
H  46.42100 12.19000 24.58900
H  47.30900 12.70400 23.25700
H  45.68500 12.05100 21.94200
H  44.50500 13.12900 22.55800
H  44.61300 11.53100 23.29100
H  43.53100 11.79000 27.64000
H  42.26300 13.02600 27.52500
H  42.34500 12.08800 28.96100
H  45.47500 14.41400 32.97500
H  42.10400 16.70500 34.70800
H  43.57800 17.72000 34.80700
H  43.14400 16.44100 36.04200

