158

Mg 0.61200 7.53200 27.26400
C  0.81300 9.73000 29.96500
C  0.49400 4.94000 29.66400
C  0.32700 5.28800 24.81800
C  0.73000 10.19500 25.09500
N  0.74600 7.35100 29.59400
C  0.68500 8.41400 30.40800
C  0.44000 7.96000 31.89000
C  0.53900 6.39300 31.78100
C  0.63700 6.18300 30.28400
C  1.83600 5.79500 32.39400
C  -1.00400 8.38500 32.45200
C  -1.06800 8.45300 34.01100
H  0.15400 8.04100 34.83800
N  0.47100 5.38200 27.20700
C  0.29700 4.54200 28.31100
C  -0.01000 3.18500 27.82500
C  0.09100 3.26100 26.32600
C  0.27200 4.65000 26.06400
C  -0.37000 2.01300 28.76000
C  -0.05900 2.11100 25.38900
O  -0.16800 2.25700 24.17600
C  -0.17400 0.67400 25.93800
N  0.50200 7.74500 25.30500
C  0.47400 6.64300 24.41200
C  0.48900 7.17100 22.95500
C  0.28600 8.68700 23.09100
C  0.46300 8.90900 24.55600
C  1.77000 6.65500 22.22700
C  -1.08300 9.20700 22.54800
C  -0.99500 10.25100 21.44800
N  0.95700 9.51500 27.42800
C  0.91100 10.52200 26.45200
C  1.09800 11.80000 27.07400
C  1.06700 11.49500 28.47700
C  0.95900 10.11200 28.64400
C  1.19000 13.15500 26.41200
C  1.16100 12.15500 29.72400
O  1.43300 13.30200 29.93400
C  0.77800 10.97900 30.73400
C  1.78200 11.00400 31.85400
O  2.98900 10.72500 31.71800
O  1.18000 11.44400 32.99400
C  2.02500 11.50500 34.11800
H  0.29800 4.23400 30.47400
H  -0.00100 4.69400 23.96200
H  0.69400 11.02000 24.38100
H  1.29500 8.32900 32.45700
H  -0.28700 5.85400 32.24500
H  1.56500 4.87700 32.91500
H  2.30400 6.55600 33.01900
H  2.55600 5.44200 31.65500
H  -1.67000 7.62000 32.05500
H  -1.32600 9.35300 32.06800
H  -1.86900 7.80800 34.37300
H  -1.46900 9.43900 34.24800
H  -1.42300 1.78400 28.59600
H  -0.19000 2.30900 29.79300
H  0.16300 1.10100 28.49000
H  0.71700 0.54300 26.55200
H  -0.11300 0.01700 25.07100
H  -1.09100 0.56000 26.51500
H  -0.40700 6.75900 22.49000
H  1.18700 9.11800 22.65200
H  2.46200 6.15900 22.90700
H  2.29200 7.45800 21.70600
H  1.36500 5.96700 21.48500
H  -1.62100 9.56800 23.42400
H  -1.62000 8.33600 22.17200
H  -1.49400 9.92400 20.53500
H  0.03800 10.54800 21.27100
H  -1.57500 11.08800 21.83600
H  0.16800 13.34600 26.08200
H  1.83000 13.10000 25.53200
H  1.48900 13.92000 27.12800
H  -0.19900 11.16700 31.17900
H  2.47300 12.48900 34.26000
H  2.83600 10.77700 34.15600
H  1.39800 11.31500 34.98900
Mg 17.61000 51.49000 25.74000
C  19.38900 50.14800 28.40100
C  15.22100 52.46700 28.00600
C  15.89000 52.79700 23.15500
C  19.80000 50.06500 23.46300
N  17.44400 51.50600 28.04100
C  18.30400 50.88100 28.90000
C  17.75400 50.85500 30.30800
C  16.34400 51.59800 30.17200
C  16.25200 51.82300 28.63200
C  15.14300 50.74800 30.57500
C  18.65000 51.54200 31.39500
C  18.45800 51.06200 32.83800
H  17.50400 51.78100 33.84800
N  15.89300 52.43200 25.61800
C  15.03000 52.72500 26.60500
C  13.83000 53.33900 26.11400
C  13.99800 53.54300 24.64300
C  15.30100 52.93700 24.42400
C  12.76500 53.80700 27.02200
C  13.09600 54.24600 23.60800
O  13.24300 54.31100 22.38600
C  11.90100 54.85800 24.20700
N  17.73300 51.31000 23.59900
C  16.97100 52.00700 22.73400
C  17.27900 51.75000 21.20700
C  18.59400 50.99000 21.39200
C  18.79900 50.79200 22.90700
C  16.15400 51.07700 20.33500
C  19.85800 51.67500 20.73600
C  20.83200 52.60800 21.52600
N  19.18300 50.32600 25.83200
C  20.01400 49.73800 24.84800
C  21.03600 48.99100 25.52400
C  20.80600 49.10100 26.90800
C  19.73100 49.92700 27.02500
C  22.14400 48.29100 24.81600
C  21.29100 48.70700 28.16800
O  22.23000 48.00300 28.47900
C  20.35500 49.41000 29.22700
C  19.88500 48.38500 30.12200
O  19.18400 47.39000 29.87200
O  20.51400 48.55800 31.36300
C  20.24400 47.57500 32.43100
H  14.42500 52.77900 28.68600
H  15.36800 53.14300 22.26000
H  20.40500 49.51400 22.74000
H  17.61100 49.80200 30.55400
H  16.21600 52.56300 30.66300
H  14.28600 50.94300 29.93100
H  14.76000 50.80500 31.59400
H  15.20600 49.74500 30.15200
H  18.34200 52.58600 31.44100
H  19.70100 51.39600 31.14600
H  19.48700 51.08400 33.19500
H  18.20500 50.00500 32.75300
H  11.74800 53.64500 26.66500
H  13.00700 54.86300 27.14400
H  12.73100 53.19700 27.92500
H  11.36500 55.38700 23.41900
H  12.19800 55.49500 25.04000
H  11.07500 54.19500 24.46400
H  17.58000 52.68200 20.72800
H  18.42700 49.99500 20.98200
H  16.55800 50.46600 19.52900
H  15.61700 51.91500 19.88900
H  15.60900 50.43600 21.02800
H  19.58800 52.20900 19.82500
H  20.46200 50.86900 20.31900
H  21.76700 52.12100 21.80100
H  20.32800 52.91000 22.44400
H  21.05400 53.44400 20.86300
H  22.83400 49.06400 24.47900
H  21.73900 47.95800 23.86100
H  22.66400 47.51200 25.37200
H  20.96400 50.06500 29.84900
H  19.90600 46.62400 32.02100
H  19.54200 47.80600 33.23300
H  21.23700 47.51300 32.87700

