158

Mg 0.86800 7.20600 25.41500
C  1.55400 8.90100 28.38000
C  1.15500 4.27000 27.20800
C  0.40300 5.47100 22.63500
C  1.11100 10.24000 23.68000
N  1.07100 6.67200 27.60500
C  1.29700 7.56700 28.55000
C  1.36100 6.82800 29.87500
C  1.55000 5.28900 29.47000
C  1.26000 5.38400 27.97100
C  2.78900 4.59200 29.97800
C  0.10300 7.07200 30.72100
C  0.44400 7.49800 32.20600
H  1.73700 6.97700 32.85900
N  0.78100 5.12800 24.96700
C  0.95200 4.06900 25.81000
C  0.86400 2.84800 25.07200
C  0.68500 3.25700 23.71600
C  0.67000 4.68600 23.69400
C  1.12800 1.53600 25.73400
C  0.56500 2.33600 22.46200
O  0.49000 2.79800 21.30900
C  0.47800 0.89900 22.63100
N  0.86400 7.75600 23.44000
C  0.39900 6.89000 22.51400
C  0.10700 7.60600 21.21100
C  0.34900 9.09700 21.49700
C  0.78000 9.08500 22.98600
C  0.97400 6.95300 20.09900
C  -0.87700 10.04000 21.38700
C  -0.79200 11.24700 20.37600
N  1.39200 9.19100 25.90400
C  1.40000 10.31600 25.12800
C  1.57900 11.49900 25.93900
C  1.66300 10.98900 27.24500
C  1.63100 9.52600 27.15900
C  1.53000 12.91600 25.27200
C  1.84100 11.35200 28.67600
O  2.01900 12.43600 29.21700
C  1.83700 9.95500 29.42900
C  3.15300 9.82100 30.12900
O  4.20200 9.43100 29.60400
O  3.12800 10.49000 31.40200
C  4.43500 10.67800 32.14000
H  1.37400 3.39300 27.82100
H  0.07000 4.96100 21.72900
H  1.11400 11.20100 23.16100
H  2.23600 7.29500 30.32900
H  0.74100 4.69000 29.88900
H  3.43600 5.30100 30.49400
H  3.38600 4.19200 29.15800
H  2.51000 3.80100 30.67400
H  -0.49000 6.15900 30.78200
H  -0.60000 7.75300 30.24100
H  -0.44600 7.24300 32.78200
H  0.48900 8.58200 32.31100
H  2.05500 1.15800 25.30300
H  0.34200 0.84900 25.42100
H  1.02600 1.54900 26.81900
H  1.48800 0.52500 22.79600
H  0.05000 0.33500 21.80200
H  -0.25200 0.81600 23.43600
H  -0.97200 7.54100 21.07500
H  1.18600 9.39100 20.86300
H  1.14100 7.64800 19.27600
H  0.45500 6.06400 19.74000
H  1.97000 6.70100 20.46200
H  -1.07200 10.50000 22.35700
H  -1.77600 9.48000 21.13000
H  -0.92000 12.16800 20.94400
H  -1.45700 11.14600 19.51900
H  0.21000 11.34200 19.95700
H  1.33400 13.54800 26.13800
H  0.71400 13.07500 24.56600
H  2.41400 13.28700 24.75300
H  1.03000 10.06300 30.15300
H  5.22000 10.77900 31.39100
H  4.82900 9.87900 32.76900
H  4.29700 11.59500 32.71300
Mg 42.20700 41.19100 26.33700
C  41.60000 43.73300 28.76900
C  43.15500 39.08300 28.62200
C  43.20100 39.11200 23.86500
C  42.06000 43.84600 23.83500
N  42.59300 41.54200 28.42400
C  42.04500 42.49700 29.29000
C  42.05700 42.07200 30.79600
C  42.86200 40.67000 30.63900
C  42.88300 40.40200 29.12900
C  44.26500 40.65200 31.26900
C  40.47500 41.82200 31.21200
C  39.93500 42.67400 32.36700
H  39.32100 42.01500 33.61300
N  42.95400 39.32500 26.27800
C  43.26000 38.55400 27.33600
C  43.73300 37.23400 26.92800
C  43.89000 37.31300 25.51400
C  43.38600 38.60300 25.14100
C  44.14200 36.18800 27.88900
C  44.36900 36.25300 24.53600
O  44.69000 36.38100 23.34900
C  44.66100 34.86400 24.98600
N  42.60000 41.47600 24.08000
C  42.92700 40.39300 23.29800
C  42.84000 40.77100 21.85800
C  42.45600 42.34600 21.87400
C  42.29700 42.55400 23.35000
C  44.16800 40.36200 21.04400
C  41.22500 42.66100 20.99700
C  39.87800 42.64900 21.69400
N  41.80100 43.35000 26.23100
C  41.80300 44.23500 25.14400
C  41.39300 45.50200 25.67400
C  41.25100 45.32800 27.09100
C  41.48800 43.99800 27.36300
C  41.21600 46.79800 24.82800
C  41.02300 46.03100 28.35900
O  40.66500 47.21700 28.56200
C  41.04500 44.96700 29.51200
C  42.04300 45.42400 30.49200
O  43.21900 45.74700 30.34800
O  41.48900 45.71800 31.69700
C  42.12700 46.38500 32.84800
H  43.28000 38.29800 29.37100
H  43.44000 38.38000 23.09000
H  41.93000 44.61700 23.07200
H  42.58400 42.80200 31.40900
H  42.37200 39.85200 31.16700
H  44.98000 40.29700 30.52700
H  44.27100 40.17200 32.24800
H  44.45700 41.71100 31.44000
H  40.50500 40.77700 31.52200
H  39.87300 41.89900 30.30600
H  39.18100 43.33300 31.93600
H  40.72500 43.33500 32.72500
H  43.63200 35.26700 27.60600
H  43.98000 36.42400 28.94000
H  45.20900 36.13600 27.67000
H  45.57200 34.89100 25.58500
H  45.00400 34.22800 24.17000
H  43.87700 34.25000 25.42800
H  41.98500 40.19100 21.50900
H  43.29600 42.93100 21.50000
H  44.46200 41.15300 20.35400
H  44.02700 39.41100 20.53000
H  44.96700 40.22800 21.77400
H  41.10100 41.98300 20.15300
H  41.35400 43.68100 20.63400
H  39.89300 42.24400 22.70600
H  39.24200 42.04000 21.05100
H  39.47300 43.66000 21.64400
H  42.21200 47.21700 24.68300
H  40.57100 47.43800 25.43000
H  40.76300 46.66700 23.84600
H  40.08800 44.79000 30.00400
H  43.21600 46.44100 32.82200
H  41.71800 45.85400 33.70800
H  41.69700 47.37600 32.70800

