158

Mg 44.43800 5.58700 47.03400
C  42.24100 8.29000 46.81600
C  41.79700 3.54000 46.27600
C  46.60800 3.06100 46.30200
C  47.18800 7.77800 47.53200
N  42.25000 5.96800 46.49100
C  41.56700 7.09200 46.66100
C  40.05100 6.84300 46.52300
C  39.92600 5.31100 46.20900
C  41.39200 4.90100 46.30100
C  38.99700 4.52200 47.15900
C  39.24900 7.68600 45.50700
C  39.96500 7.90200 44.10700
H  39.12300 7.21100 42.96400
N  44.22200 3.51100 46.56600
C  43.05500 2.86300 46.26900
C  43.32500 1.46200 45.95400
C  44.75900 1.35400 45.86800
C  45.29900 2.66500 46.22100
C  42.34700 0.38700 45.72600
C  45.55000 0.16000 45.20800
O  44.90300 -0.73900 44.77500
C  47.06200 0.09200 45.12800
N  46.64600 5.44300 46.95900
C  47.22900 4.28500 46.69400
C  48.79700 4.42500 46.72300
C  48.94900 5.81400 47.46500
C  47.52900 6.38400 47.37800
C  49.72100 3.35600 47.38400
C  49.97000 6.83500 46.85600
C  50.74800 7.56300 48.02700
N  44.72800 7.60800 47.14200
C  45.91500 8.36700 47.32000
C  45.52100 9.75400 47.29900
C  44.09600 9.72900 47.17000
C  43.63800 8.43900 46.99700
C  46.50500 10.89600 47.36600
C  42.92400 10.58600 47.14000
O  42.80700 11.81600 47.21500
C  41.66200 9.70100 46.87800
C  40.73200 9.84600 48.00500
O  40.79700 9.28300 49.03800
O  39.58100 10.58100 47.56600
C  38.48400 10.54600 48.48200
H  41.01100 2.83700 45.99200
H  47.42600 2.34800 46.18400
H  48.04900 8.42500 47.71200
H  39.74900 6.96200 47.56400
H  39.61500 5.09600 45.18700
H  39.59800 4.34700 48.05100
H  38.75900 3.63800 46.56700
H  38.15100 5.11200 47.51200
H  38.99800 8.67900 45.88100
H  38.33500 7.15200 45.24700
H  40.96600 7.47100 44.09300
H  40.14800 8.95700 43.89900
H  42.47700 0.03300 44.70300
H  41.36100 0.83100 45.85800
H  42.44000 -0.46400 46.40100
H  47.40600 0.40000 46.11500
H  47.21400 0.76000 44.28000
H  47.47500 -0.88400 44.87200
H  49.17200 4.49100 45.70100
H  49.08800 5.64800 48.53400
H  50.14900 3.70400 48.32400
H  50.50000 3.21100 46.63600
H  49.30200 2.37000 47.58200
H  49.47500 7.61400 46.27700
H  50.74300 6.39100 46.22900
H  50.38400 7.44800 49.04800
H  50.90200 8.61100 47.76600
H  51.64300 6.94200 48.00300
H  47.47500 10.67700 46.91800
H  46.75400 11.20000 48.38300
H  46.11300 11.79500 46.89100
H  41.14100 10.04600 45.98500
H  37.71100 11.07700 47.92700
H  38.77100 11.02300 49.41900
H  38.02900 9.57900 48.69800
Mg 34.85600 2.45300 29.45900
C  32.80000 3.58000 32.00700
C  37.58300 2.40900 31.56500
C  36.81300 1.82400 26.81500
C  32.05600 3.02900 27.39000
N  35.16400 3.04000 31.53500
C  34.20400 3.37700 32.40000
C  34.75400 3.55200 33.80400
C  36.33200 3.38600 33.62200
C  36.42200 2.93000 32.15800
C  37.15400 4.69400 33.79500
C  34.18200 2.53800 34.76300
C  33.88700 3.05500 36.26600
H  34.90900 3.99800 36.93300
N  36.85600 2.02800 29.21500
C  37.78700 2.07000 30.21400
C  39.05900 1.56700 29.63000
C  38.94700 1.61600 28.21900
C  37.52200 1.88400 28.03500
C  40.17600 1.18100 30.59400
C  40.01800 1.48200 27.22400
O  39.73700 1.67500 26.02500
C  41.42600 1.14900 27.51900
N  34.54600 2.47600 27.40800
C  35.50500 2.09600 26.53200
C  34.92900 1.87500 25.11300
C  33.46200 2.26200 25.30800
C  33.31000 2.58100 26.81500
C  35.65500 2.48600 23.92700
C  32.49100 1.18600 24.64900
C  32.59000 -0.15700 25.31600
N  32.81000 3.25000 29.54000
C  31.83500 3.37600 28.66400
C  30.62800 3.82800 29.30600
C  31.00200 4.00500 30.64900
C  32.31200 3.57900 30.71000
C  29.32800 4.12200 28.59900
C  30.49600 4.47000 31.94000
O  29.36000 4.89500 32.22000
C  31.62400 4.09200 32.93300
C  31.95400 5.38900 33.74700
O  32.79900 6.22600 33.39700
O  31.31900 5.40100 34.98400
C  31.78500 6.37000 35.99600
H  38.45400 2.30400 32.21600
H  37.27700 1.55400 25.86400
H  31.20800 3.02400 26.70200
H  34.61000 4.57100 34.16400
H  36.74400 2.62400 34.28400
H  37.59600 5.05700 32.86700
H  37.85100 4.38100 34.57300
H  36.65000 5.58300 34.17500
H  34.88800 1.70900 34.71300
H  33.29500 1.99700 34.43400
H  33.93300 2.23100 36.97800
H  32.87100 3.45000 36.27400
H  41.01400 0.68800 30.10000
H  39.73000 0.57000 31.37900
H  40.47100 2.15600 30.98100
H  41.97600 1.03400 26.58500
H  41.46900 0.13400 27.91300
H  41.85200 1.86200 28.22500
H  35.00400 0.79400 24.98800
H  33.34900 3.25200 24.86600
H  35.89600 1.59900 23.34000
H  36.55500 3.07000 24.12100
H  34.97900 3.09200 23.32500
H  32.61200 1.19100 23.56500
H  31.49500 1.54600 24.90900
H  31.65900 -0.50200 25.76600
H  33.37000 -0.18000 26.07600
H  32.87300 -0.90100 24.57100
H  28.62900 3.30600 28.78200
H  29.48200 4.12400 27.51900
H  28.82600 5.03900 28.90600
H  31.20300 3.37100 33.63400
H  32.86500 6.26000 36.09500
H  31.38500 6.12200 36.97900
H  31.58700 7.41900 35.77500

