158

Mg 7.65500 2.26700 27.97700
C  9.26100 1.15000 30.92000
C  5.68400 4.32900 29.72700
C  6.19600 3.11800 25.05400
C  9.50000 -0.16200 26.23600
N  7.38100 2.58300 30.08600
C  8.24800 2.09300 31.08900
C  7.89000 2.76600 32.40200
C  6.61000 3.64500 32.00700
C  6.53800 3.50200 30.51400
C  5.31900 3.23300 32.66100
C  9.04600 3.56800 33.10200
C  8.69200 4.45500 34.26500
H  9.12400 4.06200 35.68500
N  6.15800 3.42800 27.49300
C  5.46800 4.28400 28.34000
C  4.51200 5.07700 27.65500
C  4.63600 4.79500 26.27300
C  5.72400 3.72700 26.20900
C  3.61600 6.14100 28.42700
C  3.91100 5.42200 25.13700
O  4.07700 5.12400 23.96800
C  2.86300 6.49100 25.31900
N  7.81900 1.55100 25.94100
C  7.05200 2.10400 24.96700
C  7.45500 1.62400 23.58700
C  8.44200 0.44900 23.92900
C  8.74800 0.72400 25.42800
C  6.20400 1.28900 22.66900
C  9.71400 0.29800 23.06700
C  9.93100 -1.12400 22.57200
N  9.03700 0.75600 28.42000
C  9.69500 -0.11700 27.62900
C  10.60400 -0.84700 28.33000
C  10.55200 -0.38900 29.66600
C  9.52300 0.58800 29.64000
C  11.46900 -2.01500 27.80200
C  10.96700 -0.65000 31.02300
O  11.73500 -1.51000 31.42100
C  10.24400 0.42500 31.85700
C  9.65200 -0.19000 33.14300
O  8.85900 -1.11700 33.26600
O  10.21700 0.40500 34.24300
C  9.85300 -0.17500 35.55300
H  5.14500 5.01400 30.38500
H  5.74500 3.58400 24.17600
H  9.98600 -0.98200 25.70400
H  7.48400 2.01800 33.08300
H  6.86200 4.68700 32.20100
H  5.15000 3.72800 33.61800
H  5.27600 2.14400 32.64500
H  4.49100 3.52700 32.01700
H  9.42500 4.30000 32.38900
H  9.86000 2.97800 33.52400
H  7.60500 4.39800 34.21200
H  9.14200 5.43200 34.08700
H  4.00400 7.15800 28.36800
H  3.57800 5.86500 29.48100
H  2.59500 6.18600 28.04900
H  1.95000 5.92900 25.51700
H  2.64400 6.95800 24.35800
H  3.20300 7.20300 26.07100
H  8.01300 2.42300 23.09900
H  7.88900 -0.48600 24.01100
H  5.22400 1.29300 23.14700
H  6.29200 0.27600 22.27800
H  6.10800 1.98500 21.83500
H  10.60000 0.58300 23.63400
H  9.61700 0.99700 22.23700
H  10.32100 -1.17200 21.55600
H  9.00200 -1.69000 22.63800
H  10.59800 -1.57900 23.30500
H  11.92700 -1.74100 26.85200
H  10.81400 -2.88500 27.75800
H  12.26800 -2.20300 28.52000
H  10.99400 1.14400 32.18600
H  9.27400 0.59200 36.06800
H  10.66600 -0.37700 36.25100
H  9.19800 -1.04600 35.52700
Mg 54.66300 23.86700 44.42800
C  52.16500 26.23000 43.40200
C  52.32600 21.35500 43.59100
C  57.25800 21.83800 43.83000
C  56.81600 26.51000 45.03300
N  52.63100 23.80700 43.26500
C  51.79900 24.90400 43.11300
C  50.43200 24.52200 42.57900
C  50.30100 23.06800 43.21400
C  51.85800 22.66500 43.34400
C  49.70800 23.05500 44.64700
C  50.45500 24.59200 41.02700
C  48.99300 24.68100 40.53100
H  48.71600 24.18400 39.10300
N  54.70600 21.84100 44.00500
C  53.68700 20.95900 43.73700
C  54.22000 19.63800 43.67800
C  55.62600 19.74100 43.73400
C  55.91500 21.18000 43.83400
C  53.44600 18.36400 43.50000
C  56.62500 18.47600 43.68100
O  56.19300 17.28300 43.69600
C  58.10700 18.78800 43.51600
N  56.76000 24.08800 44.35700
C  57.63700 23.13100 44.15700
C  59.07900 23.44600 44.49800
C  58.86800 24.93700 44.96300
C  57.37000 25.16700 44.85700
C  59.93600 22.69700 45.47700
C  59.81900 26.01500 44.28300
C  61.04700 26.43700 45.20100
N  54.55200 25.95200 44.40400
C  55.44600 26.86800 44.77800
C  54.74800 28.15600 44.70600
C  53.48400 27.99300 44.21300
C  53.41100 26.60700 43.96200
C  55.28200 29.51200 45.10700
C  52.28100 28.64500 43.73000
O  51.98800 29.81500 43.62100
C  51.34600 27.51200 43.31700
C  51.06500 27.78200 41.96000
O  51.83500 27.84700 41.02300
O  49.74600 28.15800 41.87000
C  49.23300 28.79000 40.60900
H  51.49700 20.65700 43.45600
H  58.13300 21.18600 43.78300
H  57.50700 27.25800 45.42800
H  49.69800 25.20100 43.01200
H  49.77900 22.47000 42.46700
H  49.75300 21.98900 44.86900
H  48.63900 23.26300 44.70700
H  50.35900 23.62500 45.31000
H  50.99700 23.74100 40.61300
H  51.06100 25.37200 40.56800
H  48.55800 25.67500 40.63300
H  48.47100 24.02800 41.23100
H  53.52200 17.88700 44.47700
H  53.66100 17.75100 42.62500
H  52.40200 18.62400 43.32100
H  58.60300 17.81900 43.45300
H  58.39000 19.15200 44.50300
H  58.44300 19.44100 42.71100
H  59.59400 23.41700 43.53800
H  58.97700 25.01200 46.04500
H  59.39100 22.21600 46.28900
H  60.53000 23.40300 46.05700
H  60.67200 22.07500 44.96800
H  59.33800 26.91200 43.89300
H  60.22700 25.50200 43.41200
H  61.97800 26.24100 44.66800
H  61.13100 25.73300 46.02900
H  60.89600 27.43100 45.62200
H  55.30300 30.19800 44.26000
H  56.19400 29.30000 45.66600
H  54.63200 29.92200 45.87900
H  50.44400 27.37800 43.91400
H  49.93300 29.58000 40.33700
H  48.25000 29.25200 40.69200
H  49.20600 28.18900 39.70100

