158

Mg 7.94900 3.57900 27.27500
C  9.37500 2.04300 30.17100
C  5.67000 5.16000 29.29700
C  6.75600 4.82300 24.55500
C  9.94800 1.40500 25.37200
N  7.50800 3.56000 29.53700
C  8.25400 2.95400 30.49200
C  7.72100 3.21400 31.90800
C  6.51500 4.16700 31.56300
C  6.61500 4.40300 30.08500
C  5.10000 3.68400 32.01500
C  8.78300 3.88500 32.83700
C  8.25100 4.44500 34.17600
H  9.22200 4.36100 35.38300
N  6.47400 4.88200 27.04400
C  5.59600 5.37800 27.96000
C  4.66000 6.22500 27.25500
C  4.95900 6.09200 25.86200
C  6.12600 5.26100 25.74200
C  3.52200 6.98100 27.94900
C  4.43600 6.74700 24.74100
O  4.48500 6.39400 23.56100
C  3.73800 8.13700 24.90900
N  8.32300 3.22400 25.26900
C  7.66300 3.87900 24.30200
C  7.95600 3.37100 22.82600
C  9.14500 2.34000 23.16900
C  9.10200 2.25000 24.69800
C  6.75900 2.93600 21.96000
C  10.53000 2.62000 22.54400
C  11.56200 3.44200 23.44100
N  9.45500 2.12700 27.64000
C  10.15600 1.32700 26.73500
C  10.99500 0.34000 27.43800
C  10.68400 0.68800 28.77000
C  9.75900 1.73100 28.82500
C  11.72500 -0.79200 26.90400
C  11.05400 0.29600 30.09600
O  11.78800 -0.58300 30.46700
C  10.23000 1.22000 31.04100
C  9.44100 0.33400 31.93300
O  8.73500 -0.66800 31.59800
O  9.66400 0.68400 33.16600
C  8.58400 0.25800 34.07100
H  4.93000 5.72300 29.86900
H  6.38600 5.10500 23.56700
H  10.60900 0.76100 24.78800
H  7.55300 2.32200 32.51100
H  6.60400 5.17400 31.97000
H  4.55300 4.45700 32.55400
H  5.19200 2.76800 32.59900
H  4.45000 3.58200 31.14500
H  9.24800 4.65100 32.21600
H  9.52600 3.19700 33.24100
H  7.39200 3.79300 34.33400
H  7.93900 5.48000 34.03800
H  3.98500 7.81200 28.48000
H  3.17200 6.26500 28.69200
H  2.67800 7.29400 27.33400
H  2.75000 7.93200 25.32000
H  3.72900 8.61500 23.92900
H  4.38300 8.65200 25.62000
H  8.22700 4.28600 22.30000
H  8.80700 1.44200 22.65200
H  6.00500 2.34000 22.47400
H  7.12000 2.41900 21.07200
H  6.26100 3.83000 21.58300
H  10.40000 3.09300 21.57100
H  10.97300 1.68400 22.20400
H  11.13700 4.01600 24.26500
H  11.87000 4.33600 22.89900
H  12.41200 2.83300 23.74900
H  11.88000 -0.76900 25.82500
H  11.34300 -1.76300 27.22000
H  12.74500 -0.67700 27.27100
H  11.00000 1.77900 31.57300
H  8.77900 -0.68700 34.57700
H  7.56500 0.21000 33.68600
H  8.56000 0.89100 34.95800
Mg 40.61200 9.62400 29.20300
C  42.36000 10.76500 31.79900
C  38.37000 8.07300 31.42700
C  38.72700 8.43800 26.56700
C  42.80200 10.93400 26.97000
N  40.45500 9.39400 31.39900
C  41.15400 10.22300 32.28200
C  40.69600 10.16600 33.71700
C  39.54100 9.08100 33.54000
C  39.49200 8.74000 32.03100
C  39.70400 7.72400 34.36100
C  40.14100 11.55200 34.09200
C  39.59100 11.75700 35.43600
H  40.27100 12.48800 36.53600
N  38.85500 8.33300 29.03500
C  38.12000 7.83200 30.07800
C  37.02500 6.97100 29.55500
C  37.03900 7.16300 28.14400
C  38.18100 8.01000 27.83400
C  35.92500 6.32100 30.42300
C  36.18000 6.60100 27.04300
O  36.29300 6.89200 25.87200
C  34.96600 5.80500 27.37200
N  40.64000 9.79500 27.06700
C  39.85400 9.13900 26.16600
C  40.33300 9.32000 24.66700
C  41.60300 10.20500 24.89800
C  41.65300 10.40800 26.40800
C  40.45900 8.06100 23.76700
C  41.59700 11.58500 24.11900
C  40.85900 12.82000 24.76500
N  42.22900 10.57500 29.27200
C  43.08900 11.06500 28.33800
C  44.27100 11.63100 28.97000
C  43.95900 11.58700 30.36000
C  42.80000 10.83700 30.47600
C  45.46800 12.19800 28.32200
C  44.43700 11.92300 31.68200
O  45.51600 12.36500 31.88200
C  43.31800 11.55900 32.63000
C  43.97100 10.89600 33.83900
O  44.34400 9.71000 33.87300
O  44.02000 11.70000 34.95900
C  44.54000 11.20900 36.21800
H  37.71500 7.58800 32.15400
H  38.33300 7.89300 25.70700
H  43.64300 11.21600 26.33200
H  41.41400 9.94100 34.50600
H  38.53600 9.41900 33.79400
H  39.58600 6.84200 33.73200
H  39.08200 7.73000 35.25600
H  40.71600 7.69000 34.76500
H  39.38000 11.94800 33.42000
H  40.94600 12.23700 33.82500
H  39.49400 10.73500 35.80200
H  38.57200 12.13300 35.34700
H  36.35900 5.37700 30.75000
H  34.92700 6.19300 30.00200
H  35.87800 6.96100 31.30400
H  35.26500 5.08600 28.13500
H  34.75100 5.31900 26.42000
H  34.07800 6.39100 27.60900
H  39.62000 9.99600 24.19600
H  42.52500 9.72600 24.56700
H  41.04500 7.38400 24.38800
H  41.23900 8.16200 23.01200
H  39.55000 7.55700 23.43700
H  41.19100 11.34800 23.13600
H  42.65500 11.75400 23.92000
H  40.58700 12.55500 25.78600
H  40.01400 13.25600 24.23100
H  41.61000 13.59800 24.90300
H  45.63900 13.11700 28.88200
H  45.15900 12.42400 27.30100
H  46.29800 11.49100 28.32100
H  42.84300 12.43300 33.07600
H  44.02600 10.26400 36.39200
H  44.23900 11.91100 36.99400
H  45.62900 11.16300 36.23300

