158

Mg 16.38000 -2.67000 28.01000
C  15.41800 -0.55500 30.57700
C  18.37800 -4.39300 30.02600
C  17.78800 -3.97800 25.21700
C  14.64800 -0.43000 25.79500
N  16.92800 -2.36500 29.98900
C  16.32900 -1.55400 30.92400
C  16.89200 -1.81800 32.36100
C  18.02300 -2.90900 32.11700
C  17.75100 -3.27700 30.64400
C  19.41500 -2.33000 32.27100
C  15.71400 -2.34100 33.25900
C  15.85300 -2.14800 34.80200
H  17.17300 -1.66400 35.39000
N  17.75100 -4.12300 27.68500
C  18.38800 -4.80100 28.68600
C  19.13600 -5.84400 28.03200
C  19.01000 -5.71400 26.63100
C  18.16400 -4.53400 26.47200
C  20.07100 -6.81900 28.83300
C  19.74300 -6.39900 25.49600
O  19.55900 -6.21600 24.30400
C  20.68200 -7.51600 25.84900
N  16.45100 -2.11400 25.73200
C  17.09000 -2.89400 24.82400
C  16.58600 -2.63000 23.40600
C  15.46200 -1.60800 23.68100
C  15.52900 -1.31900 25.16000
C  17.76900 -2.12600 22.50600
C  14.03900 -1.93800 23.17300
C  13.01100 -0.84500 22.88200
N  15.28600 -0.89300 28.10700
C  14.60500 -0.18700 27.16400
C  13.74800 0.83000 27.84600
C  14.15200 0.76100 29.17900
C  14.99300 -0.32100 29.26600
C  12.72500 1.77800 27.28500
C  13.96500 1.45400 30.49100
O  13.31900 2.47800 30.82000
C  14.82000 0.55700 31.50800
C  15.68700 1.49900 32.13600
O  16.65800 2.09500 31.62200
O  15.19800 1.69100 33.44000
C  15.88400 2.74700 34.11400
H  19.08600 -4.97400 30.62100
H  18.15200 -4.49500 24.32600
H  14.04900 0.26200 25.19800
H  17.32000 -0.85800 32.65000
H  17.83400 -3.75700 32.77600
H  19.92000 -2.98900 32.97700
H  19.34500 -1.32400 32.68500
H  19.78800 -2.27700 31.24800
H  15.69400 -3.42800 33.18000
H  14.80100 -1.87800 32.88500
H  15.49400 -3.05400 35.29100
H  15.16000 -1.35700 35.09000
H  19.98900 -6.71400 29.91500
H  21.12400 -6.70800 28.57700
H  19.73400 -7.83800 28.64200
H  21.47000 -6.87800 26.25000
H  21.00000 -7.97800 24.91400
H  20.38900 -8.34200 26.49800
H  16.21300 -3.56400 22.98700
H  15.72400 -0.60400 23.34500
H  17.76200 -1.06000 22.27800
H  17.80600 -2.72300 21.59500
H  18.66900 -2.23000 23.11200
H  13.52800 -2.56300 23.90400
H  14.13000 -2.49700 22.24100
H  12.24300 -1.07800 23.62000
H  12.69300 -0.73300 21.84500
H  13.40400 0.13100 23.16800
H  13.20900 2.11000 26.36600
H  12.54100 2.63600 27.93100
H  11.76200 1.31900 27.06100
H  14.13100 0.14000 32.24200
H  15.69300 3.77900 33.82200
H  16.94200 2.50200 34.02800
H  15.72100 2.73600 35.19200
Mg 1.61300 41.91100 26.13900
C  3.22200 42.10900 29.33200
C  -1.20800 40.91400 27.75400
C  0.55300 40.94100 23.27200
C  4.89400 42.35500 24.65900
N  1.06600 41.60500 28.33900
C  1.80800 41.98200 29.46400
C  0.96100 41.91000 30.71500
C  -0.48400 41.64300 30.12600
C  -0.21900 41.34200 28.62300
C  -1.41600 40.65500 30.92700
C  1.22900 43.14600 31.62000
C  0.16800 43.68000 32.64700
H  -0.31000 42.62200 33.70700
N  -0.13200 41.02500 25.59400
C  -1.19900 40.74500 26.37500
C  -2.27700 40.25600 25.48600
C  -1.85300 40.27700 24.13400
C  -0.40100 40.78000 24.27100
C  -3.57500 39.81200 26.04800
C  -2.55300 40.00800 22.86600
O  -1.93700 40.10000 21.78600
C  -4.02300 39.56800 22.92400
N  2.59600 41.65300 24.20700
C  1.79900 41.41400 23.23200
C  2.67900 41.23100 21.89000
C  3.94900 42.08500 22.25800
C  3.79100 42.06000 23.82700
C  2.98200 39.79000 21.56600
C  3.91900 43.46100 21.59500
C  2.65000 44.32100 21.94600
N  3.59600 42.24600 26.77400
C  4.81700 42.30400 26.09500
C  5.92700 42.39000 27.07000
C  5.33000 42.21300 28.34700
C  3.94400 42.18300 28.08500
C  7.38800 42.71600 26.78400
C  5.56200 42.15000 29.75000
O  6.66000 42.02900 30.35400
C  4.16400 42.19300 30.48500
C  4.07300 41.02600 31.45700
O  4.01300 39.84500 31.03600
O  4.07600 41.41700 32.73900
C  4.35200 40.35000 33.68800
H  -2.14700 40.70400 28.27000
H  0.29900 40.41800 22.34700
H  5.79900 42.73400 24.18100
H  1.19700 40.96800 31.21000
H  -0.96800 42.61800 30.17000
H  -0.96100 40.28900 31.84700
H  -1.65400 39.78800 30.31100
H  -2.33700 41.18000 31.18000
H  1.50100 44.01300 31.01800
H  2.07300 42.88300 32.25800
H  -0.74800 44.18000 32.33000
H  0.72800 44.35600 33.29300
H  -3.73000 38.77900 25.73700
H  -4.47300 40.31500 25.68900
H  -3.56000 39.81700 27.13800
H  -4.25800 39.48700 21.86200
H  -4.69300 40.32200 23.33400
H  -4.23800 38.64700 23.46500
H  2.08500 41.67600 21.09100
H  4.82700 41.56700 21.87400
H  3.96900 39.56400 21.16300
H  2.27100 39.53800 20.77900
H  2.71500 39.19600 22.44100
H  3.89000 43.25100 20.52600
H  4.80600 43.98600 21.94800
H  1.75700 43.71200 22.08300
H  2.44600 44.93200 21.06600
H  2.91800 44.94600 22.79800
H  7.61500 43.68300 27.23100
H  7.57700 42.74500 25.71000
H  8.12100 42.01200 27.17700
H  4.12300 43.13200 31.03700
H  5.37400 39.99000 33.80500
H  3.63400 39.57500 33.41800
H  4.08900 40.63600 34.70700

