158

Mg 6.91600 56.55600 41.62700
C  5.95400 53.11700 41.49400
C  10.02600 55.66200 40.46000
C  7.37700 59.67200 41.10400
C  3.46600 57.31700 42.65800
N  7.85700 54.54800 41.09900
C  7.23000 53.30300 41.01000
C  8.28700 52.30100 40.42300
C  9.66400 53.06400 40.64900
C  9.17100 54.54400 40.77600
C  10.57300 52.68900 41.93600
C  7.84200 51.86700 38.98800
C  8.57900 50.71700 38.38100
H  8.59400 50.65400 36.87300
N  8.55800 57.56900 41.00800
C  9.72900 57.04200 40.50700
C  10.55700 58.15500 40.21700
C  9.81500 59.38100 40.34100
C  8.51200 58.90100 40.83200
C  11.95700 57.91500 39.78700
C  10.30000 60.73300 39.98800
O  11.42800 60.85700 39.44500
C  9.49800 62.00600 40.10600
N  5.48300 58.22500 41.68000
C  6.09900 59.44800 41.52600
C  5.20100 60.56100 42.10100
C  3.87400 59.83300 42.44900
C  4.31700 58.35900 42.26300
C  5.78600 61.35200 43.25000
C  2.71300 60.27900 41.57500
C  1.48200 60.95600 42.32800
N  5.07600 55.54300 41.92100
C  3.81800 55.96000 42.39000
C  3.04100 54.78100 42.76400
C  3.84500 53.70400 42.41500
C  5.01500 54.20900 41.85000
C  1.75700 54.71000 43.43700
C  3.92100 52.25000 42.52900
O  3.18500 51.42500 43.02400
C  5.29200 51.83800 41.89200
C  5.05700 50.85600 40.79500
O  4.35900 51.11000 39.81500
O  5.66100 49.66900 41.05300
C  5.50300 48.81700 39.87300
H  11.06800 55.40700 40.25900
H  7.55600 60.71000 40.81600
H  2.50300 57.71800 42.98000
H  8.35700 51.42200 41.06400
H  10.22600 52.92500 39.72500
H  10.01800 51.86000 42.37400
H  10.54700 53.48800 42.67600
H  11.59500 52.61600 41.56500
H  7.88400 52.71700 38.30600
H  6.83900 51.44700 39.06400
H  8.25300 49.78600 38.84400
H  9.58500 50.98500 38.70400
H  12.39700 57.22500 40.50800
H  12.64700 58.75600 39.85900
H  11.85800 57.52600 38.77400
H  9.14700 62.14200 41.12900
H  8.65500 62.08100 39.41900
H  10.19100 62.78300 39.78200
H  5.01800 61.28100 41.30300
H  3.56400 59.99000 43.48300
H  6.71400 60.82600 43.47500
H  5.29500 61.20900 44.21300
H  5.84500 62.42000 43.03900
H  2.31200 59.47700 40.95400
H  3.02400 61.12300 40.96000
H  0.49700 60.91500 41.86400
H  1.88200 61.96500 42.43200
H  1.38700 60.56400 43.34100
H  0.94100 55.09500 42.82500
H  1.86100 55.34500 44.31700
H  1.58500 53.70800 43.83100
H  5.77200 51.30400 42.71100
H  4.45500 48.55500 39.73000
H  6.06300 47.93600 40.18800
H  5.89400 49.28700 38.97000
Mg -9.69100 17.56600 42.58300
C  -6.39700 16.71800 42.02300
C  -8.89900 20.71600 41.46400
C  -13.06400 18.14600 42.30700
C  -10.49900 14.21000 43.07500
N  -7.84900 18.61200 41.90500
C  -6.58400 18.09100 41.81500
C  -5.48100 19.04200 41.39200
C  -6.31400 20.31900 41.16100
C  -7.79100 19.86600 41.51600
C  -5.82100 21.64000 42.01300
C  -4.63400 18.72800 40.14400
C  -5.41300 17.90500 38.99900
H  -5.40200 18.60300 37.62400
N  -10.80800 19.21000 42.21500
C  -10.30000 20.41600 41.73400
C  -11.41900 21.38000 41.61100
C  -12.61900 20.62600 41.89500
C  -12.19500 19.26900 42.14600
C  -11.24700 22.80800 41.16500
C  -13.95300 21.29400 41.96300
O  -14.18800 22.34700 41.36700
C  -15.13400 20.59900 42.63400
N  -11.54300 16.33500 42.61700
C  -12.75500 16.87100 42.66000
C  -13.81500 15.90000 43.15400
C  -12.99600 14.60900 43.48300
C  -11.54700 15.11000 43.01400
C  -14.63200 16.44400 44.41000
C  -13.43400 13.39000 42.61900
C  -13.84000 12.20100 43.48200
N  -8.69600 15.80400 42.68800
C  -9.10600 14.50500 42.88300
C  -7.96900 13.61100 42.94300
C  -6.89200 14.47700 42.61200
C  -7.37400 15.73700 42.38400
C  -7.88900 12.13700 43.40100
C  -5.46400 14.52100 42.42100
O  -4.75400 13.60200 42.51200
C  -5.03300 16.01300 41.99500
C  -4.19800 16.42600 43.16100
O  -3.01200 16.84300 43.11600
O  -4.91800 16.31600 44.30900
C  -4.33100 16.51100 45.59700
H  -8.69100 21.70000 41.03900
H  -14.14100 18.32100 42.34800
H  -10.72400 13.15800 43.26300
H  -4.83100 19.11400 42.26400
H  -6.44200 20.60100 40.11600
H  -5.54200 22.40100 41.28500
H  -4.94900 21.39500 42.61800
H  -6.55300 22.09400 42.68200
H  -3.78700 18.21100 40.59300
H  -4.30000 19.69100 39.75700
H  -6.43800 17.71200 39.31600
H  -4.99600 16.91500 38.81600
H  -10.33400 23.34600 41.42300
H  -11.97400 23.50400 41.58400
H  -11.33900 22.83400 40.07900
H  -14.83000 20.03600 43.51600
H  -15.62700 19.87300 41.98800
H  -15.92000 21.33400 42.80800
H  -14.45000 15.81700 42.27200
H  -13.02600 14.42500 44.55700
H  -15.71600 16.36900 44.32200
H  -14.43500 17.48400 44.66800
H  -14.35600 15.77600 45.22600
H  -12.57100 13.14600 42.00000
H  -14.29800 13.61900 41.99600
H  -14.92800 12.22500 43.54500
H  -13.40000 12.32100 44.47200
H  -13.59200 11.23000 43.05300
H  -7.16600 11.66400 42.73700
H  -8.87100 11.66400 43.36400
H  -7.60300 12.11700 44.45300
H  -4.47200 15.94200 41.06300
H  -4.93700 15.95500 46.31200
H  -4.31000 17.57600 45.82600
H  -3.28900 16.19000 45.62100

