158

Mg 48.32500 35.38300 27.16400
C  46.34900 33.73200 29.72100
C  48.70800 37.86800 29.60300
C  49.98600 37.07200 24.82700
C  47.75000 32.74200 25.03700
N  47.61800 35.71400 29.42300
C  46.97100 34.85600 30.22600
C  47.04200 35.36100 31.69900
C  47.35100 36.83400 31.55900
C  47.99100 36.82200 30.13400
C  46.27700 37.88300 31.70900
C  48.21700 34.60700 32.47300
C  48.14200 34.61000 33.96900
H  47.22000 35.61900 34.73900
N  49.32200 37.17900 27.18400
C  49.36600 38.04000 28.34100
C  50.26400 39.19400 27.98400
C  50.60200 39.01800 26.58600
C  49.92800 37.75200 26.10500
C  50.57000 40.28900 28.96400
C  51.48700 39.83200 25.62400
O  51.72500 39.67200 24.44100
C  52.07600 41.13600 26.24000
N  48.70100 35.01900 25.22700
C  49.47900 35.85700 24.47100
C  49.74100 35.23600 23.06700
C  49.15100 33.82700 23.13000
C  48.48800 33.84200 24.57900
C  49.30300 36.15300 21.92100
C  50.19900 32.57500 22.91200
C  50.05200 31.93600 21.54200
N  47.31400 33.59500 27.33000
C  47.23400 32.59500 26.36100
C  46.45000 31.51200 26.89100
C  46.02600 31.89700 28.24300
C  46.58300 33.20700 28.45700
C  46.22700 30.18400 26.20400
C  45.22900 31.58400 29.39000
O  44.56600 30.55400 29.70300
C  45.34400 32.81000 30.37000
C  45.53700 32.48900 31.78700
O  46.53200 32.00000 32.26500
O  44.36500 32.66500 32.52100
C  44.40900 32.01600 33.83100
H  48.76000 38.74500 30.25200
H  50.48800 37.56800 23.99400
H  47.56600 31.87300 24.40200
H  46.12800 35.09200 32.22800
H  48.07100 37.25500 32.26100
H  45.33500 37.37800 31.92400
H  46.07800 38.54700 30.86700
H  46.42300 38.50800 32.59100
H  49.18600 35.06800 32.28100
H  48.37000 33.58700 32.12000
H  49.15900 34.65800 34.35600
H  47.75100 33.61300 34.17200
H  51.62700 40.54900 28.90900
H  50.28500 39.95000 29.96000
H  50.08400 41.25800 28.84800
H  52.52200 41.85000 25.54900
H  52.91100 40.80400 26.85700
H  51.26800 41.75400 26.63300
H  50.81400 35.16500 22.89000
H  48.29400 33.79400 22.45700
H  48.65300 35.68700 21.18000
H  50.14600 36.39400 21.27300
H  48.83300 37.02900 22.36800
H  50.01100 31.88600 23.73500
H  51.18700 33.02800 22.99300
H  49.80500 32.73200 20.84000
H  49.22200 31.23000 21.53500
H  50.91000 31.36300 21.18900
H  47.17200 29.82100 25.80100
H  45.56700 30.47200 25.38600
H  45.66300 29.42300 26.74500
H  44.38500 33.32900 30.36900
H  44.99900 31.10800 33.95400
H  43.45400 31.58200 34.12900
H  44.86300 32.73700 34.51000
Mg 36.15100 48.78200 25.06500
C  36.28200 46.65600 27.85100
C  34.76600 51.20700 27.14600
C  35.38200 50.56600 22.25200
C  37.10600 46.04400 22.99700
N  35.37000 48.84700 27.25900
C  35.72400 47.86700 28.19400
C  35.51300 48.51700 29.61200
C  34.75000 49.86300 29.38400
C  34.99400 50.04500 27.89800
C  33.25800 49.82700 29.92900
C  36.87600 48.53100 30.35400
C  36.81600 48.79700 31.86400
H  35.44000 48.82900 32.62900
N  35.24700 50.63100 24.73700
C  34.85600 51.54400 25.72700
C  34.64200 52.81300 25.07700
C  34.71100 52.57900 23.69800
C  35.03400 51.20200 23.50600
C  34.41100 54.01500 25.88900
C  34.31300 53.57500 22.65300
O  34.11600 53.22500 21.44500
C  33.91800 54.99800 22.91100
N  36.08000 48.26400 23.00000
C  35.85800 49.28800 22.01900
C  36.25800 48.76000 20.58500
C  37.10000 47.47400 20.92000
C  36.79900 47.29600 22.39100
C  35.11400 48.47600 19.61700
C  38.61200 47.75400 20.93000
C  39.36000 47.50400 19.62000
N  36.61500 46.75200 25.28200
C  37.00900 45.73200 24.42000
C  37.25800 44.55300 25.16600
C  37.05900 44.87500 26.50500
C  36.52400 46.18600 26.49600
C  37.68400 43.17000 24.61400
C  37.04600 44.32800 27.77500
O  37.32300 43.21100 28.21600
C  36.69900 45.52200 28.78300
C  35.65900 45.02100 29.78200
O  34.49900 44.70600 29.57900
O  36.22600 44.94900 30.95600
C  35.22500 44.77700 32.06800
H  34.41100 51.96900 27.84200
H  35.24600 51.22100 21.38900
H  37.59200 45.31000 22.35200
H  34.81600 47.88400 30.16000
H  35.38900 50.61600 29.84500
H  32.48300 49.95300 29.17300
H  33.18700 50.68300 30.60000
H  33.04600 48.93300 30.51500
H  37.43300 49.39900 30.00200
H  37.55400 47.68500 30.24100
H  37.34200 49.70500 32.15800
H  37.24500 47.86200 32.22500
H  33.64600 54.66700 25.46800
H  35.25400 54.69000 25.74200
H  34.24300 53.82700 26.94900
H  32.94200 55.21700 23.34300
H  34.04300 55.41400 21.91100
H  34.69300 55.54800 23.44500
H  36.84400 49.54700 20.11200
H  36.93000 46.56700 20.34100
H  35.10300 47.40100 19.44100
H  35.40900 48.86500 18.64200
H  34.10700 48.77900 19.90400
H  39.14200 47.28200 21.75700
H  38.72000 48.82200 21.11900
H  38.78500 47.05600 18.81000
H  40.24800 46.90700 19.82400
H  39.62700 48.47300 19.19600
H  37.21900 43.08000 23.63200
H  37.29200 42.33700 25.19800
H  38.76300 43.04200 24.52800
H  37.62700 45.83200 29.26400
H  35.63700 45.34500 32.90200
H  35.00800 43.73400 32.30000
H  34.22400 45.13900 31.83200

