158

Mg 46.93900 34.74800 27.73200
C  45.47200 33.11000 30.48600
C  46.94500 37.50400 29.72400
C  47.83300 36.34100 25.12000
C  46.31200 31.79900 25.81100
N  46.28800 35.21400 29.94500
C  45.86300 34.36900 30.89200
C  45.97700 34.96800 32.27500
C  46.03000 36.46000 31.90700
C  46.41800 36.44300 30.41600
C  44.78900 37.35600 32.16600
C  47.22000 34.52600 33.04300
C  46.98600 34.39800 34.61300
H  45.87800 35.11900 35.36600
N  47.50600 36.57100 27.50100
C  47.54000 37.59200 28.44200
C  48.23700 38.74900 27.86400
C  48.41000 38.42200 26.48000
C  47.91200 37.09200 26.30300
C  48.61600 40.05300 28.63900
C  49.03400 39.33100 25.45900
O  49.15300 39.00300 24.28600
C  49.55900 40.74500 25.83600
N  47.09800 34.11400 25.75200
C  47.49900 35.01000 24.81700
C  47.58900 34.33600 23.44300
C  47.31400 32.83000 23.76300
C  46.92200 32.87000 25.19500
C  46.78800 35.06300 22.35300
C  48.36900 31.64400 23.55300
C  47.78000 30.35000 23.00300
N  46.14600 32.78100 28.02100
C  45.92900 31.70500 27.17600
C  45.31000 30.59000 27.85500
C  45.06300 31.12600 29.14900
C  45.66400 32.41100 29.22700
C  45.14200 29.18100 27.31700
C  44.48900 30.90300 30.47500
O  43.81100 29.98500 30.81200
C  44.55400 32.17100 31.30300
C  44.92200 31.71700 32.75800
O  46.00000 31.25500 33.10100
O  43.67200 31.54200 33.42300
C  43.87900 30.88400 34.69800
H  46.85800 38.43400 30.29000
H  48.08600 36.88200 24.20500
H  46.05600 30.94700 25.17900
H  45.08100 34.76300 32.86100
H  46.82400 36.89900 32.51100
H  44.68000 38.08500 31.36400
H  44.86600 37.85100 33.13400
H  43.86300 36.78200 32.21000
H  48.06400 35.18700 32.84700
H  47.44800 33.50500 32.74000
H  47.88200 34.53900 35.21700
H  46.84600 33.32400 34.73300
H  47.94000 40.89600 28.49800
H  49.62300 40.42200 28.44400
H  48.52300 39.90200 29.71500
H  50.35600 40.79400 26.57800
H  48.72600 41.40400 26.08400
H  49.97400 41.23200 24.95400
H  48.62100 34.44400 23.10900
H  46.44100 32.45200 23.23000
H  46.21000 35.87200 22.79800
H  46.17600 34.40900 21.73200
H  47.40400 35.53700 21.58900
H  48.86500 31.30100 24.46100
H  49.13600 32.08000 22.91300
H  48.36400 30.18900 22.09700
H  46.70100 30.26000 22.88500
H  47.92600 29.57300 23.75400
H  45.30000 28.40000 28.06000
H  45.88400 29.01400 26.53600
H  44.16100 28.95300 26.90000
H  43.52700 32.53500 31.31500
H  42.89800 30.82900 35.16800
H  44.51500 31.50500 35.32900
H  44.37800 29.92500 34.83500
Mg 6.64100 57.17200 41.87800
C  5.75600 53.65700 41.65800
C  9.53600 56.50000 40.48400
C  7.05400 60.51100 41.65000
C  3.60000 57.68600 43.55800
N  7.42900 55.22900 41.02800
C  6.92100 53.99000 40.96900
C  8.06600 53.05600 40.46900
C  9.35400 54.02200 40.40100
C  8.75100 55.36300 40.74100
C  10.54600 53.66500 41.27600
C  7.83200 52.29700 39.02300
C  8.54000 50.93600 38.93700
H  8.03600 49.84500 37.92900
N  8.09600 58.40300 41.02500
C  9.22800 57.91200 40.54200
C  10.08600 59.02300 40.19700
C  9.35500 60.25500 40.45500
C  8.10500 59.74400 41.07800
C  11.51000 58.98400 39.51000
C  9.76600 61.67300 39.98200
O  10.87900 61.80700 39.50100
C  8.81800 62.84400 39.97000
N  5.47300 58.90500 42.27700
C  5.78400 60.19500 42.18500
C  4.77700 61.15000 42.77400
C  3.65800 60.22400 43.27200
C  4.23200 58.83000 43.04700
C  5.39000 62.08500 43.86800
C  2.23300 60.44000 42.71200
C  1.16900 60.72600 43.78600
N  5.00600 55.96400 42.55700
C  3.86600 56.26900 43.30600
C  3.12500 55.15900 43.70300
C  3.79000 54.09300 43.04000
C  4.93500 54.61100 42.37900
C  1.91800 55.10000 44.60000
C  3.81300 52.69100 42.74400
O  2.94700 51.83900 42.96100
C  5.17500 52.35400 42.06500
C  4.93100 51.37900 40.98100
O  4.36300 51.61400 39.94600
O  5.37500 50.20700 41.44500
C  5.21200 49.10700 40.52400
H  10.54000 56.21100 40.16700
H  7.16900 61.59300 41.56300
H  2.75700 57.91400 44.21400
H  8.21900 52.31100 41.25000
H  9.70300 54.11800 39.37300
H  10.44500 52.74100 41.84600
H  10.67800 54.50100 41.96400
H  11.39700 53.43500 40.63500
H  8.19500 52.93500 38.21700
H  6.83100 52.21200 38.60000
H  8.60200 50.65200 39.98700
H  9.59600 51.03500 38.68400
H  11.42400 59.41700 38.51400
H  11.88200 57.96200 39.43200
H  12.22600 59.54800 40.10700
H  7.87200 62.65800 39.46100
H  9.20900 63.64900 39.34700
H  8.50500 63.21100 40.94800
H  4.35300 61.77900 41.99100
H  3.54500 60.35000 44.34900
H  4.87800 61.89500 44.81100
H  5.16200 63.07600 43.47500
H  6.47100 62.01400 43.98900
H  1.99500 59.49000 42.23400
H  2.24500 61.25600 41.98900
H  0.22600 60.42000 43.33400
H  0.99400 61.78800 43.95600
H  1.38100 60.19100 44.71200
H  2.14800 54.44900 45.44300
H  1.13400 54.53400 44.09600
H  1.59500 56.09600 44.90300
H  5.76400 51.98100 42.90400
H  4.22000 48.72100 40.75400
H  5.97800 48.37000 40.76300
H  5.19800 49.27600 39.44700

