158

Mg 24.11900 -6.27600 46.52500
C  26.54700 -3.74000 45.69200
C  21.73700 -4.47200 44.79400
C  22.04500 -8.82600 46.90700
C  26.81900 -8.17300 47.90100
N  24.20700 -4.38000 45.31800
C  25.22900 -3.45200 45.18400
C  24.79200 -2.24700 44.31700
C  23.19300 -2.49500 44.29100
C  23.03400 -3.87300 44.92400
C  22.42000 -1.36700 44.95200
C  25.46900 -2.33100 42.88800
C  26.29900 -1.08400 42.53200
H  26.45700 -0.75300 41.07600
N  22.14200 -6.71100 45.86400
C  21.33700 -5.81100 45.12500
C  20.05500 -6.37100 45.02800
C  20.08700 -7.62800 45.66400
C  21.44500 -7.79700 46.19200
C  18.98300 -5.51700 44.36600
C  18.80900 -8.59300 45.82300
O  17.76900 -8.27700 45.17100
C  18.76500 -9.92500 46.64400
N  24.33400 -8.11400 47.27000
C  23.33200 -9.06800 47.35300
C  23.83200 -10.41400 47.86400
C  25.31200 -10.13400 48.27500
C  25.51300 -8.67800 47.86300
C  22.96700 -11.22700 48.88600
C  26.34800 -11.28000 47.87000
C  27.40700 -11.56600 48.98700
N  26.27300 -6.09100 46.75200
C  27.20000 -6.86700 47.39300
C  28.46000 -6.18800 47.54000
C  28.20300 -4.93000 46.84900
C  26.87400 -4.95600 46.36400
C  29.56600 -6.50800 48.40800
C  28.77400 -3.55700 46.53900
O  29.92000 -3.15200 46.79400
C  27.73400 -2.78700 45.68600
C  27.50800 -1.46700 46.22000
O  26.79500 -1.21800 47.18200
O  28.08700 -0.41100 45.61100
C  27.41900 0.92400 45.77800
H  21.04900 -3.74200 44.36400
H  21.35600 -9.60900 47.23200
H  27.64100 -8.81100 48.23400
H  25.10000 -1.34400 44.84400
H  22.80900 -2.53300 43.27100
H  23.15000 -0.71800 45.43800
H  21.65800 -1.66800 45.67100
H  22.00700 -0.68900 44.20600
H  24.63000 -2.27400 42.19500
H  26.01100 -3.24400 42.64300
H  27.28800 -1.41200 42.85200
H  26.00900 -0.16100 43.03400
H  19.40900 -5.04100 43.48200
H  18.53400 -4.74500 44.99000
H  18.24200 -6.20500 43.95900
H  17.72200 -10.23600 46.58700
H  19.04400 -9.58500 47.64100
H  19.51600 -10.56600 46.18100
H  23.75900 -11.03600 46.97200
H  25.27000 -10.13600 49.36400
H  23.50500 -11.15400 49.83100
H  22.76000 -12.26000 48.60800
H  21.95600 -10.82400 48.95500
H  26.76100 -10.92100 46.92700
H  25.79500 -12.20300 47.69400
H  28.46000 -11.64300 48.71900
H  27.30100 -12.56400 49.41200
H  27.27500 -10.89500 49.83600
H  29.36500 -6.17900 49.42800
H  30.45700 -5.95900 48.10100
H  29.82600 -7.56600 48.43400
H  28.15300 -2.68600 44.68400
H  28.11100 1.60900 46.26800
H  26.43400 0.97800 46.24200
H  27.15400 1.30900 44.79400
Mg 7.02900 53.33200 41.18300
C  5.82000 50.04100 40.97100
C  10.09200 52.18500 40.24300
C  7.97600 56.57100 40.46700
C  3.82100 54.48500 41.82600
N  7.78600 51.32800 40.54500
C  7.16000 50.13500 40.65400
C  8.15100 48.91900 40.62400
C  9.57100 49.70900 40.62700
C  9.10000 51.19300 40.48300
C  10.50000 49.55500 41.84100
C  8.02900 47.87000 39.53200
C  8.50800 48.22200 38.09800
H  7.63700 47.65700 36.93400
N  8.82400 54.24700 40.36900
C  10.00500 53.57900 40.10400
C  11.02400 54.54400 39.83100
C  10.41400 55.85500 39.82100
C  8.98600 55.60000 40.23700
C  12.46200 54.15600 39.56400
C  11.13700 57.18400 39.39600
O  12.33300 57.19800 39.00300
C  10.34400 58.40900 39.17300
N  6.06900 55.27300 41.21200
C  6.67800 56.43800 40.87900
C  5.83600 57.68500 41.30000
C  4.49700 56.98100 41.72700
C  4.76800 55.49100 41.53300
C  6.42600 58.64100 42.28300
C  3.16300 57.51700 41.00200
C  2.81300 59.03100 41.10100
N  5.17200 52.50100 41.37400
C  3.91300 53.08800 41.57200
C  2.91600 52.11500 41.55000
C  3.63200 50.90300 41.37400
C  4.99600 51.18600 41.25300
C  1.38100 52.24600 41.82500
C  3.43500 49.48700 41.30500
O  2.43000 48.81900 41.38200
C  4.87100 48.82800 40.99800
C  4.72300 47.93000 39.70700
O  4.57800 48.34200 38.55600
O  4.69800 46.58300 40.00900
C  4.82100 45.64000 38.86100
H  11.10500 51.83000 40.03700
H  8.36400 57.58200 40.32700
H  2.82600 54.74400 42.19400
H  8.06900 48.42900 41.59500
H  10.10100 49.48900 39.70100
H  10.44000 50.46500 42.43700
H  11.51000 49.39400 41.46300
H  10.36200 48.66000 42.44800
H  7.11500 47.28600 39.62900
H  8.67700 47.04100 39.81800
H  9.54700 47.99700 37.85600
H  8.41400 49.30000 37.96700
H  12.55300 53.19800 39.05300
H  13.03200 53.99200 40.47900
H  13.04100 54.88000 38.99100
H  9.48600 58.09900 38.57500
H  10.86100 59.10700 38.51500
H  10.14000 58.94600 40.09900
H  5.77900 58.30700 40.40700
H  4.52600 57.22400 42.79000
H  7.34500 58.19900 42.66800
H  5.73000 58.79700 43.10600
H  6.76800 59.51600 41.73000
H  2.29300 56.90200 41.23300
H  3.35500 57.25300 39.96200
H  3.60500 59.46600 41.71100
H  1.85300 59.20300 41.58700
H  2.72300 59.45300 40.10000
H  0.79300 51.46600 41.34300
H  1.10400 53.23900 41.47300
H  1.23100 52.14400 42.90000
H  5.24100 48.17900 41.79200
H  5.37400 46.07800 38.03000
H  3.85800 45.19100 38.61700
H  5.42600 44.82600 39.26100

