158

Mg 36.83500 49.54100 23.98800
C  36.92900 47.98500 27.24700
C  35.30100 52.23000 25.45100
C  35.75100 50.51500 20.95100
C  37.89100 46.52500 22.71300
N  36.17400 49.99600 26.12300
C  36.53500 49.33400 27.24500
C  36.21100 50.11900 28.49700
C  35.44300 51.42100 27.91000
C  35.65200 51.24100 26.40500
C  33.89700 51.65500 28.30800
C  37.39500 50.38800 29.32500
C  37.21400 49.97800 30.83300
H  35.79400 49.72800 31.43200
N  35.89500 51.25500 23.28100
C  35.31600 52.19200 24.03200
C  34.85100 53.27600 23.15100
C  34.93900 52.79900 21.85400
C  35.52200 51.44600 22.00900
C  34.15100 54.60600 23.64700
C  34.54400 53.34800 20.49100
O  34.75900 52.76100 19.46000
C  33.82700 54.64500 20.36700
N  36.65700 48.54900 22.21300
C  36.40800 49.27800 21.01600
C  36.68800 48.44800 19.79000
C  37.63500 47.38500 20.32900
C  37.38100 47.46500 21.82500
C  35.35900 47.78600 19.11700
C  39.15500 47.61400 20.06900
C  40.00600 46.31400 20.14100
N  37.29000 47.55600 24.81200
C  37.79900 46.51400 24.11600
C  38.06900 45.43000 25.03100
C  37.81200 45.97300 26.33000
C  37.27900 47.27200 26.09500
C  38.69800 44.03200 24.74600
C  37.74400 45.71900 27.73500
O  38.14300 44.72000 28.35100
C  37.07000 47.00400 28.42100
C  35.73100 46.53200 28.90900
O  34.61500 46.57600 28.40500
O  35.96100 45.84200 30.07500
C  34.83000 45.03600 30.54400
H  34.83000 53.10600 25.90100
H  35.53600 50.59200 19.88400
H  38.46600 45.61800 22.51500
H  35.51200 49.44700 28.99400
H  35.93400 52.33200 28.25200
H  33.58600 51.03500 29.14900
H  33.19000 51.55400 27.48500
H  33.84000 52.63700 28.77700
H  37.65000 51.44100 29.20400
H  38.20100 49.78000 28.91500
H  37.70700 50.71000 31.47200
H  37.84700 49.12200 31.06500
H  33.07200 54.53100 23.51500
H  34.37600 55.54800 23.14700
H  34.27000 54.70900 24.72500
H  33.24000 54.67800 19.44900
H  34.46100 55.52900 20.42900
H  33.14700 54.69900 21.21700
H  37.23000 49.11500 19.12000
H  37.32500 46.42400 19.91800
H  34.63400 47.42600 19.84700
H  35.66200 46.90200 18.55600
H  34.82200 48.47500 18.46500
H  39.34500 48.34400 20.85600
H  39.26400 48.09100 19.09500
H  39.38000 45.44100 20.32400
H  40.66300 46.45500 20.99900
H  40.63700 46.13800 19.27000
H  37.86000 43.43600 24.38200
H  39.21400 43.58800 25.59700
H  39.44600 44.19400 23.97000
H  37.58700 47.37000 29.30900
H  34.37400 44.50500 29.70800
H  34.16600 45.72400 31.06600
H  35.36300 44.27600 31.11600
Mg 16.65300 51.82600 26.81400
C  18.84800 50.74600 29.32900
C  14.52700 52.87700 29.38900
C  14.65600 53.06300 24.57600
C  18.90300 50.75300 24.45200
N  16.65900 51.75000 29.12800
C  17.68200 51.30700 29.88600
C  17.40600 51.53000 31.32600
C  15.85800 51.92600 31.36200
C  15.59900 52.20100 29.86100
C  14.88600 50.90500 31.95400
C  18.35500 52.66500 31.86300
C  18.26100 53.04100 33.42600
H  17.38200 52.10100 34.30500
N  14.77400 52.71000 26.94600
C  14.19000 53.23100 28.08200
C  13.09600 54.03800 27.67300
C  13.07400 54.14800 26.26000
C  14.22200 53.29700 25.86100
C  12.13400 54.66600 28.71600
C  12.18800 54.86100 25.32300
O  12.29600 54.82400 24.10200
C  11.13100 55.78700 25.96000
N  16.75100 51.72000 24.82500
C  15.71800 52.30700 24.01000
C  15.88100 51.92600 22.49200
C  17.42800 51.64700 22.52300
C  17.69300 51.28400 23.98800
C  15.09100 50.65800 21.98200
C  18.23400 52.91500 21.93300
C  19.47500 52.58200 21.04700
N  18.52600 50.89600 26.75500
C  19.27600 50.48600 25.72400
C  20.52200 49.91500 26.17800
C  20.33700 49.92600 27.56600
C  19.11000 50.55500 27.90100
C  21.62500 49.45500 25.33600
C  20.98700 49.68900 28.86200
O  22.10500 49.23600 29.17800
C  20.00400 50.15000 30.00300
C  19.66300 48.93800 30.82600
O  19.14500 47.92800 30.37300
O  20.06300 49.09600 32.17200
C  19.59900 48.08700 33.15800
H  13.89300 53.20300 30.21600
H  13.97700 53.37700 23.78100
H  19.58800 50.45800 23.65400
H  17.48300 50.62900 31.93500
H  15.83900 52.91700 31.81500
H  14.21300 51.44000 32.62400
H  15.40900 50.07800 32.43400
H  14.28700 50.48300 31.14700
H  18.10900 53.55400 31.28200
H  19.39400 52.40600 31.66500
H  17.95500 54.07800 33.56200
H  19.31600 53.18900 33.65600
H  11.33500 53.95700 28.93500
H  11.75900 55.64900 28.43300
H  12.59100 54.77400 29.69900
H  11.57900 56.65200 26.45000
H  10.49500 55.20100 26.62400
H  10.48800 55.99600 25.10500
H  15.74200 52.68200 21.71900
H  17.76500 50.77000 21.96900
H  14.26000 50.45700 22.65800
H  15.64300 49.72100 22.04900
H  14.78600 50.82500 20.94800
H  18.57300 53.46100 22.81300
H  17.55700 53.67100 21.53500
H  19.24900 52.86600 20.01900
H  19.71300 51.51800 21.02800
H  20.35600 53.01900 21.51700
H  21.98300 50.14900 24.57600
H  21.41900 48.53600 24.78700
H  22.42400 49.18700 26.02700
H  20.64700 50.77000 30.62800
H  18.89400 47.34200 32.79000
H  19.01100 48.65600 33.87800
H  20.48300 47.62000 33.59100

