158

Mg 43.41800 3.58500 47.54500
C  41.24700 6.35300 47.20500
C  40.81600 1.47900 47.22400
C  45.73200 1.09600 47.43400
C  46.07900 5.94400 47.21000
N  41.36600 3.89400 47.14800
C  40.68100 5.09100 47.06200
C  39.18000 4.84300 46.76000
C  39.10600 3.31300 46.94900
C  40.50300 2.83600 47.16700
C  38.09400 2.75900 48.01300
C  38.75100 5.42300 45.40200
C  37.69100 6.45300 45.38500
H  37.92300 7.59700 44.35100
N  43.28800 1.56400 47.42200
C  42.08900 0.85300 47.34700
C  42.42700 -0.55500 47.18700
C  43.84200 -0.67400 47.29700
C  44.37200 0.73400 47.42200
C  41.39500 -1.59900 46.89600
C  44.67300 -1.94900 47.12400
O  44.07000 -3.01300 46.93100
C  46.18500 -2.13600 47.22100
N  45.52700 3.54100 47.28600
C  46.31000 2.40300 47.29800
C  47.75700 2.67800 47.43300
C  47.86200 4.19800 47.06500
C  46.41700 4.59000 47.22700
C  48.32900 2.23500 48.83500
C  48.48600 4.39200 45.67600
C  49.35900 5.59200 45.67400
N  43.63700 5.70200 47.19300
C  44.77500 6.47800 47.21300
C  44.40600 7.81400 47.28600
C  43.02100 7.83900 47.27600
C  42.61800 6.52200 47.20700
C  45.30000 9.01100 47.31100
C  41.83300 8.71300 47.41600
O  41.71700 9.89500 47.60400
C  40.60700 7.72100 47.21800
C  39.63900 7.91800 48.28300
O  39.67500 7.31900 49.36600
O  38.82500 9.02300 47.95600
C  37.76100 9.36700 48.93200
H  39.95100 0.87400 46.94400
H  46.51900 0.34300 47.52000
H  46.81100 6.73000 47.01400
H  38.56800 5.12200 47.61700
H  38.71500 2.91300 46.01400
H  37.65200 3.57500 48.58600
H  38.61300 2.07100 48.67900
H  37.25400 2.20800 47.59000
H  38.41500 4.62300 44.74200
H  39.63800 5.71400 44.83800
H  37.61100 6.94900 46.35300
H  36.77900 5.88800 45.19400
H  41.70200 -2.55100 47.33100
H  41.19400 -1.82000 45.84800
H  40.47700 -1.20400 47.33100
H  46.78500 -1.48300 46.58700
H  46.20900 -3.13800 46.79200
H  46.37400 -1.98500 48.28400
H  48.26900 2.02400 46.72700
H  48.42500 4.72700 47.83400
H  47.69300 1.58200 49.43300
H  48.51700 3.09600 49.47600
H  49.23600 1.65900 48.65300
H  47.64400 4.39400 44.98400
H  49.15800 3.53600 45.61100
H  50.39300 5.27500 45.54200
H  49.18500 6.37400 46.41400
H  49.12700 6.22300 44.81700
H  45.09700 9.56300 48.22800
H  45.17100 9.69700 46.47400
H  46.37000 8.80900 47.36600
H  40.16600 7.75200 46.22100
H  38.13700 9.28200 49.95200
H  36.82100 8.82900 48.81100
H  37.52800 10.42000 48.77400
Mg 1.61600 42.56000 25.86500
C  4.07100 42.41800 28.43700
C  -0.72900 41.74800 28.17000
C  -0.64400 42.72400 23.30400
C  4.20300 42.91500 23.52400
N  1.72600 41.90900 27.97100
C  2.76500 42.16900 28.87700
C  2.37600 41.90700 30.29900
C  0.88400 41.48500 30.15900
C  0.57900 41.68400 28.64700
C  0.43700 40.11400 30.76300
C  2.72700 43.11700 31.28500
C  1.70500 43.47300 32.36400
H  1.30800 42.30700 33.38100
N  -0.42100 42.32100 25.76100
C  -1.24400 41.96100 26.78100
C  -2.65800 42.03600 26.38400
C  -2.65200 42.35600 24.95100
C  -1.18300 42.43400 24.61100
C  -3.80300 41.83600 27.34900
C  -3.81200 42.50000 23.97900
O  -3.59400 42.80000 22.80800
C  -5.30200 42.55600 24.53500
N  1.75400 42.63400 23.67600
C  0.72000 42.76700 22.87300
C  1.15600 42.97800 21.41000
C  2.67300 43.27000 21.56200
C  2.91100 42.84000 22.99600
C  0.72300 41.86100 20.43700
C  3.06900 44.75700 21.14300
C  2.90600 45.81900 22.26600
N  3.71700 42.56400 25.92100
C  4.62600 42.72400 24.91600
C  5.99200 42.79200 25.44000
C  5.82000 42.71700 26.83600
C  4.41000 42.53200 27.09600
C  7.25900 43.06800 24.67200
C  6.49400 42.74500 28.07200
O  7.68400 42.99500 28.13000
C  5.41000 42.48300 29.11700
C  5.74200 41.32200 30.03300
O  5.64800 40.10900 29.70400
O  6.08100 41.83500 31.28700
C  6.34600 40.82200 32.26100
H  -1.55000 41.57100 28.86800
H  -1.31600 42.86900 22.45500
H  4.97400 43.13400 22.78200
H  2.94300 41.03800 30.63300
H  0.36900 42.26000 30.72800
H  -0.19400 39.56100 30.06800
H  -0.09700 40.41200 31.66600
H  1.29000 39.45700 30.93000
H  3.06000 44.04700 30.82300
H  3.64900 42.86600 31.80900
H  0.76300 43.81200 31.93300
H  2.22500 44.20700 32.98000
H  -4.58300 41.18200 26.95900
H  -4.14200 42.83400 27.62900
H  -3.49000 41.62000 28.37100
H  -5.54200 41.56800 24.92600
H  -5.96100 42.82900 23.71100
H  -5.38800 43.29300 25.33400
H  0.68600 43.88800 21.03600
H  3.15200 42.52400 20.92800
H  -0.23300 41.41500 20.70800
H  1.39500 41.00400 20.39300
H  0.74400 42.36700 19.47200
H  2.43400 45.08000 20.31800
H  4.07300 44.73100 20.71900
H  3.84300 46.37500 22.29500
H  2.66900 45.54200 23.29300
H  2.18400 46.53200 21.86900
H  6.98300 43.69400 23.82300
H  7.75400 42.14900 24.35800
H  8.01700 43.55500 25.28500
H  5.50300 43.37400 29.73900
H  5.59400 40.03400 32.22300
H  6.10000 41.29600 33.21100
H  7.39900 40.56300 32.37800

