158

Mg 23.43600 -6.36400 45.19300
C  25.72800 -4.15900 43.83800
C  20.94400 -4.84900 43.23700
C  21.38300 -9.14300 45.46800
C  25.99700 -7.97500 46.85900
N  23.33100 -4.45500 43.85700
C  24.47300 -3.81300 43.43500
C  24.07700 -2.79100 42.39000
C  22.47300 -2.84500 42.46400
C  22.25100 -4.15000 43.21500
C  21.85900 -1.67100 43.32900
C  24.63500 -3.26200 41.11100
C  25.48200 -2.23000 40.31200
H  25.08400 -1.94500 38.86500
N  21.46000 -6.91100 44.52400
C  20.64700 -6.14400 43.82000
C  19.32600 -6.78000 43.64900
C  19.56700 -8.10400 43.99900
C  20.86500 -8.15200 44.67200
C  18.17100 -6.08800 42.88800
C  18.51700 -9.19900 43.68300
O  17.31300 -8.92100 43.37800
C  18.82400 -10.62100 44.13300
N  23.69600 -8.28200 45.93200
C  22.64800 -9.17400 46.07300
C  23.15300 -10.43600 46.91200
C  24.58700 -9.99300 47.42000
C  24.79600 -8.69200 46.67500
C  22.32600 -10.82800 48.12000
C  25.74500 -11.01600 47.32500
C  26.62000 -11.26600 48.58600
N  25.48300 -6.06700 45.41000
C  26.38700 -6.80100 46.17900
C  27.73200 -6.29800 45.96700
C  27.50100 -5.27500 45.03700
C  26.15600 -5.18400 44.73000
C  29.03800 -6.83500 46.59900
C  28.14700 -4.17800 44.31400
O  29.32700 -3.90900 44.18200
C  26.97100 -3.45700 43.41400
C  27.05600 -2.01500 43.97000
O  26.63900 -1.55000 45.05000
O  27.85200 -1.27400 43.12800
C  27.94400 0.19300 43.36900
H  20.25200 -4.31300 42.58400
H  20.87000 -10.10600 45.51600
H  26.73900 -8.50100 47.46400
H  24.38900 -1.77100 42.61700
H  21.99400 -2.83000 41.48500
H  22.53800 -0.89200 43.67400
H  21.36600 -2.04100 44.22800
H  21.05600 -1.16700 42.79100
H  23.79700 -3.47300 40.44600
H  25.23400 -4.17000 41.18000
H  26.55000 -2.44900 40.28900
H  25.36900 -1.25300 40.78200
H  17.95100 -6.56600 41.93400
H  18.34100 -5.02700 42.70200
H  17.19400 -6.20800 43.35600
H  18.14500 -11.27900 43.59100
H  18.68600 -10.76400 45.20500
H  19.85400 -10.80000 43.82700
H  23.26700 -11.32600 46.29300
H  24.51500 -9.70000 48.46700
H  21.63000 -10.02400 48.36000
H  22.92800 -11.19000 48.95300
H  21.80500 -11.73300 47.80700
H  26.41100 -10.66400 46.53700
H  25.38600 -12.03100 47.15500
H  26.60300 -12.34900 48.71000
H  26.13200 -10.85800 49.47100
H  27.52700 -10.66400 48.53600
H  29.22300 -7.79400 46.11500
H  28.88300 -7.01000 47.66300
H  29.90800 -6.22400 46.35800
H  27.18900 -3.41500 42.34700
H  27.72500 0.37900 44.42100
H  27.29000 0.62000 42.60900
H  28.93100 0.63700 43.24700
Mg 48.53400 35.98900 28.79800
C  46.32600 34.55600 31.10900
C  48.89900 38.64500 30.86200
C  50.07900 37.65800 26.23700
C  47.71100 33.31400 26.58000
N  47.81200 36.44800 30.74200
C  47.06500 35.67100 31.56500
C  47.27900 36.06800 32.97600
C  47.49300 37.60000 32.70900
C  48.15900 37.59100 31.35600
C  46.22100 38.59700 32.90800
C  48.53900 35.37700 33.58800
C  48.68700 35.33200 35.07100
H  47.87800 36.13700 36.04100
N  49.45400 37.90200 28.61100
C  49.53700 38.77700 29.60000
C  50.27300 39.93800 29.12900
C  50.78900 39.52300 27.83600
C  50.08900 38.34100 27.47200
C  50.45400 41.22300 29.90200
C  51.83400 40.23700 26.98300
O  52.22000 39.86800 25.88200
C  52.51300 41.52100 27.51000
N  48.98100 35.43200 26.81400
C  49.48200 36.33800 25.92100
C  49.55100 35.89100 24.52300
C  49.00200 34.40500 24.60500
C  48.54300 34.33500 26.05600
C  48.71700 36.75100 23.47300
C  50.00800 33.17700 24.29000
C  50.00800 32.79400 22.76400
N  47.30500 34.21200 28.77200
C  47.01400 33.30100 27.78800
C  46.14500 32.37800 28.26600
C  45.82200 32.80800 29.55100
C  46.55800 33.94500 29.84000
C  45.70300 31.06800 27.57900
C  45.01700 32.50500 30.74400
O  44.14600 31.64600 30.89300
C  45.32200 33.62300 31.75900
C  45.70200 33.06700 33.13000
O  46.77200 32.53400 33.40000
O  44.66000 33.33600 34.05100
C  44.83100 32.79600 35.34600
H  49.01800 39.50400 31.52600
H  50.66500 38.14400 25.45500
H  47.52000 32.58100 25.79300
H  46.41100 35.96500 33.62800
H  48.23400 37.96800 33.41800
H  46.36200 39.28000 33.74600
H  45.35100 38.00900 33.20300
H  45.91000 39.11600 32.00200
H  49.39000 35.90300 33.15500
H  48.61200 34.46400 32.99700
H  49.70300 35.69900 35.21800
H  48.65700 34.26000 35.26800
H  50.23600 41.95100 29.12000
H  51.47100 41.27700 30.29200
H  49.69000 41.42600 30.65100
H  51.80200 42.28800 27.81500
H  53.06900 41.85800 26.63500
H  53.12300 41.38400 28.40300
H  50.62200 35.96700 24.33600
H  48.15100 34.34600 23.92600
H  48.72200 37.80000 23.76800
H  47.67400 36.44200 23.55100
H  48.97600 36.67300 22.41700
H  49.82500 32.29800 24.90900
H  51.03200 33.45200 24.54200
H  49.49000 31.85100 22.59100
H  50.98000 32.60900 22.30800
H  49.44200 33.58300 22.26700
H  44.92900 30.55300 28.14900
H  46.65900 30.54400 27.55600
H  45.29800 31.08100 26.56700
H  44.42900 34.15000 32.09600
H  45.22800 33.63700 35.91500
H  45.49200 31.93100 35.38400
H  43.87900 32.41000 35.71100

