158

Mg 49.20400 35.30700 27.78500
C  47.18400 33.82400 30.27600
C  49.46300 38.01700 29.87500
C  51.26900 36.60000 25.59900
C  48.54500 32.68100 25.77000
N  48.39100 35.77900 29.92800
C  47.66800 35.02700 30.74400
C  47.77500 35.52700 32.22900
C  48.22200 37.08000 31.95700
C  48.85500 36.94600 30.53300
C  47.09200 38.14100 32.18400
C  48.99400 34.83600 32.97200
C  48.73300 34.38900 34.35300
H  47.73800 35.29100 35.19400
N  50.17800 37.07600 27.74400
C  50.12500 38.15300 28.63900
C  50.80100 39.37400 28.06500
C  51.43200 38.90800 26.82200
C  50.98800 37.52700 26.67600
C  50.82400 40.69500 28.77100
C  52.40500 39.55300 25.90600
O  52.82400 39.07100 24.86700
C  52.98300 40.91400 26.28700
N  49.71100 34.78700 25.88200
C  50.72600 35.41900 25.20000
C  51.15200 34.58400 23.94600
C  50.10100 33.42100 23.94200
C  49.36700 33.66000 25.27000
C  51.11400 35.35700 22.61600
C  50.75600 32.02000 23.75900
C  50.26100 31.32500 22.49500
N  48.08700 33.57200 27.91700
C  47.84500 32.63100 26.95900
C  47.00000 31.57600 27.50200
C  46.70100 32.05400 28.75800
C  47.44200 33.27000 28.99300
C  46.56800 30.38600 26.76900
C  45.89300 31.77300 29.89300
O  45.15400 30.84800 30.02500
C  46.18400 32.88300 30.90200
C  46.48300 32.22200 32.18800
O  47.40400 31.45800 32.38000
O  45.48600 32.39600 33.05800
C  45.62900 31.70600 34.31500
H  49.58100 38.96600 30.40200
H  51.98900 36.92600 24.84500
H  48.40400 31.81500 25.12000
H  46.78900 35.59400 32.69000
H  48.97500 37.34900 32.69700
H  46.10900 37.68700 32.31200
H  47.01400 38.85500 31.36400
H  47.34000 38.77200 33.03700
H  49.95000 35.35300 32.89100
H  49.19600 33.87100 32.50700
H  49.73100 34.45100 34.78600
H  48.29500 33.39200 34.30400
H  50.05600 40.64400 29.54300
H  50.55400 41.46400 28.04700
H  51.79100 40.95000 29.20700
H  53.71600 40.77100 27.08100
H  52.22200 41.59600 26.66600
H  53.55500 41.23400 25.41600
H  52.16200 34.27700 24.21800
H  49.38600 33.53500 23.12800
H  52.08600 35.72900 22.29300
H  50.33600 36.11500 22.71500
H  50.95500 34.53900 21.91400
H  50.59900 31.44800 24.67400
H  51.83400 32.08900 23.61300
H  50.36600 32.07400 21.71100
H  49.21000 31.06900 22.62700
H  50.98000 30.55300 22.22100
H  46.85700 30.30300 25.72100
H  45.48300 30.31600 26.84900
H  46.96200 29.47300 27.21500
H  45.25100 33.44500 30.91700
H  46.45900 32.01500 34.95000
H  45.74600 30.64700 34.08400
H  44.67300 31.77800 34.83500
Mg 0.77400 42.44400 25.60500
C  2.73200 42.65000 28.43000
C  -2.00600 41.58600 27.44200
C  -1.02500 42.14600 22.66700
C  3.65500 42.99000 23.67100
N  0.45800 42.23600 27.62800
C  1.37500 42.37600 28.67400
C  0.70700 42.11000 30.04700
C  -0.77300 41.69700 29.67900
C  -0.76800 41.87100 28.13600
C  -1.16900 40.30300 30.10300
C  0.79700 43.43200 30.91000
C  1.46800 43.23200 32.28500
H  0.67500 43.38400 33.58600
N  -1.28900 41.93900 25.11700
C  -2.27300 41.75200 26.05100
C  -3.53800 41.57600 25.35300
C  -3.25400 41.81300 23.94100
C  -1.79300 41.92000 23.85600
C  -4.76400 41.14600 26.07200
C  -4.22500 41.85400 22.83400
O  -3.97500 42.21100 21.64700
C  -5.71500 41.62100 23.16700
N  1.24700 42.64400 23.52400
C  0.37700 42.25000 22.57500
C  1.02000 42.20800 21.18300
C  2.53700 42.43200 21.50400
C  2.49400 42.79500 22.98200
C  0.74200 40.94800 20.36500
C  3.31300 43.43600 20.64100
C  2.70700 44.82900 20.23600
N  2.86600 42.98600 25.96900
C  3.86500 43.06800 25.07400
C  5.13400 43.29600 25.79900
C  4.69800 43.20100 27.12200
C  3.32300 42.96700 27.16400
C  6.51300 43.46500 25.19600
C  5.12700 43.02800 28.53200
O  6.23700 43.05500 29.05500
C  3.83100 42.83400 29.39200
C  4.02900 41.64700 30.26400
O  3.97000 40.50200 29.91200
O  4.21500 42.10000 31.54600
C  4.27400 41.05400 32.56200
H  -2.68000 41.17600 28.19700
H  -1.64500 42.02100 21.77700
H  4.56700 43.17800 23.10100
H  1.16900 41.24700 30.52500
H  -1.48100 42.37200 30.15900
H  -0.89400 39.52800 29.38700
H  -2.24400 40.30300 30.28400
H  -0.75300 40.18800 31.10300
H  -0.22600 43.69500 31.18100
H  1.26600 44.19200 30.28500
H  2.31200 43.91300 32.39000
H  1.80100 42.19500 32.32900
H  -5.57200 41.87800 26.08900
H  -4.55600 41.01200 27.13300
H  -4.99200 40.14100 25.71500
H  -5.84500 40.59100 23.49900
H  -6.32700 41.80900 22.28400
H  -6.06400 42.21800 24.01000
H  0.70100 43.03300 20.54600
H  3.05600 41.47400 21.49000
H  1.67600 40.68600 19.86800
H  0.14600 41.12500 19.47000
H  0.46600 39.98000 20.78200
H  3.40800 42.84500 19.73000
H  4.33500 43.62400 20.97100
H  1.73300 44.88900 20.72100
H  2.60700 44.79200 19.15100
H  3.26800 45.63900 20.70200
H  6.95100 42.47500 25.06700
H  7.04500 44.09100 25.91300
H  6.45900 43.98700 24.24000
H  3.62500 43.74400 29.95500
H  3.29800 40.57900 32.66200
H  4.47100 41.52100 33.52700
H  5.02800 40.28700 32.38900

