158

Mg 25.74100 0.10400 29.48500
C  27.62100 -0.28400 32.46200
C  22.98800 0.26600 31.40400
C  23.94000 0.12000 26.63100
C  28.71800 -0.68100 27.61500
N  25.30900 -0.16800 31.73400
C  26.27600 -0.12600 32.76100
C  25.63300 0.02500 34.09900
C  24.07300 0.19900 33.75800
C  24.11900 0.05100 32.20400
C  23.03300 -0.68800 34.55900
C  26.26400 1.26200 34.85400
C  25.63200 1.80600 36.14000
H  26.62700 1.91200 37.33600
N  23.73800 0.20700 29.10400
C  22.70900 0.19500 29.99200
C  21.37500 0.26400 29.38400
C  21.63000 0.24100 27.95900
C  23.17400 0.29200 27.84200
C  20.09600 0.20000 30.17100
C  20.65000 0.25400 26.80900
O  20.91200 0.28900 25.60400
C  19.21400 0.40400 27.16200
N  26.24100 -0.10000 27.42700
C  25.35400 0.04300 26.46800
C  26.03000 -0.15200 25.08100
C  27.54400 -0.26600 25.41800
C  27.49600 -0.40900 26.93000
C  25.50300 -1.37300 24.40600
C  28.26200 1.14100 25.00600
C  29.75300 1.08300 24.85400
N  27.81300 -0.31900 29.88500
C  28.87600 -0.65500 29.04900
C  30.02300 -0.95700 29.82100
C  29.63600 -0.75500 31.19800
C  28.27800 -0.39100 31.16000
C  31.33400 -1.34900 29.21500
C  30.10100 -0.62200 32.56300
O  31.17400 -0.68100 33.16000
C  28.82600 -0.24400 33.42300
C  28.82900 -1.31000 34.45800
O  28.69000 -2.50000 34.29300
O  28.96800 -0.72000 35.68100
C  28.80200 -1.67100 36.80600
H  22.10300 0.50600 31.99700
H  23.37300 0.14500 25.69800
H  29.54300 -0.91800 26.94100
H  25.60900 -0.87400 34.71500
H  23.93500 1.24400 34.03400
H  23.41100 -1.29700 35.38100
H  22.52000 -1.33300 33.84600
H  22.32800 0.00500 35.01800
H  26.39300 1.98900 34.05300
H  27.28600 0.94700 35.06500
H  24.76900 1.21200 36.44100
H  25.19100 2.74500 35.80800
H  19.37000 1.00900 30.08900
H  20.33200 0.15500 31.23400
H  19.56700 -0.74700 30.07300
H  18.60400 0.57400 26.27400
H  19.00800 1.19900 27.87800
H  18.94100 -0.59200 27.50900
H  25.75600 0.72100 24.48900
H  28.11100 -1.14200 25.10300
H  24.82000 -1.91400 25.06000
H  26.30600 -2.08100 24.20000
H  25.00200 -1.15500 23.46200
H  27.96000 2.03100 25.55900
H  27.77000 1.37300 24.06200
H  30.09900 0.10500 24.52000
H  30.23600 1.24900 25.81600
H  30.19000 1.84500 24.20800
H  31.42600 -2.37300 28.85400
H  32.12400 -1.15700 29.94200
H  31.44100 -0.69500 28.35000
H  29.08100 0.75300 33.78500
H  27.80500 -1.41900 37.16800
H  29.46300 -1.25300 37.56500
H  29.01300 -2.71900 36.59100
Mg -0.27900 44.05600 24.99200
C  1.74200 43.81000 27.73800
C  -3.03600 43.26400 27.02000
C  -2.30200 43.94900 22.24400
C  2.49100 44.46800 22.94900
N  -0.58300 43.63000 27.14500
C  0.38900 43.60900 28.14700
C  -0.22200 43.34800 29.50500
C  -1.72800 42.96300 29.13800
C  -1.74200 43.33900 27.66500
C  -2.23000 41.48100 29.47200
C  0.05600 44.47200 30.52500
C  0.36500 44.01500 31.98000
H  -0.18400 42.72600 32.46800
N  -2.37900 43.76700 24.69200
C  -3.34500 43.46400 25.64100
C  -4.69100 43.47300 24.98100
C  -4.48800 43.74400 23.57300
C  -2.98400 43.84100 23.43200
C  -5.96100 43.23200 25.80300
C  -5.50500 43.95300 22.54800
O  -5.23900 44.19000 21.37700
C  -7.04200 43.88700 22.92700
N  0.02500 44.35000 22.86200
C  -0.94800 44.06300 21.97800
C  -0.37000 43.94500 20.59300
C  1.12400 44.42600 20.78200
C  1.29100 44.48300 22.29500
C  -0.51900 42.43000 20.17100
C  1.41500 45.75800 20.04400
C  0.95200 46.99500 20.88500
N  1.66800 44.08400 25.21000
C  2.68100 44.27200 24.30500
C  3.97000 44.10200 24.99800
C  3.63200 43.91100 26.32200
C  2.20500 43.98800 26.39800
C  5.31500 44.04200 24.36500
C  4.23100 43.71600 27.59300
O  5.38900 43.54500 28.02400
C  3.01700 43.71600 28.54200
C  3.14900 42.51900 29.37400
O  2.82900 41.36700 29.07000
O  3.57500 42.89300 30.63000
C  3.70200 41.97500 31.74900
H  -3.80700 42.97800 27.73900
H  -2.91500 43.90400 21.34200
H  3.33000 44.55700 22.25600
H  0.31100 42.47500 29.88200
H  -2.46100 43.53300 29.71000
H  -2.73600 41.09800 28.58600
H  -2.82000 41.40300 30.38600
H  -1.40400 40.85300 29.80300
H  -0.82900 45.10800 30.56600
H  0.87900 45.11100 30.20500
H  0.05900 44.88500 32.56100
H  1.45400 44.04200 32.01200
H  -6.36200 42.27600 25.46800
H  -6.60200 44.10000 25.65500
H  -5.77500 43.21300 26.87700
H  -7.27800 44.72300 23.58600
H  -7.35100 42.96600 23.42000
H  -7.67900 44.02800 22.05400
H  -0.86700 44.56400 19.84600
H  1.84000 43.75900 20.30200
H  0.46800 41.97600 20.07800
H  -0.94900 42.23200 19.18900
H  -1.16500 41.83000 20.81100
H  0.87100 45.74700 19.10000
H  2.47700 45.81800 19.80400
H  0.37700 46.72600 21.77100
H  0.30100 47.60000 20.25300
H  1.71100 47.74900 21.09200
H  5.27900 43.51000 23.41500
H  6.01400 43.52600 25.02200
H  5.72900 45.04900 24.31400
H  3.11800 44.61000 29.15700
H  4.72200 41.92900 32.12900
H  3.23600 41.03700 31.44400
H  3.15600 42.38700 32.59800

