158

Mg 23.45600 -4.42700 44.74700
C  25.22100 -1.71100 43.42800
C  20.72500 -3.54100 43.00600
C  22.00400 -7.57500 45.45000
C  26.42800 -5.58600 46.17600
N  23.10700 -2.82500 43.16100
C  23.90700 -1.83400 42.88300
C  23.18700 -0.82200 41.92700
C  21.68100 -1.23200 42.17200
C  21.81800 -2.62300 42.76300
C  20.82200 -0.29000 43.00900
C  23.68700 -1.20200 40.52800
C  23.97000 -0.03900 39.46300
H  24.79800 -0.53100 38.25000
N  21.51500 -5.42400 44.30600
C  20.53400 -4.86200 43.54000
C  19.39800 -5.73900 43.55900
C  19.73000 -6.85300 44.42200
C  21.12800 -6.67700 44.73200
C  18.11100 -5.39100 42.95300
C  18.84100 -8.05500 44.68200
O  17.69300 -8.12700 44.22000
C  19.27300 -9.29400 45.34100
N  24.21400 -6.40600 45.62700
C  23.36800 -7.45700 45.85000
C  24.22000 -8.59900 46.55600
C  25.59100 -7.99000 46.67700
C  25.39500 -6.60300 46.11000
C  23.62200 -9.07600 47.91100
C  26.74200 -8.78200 45.93200
C  28.17000 -8.47200 46.50700
N  25.41800 -3.74200 44.95700
C  26.47800 -4.29300 45.66000
C  27.59900 -3.31300 45.63600
C  27.15100 -2.32900 44.68400
C  25.82100 -2.66200 44.27900
C  28.95200 -3.46900 46.33300
C  27.56500 -1.14400 43.96500
O  28.66200 -0.60700 43.99400
C  26.34200 -0.70100 43.03600
C  26.02300 0.73800 43.22300
O  25.54500 1.36800 44.17600
O  26.60700 1.30900 42.07800
C  26.62800 2.75500 41.91000
H  19.75400 -3.17400 42.66400
H  21.52300 -8.47200 45.84600
H  27.38600 -5.85500 46.62600
H  23.20500 0.26500 42.00300
H  21.09100 -1.37400 41.26600
H  20.43800 0.49500 42.35800
H  21.33700 0.20900 43.83000
H  19.92600 -0.83000 43.31700
H  22.78800 -1.71200 40.18100
H  24.48700 -1.94200 40.55300
H  24.50500 0.67700 40.08600
H  22.97900 0.22600 39.09300
H  17.55500 -6.22300 42.52200
H  18.18800 -4.65400 42.15400
H  17.52200 -4.92300 43.74300
H  18.39700 -9.88800 45.60200
H  19.59900 -9.01900 46.34400
H  20.03200 -9.70900 44.67800
H  24.22100 -9.37700 45.79200
H  25.88900 -7.90800 47.72200
H  24.08000 -8.68300 48.81800
H  23.76400 -10.14600 48.06700
H  22.54500 -8.91400 47.91700
H  26.72300 -8.34500 44.93400
H  26.51100 -9.84300 45.83600
H  28.73700 -9.35600 46.79900
H  28.22100 -7.88600 47.42500
H  28.71100 -7.95400 45.71500
H  28.82000 -3.02300 47.31900
H  29.61200 -2.83600 45.74000
H  29.23800 -4.52000 46.35700
H  26.67300 -1.01200 42.04500
H  25.66900 3.06900 41.49800
H  27.39300 3.05300 41.19300
H  26.84900 3.19000 42.88500
Mg 54.63600 25.39400 45.19100
C  51.93400 27.41000 43.96100
C  52.90100 22.76000 43.81300
C  57.40400 23.44900 45.53400
C  56.22200 28.18500 46.25400
N  52.84400 25.22800 43.61800
C  51.93400 26.14800 43.40300
C  50.77700 25.56600 42.54400
C  50.97800 24.01300 42.76700
C  52.30400 23.93800 43.49600
C  49.88400 23.27400 43.57300
C  50.76000 25.89800 41.00900
C  52.05500 26.42600 40.25200
H  52.96300 25.43900 39.52800
N  55.08700 23.37100 44.77300
C  54.16200 22.48000 44.30400
C  54.76800 21.12500 44.32200
C  56.11100 21.34100 44.76600
C  56.25900 22.77700 45.00200
C  54.11400 19.81200 43.86900
C  57.19900 20.19200 44.80200
O  56.86900 19.02100 44.51200
C  58.58200 20.50600 45.07500
N  56.60200 25.84100 45.57800
C  57.57700 24.86200 45.77200
C  58.93300 25.52000 46.13900
C  58.48100 26.98400 46.41700
C  56.99600 27.05100 46.05900
C  59.67200 24.95400 47.30300
C  59.38200 28.03900 45.65900
C  58.87900 28.63300 44.24500
N  54.16900 27.39500 45.31600
C  54.89100 28.37400 45.87200
C  54.08100 29.59000 45.84900
C  52.85600 29.21800 45.11900
C  53.01000 27.88300 44.83000
C  54.37800 30.87400 46.49800
C  51.68900 29.76000 44.61200
O  51.28400 30.94800 44.61700
C  50.94700 28.60700 43.93600
C  50.61100 29.13000 42.55600
O  51.36700 29.63500 41.78500
O  49.25500 28.82700 42.21900
C  48.86400 29.09000 40.81300
H  52.36300 21.91400 43.37800
H  58.30600 22.85400 45.69300
H  56.74300 28.94200 46.84300
H  49.88000 25.96800 43.01400
H  51.17000 23.45200 41.85300
H  50.23000 22.82500 44.50400
H  49.48300 22.41300 43.03800
H  48.98400 23.85400 43.77400
H  50.01700 26.62200 40.67600
H  50.39800 25.12000 40.33700
H  52.60700 26.90000 41.06400
H  51.72000 27.22800 39.59300
H  54.29200 19.05100 44.62900
H  54.63000 19.49100 42.96400
H  53.04800 19.87800 43.64700
H  59.16100 19.60400 44.87200
H  58.69900 20.80000 46.11800
H  58.86600 21.33700 44.43000
H  59.56700 25.37800 45.26400
H  58.52400 27.28100 47.46500
H  60.53600 24.41600 46.91100
H  59.00400 24.33200 47.89900
H  60.08300 25.76400 47.90500
H  60.33400 27.55700 45.43600
H  59.62300 28.79900 46.40200
H  59.49300 28.10000 43.51900
H  59.23500 29.66300 44.26100
H  57.79700 28.59700 44.11900
H  53.56200 31.52000 46.17200
H  55.31000 31.32100 46.15200
H  54.27900 30.81400 47.58200
H  49.98500 28.42400 44.41400
H  49.70000 29.15200 40.11600
H  48.22400 29.97200 40.83300
H  48.30700 28.20600 40.50500

