158

Mg 35.94500 49.47800 25.17100
C  36.39200 47.78400 28.30900
C  34.15600 51.79400 26.86600
C  35.20400 50.73600 22.22000
C  37.39400 46.72000 23.58500
N  35.24400 49.66900 27.31300
C  35.73700 48.98600 28.42200
C  35.42100 49.71700 29.70500
C  34.59200 50.97400 29.23600
C  34.67200 50.82000 27.72300
C  33.08600 50.98000 29.83500
C  36.73000 50.10200 30.39900
C  36.80400 49.84600 31.90600
H  35.52300 49.95400 32.78400
N  34.77100 50.96400 24.60700
C  34.11400 51.92400 25.48200
C  33.40300 52.88300 24.73400
C  33.67700 52.57100 23.35700
C  34.60500 51.40200 23.33900
C  32.35800 53.75200 25.32000
C  33.08400 53.14700 22.07600
O  33.43000 52.74000 20.94500
C  32.25000 54.42900 22.09600
N  36.14600 48.72100 23.18300
C  35.91500 49.48800 22.18000
C  36.38500 48.94500 20.82300
C  37.34500 47.78000 21.27000
C  36.89900 47.69300 22.74600
C  35.11800 48.50400 19.98700
C  38.81100 48.10700 20.96500
C  39.61300 47.07100 20.15000
N  36.61200 47.57900 25.74500
C  37.21900 46.60400 24.93500
C  37.70400 45.52800 25.78400
C  37.34500 45.92900 27.12500
C  36.72400 47.23400 27.02300
C  38.32000 44.24100 25.30700
C  37.50700 45.58400 28.52300
O  37.97900 44.61400 29.07600
C  36.87900 46.76000 29.29300
C  35.74200 46.19000 30.18000
O  34.62800 45.92100 29.82400
O  36.17900 46.07500 31.46500
C  35.06300 45.82400 32.39000
H  33.79700 52.63100 27.46900
H  35.01500 51.11800 21.21500
H  37.92200 45.87300 23.14300
H  34.74400 49.09200 30.28700
H  35.00900 51.95800 29.44600
H  32.43600 50.25100 29.35200
H  32.64200 51.97400 29.79000
H  33.12700 50.65000 30.87300
H  37.00400 51.15500 30.34100
H  37.58200 49.54700 30.00700
H  37.43900 50.66000 32.25700
H  37.22700 48.87700 32.17000
H  32.33800 54.73500 24.85100
H  32.59000 53.91300 26.37300
H  31.38100 53.30800 25.13000
H  32.71100 55.21100 22.70000
H  31.23700 54.19500 22.42400
H  32.14000 54.81200 21.08200
H  36.90900 49.62500 20.15200
H  37.09400 46.85800 20.74600
H  34.20600 48.63300 20.57000
H  35.15500 47.48600 19.59800
H  35.12600 49.02900 19.03300
H  39.35900 48.22900 21.90000
H  38.84200 49.12800 20.58300
H  39.06600 46.12800 20.17300
H  40.63600 46.95800 20.50800
H  39.57100 47.41200 19.11600
H  38.67600 44.31300 24.27900
H  37.55000 43.47200 25.35800
H  39.12200 43.95600 25.98800
H  37.55900 47.27300 29.97300
H  34.47300 44.94800 32.12100
H  34.27100 46.56000 32.25200
H  35.27200 45.63200 33.44300
Mg 17.83100 52.82200 26.48200
C  19.53900 51.03200 28.85500
C  15.36000 53.47700 28.73700
C  16.06500 54.21400 23.93300
C  20.18300 51.71600 24.03400
N  17.47800 52.28400 28.57300
C  18.36500 51.62000 29.36100
C  17.94700 51.69900 30.79400
C  16.46800 52.15000 30.68400
C  16.36000 52.69800 29.25000
C  15.39900 51.05100 31.17200
C  18.92400 52.66500 31.57700
C  18.77200 52.70800 33.09200
H  17.58400 51.97800 33.81600
N  16.06100 53.86300 26.36600
C  15.18500 54.01400 27.43400
C  14.05500 54.74400 26.96300
C  14.30300 55.05800 25.61200
C  15.50000 54.37800 25.20500
C  12.84100 55.05400 27.86600
C  13.41700 56.01000 24.69200
O  13.66300 56.26400 23.51300
C  12.24100 56.67700 25.38900
N  18.14500 53.14900 24.41200
C  17.20500 53.67300 23.53200
C  17.60100 53.41400 22.09400
C  18.95800 52.65700 22.14600
C  19.13100 52.51000 23.60500
C  16.44500 52.77100 21.23700
C  20.03000 53.54600 21.43400
C  20.33400 54.83200 22.21600
N  19.54000 51.59200 26.34300
C  20.44900 51.26700 25.37300
C  21.60400 50.59400 25.95100
C  21.23900 50.46400 27.32800
C  19.98800 51.05800 27.49900
C  22.79600 50.00900 25.29300
C  21.60200 49.81400 28.52400
O  22.51700 49.00600 28.72100
C  20.57600 50.21400 29.62100
C  19.98300 48.99200 30.31600
O  19.24600 48.12000 29.82800
O  20.43600 49.04300 31.64300
C  19.77600 48.14900 32.56300
H  14.64700 53.89500 29.45100
H  15.40600 54.67400 23.19300
H  21.04800 51.51000 23.40000
H  18.03500 50.67100 31.14700
H  16.34300 52.99500 31.36100
H  15.87100 50.13000 31.51400
H  14.69700 50.62100 30.45700
H  14.80500 51.46400 31.98600
H  18.64800 53.66200 31.23600
H  19.98900 52.48500 31.43000
H  18.87200 53.73800 33.43400
H  19.69700 52.22000 33.39900
H  12.83100 56.11200 28.12500
H  12.84000 54.63500 28.87300
H  11.90000 54.78800 27.38400
H  12.64800 57.10300 26.30600
H  11.46300 55.94400 25.60100
H  11.84200 57.52700 24.83600
H  17.68900 54.38800 21.61300
H  18.85400 51.66800 21.69800
H  15.71800 52.52900 22.01300
H  16.80800 51.81300 20.86600
H  16.08800 53.42500 20.44200
H  19.69300 53.80700 20.43100
H  20.87800 52.92700 21.14300
H  19.61100 55.59700 21.93500
H  21.36800 55.12800 22.04200
H  20.21700 54.62600 23.28000
H  23.13000 50.68700 24.50700
H  22.48100 49.12000 24.74600
H  23.59000 49.76900 25.99900
H  20.99900 50.78500 30.44600
H  20.18600 47.14000 32.60000
H  18.70800 47.99900 32.40300
H  19.88700 48.58400 33.55600

