158

Mg 48.97900 44.57900 43.22600
C  45.68200 44.40200 42.19800
C  49.13600 41.09100 42.90200
C  52.37600 44.73100 43.19000
C  48.82500 48.00000 43.20800
N  47.59200 42.94000 42.67200
C  46.24800 43.12400 42.32800
C  45.55900 41.76900 42.09900
C  46.57600 40.75900 42.69200
C  47.84400 41.61000 42.78400
C  46.17600 40.18200 44.01100
C  45.17900 41.58000 40.55700
C  46.05400 42.37000 39.49100
H  46.14900 41.74000 38.04600
N  50.50800 43.08800 43.07600
C  50.37000 41.71900 42.94500
C  51.63200 41.11600 42.88200
C  52.60700 42.15500 42.96800
C  51.86300 43.36400 43.14400
C  51.82300 39.66700 42.60900
C  54.18200 41.92300 43.02000
O  54.65000 40.84100 42.75800
C  55.10700 43.00200 43.31400
N  50.39900 46.14300 43.20500
C  51.71100 45.96200 43.30300
C  52.49500 47.30400 43.44200
C  51.36700 48.34600 43.58300
C  50.11000 47.44900 43.29100
C  53.63800 47.42200 44.49000
C  51.56600 49.60500 42.69500
C  51.23300 49.47700 41.18300
N  47.52600 45.97600 42.95600
C  47.60200 47.36300 42.96500
C  46.35000 47.87900 42.58600
C  45.45600 46.76200 42.29300
C  46.29300 45.63200 42.47000
C  46.03200 49.32800 42.31500
C  44.18200 46.26500 41.89600
O  43.15800 46.86400 41.70600
C  44.20600 44.66900 41.96400
C  43.26400 44.18600 42.96300
O  42.37100 43.39100 42.73600
O  43.35500 44.92800 44.18600
C  42.14100 44.74700 45.04100
H  49.17700 40.00600 42.78600
H  53.46500 44.77800 43.26100
H  48.79500 49.09000 43.26600
H  44.58000 41.73800 42.57600
H  46.75800 40.01200 41.91900
H  45.95700 39.12300 43.87300
H  45.36000 40.64900 44.56300
H  46.96600 40.18000 44.76100
H  44.16600 41.95800 40.42300
H  45.15800 40.51300 40.33200
H  47.09900 42.52200 39.76100
H  45.59100 43.33100 39.26800
H  52.05500 39.53000 41.55300
H  50.92100 39.17600 42.97400
H  52.64500 39.26900 43.20500
H  55.20100 43.79600 42.57300
H  56.12300 42.63100 43.44900
H  54.88100 43.37600 44.31300
H  53.03700 47.50500 42.51800
H  51.09600 48.70500 44.57600
H  53.32300 48.07400 45.30500
H  54.49300 47.95800 44.07900
H  53.78100 46.41900 44.89400
H  52.63100 49.84000 42.69400
H  51.05000 50.45300 43.14500
H  50.95000 48.43300 41.04500
H  52.03900 49.68500 40.48000
H  50.47900 50.23700 40.97800
H  45.06600 49.32900 41.81000
H  46.84900 49.88500 41.85600
H  45.76600 49.94500 43.17300
H  43.90100 44.40300 40.95200
H  42.09500 45.51500 45.81300
H  42.07400 43.76300 45.50500
H  41.21000 44.87700 44.48900
Mg 48.67300 35.41400 28.25800
C  46.78400 33.82200 30.91000
C  48.44900 38.33400 30.27100
C  49.97900 37.14400 25.86700
C  48.15100 32.56400 26.30600
N  47.80400 35.85900 30.41800
C  47.27000 35.04700 31.34100
C  47.16700 35.70700 32.71100
C  47.26300 37.23600 32.35500
C  47.97600 37.17700 30.87500
C  45.88900 37.99400 32.23200
C  48.14800 35.02700 33.76700
C  49.35800 35.85900 34.17200
H  49.36000 36.41100 35.54000
N  49.34400 37.40500 28.17000
C  49.19800 38.45400 29.09900
C  49.98400 39.51900 28.56500
C  50.38500 39.24600 27.26000
C  49.84600 37.91300 27.01400
C  50.20400 40.79700 29.32000
C  51.20500 39.96900 26.12100
O  51.25400 39.59000 24.93500
C  51.89900 41.17000 26.49700
N  48.99500 34.93100 26.38100
C  49.49100 35.87300 25.52400
C  49.67600 35.26000 24.05400
C  49.38200 33.75700 24.34500
C  48.73600 33.72800 25.74000
C  48.68300 35.92500 23.04000
C  50.67000 32.86000 24.26400
C  51.05400 32.46000 22.79800
N  47.67800 33.57700 28.53100
C  47.70400 32.44000 27.66500
C  47.01200 31.35000 28.32800
C  46.60800 31.87100 29.58500
C  46.95400 33.19500 29.68900
C  46.64800 29.99100 27.75000
C  45.85000 31.57300 30.77300
O  45.11700 30.62500 31.08200
C  45.88400 32.89000 31.55000
C  46.05100 32.63200 32.99900
O  46.90900 31.98300 33.55000
O  44.86800 33.02900 33.63400
C  44.64800 32.67200 35.04100
H  48.31300 39.31200 30.73700
H  50.28300 37.59900 24.92200
H  47.98600 31.64800 25.73600
H  46.21900 35.56200 33.22800
H  47.90700 37.77800 33.04800
H  45.56900 38.22300 33.24800
H  45.22300 37.31900 31.69400
H  46.24500 38.83500 31.63700
H  48.42000 34.07200 33.31800
H  47.63400 34.82500 34.70600
H  49.55500 36.56200 33.36300
H  50.27500 35.27200 34.12100
H  50.70400 40.49100 30.23800
H  49.27300 41.31400 29.55300
H  50.78900 41.56000 28.80700
H  52.59400 41.46800 25.71200
H  52.48200 40.90300 27.37900
H  51.14700 41.94700 26.63700
H  50.68600 35.44600 23.68800
H  48.61900 33.37800 23.66500
H  49.15800 36.25800 22.11700
H  48.17000 36.80700 23.42400
H  47.99000 35.27700 22.50300
H  50.58100 31.99600 24.92300
H  51.43100 33.52800 24.66800
H  50.32500 32.90900 22.12400
H  51.19400 31.39300 22.62600
H  52.06800 32.82200 22.62600
H  47.32300 29.83100 26.90900
H  45.66500 30.11900 27.29800
H  46.52300 29.22000 28.51100
H  44.89700 33.34200 31.45800
H  43.57800 32.65200 35.25100
H  45.12300 33.42400 35.67100
H  45.20500 31.77200 35.30100

