158

Mg 53.16700 23.98800 44.67100
C  50.52400 26.25600 43.89200
C  51.34000 21.56400 43.30400
C  56.05200 22.31000 44.45000
C  55.02200 26.95900 45.37700
N  51.16100 23.93000 43.81000
C  50.28200 24.96000 43.53900
C  48.99500 24.37100 42.90100
C  49.08000 22.85900 43.33000
C  50.62200 22.73300 43.45200
C  48.41800 22.59600 44.78400
C  48.83100 24.73100 41.38000
C  50.16200 24.70700 40.52300
H  50.92200 23.39700 40.26100
N  53.56700 22.09700 44.08000
C  52.66800 21.22800 43.61300
C  53.33300 19.99000 43.45800
C  54.72300 20.11400 43.71700
C  54.85400 21.55000 44.16000
C  52.61400 18.74000 42.88100
C  55.86600 19.04300 43.64900
O  55.62600 18.00000 43.13000
C  57.18200 19.18300 44.24100
N  55.25600 24.52100 44.88200
C  56.25600 23.64800 44.75000
C  57.65300 24.38700 44.74500
C  57.29200 25.86300 45.06400
C  55.75200 25.82100 45.13600
C  58.65900 23.75700 45.83600
C  57.80000 26.92300 44.09500
C  57.20800 27.11700 42.63800
N  52.85500 26.23300 44.83000
C  53.63600 27.20300 45.30800
C  52.81700 28.46900 45.47500
C  51.57900 28.14000 44.86200
C  51.65800 26.77000 44.48500
C  53.28900 29.71800 46.16400
C  50.23400 28.56000 44.49500
O  49.77800 29.70100 44.53000
C  49.59300 27.43700 43.75100
C  49.40900 27.91900 42.36800
O  50.22000 27.80800 41.44800
O  48.11900 28.39000 42.20400
C  47.79800 28.85900 40.82000
H  50.69100 20.74400 42.99100
H  57.03000 21.83100 44.54000
H  55.53200 27.91700 45.26000
H  48.11900 24.83200 43.35900
H  48.70900 22.15800 42.58300
H  48.96800 23.25200 45.45900
H  48.65000 21.57100 45.07400
H  47.33700 22.70100 44.70000
H  48.17400 25.56900 41.14500
H  48.33500 23.90900 40.86600
H  50.77500 25.37100 41.13200
H  49.91600 25.11800 39.54400
H  51.52900 18.76300 42.98200
H  52.83200 17.82700 43.43600
H  52.66500 18.58700 41.80300
H  57.77000 19.78800 43.55000
H  57.64500 18.19700 44.23700
H  57.08000 19.58200 45.25000
H  58.10700 24.35800 43.75400
H  57.58400 26.06200 46.09500
H  58.14400 22.87000 46.20400
H  58.84200 24.41100 46.68800
H  59.60200 23.45400 45.38100
H  58.85000 26.78200 43.84000
H  57.88100 27.86800 44.63100
H  56.88500 28.14900 42.50800
H  56.43500 26.37000 42.45300
H  57.94800 27.05700 41.84000
H  53.64100 30.34600 45.34600
H  54.07800 29.51400 46.88700
H  52.39600 30.23600 46.51500
H  48.59900 27.20900 44.13400
H  46.84400 29.37300 40.69600
H  47.87500 28.03600 40.11000
H  48.58400 29.55900 40.53700
Mg 49.67200 45.49800 42.88400
C  46.15800 45.88500 41.89200
C  49.54100 42.43400 41.50900
C  52.94300 45.37900 43.19300
C  49.70800 48.98500 43.12800
N  47.99000 44.36200 41.72300
C  46.65900 44.61700 41.53300
C  45.91800 43.47200 40.90200
C  46.97900 42.30800 41.05400
C  48.28700 43.08500 41.45800
C  46.61100 41.29500 42.15600
C  45.67700 43.77900 39.38800
C  44.59800 42.97000 38.72100
H  44.69900 42.76300 37.21600
N  51.05700 44.03000 42.48600
C  50.81000 42.80100 41.94900
C  51.99600 41.95200 42.02900
C  53.03100 42.73400 42.56100
C  52.38900 44.11800 42.78500
C  52.12200 40.52600 41.47300
C  54.37800 42.23500 42.86600
O  54.68300 41.07900 42.54500
C  55.37800 43.10400 43.49000
N  51.16200 46.99000 43.12100
C  52.44700 46.69600 43.26900
C  53.29400 47.98500 43.62800
C  52.23100 49.18300 43.41300
C  50.91900 48.37800 43.25200
C  53.90400 48.05500 45.09500
C  52.40900 50.28200 42.31900
C  52.44800 51.75400 42.74700
N  48.23500 47.12100 42.81200
C  48.46900 48.44600 42.93600
C  47.22000 49.20200 42.90900
C  46.28800 48.17500 42.58500
C  46.97500 47.00000 42.36100
C  46.97700 50.70300 43.11800
C  44.86700 47.92000 42.42100
O  43.88500 48.62100 42.64500
C  44.71500 46.39600 41.88600
C  43.78800 45.56700 42.58700
O  42.73100 45.08900 42.16100
O  44.30700 45.30200 43.87600
C  43.56300 44.33300 44.64000
H  49.53700 41.41100 41.12700
H  54.01400 45.33700 43.40200
H  49.71900 50.04700 43.38100
H  44.94900 43.38400 41.39400
H  47.24100 41.81400 40.11900
H  47.26600 41.18700 43.02000
H  46.55700 40.30200 41.70900
H  45.66700 41.67700 42.54600
H  46.57300 43.65500 38.78000
H  45.38300 44.82200 39.27400
H  43.66400 43.51900 38.83900
H  44.44800 41.99100 39.17700
H  52.86200 40.41500 40.68100
H  51.18900 40.26100 40.97500
H  52.29900 39.79100 42.25900
H  54.93500 43.72000 44.27300
H  55.90800 43.67200 42.72500
H  56.03900 42.39200 43.98300
H  54.09700 47.95000 42.89200
H  52.01200 49.59300 44.39900
H  54.94700 47.74400 45.04100
H  53.31700 47.31900 45.64400
H  53.85500 49.01300 45.61400
H  51.68100 50.17200 41.51500
H  53.34900 49.94100 41.88500
H  52.00000 52.30100 41.91700
H  53.49600 52.00400 42.91300
H  51.98800 51.87700 43.72800
H  47.47700 51.00200 44.03900
H  45.89400 50.82300 43.16400
H  47.36600 51.16600 42.21200
H  44.23200 46.49600 40.91400
H  43.88700 44.40800 45.67700
H  43.51700 43.28600 44.33900
H  42.52400 44.66300 44.66000

