158

Mg 30.74300 58.44000 40.65100
C  27.97300 56.49500 39.81800
C  32.80900 55.97400 39.48000
C  33.25700 60.69500 40.65700
C  28.43100 61.24100 41.26800
N  30.39200 56.53100 39.62000
C  29.19800 55.87400 39.44100
C  29.40900 54.56800 38.69500
C  30.80400 54.21800 39.16200
C  31.40000 55.62100 39.38100
C  31.04400 53.28600 40.45100
C  29.24700 54.67100 37.16400
C  28.08600 53.81300 36.64400
H  27.24600 54.50500 35.58200
N  32.80000 58.28300 40.28400
C  33.43100 57.20300 39.82900
C  34.84900 57.38500 39.91100
C  35.03300 58.84900 40.14600
C  33.65400 59.34500 40.30500
C  35.97700 56.28400 39.58900
C  36.28600 59.60000 39.99000
O  37.36200 58.97600 39.86700
C  36.39300 61.06600 39.94600
N  30.72500 60.69700 40.82800
C  31.96800 61.35100 40.90000
C  31.76300 62.77600 41.05500
C  30.23000 62.93500 41.27500
C  29.77700 61.59800 41.10700
C  32.53500 63.35500 42.29000
C  29.48300 63.97900 40.32300
C  28.76900 65.11300 41.06000
N  28.63000 58.77500 40.68800
C  27.82100 59.92500 41.00200
C  26.48000 59.47700 40.98000
C  26.48300 58.20400 40.47000
C  27.80300 57.77500 40.33700
C  25.36100 60.37900 41.34800
C  25.67400 57.11600 40.11400
O  24.44500 57.03900 40.07700
C  26.57400 55.95400 39.66500
C  26.31200 54.77200 40.49500
O  26.89800 54.61900 41.53200
O  25.26400 54.04900 40.01400
C  24.79400 52.95100 40.90400
H  33.47400 55.11800 39.34900
H  34.09100 61.40000 40.65100
H  27.69800 61.99700 41.55900
H  28.82200 53.79800 39.19600
H  31.35300 53.73900 38.35000
H  30.17900 52.62300 40.49000
H  31.31300 53.94100 41.27900
H  31.82100 52.56400 40.19700
H  30.11600 54.32700 36.60200
H  29.04800 55.71000 36.90300
H  27.53400 53.54500 37.54400
H  28.46300 52.85400 36.28900
H  35.51100 55.34500 39.88600
H  36.84000 56.32800 40.25400
H  36.18700 56.29200 38.52000
H  36.27900 61.46800 40.95300
H  35.61900 61.53400 39.33900
H  37.41400 61.27100 39.62400
H  32.11600 63.14600 40.09300
H  29.99100 63.21200 42.30100
H  33.52900 62.91700 42.37400
H  31.86300 63.26300 43.14400
H  32.67100 64.43500 42.22700
H  28.86800 63.37400 39.65800
H  30.24700 64.52200 39.76600
H  29.07900 65.13500 42.10500
H  27.68500 65.03900 40.97600
H  29.15700 66.09000 40.77000
H  25.72700 60.93300 42.21200
H  24.47400 59.77100 41.53300
H  25.23700 61.01700 40.47400
H  26.30800 55.67800 38.64500
H  23.94200 53.29400 41.49100
H  25.57400 52.56800 41.56200
H  24.48300 52.23900 40.13800
Mg 36.80400 49.29400 25.00700
C  36.73600 47.29300 27.84800
C  35.40100 51.85800 26.96700
C  36.13400 51.08300 22.28200
C  37.71800 46.59800 23.12100
N  36.14900 49.45300 27.13700
C  36.23700 48.56200 28.18300
C  36.01400 49.13600 29.53200
C  35.47900 50.56400 29.14000
C  35.65600 50.64100 27.61600
C  34.04600 50.95000 29.60400
C  37.29700 49.23500 30.47200
C  37.00700 48.72000 31.88000
H  35.68500 49.09400 32.54300
N  36.01000 51.27700 24.65200
C  35.54400 52.12800 25.58400
C  35.06300 53.34400 24.88500
C  35.32600 53.17300 23.48100
C  35.81500 51.82300 23.44000
C  34.42700 54.47400 25.61800
C  35.08800 54.17000 22.38200
O  35.35600 53.98600 21.18500
C  34.51500 55.58800 22.65900
N  36.75200 48.83700 22.99900
C  36.56900 49.77500 22.04900
C  37.01300 49.38900 20.67100
C  37.70800 48.00400 20.99000
C  37.37200 47.79900 22.48700
C  35.75400 49.17200 19.75800
C  39.17900 47.88600 20.59300
C  39.62900 46.59700 19.90400
N  37.07000 47.32200 25.32500
C  37.47000 46.32900 24.45700
C  37.65400 45.03800 25.27300
C  37.42800 45.46400 26.55600
C  37.08900 46.79600 26.55500
C  38.13000 43.72200 24.76600
C  37.41300 44.94300 27.91300
O  37.75800 43.88900 28.40000
C  36.93900 46.13600 28.79700
C  35.78000 45.70800 29.62900
O  34.62800 45.48800 29.28500
O  36.21000 45.46400 30.88900
C  35.19100 45.03500 31.80200
H  34.94100 52.62500 27.59400
H  36.25700 51.73400 21.41400
H  38.05900 45.70000 22.60100
H  35.24100 48.53000 30.00500
H  36.08900 51.40200 29.47700
H  34.15200 51.71200 30.37600
H  33.62800 50.03000 30.01200
H  33.45100 51.45700 28.84400
H  37.75000 50.22400 30.55400
H  38.05400 48.58200 30.03800
H  37.85400 49.05300 32.47900
H  37.11900 47.64500 31.74200
H  35.00300 55.39300 25.72900
H  34.36200 54.21400 26.67400
H  33.44200 54.65400 25.18500
H  33.51500 55.38800 23.04500
H  34.36000 56.14500 21.73500
H  35.17400 56.07800 23.37600
H  37.71500 50.15300 20.33800
H  37.13500 47.20400 20.52000
H  34.87300 49.34300 20.37600
H  35.69500 48.18800 19.29200
H  35.88400 50.01500 19.07900
H  39.83700 47.97700 21.45700
H  39.51800 48.64900 19.89300
H  39.86600 46.84500 18.87000
H  38.95400 45.74100 19.90000
H  40.54200 46.26600 20.39900
H  37.35400 43.15700 24.25000
H  38.47400 43.14500 25.62500
H  38.97100 43.80200 24.07800
H  37.76800 46.14100 29.50400
H  35.59500 44.83300 32.79400
H  34.82800 44.14300 31.29000
H  34.51000 45.87900 31.91200

