158

Mg 48.03700 16.41100 28.68200
C  46.09400 16.16900 31.64100
C  50.33500 18.17300 30.39600
C  49.54800 16.70600 25.74200
C  45.18400 14.83700 27.06500
N  48.14300 17.11300 30.73500
C  47.31900 16.83700 31.78800
C  47.82400 17.32500 33.16300
C  49.04100 18.22000 32.70000
C  49.20900 17.82900 31.16300
C  48.98600 19.73000 33.03600
C  48.11000 16.03400 34.06800
C  47.94200 16.14700 35.61600
H  47.49400 17.50000 36.22900
N  49.76700 17.20900 28.13200
C  50.62200 17.90800 29.00200
C  51.90100 18.15300 28.32900
C  51.72900 17.70500 26.95700
C  50.37200 17.19600 26.91400
C  53.18400 18.74000 29.06300
C  52.69200 17.72700 25.87800
O  52.38100 17.26400 24.78400
C  54.06700 18.19600 26.07400
N  47.45000 15.75900 26.75600
C  48.30000 16.12200 25.69100
C  47.64200 15.71600 24.33900
C  46.34500 14.96800 24.75400
C  46.31400 15.19000 26.26600
C  47.52200 16.82600 23.35800
C  46.25700 13.41600 24.50500
C  46.04600 12.95600 23.06400
N  46.14900 15.53300 29.29100
C  45.12000 14.98200 28.45000
C  43.94600 14.78300 29.25800
C  44.30100 15.18000 30.53000
C  45.59500 15.67300 30.47500
C  42.57700 14.25700 28.69000
C  43.75600 15.28900 31.83000
O  42.66500 14.99800 32.38400
C  45.01900 15.77800 32.64600
C  44.57700 16.96100 33.36900
O  44.13800 18.00700 32.87600
O  44.45100 16.60700 34.70700
C  43.50300 17.24100 35.66300
H  51.07600 18.75000 30.95400
H  50.03200 16.71100 24.76300
H  44.34000 14.51200 26.45300
H  46.96800 17.86600 33.56700
H  49.94000 17.78200 33.13400
H  48.86700 20.44100 32.21800
H  49.86200 19.96600 33.64000
H  48.08400 19.89000 33.62600
H  49.13100 15.73500 33.83100
H  47.48500 15.23200 33.67500
H  48.91400 15.91600 36.05300
H  47.17400 15.38000 35.71100
H  53.93800 17.95900 29.15300
H  53.05400 19.05700 30.09700
H  53.47100 19.61900 28.48700
H  54.61500 18.04400 25.14400
H  54.38500 17.56100 26.90200
H  54.01700 19.25700 26.32000
H  48.33700 15.04000 23.84100
H  45.49100 15.51700 24.35800
H  48.21200 16.62800 22.53800
H  47.89800 17.71900 23.85800
H  46.48900 17.00200 23.06000
H  45.77000 12.85400 25.30200
H  47.26700 13.07200 24.72700
H  46.49000 11.96900 22.93000
H  46.47100 13.66400 22.35300
H  44.96200 12.93300 22.95200
H  42.20000 14.77100 27.80600
H  41.87000 14.45100 29.49800
H  42.68400 13.19100 28.48900
H  45.25500 14.99700 33.36700
H  42.80500 16.43800 35.89800
H  42.88800 17.98100 35.15000
H  43.90800 17.60100 36.60900
Mg 26.48300 50.85100 26.43300
C  24.56700 51.93200 29.01100
C  28.89700 49.83100 28.82700
C  28.31600 49.37300 24.04100
C  24.45800 52.29300 24.13200
N  26.81700 51.12500 28.72800
C  25.73600 51.29900 29.49400
C  26.07100 51.11200 31.00900
C  27.65100 50.90000 30.85500
C  27.82100 50.55900 29.38400
C  28.56000 52.04500 31.37100
C  25.27100 50.00500 31.62300
C  24.85900 50.28200 33.12100
H  25.88000 50.70000 34.24600
N  28.37500 49.81600 26.38800
C  29.17900 49.47400 27.51500
C  30.22900 48.63100 27.10700
C  30.10500 48.45800 25.64600
C  28.90000 49.25300 25.28300
C  31.27100 48.05700 27.97600
C  30.82500 47.58900 24.77000
O  30.61700 47.47500 23.62600
C  31.96500 46.70100 25.26200
N  26.48800 50.90800 24.32400
C  27.22100 50.07300 23.56500
C  26.60200 49.84600 22.19500
C  25.22300 50.76500 22.26300
C  25.38000 51.36000 23.63300
C  27.54600 50.13700 20.97400
C  23.87200 50.04600 22.04100
C  22.81600 50.67500 21.06300
N  24.87100 51.99500 26.54700
C  24.10900 52.52900 25.46800
C  22.95800 53.21900 26.08500
C  23.07400 52.98900 27.44800
C  24.24900 52.26200 27.69400
C  21.86600 53.86900 25.36600
C  22.40500 53.17900 28.71200
O  21.27600 53.62600 28.95400
C  23.38000 52.52400 29.85200
C  23.81000 53.61500 30.75500
O  24.66400 54.46600 30.51700
O  23.08600 53.67300 31.95300
C  23.58200 54.66100 33.01800
H  29.63700 49.56500 29.58500
H  28.79300 48.82200 23.22800
H  23.65100 52.54600 23.44100
H  26.00900 52.01000 31.62300
H  28.00800 50.01600 31.38500
H  27.90900 52.83900 31.73700
H  29.19800 52.44100 30.58100
H  29.08700 51.67100 32.24800
H  25.86400 49.09100 31.58900
H  24.36300 49.83700 31.04400
H  24.32400 49.43300 33.54700
H  24.07400 51.03500 33.04000
H  31.18600 48.44400 28.99200
H  32.25000 48.37400 27.61500
H  31.39200 46.98300 27.83700
H  32.66300 47.38600 25.74300
H  32.39700 46.21300 24.38800
H  31.43000 46.01000 25.91400
H  26.30900 48.81000 22.02500
H  25.37100 51.66100 21.66000
H  27.24100 50.96800 20.33800
H  27.53100 49.25200 20.33700
H  28.57600 50.39400 21.21900
H  23.40500 50.07700 23.02600
H  24.13800 49.02300 21.77500
H  22.47600 49.84300 20.44700
H  23.16800 51.43200 20.36200
H  21.95900 51.13800 21.55300
H  21.13000 54.28800 26.05200
H  21.30700 53.22800 24.68300
H  22.30000 54.57100 24.65400
H  22.77300 51.75600 30.33200
H  22.89900 54.80000 33.85600
H  23.70300 55.61400 32.50400
H  24.50900 54.32500 33.48200

