158

Mg 26.27800 -0.61500 30.11500
C  28.31300 -0.58300 33.02200
C  23.57600 0.07800 32.13900
C  24.45400 -0.90500 27.36600
C  29.03300 -1.75100 28.37200
N  26.01700 -0.43300 32.28200
C  26.95100 -0.42100 33.30800
C  26.34600 -0.01100 34.69500
C  24.84000 -0.06700 34.40700
C  24.76500 -0.16200 32.87800
C  24.20200 -1.31300 34.98700
C  26.75900 1.46700 35.09100
C  27.35200 1.72600 36.47100
H  26.78200 0.89900 37.63400
N  24.30700 -0.52400 29.77800
C  23.31700 -0.06300 30.75100
C  22.06300 0.21400 30.04400
C  22.25400 -0.13200 28.62600
C  23.74900 -0.53900 28.52300
C  20.80300 0.80100 30.74000
C  21.21300 -0.09500 27.46700
O  21.50400 -0.68200 26.40400
C  19.80200 0.40800 27.72700
N  26.69000 -1.46300 28.19900
C  25.75700 -1.28600 27.22500
C  26.32500 -1.95200 25.89500
C  27.81000 -1.81200 26.13200
C  27.92700 -1.70400 27.63400
C  25.85400 -3.34300 25.54000
C  28.37300 -0.54300 25.37300
C  29.16500 -0.78400 24.00100
N  28.28400 -1.06500 30.56000
C  29.26400 -1.49100 29.78000
C  30.53300 -1.60800 30.56000
C  30.20900 -1.16300 31.83200
C  28.81200 -0.86500 31.81400
C  31.86100 -2.27400 30.16700
C  30.69300 -0.88200 33.19400
O  31.84200 -0.89400 33.62600
C  29.42300 -0.58100 34.03800
C  29.34000 -1.61000 35.12900
O  28.84700 -2.68500 34.96600
O  29.97500 -1.15700 36.28900
C  30.10300 -2.12600 37.42300
H  22.75300 0.41900 32.77100
H  23.78900 -0.84000 26.50200
H  29.95500 -2.09900 27.90200
H  26.67900 -0.69100 35.47900
H  24.29900 0.82200 34.72900
H  23.70400 -1.92700 34.23600
H  23.39700 -1.06200 35.67700
H  24.92800 -1.88300 35.56700
H  25.92700 2.15700 34.94800
H  27.55800 1.71200 34.39200
H  27.18200 2.78500 36.66300
H  28.43000 1.56700 36.44800
H  19.93000 0.17000 30.57100
H  20.69400 1.83800 30.42300
H  20.88700 0.74300 31.82500
H  19.33100 -0.08200 28.58000
H  19.32000 0.14500 26.78600
H  19.72500 1.49400 27.78300
H  25.88800 -1.31200 25.12900
H  28.27200 -2.74800 25.81800
H  25.37700 -3.70300 26.45100
H  26.62000 -4.05600 25.23400
H  25.08300 -3.28800 24.77100
H  28.99000 0.00800 26.08200
H  27.50900 0.10600 25.23000
H  28.90700 0.05100 23.34900
H  28.76500 -1.69900 23.56400
H  30.24300 -0.81100 24.16000
H  32.42900 -1.55900 29.57300
H  31.65000 -3.17300 29.58700
H  32.33200 -2.66100 31.07100
H  29.47000 0.45100 34.38600
H  31.06500 -2.62900 37.51900
H  29.43400 -2.97700 37.28800
H  29.86800 -1.56300 38.32700
Mg 30.29500 57.99100 39.75700
C  27.32300 56.11000 39.21800
C  32.13300 55.38100 38.72400
C  32.87900 59.95500 39.87300
C  28.13800 60.87400 40.15700
N  29.66800 56.04700 38.92500
C  28.51700 55.39300 39.02000
C  28.61700 53.90400 38.71000
C  30.17900 53.71100 38.67500
C  30.72900 55.14000 38.82700
C  30.93000 52.79300 39.67100
C  27.86900 53.47600 37.39900
C  27.53400 54.60400 36.37000
H  27.71700 54.20700 34.95900
N  32.26500 57.65100 39.42600
C  32.81700 56.54300 38.95600
C  34.27500 56.73800 38.84400
C  34.57700 58.04200 39.21500
C  33.21900 58.61000 39.53300
C  35.28800 55.70300 38.43700
C  35.96500 58.66100 39.41700
O  36.94500 58.02500 39.05500
C  36.23900 59.95900 40.08800
N  30.45300 60.11400 40.04600
C  31.66900 60.60800 40.17100
C  31.73900 62.17900 40.22000
C  30.14500 62.43800 40.52800
C  29.52300 61.09700 40.10800
C  32.62400 62.85500 41.19800
C  29.49900 63.66900 39.80600
C  28.81300 64.69000 40.70600
N  28.19300 58.43700 39.67500
C  27.50400 59.62600 39.95300
C  26.12300 59.39700 39.85700
C  25.93900 58.04600 39.66300
C  27.24900 57.47800 39.54000
C  25.10400 60.46800 39.84400
C  25.01700 56.91900 39.48400
O  23.80400 56.93100 39.44900
C  25.89200 55.56500 39.28700
C  25.68400 54.69400 40.48700
O  26.46000 54.50800 41.40400
O  24.45300 54.18500 40.31500
C  24.23200 53.10600 41.34200
H  32.76700 54.52500 38.48300
H  33.79000 60.53300 40.04600
H  27.57700 61.80000 40.30100
H  28.10800 53.46900 39.56900
H  30.56100 53.37400 37.71100
H  31.19500 53.39500 40.54000
H  31.80200 52.31200 39.22700
H  30.25600 52.07100 40.13300
H  27.04000 52.77900 37.52300
H  28.60300 52.80100 36.95800
H  28.04700 55.55100 36.53800
H  26.47600 54.82000 36.51600
H  34.86500 55.27200 37.52900
H  35.28300 54.85700 39.12400
H  36.31900 55.97200 38.20700
H  35.88600 60.76500 39.44500
H  37.31700 60.10000 40.16200
H  35.89600 60.04400 41.11900
H  31.90200 62.49700 39.19000
H  30.07100 62.50800 41.61400
H  32.09900 63.44400 41.94900
H  33.37800 63.46800 40.70500
H  33.21800 62.09300 41.70300
H  28.74300 63.36100 39.08300
H  30.28900 64.13600 39.21800
H  29.17900 65.66900 40.39600
H  29.04000 64.51500 41.75700
H  27.74200 64.51900 40.59500
H  24.88900 60.69500 38.80000
H  25.55900 61.33800 40.31600
H  24.28100 59.98900 40.37300
H  25.61100 54.90800 38.46400
H  24.11600 53.46400 42.36500
H  25.01900 52.35400 41.39700
H  23.27800 52.60900 41.16200

