158

Mg -1.87400 17.52700 25.72100
C  -2.44500 15.35000 28.59400
C  -2.78400 20.13800 27.84600
C  -1.94500 19.40500 23.07100
C  -1.78900 14.62200 23.76000
N  -2.33500 17.67200 28.01700
C  -2.46400 16.71100 29.00600
C  -2.86400 17.34200 30.32400
C  -3.09500 18.84200 30.02700
C  -2.73300 18.92600 28.54700
C  -4.58200 19.19600 30.34800
C  -1.70000 17.16500 31.35900
C  -1.97200 16.31100 32.58100
H  -2.34800 17.10500 33.80900
N  -2.28000 19.51500 25.44300
C  -2.41400 20.41700 26.49300
C  -2.35600 21.74500 25.85100
C  -2.08500 21.59800 24.44400
C  -2.08100 20.17900 24.30500
C  -2.51100 23.00100 26.61200
C  -1.72800 22.62700 23.45500
O  -1.53200 22.35800 22.28400
C  -1.65900 24.05500 23.80600
N  -2.09700 16.99500 23.71200
C  -1.85400 18.01300 22.83100
C  -1.57700 17.50100 21.40900
C  -1.42700 15.96400 21.66100
C  -1.71200 15.85600 23.17900
C  -2.64000 17.78200 20.35000
C  -0.09800 15.24700 21.28100
C  1.02100 15.52300 22.28000
N  -1.99000 15.36700 26.08900
C  -1.87900 14.35500 25.13800
C  -1.98300 13.04400 25.82800
C  -2.23300 13.38800 27.19000
C  -2.23600 14.80300 27.30000
C  -1.98200 11.71400 25.22700
C  -2.55000 12.88600 28.52700
O  -2.61800 11.75100 28.84200
C  -2.73600 14.07700 29.51300
C  -1.73900 13.84500 30.67600
O  -0.57100 14.20200 30.67100
O  -2.31400 13.11100 31.66000
C  -1.57700 12.89200 32.90900
H  -3.03000 21.01000 28.45700
H  -1.91900 20.03000 22.17500
H  -1.70300 13.71400 23.16000
H  -3.78900 16.81400 30.55700
H  -2.49100 19.60000 30.52600
H  -4.84100 18.83800 31.34400
H  -5.35400 18.66600 29.79000
H  -4.72700 20.27500 30.28800
H  -1.26000 18.14400 31.55100
H  -0.89500 16.64000 30.84500
H  -1.04100 15.77600 32.76600
H  -2.76000 15.56400 32.48600
H  -2.34300 22.92300 27.68600
H  -3.40700 23.60800 26.48400
H  -1.81200 23.76800 26.27600
H  -0.87600 24.50900 24.41300
H  -2.60100 24.35800 24.26300
H  -1.79600 24.63600 22.89300
H  -0.63700 17.93400 21.06600
H  -2.20900 15.41400 21.13700
H  -2.85300 18.84100 20.20500
H  -3.59900 17.37000 20.66200
H  -2.42900 17.28400 19.40300
H  0.22500 15.63200 20.31400
H  -0.35400 14.18800 21.24400
H  0.79500 16.32800 22.98000
H  1.94000 15.70800 21.72300
H  1.25000 14.65900 22.90400
H  -1.49800 11.87700 24.26500
H  -2.97300 11.26300 25.18700
H  -1.36900 10.94900 25.70400
H  -3.72700 14.00900 29.96200
H  -2.18500 12.93500 33.81300
H  -0.75700 13.60000 33.03500
H  -1.25900 11.85000 32.89800
Mg 41.12400 8.44600 29.89100
C  42.23200 9.92700 32.82000
C  38.44600 7.13200 31.75100
C  40.20100 6.77000 27.25900
C  44.00600 9.72000 28.25700
N  40.45300 8.46000 32.10800
C  41.01500 9.24400 33.00900
C  40.16000 9.40800 34.27700
C  39.04400 8.29000 34.04400
C  39.30600 7.89400 32.53600
C  39.21600 7.07300 35.11100
C  39.64500 10.84800 34.58100
C  39.36900 11.08100 36.07000
H  40.34800 11.87300 36.84600
N  39.48900 7.18800 29.53800
C  38.52500 6.78000 30.36700
C  37.63600 5.83300 29.64300
C  38.09200 5.80900 28.28600
C  39.29800 6.56700 28.28200
C  36.42700 5.19100 30.34700
C  37.55600 5.02700 27.10400
O  38.05400 5.11200 26.01500
C  36.32100 4.17000 27.27200
N  42.04300 8.18800 28.06100
C  41.43200 7.44100 27.08600
C  42.39900 7.32900 25.87600
C  43.50400 8.37800 26.17000
C  43.11800 8.88900 27.54700
C  42.88500 5.85000 25.66300
C  43.62700 9.40100 25.08200
C  42.63500 10.54200 25.05600
N  42.77700 9.54200 30.39800
C  43.81500 10.03800 29.59300
C  44.67600 10.97900 30.37900
C  44.12100 10.85900 31.64300
C  42.94100 10.03500 31.63100
C  45.88300 11.78500 29.90600
C  44.29600 11.29800 33.05500
O  45.11400 12.01800 33.52700
C  43.07700 10.70300 33.85300
C  43.60400 9.85900 34.93100
O  43.83900 8.66400 34.72600
O  43.63800 10.44400 36.16100
C  43.76800 9.44200 37.23200
H  37.51100 6.78500 32.19300
H  39.97400 6.18400 26.36600
H  44.74000 10.29300 27.68700
H  40.80300 9.06100 35.08600
H  38.02700 8.67900 34.02000
H  38.24200 6.76700 35.49400
H  39.87500 7.19800 35.97000
H  39.49700 6.13700 34.62700
H  38.67800 10.97300 34.09400
H  40.24800 11.55800 34.01500
H  39.21600 10.10700 36.53500
H  38.39200 11.54600 36.20500
H  36.76400 4.99400 31.36500
H  36.09100 4.24500 29.92300
H  35.52400 5.78800 30.46700
H  36.01900 3.93600 26.25100
H  35.57000 4.70300 27.85500
H  36.65000 3.23800 27.73100
H  41.87500 7.64200 24.97300
H  44.49800 7.95800 26.32300
H  42.50100 5.26600 26.50000
H  43.95900 5.72700 25.53100
H  42.38100 5.48200 24.76900
H  43.69300 8.83600 24.15200
H  44.59300 9.90300 25.12600
H  42.22200 10.71700 26.04900
H  41.83300 10.50500 24.31900
H  43.06600 11.50400 24.77800
H  45.63600 12.49200 29.11400
H  46.66900 11.17400 29.46200
H  46.35400 12.23700 30.77900
H  42.46400 11.49300 34.28500
H  42.96000 8.71700 37.33000
H  43.80500 10.04500 38.14000
H  44.76700 9.02000 37.12500

