158

Mg 1.54300 -2.91900 45.56700
C  4.77800 -2.11300 44.57400
C  0.33000 -0.61100 43.37700
C  -1.47000 -4.38700 45.94800
C  2.92800 -5.62700 47.29400
N  2.46100 -1.62600 43.99900
C  3.74200 -1.37600 43.88000
C  4.02800 -0.19700 42.90000
C  2.61500 0.36800 42.57300
C  1.70700 -0.62700 43.41000
C  2.28900 1.83000 42.75800
C  4.79000 -0.81500 41.70000
C  6.16200 -0.19500 41.30700
H  6.09100 0.78300 40.04000
N  -0.31900 -2.60600 44.72400
C  -0.59100 -1.55700 43.88800
C  -1.99300 -1.59700 43.49500
C  -2.52100 -2.65000 44.26000
C  -1.42400 -3.31800 44.98900
C  -2.69100 -0.56600 42.61700
C  -4.05300 -2.91900 44.18600
O  -4.75700 -2.29300 43.45600
C  -4.53700 -3.95600 45.12100
N  0.82700 -4.80400 46.44800
C  -0.45400 -5.10600 46.54800
C  -0.69900 -6.45300 47.26800
C  0.73400 -6.85000 47.74900
C  1.55000 -5.69000 47.18700
C  -1.70800 -6.50900 48.46500
C  1.16900 -8.28000 47.42900
C  1.57500 -8.56100 46.03500
N  3.49200 -3.70400 46.00300
C  3.87500 -4.76200 46.74300
C  5.31300 -4.70100 46.91500
C  5.76500 -3.60100 46.14600
C  4.57200 -3.11900 45.54700
C  6.12700 -5.64000 47.67000
C  6.89700 -2.82200 45.66100
O  8.07000 -2.89200 45.94400
C  6.25400 -1.82200 44.62300
C  6.52800 -0.50900 45.32100
O  6.04600 -0.03200 46.36100
O  7.39700 0.09500 44.56600
C  7.69900 1.47700 44.78600
H  -0.00000 0.11700 42.63400
H  -2.39700 -4.93400 46.12900
H  3.40400 -6.44300 47.84100
H  4.62500 0.51700 43.46800
H  2.28400 0.00400 41.60000
H  1.69700 2.16300 41.90600
H  3.18300 2.42200 42.95400
H  1.74700 1.95500 43.69600
H  4.15200 -0.87900 40.81800
H  5.13600 -1.83800 41.84700
H  6.88500 -0.99600 41.14800
H  6.56400 0.33000 42.17300
H  -3.08200 -0.98400 41.68900
H  -1.95700 0.14600 42.24100
H  -3.43500 0.00500 43.17200
H  -4.14000 -4.92000 44.80600
H  -5.62300 -3.94100 45.02500
H  -4.21500 -3.73300 46.13800
H  -1.07800 -7.15300 46.52400
H  0.79200 -6.73900 48.83100
H  -2.68700 -6.77200 48.06500
H  -1.92500 -5.55200 48.94000
H  -1.44000 -7.18600 49.27600
H  0.42300 -9.00000 47.76700
H  2.03400 -8.49500 48.05800
H  1.81100 -7.61900 45.53900
H  0.72100 -8.97400 45.49900
H  2.50500 -9.11700 45.91800
H  7.14800 -5.28100 47.80100
H  6.18100 -6.62900 47.21600
H  5.67300 -5.74300 48.65600
H  6.80000 -1.83500 43.68000
H  6.80800 2.10500 44.78300
H  8.27000 1.82000 43.92400
H  8.37700 1.71200 45.60700
Mg 40.30800 9.78700 29.98300
C  42.18400 10.61600 32.90300
C  37.96200 8.34400 32.02000
C  38.55100 8.89100 27.25200
C  42.84200 11.00200 28.02500
N  40.19000 9.36500 32.20100
C  40.92100 9.93100 33.22900
C  40.35100 9.72800 34.59700
C  39.19200 8.73100 34.28200
C  39.05600 8.81300 32.75100
C  39.21000 7.27200 34.83300
C  39.85500 10.99100 35.49500
C  39.84500 10.87200 36.97200
H  40.74700 11.78900 37.81400
N  38.54700 8.63000 29.66500
C  37.64300 8.19400 30.59600
C  36.49800 7.61200 29.98900
C  36.64300 7.86100 28.58100
C  37.96600 8.49300 28.44400
C  35.34000 6.93800 30.71600
C  35.73000 7.43500 27.39300
O  36.00100 7.69700 26.22700
C  34.54500 6.53900 27.67400
N  40.64000 9.90700 27.97700
C  39.79700 9.45300 26.99900
C  40.25000 9.97700 25.64800
C  41.53100 10.74900 25.87500
C  41.76600 10.54000 27.34300
C  40.25900 9.00400 24.45400
C  41.52200 12.24100 25.41400
C  40.42400 13.09700 25.99200
N  42.17100 10.61000 30.35000
C  43.08600 11.12600 29.41900
C  44.24400 11.74300 30.15700
C  43.94600 11.51900 31.57400
C  42.69600 10.85100 31.57300
C  45.53400 12.27200 29.58200
C  44.43800 11.61100 32.93900
O  45.36300 12.15400 33.46400
C  43.23100 11.17000 33.84300
C  43.81500 10.24500 34.78700
O  43.92800 9.04800 34.63300
O  44.05400 10.88000 36.00200
C  44.18800 10.16700 37.26600
H  37.16700 8.02000 32.69500
H  38.04600 8.58100 26.33500
H  43.62200 11.40600 27.37600
H  41.09400 9.17200 35.16900
H  38.29400 9.17900 34.70700
H  38.32700 6.97500 35.39800
H  40.06500 7.22200 35.50800
H  39.33900 6.49600 34.07900
H  38.83600 11.22400 35.18600
H  40.57900 11.71400 35.11700
H  40.09300 9.85500 37.27500
H  38.81300 10.92300 37.31900
H  34.39600 7.48000 30.77900
H  35.61400 6.67900 31.73900
H  35.09600 5.95800 30.30300
H  33.85700 6.46200 26.83300
H  34.00600 7.07500 28.45600
H  34.85100 5.55100 28.02000
H  39.54100 10.79400 25.51800
H  42.42700 10.44200 25.33600
H  39.67900 8.11700 24.70800
H  41.29400 8.76300 24.21400
H  39.74900 9.54200 23.65400
H  41.49000 12.33000 24.32800
H  42.45000 12.65800 25.80400
H  39.88700 13.52700 25.14700
H  40.92500 13.94700 26.45400
H  39.84400 12.52800 26.71900
H  45.76400 11.76100 28.64700
H  46.27600 12.04200 30.34600
H  45.49300 13.34700 29.40500
H  42.76100 12.01100 34.35200
H  44.39300 10.83900 38.09900
H  44.98500 9.43600 37.13600
H  43.23100 9.66300 37.40200

