158

Mg 24.49700 -5.53000 45.92300
C  26.83800 -3.32200 44.47100
C  22.04400 -4.13200 43.84700
C  22.53700 -8.10400 46.57900
C  27.14300 -6.89300 47.72300
N  24.45400 -3.93400 44.28700
C  25.53500 -3.15800 43.92500
C  25.11400 -2.21200 42.78900
C  23.58100 -2.25200 42.78900
C  23.34500 -3.48700 43.68000
C  22.86200 -0.93800 43.22400
C  25.72700 -2.62600 41.47600
C  26.44300 -1.62400 40.57100
H  26.22000 -1.86400 39.08000
N  22.45200 -5.99100 45.38900
C  21.68500 -5.29600 44.50800
C  20.39800 -5.90800 44.50000
C  20.50500 -7.19200 45.19400
C  21.86200 -7.10500 45.80400
C  19.32200 -5.31000 43.63800
C  19.44400 -8.29100 45.24500
O  18.42300 -8.23300 44.63000
C  19.69200 -9.60500 45.88300
N  24.89600 -7.33400 46.76700
C  23.82800 -8.14900 47.06400
C  24.27000 -9.22000 48.10100
C  25.65300 -8.74800 48.58000
C  25.91400 -7.56100 47.66000
C  23.16300 -9.66500 49.20800
C  26.89200 -9.79200 48.60700
C  27.76100 -9.76600 49.89300
N  26.54900 -5.19400 46.11900
C  27.49600 -5.84100 46.88300
C  28.77400 -5.19400 46.66600
C  28.60600 -4.23100 45.79200
C  27.22100 -4.26100 45.44900
C  30.01600 -5.68600 47.27000
C  29.26900 -3.19700 45.02800
O  30.37000 -2.67600 45.09600
C  28.12300 -2.60300 44.10100
C  28.02100 -1.13700 44.35600
O  28.00500 -0.57600 45.44500
O  27.92200 -0.49000 43.10500
C  27.46700 0.88000 43.17000
H  21.31700 -3.58700 43.24200
H  21.88700 -8.87800 46.99300
H  28.02300 -7.26200 48.25300
H  25.42000 -1.21200 43.09600
H  23.21000 -2.54200 41.80500
H  23.31400 -0.07100 42.74300
H  23.03100 -0.81100 44.29300
H  21.80500 -0.96600 42.96000
H  25.03800 -3.23600 40.89200
H  26.42000 -3.43900 41.69500
H  27.51400 -1.77200 40.71000
H  26.15200 -0.61500 40.86200
H  19.53700 -5.58400 42.60500
H  19.31300 -4.22600 43.75100
H  18.30400 -5.59700 43.90100
H  19.05700 -10.41000 45.51400
H  19.69700 -9.58200 46.97300
H  20.70300 -9.94800 45.66300
H  24.36200 -10.10800 47.47500
H  25.47000 -8.29100 49.55300
H  22.36200 -8.92600 49.23900
H  23.67700 -9.82500 50.15500
H  22.69900 -10.62100 48.96300
H  27.44800 -9.41800 47.74800
H  26.64300 -10.84000 48.44100
H  27.89700 -10.78300 50.26000
H  27.48700 -9.17400 50.76600
H  28.72400 -9.44600 49.49400
H  30.16100 -6.76500 47.22300
H  30.05000 -5.32100 48.29700
H  30.83300 -5.24700 46.69800
H  28.40400 -2.79300 43.06500
H  26.53300 0.84300 43.73000
H  27.29100 1.20400 42.14500
H  28.09100 1.67700 43.57400
Mg 47.61600 17.15100 28.50200
C  45.57000 17.03500 31.23600
C  49.80000 19.08900 30.25200
C  49.37800 17.83000 25.59000
C  44.95800 15.68300 26.55000
N  47.54000 18.07100 30.38000
C  46.73700 17.77900 31.41500
C  47.22300 18.42600 32.76100
C  48.37600 19.33800 32.27100
C  48.55700 18.88200 30.83000
C  48.08900 20.88600 32.57500
C  47.77900 17.24500 33.65900
C  47.47200 17.45900 35.20100
H  46.93600 18.75700 35.72400
N  49.42300 18.20500 27.97600
C  50.22200 18.80700 28.93400
C  51.43400 19.28700 28.35400
C  51.28800 18.92800 26.92100
C  50.00600 18.31300 26.80000
C  52.58600 20.00600 29.08000
C  52.22700 19.26200 25.85800
O  52.00500 19.03600 24.67000
C  53.58700 19.85800 26.16800
N  47.09000 16.98600 26.38000
C  48.03000 17.30100 25.39800
C  47.54700 16.87000 23.98600
C  46.29400 15.96200 24.39200
C  46.10900 16.20900 25.85600
C  47.22200 18.09800 23.03200
C  46.47600 14.37700 23.99400
C  45.43800 13.84600 22.92700
N  45.66800 16.46300 28.74700
C  44.69800 15.83400 27.94400
C  43.57700 15.45800 28.73300
C  43.85600 15.81800 30.00600
C  45.06300 16.54600 30.01800
C  42.37500 14.69700 28.34100
C  43.31000 15.91100 31.29000
O  42.14300 15.67400 31.64200
C  44.42100 16.64100 32.16700
C  43.84100 17.66900 33.04700
O  43.45200 18.81300 32.74700
O  43.52100 16.95300 34.21200
C  42.55300 17.53400 35.15000
H  50.44000 19.76900 30.81700
H  49.90200 17.93300 24.63700
H  44.12500 15.16200 26.07300
H  46.45400 19.02600 33.24700
H  49.26900 19.16900 32.87300
H  48.96000 21.22600 33.13500
H  47.18500 21.01700 33.16900
H  48.07200 21.60500 31.75600
H  48.85100 17.10500 33.52400
H  47.20300 16.35100 33.41800
H  48.42100 17.27100 35.70300
H  46.74500 16.69200 35.47100
H  52.38100 20.25500 30.12100
H  53.04700 20.87800 28.61600
H  53.36100 19.23900 29.04600
H  54.13000 19.20200 26.84800
H  53.39100 20.90100 26.42000
H  54.14100 19.86100 25.23000
H  48.33500 16.26600 23.53600
H  45.41800 16.23700 23.80500
H  46.18700 18.16200 22.69500
H  47.90600 18.08900 22.18400
H  47.39400 19.07600 23.48200
H  46.39100 13.71900 24.85900
H  47.44900 14.34600 23.50300
H  44.50000 13.50300 23.36300
H  45.74400 13.10400 22.18900
H  45.28000 14.75800 22.35200
H  42.76300 13.69900 28.13600
H  41.76100 15.12600 27.55000
H  41.85000 14.54300 29.28400
H  44.92900 15.86400 32.73700
H  43.16800 18.13300 35.82200
H  42.04500 16.78700 35.75900
H  41.79800 18.10700 34.61200

