158

Mg 2.74600 -2.41900 45.53200
C  5.81100 -1.02600 44.64900
C  1.26200 -0.04200 43.27800
C  -0.10000 -3.91700 45.60300
C  4.45200 -5.18600 46.79900
N  3.44000 -0.82600 44.05900
C  4.75200 -0.37700 43.97200
C  4.90700 0.80200 43.01300
C  3.42000 1.13100 42.67200
C  2.63600 0.06300 43.36300
C  2.94300 2.50700 43.13000
C  5.76600 0.49000 41.73700
C  7.07300 1.36000 41.59000
H  7.57800 1.59300 40.14000
N  0.76700 -1.90000 44.77100
C  0.40600 -0.93600 43.88600
C  -0.98500 -1.01600 43.60600
C  -1.46000 -2.18800 44.28100
C  -0.29800 -2.68100 44.95600
C  -1.74100 -0.15100 42.57800
C  -2.90000 -2.76900 44.20500
O  -3.76300 -2.26100 43.50300
C  -3.32100 -4.00500 45.04900
N  2.23400 -4.21700 46.23600
C  0.96900 -4.57800 46.19300
C  0.80000 -5.94200 46.86300
C  2.26800 -6.37800 47.22100
C  3.05500 -5.13900 46.78700
C  -0.12500 -6.04700 48.12900
C  2.73500 -7.75900 46.53000
C  2.40100 -8.99000 47.37500
N  4.68800 -2.96000 45.73600
C  5.22600 -4.11100 46.36000
C  6.64900 -3.88900 46.56700
C  6.84700 -2.63000 45.92300
C  5.68800 -2.18100 45.37700
C  7.68800 -4.69500 47.35700
C  7.86600 -1.68300 45.67300
O  9.04700 -1.66600 45.93200
C  7.28800 -0.61900 44.76200
C  7.42700 0.81800 45.33000
O  6.73400 1.34500 46.25400
O  8.47200 1.39700 44.75600
C  8.55400 2.84700 45.03200
H  0.77600 0.69200 42.63200
H  -1.01600 -4.50900 45.65900
H  4.94600 -5.98600 47.35400
H  5.44000 1.60000 43.52900
H  3.28400 1.12800 41.59100
H  2.12800 2.45400 43.85100
H  2.60400 3.07500 42.26400
H  3.83100 2.98600 43.54300
H  5.18800 0.61700 40.82100
H  6.11800 -0.54100 41.71900
H  7.79000 0.93500 42.29200
H  6.97600 2.34100 42.05600
H  -1.18800 0.76600 42.37700
H  -2.68300 0.27300 42.92500
H  -1.98200 -0.73400 41.68900
H  -2.86800 -4.92200 44.67200
H  -4.38500 -4.19800 44.91500
H  -3.03000 -3.85900 46.08900
H  0.32600 -6.59400 46.13000
H  2.37500 -6.56400 48.29000
H  -0.48600 -5.05800 48.41200
H  0.40300 -6.34100 49.03600
H  -0.90500 -6.79700 47.99500
H  3.75000 -7.83100 46.13900
H  1.98300 -7.77900 45.74100
H  1.32400 -9.15600 47.38400
H  2.65100 -8.79700 48.41900
H  2.91700 -9.88300 47.02400
H  7.74800 -5.67900 46.89300
H  7.43800 -4.85100 48.40700
H  8.68200 -4.26300 47.24600
H  7.71800 -0.64600 43.76100
H  7.56100 3.22500 44.78900
H  9.21400 3.30200 44.29300
H  8.90900 3.03100 46.04600
Mg -11.98000 16.47500 40.93200
C  -8.85200 15.08100 40.43300
C  -10.75100 19.58200 39.77100
C  -15.16600 17.74600 40.71400
C  -13.29900 13.42100 41.52200
N  -10.07100 17.16300 39.97600
C  -8.89000 16.43400 39.92300
C  -7.74900 17.38900 39.33600
C  -8.32100 18.78600 39.44900
C  -9.83700 18.53700 39.76300
C  -7.58900 19.72300 40.45800
C  -7.10100 16.93000 37.99100
C  -5.58500 17.02500 37.84300
H  -5.07300 16.88400 36.40100
N  -12.80800 18.41900 40.51200
C  -12.13400 19.52900 40.07400
C  -13.06500 20.64200 39.96600
C  -14.36900 20.15900 40.32200
C  -14.15000 18.71900 40.54100
C  -12.61400 22.08800 39.71300
C  -15.71000 20.98000 40.44700
O  -15.69100 22.19500 40.27500
C  -17.06100 20.43000 40.85700
N  -14.00600 15.64800 41.13100
C  -15.14300 16.40000 41.05800
C  -16.37900 15.49600 41.27500
C  -15.68300 14.12000 41.68200
C  -14.21800 14.38000 41.36900
C  -17.42900 15.96000 42.23900
C  -16.27500 12.97100 40.92800
C  -16.50800 11.66400 41.74500
N  -11.25900 14.66400 40.97600
C  -11.91200 13.51500 41.33400
C  -10.98700 12.38100 41.35500
C  -9.77300 13.00300 41.07800
C  -10.00700 14.38100 40.83500
C  -11.18200 10.88000 41.62900
C  -8.33100 12.73300 41.10400
O  -7.64800 11.70400 41.31700
C  -7.72700 14.11500 40.57300
C  -6.76600 14.63500 41.61200
O  -6.88100 15.64500 42.30600
O  -5.67800 13.71300 41.78000
C  -4.72400 13.84300 42.88900
H  -10.46800 20.59900 39.49300
H  -16.18700 18.12700 40.65000
H  -13.66200 12.40700 41.70500
H  -7.00700 17.33600 40.13200
H  -8.29300 19.36000 38.52200
H  -7.39000 20.61500 39.86400
H  -6.66500 19.22000 40.74400
H  -8.20300 19.80900 41.35500
H  -7.55900 17.51900 37.19800
H  -7.46600 15.95500 37.66600
H  -5.24200 16.15600 38.40600
H  -5.25900 17.95600 38.30600
H  -13.34900 22.62000 39.10800
H  -11.58400 22.24900 39.39500
H  -12.73200 22.46700 40.72800
H  -17.72100 21.29500 40.92100
H  -16.93100 19.86700 41.78100
H  -17.37500 19.81900 40.01100
H  -16.83800 15.29500 40.30700
H  -15.66500 13.96300 42.76100
H  -18.40800 15.89400 41.76300
H  -17.17800 17.00900 42.39300
H  -17.46600 15.29200 43.10000
H  -15.60200 12.68800 40.11900
H  -17.19100 13.25000 40.40700
H  -15.66300 11.02000 41.49900
H  -17.45000 11.14100 41.58500
H  -16.41200 11.88200 42.80900
H  -11.23800 10.39100 40.65700
H  -12.11700 10.73000 42.16800
H  -10.30700 10.52300 42.17300
H  -7.14500 13.97900 39.66100
H  -3.67000 13.72600 42.63700
H  -4.98300 13.12700 43.66800
H  -4.90500 14.83200 43.31100

