158

Mg 1.87300 -1.96500 44.66900
C  5.33500 -1.23400 44.22300
C  1.31100 0.97300 42.87500
C  -1.26800 -2.81300 44.53400
C  2.83900 -5.22700 45.52200
N  3.17800 -0.35100 43.75600
C  4.50800 -0.29800 43.62100
C  4.97900 0.89600 42.76000
C  3.73100 1.79700 42.80600
C  2.64300 0.78600 43.20700
C  3.83800 3.05100 43.70500
C  5.51500 0.49200 41.35700
C  6.59600 1.26600 40.72800
H  6.36900 1.89200 39.33700
N  0.23400 -0.94100 43.92100
C  0.20000 0.20400 43.13100
C  -1.13900 0.45500 42.69500
C  -1.90000 -0.62400 43.17900
C  -0.99200 -1.54400 43.95800
C  -1.51900 1.64900 41.89800
C  -3.40400 -0.60100 43.23800
O  -3.97300 0.19000 42.54700
C  -4.25500 -1.47900 44.05900
N  0.96700 -3.84300 44.80500
C  -0.39800 -3.84400 44.88200
C  -0.85900 -5.21500 45.52500
C  0.46500 -6.01700 45.81500
C  1.50300 -5.02100 45.35200
C  -1.78400 -5.10000 46.76200
C  0.55900 -7.43100 45.02100
C  0.37000 -8.65900 45.90000
N  3.63100 -3.05400 44.93500
C  3.90000 -4.31300 45.31700
C  5.28500 -4.47500 45.61200
C  5.88400 -3.23800 45.24400
C  4.83700 -2.42700 44.81100
C  5.96400 -5.76100 46.12400
C  7.15100 -2.48900 45.22300
O  8.27000 -2.80600 45.65300
C  6.78900 -1.18000 44.47100
C  7.33800 0.07300 45.17000
O  7.19900 0.41000 46.35000
O  7.91400 0.76100 44.18500
C  8.47200 2.07700 44.43300
H  1.27500 1.85500 42.23300
H  -2.31700 -3.08400 44.67100
H  3.16500 -6.13100 46.04000
H  5.80500 1.44400 43.21200
H  3.64900 2.26000 41.82300
H  2.82100 3.24100 44.04900
H  4.11500 3.96700 43.18300
H  4.59200 2.95600 44.48700
H  4.68300 0.60200 40.66200
H  5.93900 -0.51000 41.43100
H  7.35200 0.50500 40.53500
H  6.90700 2.04400 41.42600
H  -0.71900 2.37300 41.74000
H  -2.28200 2.09300 42.53900
H  -1.76400 1.36300 40.87600
H  -4.27900 -2.50400 43.69000
H  -5.26300 -1.10000 44.22500
H  -3.95600 -1.50700 45.10600
H  -1.37500 -5.68800 44.69000
H  0.53700 -6.11400 46.89900
H  -2.76300 -5.39500 46.38500
H  -1.83400 -4.07900 47.14200
H  -1.46700 -5.75500 47.57400
H  1.54300 -7.58500 44.57800
H  -0.14600 -7.45600 44.19000
H  1.26700 -9.27300 45.98300
H  -0.59600 -9.13200 45.72600
H  0.16800 -8.31000 46.91200
H  6.49200 -5.48800 47.03800
H  6.54800 -6.19900 45.31500
H  5.15500 -6.44600 46.37800
H  7.32100 -1.29800 43.52700
H  7.59300 2.70700 44.56600
H  8.98600 2.39800 43.52700
H  9.19200 2.16100 45.24700
Mg 10.05500 47.22700 25.87800
C  8.17000 46.97900 28.92700
C  12.67200 48.56700 27.87900
C  11.91900 47.49500 23.19500
C  7.25200 46.24300 24.14800
N  10.41600 47.55200 28.15500
C  9.48900 47.40200 29.16900
C  10.01200 48.00200 30.53200
C  11.29900 48.75000 30.07800
C  11.46700 48.30400 28.63500
C  11.09900 50.27600 30.08800
C  10.21400 46.95100 31.72500
C  9.49200 47.27000 33.04300
H  9.41600 46.11400 34.13000
N  12.09800 47.87200 25.60600
C  13.02100 48.28900 26.53700
C  14.31600 48.32400 25.91500
C  14.06800 48.05100 24.53400
C  12.68500 47.80300 24.37100
C  15.54300 48.65200 26.68600
C  14.94000 48.04700 23.43400
O  14.60200 48.08900 22.24700
C  16.39100 47.91900 23.69400
N  9.54700 46.99600 23.99000
C  10.57400 47.14900 23.06800
C  10.03500 46.53600 21.75000
C  8.65000 45.91200 22.07000
C  8.49700 46.33500 23.45800
C  10.03800 47.54300 20.55900
C  8.69800 44.37700 22.01800
C  8.85800 43.56200 23.28200
N  8.07400 46.77600 26.38800
C  6.99600 46.56100 25.53400
C  5.77300 46.42200 26.28400
C  6.20400 46.55100 27.65500
C  7.57300 46.74700 27.63000
C  4.44400 46.29700 25.73600
C  5.82800 46.58200 29.07700
O  4.73600 46.59400 29.60000
C  7.06800 46.78500 30.00200
C  7.29400 45.55900 30.85400
O  7.94100 44.55400 30.52700
O  6.52000 45.68600 32.01300
C  6.48300 44.45900 32.82400
H  13.51900 48.79800 28.52800
H  12.39800 47.65900 22.22700
H  6.43800 45.75800 23.60500
H  9.21000 48.70000 30.77200
H  12.21200 48.48700 30.61400
H  10.05000 50.57000 30.10700
H  11.35800 50.77200 29.15300
H  11.65300 50.67700 30.93700
H  11.27000 46.94900 31.99500
H  9.93200 46.00500 31.26200
H  8.43600 47.50500 32.90900
H  10.00000 48.14700 33.44500
H  16.06700 49.49700 26.23900
H  16.09500 47.76800 26.36700
H  15.41200 48.75800 27.76300
H  16.79000 48.62700 24.42000
H  16.99100 47.95600 22.78500
H  16.46900 46.91500 24.11200
H  10.79000 45.78400 21.52300
H  7.80400 46.19900 21.44600
H  10.39500 48.52800 20.86000
H  8.99500 47.76700 20.33500
H  10.63600 47.05800 19.78700
H  9.42300 44.02800 21.28200
H  7.78600 44.04300 21.52400
H  8.86800 44.12200 24.21700
H  9.91400 43.29600 23.23500
H  8.22600 42.67500 23.30900
H  4.36100 47.20300 25.13500
H  3.65600 46.25200 26.48700
H  4.44200 45.44600 25.05600
H  6.99400 47.72400 30.55100
H  6.49800 44.74700 33.87600
H  7.29400 43.75100 32.65100
H  5.57400 43.88800 32.63800

