158

Mg -1.38400 34.90900 28.06500
C  -3.13500 33.05400 30.35500
C  0.24300 36.54800 30.84900
C  -0.16300 37.02800 25.94600
C  -3.31900 33.35500 25.51400
N  -1.60400 34.91100 30.36400
C  -2.32900 33.99000 31.06100
C  -1.88500 33.91400 32.51200
C  -1.04500 35.21200 32.70000
C  -0.74900 35.58500 31.22100
C  -1.79100 36.33300 33.45700
C  -1.18300 32.55400 32.82700
C  -1.79400 31.56000 33.90400
H  -1.13700 31.44800 35.25200
N  -0.01200 36.46000 28.35500
C  0.57400 36.92600 29.50800
C  1.51000 37.95400 29.13100
C  1.36200 38.20500 27.68600
C  0.30900 37.26100 27.26600
C  2.53500 38.54000 30.11200
C  2.04300 39.22200 26.76800
O  1.77100 39.36100 25.59500
C  3.14900 40.10500 27.31500
N  -1.82100 35.26800 26.06800
C  -1.16900 36.20400 25.43600
C  -1.58900 36.20800 23.91200
C  -2.32700 34.92500 23.66800
C  -2.54100 34.51900 25.16400
C  -2.29800 37.43200 23.41100
C  -1.58300 33.82000 22.82300
C  -1.22600 34.25900 21.41200
N  -2.82000 33.46500 27.90500
C  -3.50800 32.88900 26.80000
C  -4.29600 31.76000 27.17800
C  -4.14400 31.83100 28.55800
C  -3.32000 32.86700 28.94700
C  -5.09400 30.84900 26.29800
C  -4.61800 31.15500 29.77400
O  -5.42700 30.22900 29.96600
C  -4.07400 32.00400 30.95500
C  -5.32200 32.40100 31.68500
O  -6.25900 33.09700 31.22400
O  -5.23000 31.98600 32.95500
C  -6.31100 32.42100 33.95400
H  0.79300 36.93600 31.70900
H  0.26500 37.55800 25.09300
H  -3.89000 32.83200 24.74400
H  -2.82700 33.98000 33.05600
H  -0.06900 35.03800 33.15400
H  -1.69400 36.21600 34.53600
H  -2.86200 36.29600 33.26000
H  -1.42900 37.30900 33.13300
H  -0.14900 32.66500 33.15400
H  -1.04300 31.99000 31.90500
H  -1.83800 30.53800 33.52600
H  -2.85000 31.74900 34.09600
H  3.52900 38.42800 29.67700
H  2.45700 38.10400 31.10800
H  2.46500 39.62300 30.21300
H  2.83000 40.74400 28.13800
H  3.55300 40.66900 26.47400
H  3.96400 39.52900 27.75400
H  -0.69300 36.06400 23.30900
H  -3.29500 35.02200 23.17700
H  -2.08600 38.32900 23.99200
H  -3.36100 37.28200 23.22400
H  -1.93500 37.71100 22.42200
H  -1.89800 32.78200 22.92700
H  -0.63900 33.74000 23.36400
H  -1.98100 33.68100 20.87900
H  -0.20600 34.03700 21.09800
H  -1.49300 35.31500 21.37900
H  -6.02400 31.23100 25.87600
H  -5.32100 29.89700 26.77800
H  -4.50700 30.67300 25.39600
H  -3.56400 31.25500 31.56000
H  -5.75900 32.89600 34.76500
H  -6.79200 31.46300 34.15300
H  -7.07000 33.07200 33.52000
Mg -4.74700 25.84100 25.77000
C  -3.97600 27.05100 29.02600
C  -6.93600 23.67500 27.28000
C  -5.07400 24.50700 22.74900
C  -2.59300 28.23100 24.46200
N  -5.38400 25.38600 27.94000
C  -4.96200 26.02500 29.07100
C  -5.63000 25.42200 30.30100
C  -6.39900 24.20700 29.72500
C  -6.21600 24.38600 28.24400
C  -6.06800 22.77700 30.28100
C  -6.51900 26.42200 31.02700
C  -6.68200 26.23800 32.55000
H  -5.83000 25.18000 33.28200
N  -5.84700 24.20900 25.08300
C  -6.77000 23.42900 25.84100
C  -7.29900 22.41500 24.97000
C  -6.79400 22.66800 23.65200
C  -5.82300 23.80900 23.73800
C  -8.21800 21.39300 25.53100
C  -7.05800 21.84700 22.39400
O  -6.46400 21.96300 21.30400
C  -8.07700 20.58800 22.41400
N  -3.98700 26.35300 23.87700
C  -4.24500 25.56300 22.76900
C  -3.55500 26.16200 21.51700
C  -2.87300 27.46800 22.05700
C  -3.20100 27.43700 23.57900
C  -2.63700 25.23000 20.64800
C  -3.32900 28.82700 21.37200
C  -2.42500 29.33100 20.27200
N  -3.56200 27.33700 26.52600
C  -2.72600 28.23900 25.85400
C  -2.02100 29.06400 26.81100
C  -2.42700 28.58800 28.07300
C  -3.41500 27.57600 27.83800
C  -1.07900 30.14300 26.49200
C  -2.36100 28.78200 29.47500
O  -1.82600 29.64800 30.08600
C  -3.24600 27.69000 30.17500
C  -2.43000 26.75500 31.03400
O  -1.72100 25.81700 30.66000
O  -2.39700 27.25400 32.33700
C  -1.32900 26.85600 33.22100
H  -7.69600 23.04700 27.74900
H  -5.16000 24.11800 21.73200
H  -1.85200 28.92500 24.06100
H  -4.78600 25.14400 30.93200
H  -7.46400 24.36100 29.89300
H  -5.36800 22.92400 31.10300
H  -5.63600 22.16900 29.48600
H  -6.95300 22.30500 30.70800
H  -7.55000 26.24200 30.72200
H  -6.39000 27.48000 30.79900
H  -7.70400 26.00800 32.85000
H  -6.45200 27.22900 32.94200
H  -8.86200 20.83800 24.84900
H  -8.84600 21.89600 26.26700
H  -7.72600 20.66500 26.17700
H  -7.66600 19.77400 23.01100
H  -8.26600 20.23300 21.40100
H  -9.00800 21.01900 22.78200
H  -4.31400 26.48800 20.80500
H  -1.78900 27.49500 21.94900
H  -2.54200 24.19800 20.98500
H  -1.60600 25.57300 20.73600
H  -3.01700 25.32200 19.63000
H  -3.43800 29.62900 22.10300
H  -4.27800 28.61700 20.87800
H  -1.78300 28.47200 20.08000
H  -1.77200 30.14800 20.57900
H  -3.07200 29.63100 19.44700
H  -1.58800 31.09300 26.32900
H  -0.59000 29.95800 25.53600
H  -0.27400 30.19500 27.22500
H  -4.03500 28.08400 30.81500
H  -0.40200 26.53500 32.74600
H  -1.76800 26.11800 33.89300
H  -1.04500 27.62200 33.94300

