158

Mg 9.02800 3.91100 27.64400
C  10.59000 2.22100 30.45800
C  7.42900 5.92500 29.76200
C  7.35100 5.17900 25.05000
C  10.39000 1.37700 25.65800
N  8.86000 3.91800 29.88700
C  9.73200 3.33100 30.77700
C  9.56700 3.97200 32.18200
C  8.38000 4.98400 31.96600
C  8.16200 4.95500 30.46700
C  7.14200 4.69900 32.77400
C  10.88500 4.51300 32.78800
C  10.71000 5.13200 34.24600
H  11.58000 4.68000 35.37000
N  7.47200 5.26200 27.41800
C  7.00100 6.03400 28.44100
C  6.09900 7.01900 27.91500
C  6.25400 6.91400 26.51100
C  7.08400 5.78100 26.23500
C  5.27700 7.93000 28.82100
C  5.59300 7.77900 25.42000
O  5.93900 7.74600 24.22600
C  4.40100 8.54500 25.72200
N  9.04500 3.41700 25.58800
C  8.19100 4.05100 24.73900
C  8.20400 3.36100 23.35500
C  9.16300 2.17600 23.56600
C  9.57200 2.30800 25.02900
C  6.82900 3.02000 22.80600
C  10.38900 2.17600 22.61100
C  10.66600 0.84700 21.78200
N  10.31200 2.18700 27.95700
C  10.77600 1.29700 27.03400
C  11.67600 0.36300 27.62200
C  11.67300 0.67000 29.02400
C  10.83500 1.77700 29.18200
C  12.51400 -0.70400 26.92900
C  12.07800 0.22900 30.29800
O  12.64400 -0.79200 30.60400
C  11.59500 1.37400 31.29600
C  11.01600 0.61700 32.56500
O  9.99200 -0.08200 32.62100
O  11.82700 0.83500 33.67000
C  11.44100 0.27500 34.99500
H  7.07200 6.77400 30.34800
H  6.77500 5.57400 24.21100
H  10.69000 0.56700 24.98900
H  9.36400 3.17800 32.90000
H  8.86200 5.89700 32.31700
H  6.29200 4.44400 32.14200
H  6.87200 5.60500 33.31600
H  7.30200 3.84900 33.43700
H  11.24000 5.29400 32.11500
H  11.67000 3.75800 32.76200
H  9.65400 5.11300 34.51500
H  10.98700 6.15600 33.99500
H  5.54000 8.94600 28.52400
H  5.47700 7.91500 29.89300
H  4.20600 7.78600 28.67700
H  3.91000 8.75500 24.77200
H  4.64700 9.48300 26.22000
H  3.76700 8.01800 26.43500
H  8.64400 4.01300 22.60100
H  8.57800 1.27600 23.37800
H  6.14100 2.99700 23.65100
H  6.77400 2.00300 22.41700
H  6.48600 3.77200 22.09600
H  11.30700 2.44700 23.13200
H  10.29900 3.05600 21.97400
H  9.85600 0.15900 22.02500
H  11.60700 0.41200 22.11900
H  10.78300 0.91900 20.70000
H  13.19000 -1.07200 27.70000
H  12.99500 -0.17300 26.10700
H  11.93300 -1.45100 26.38800
H  12.47800 1.88800 31.67700
H  11.71000 1.02800 35.73500
H  12.17100 -0.50000 35.23000
H  10.39100 0.00900 35.11900
Mg 47.05300 16.38700 28.26800
C  45.32600 15.85200 31.46300
C  49.25400 18.40500 30.00500
C  48.33400 17.39900 25.34800
C  44.35800 14.96800 26.66400
N  47.25300 16.98400 30.50800
C  46.48100 16.64000 31.62700
C  46.99600 17.31500 32.93300
C  48.14800 18.33800 32.37600
C  48.15400 17.97700 30.79100
C  47.90200 19.82000 32.62700
C  47.45100 16.18500 33.97600
C  47.58700 16.63900 35.48700
H  47.10500 18.04600 35.97000
N  48.67000 17.49000 27.81100
C  49.50800 18.16200 28.67300
C  50.68700 18.68100 27.90000
C  50.38700 18.53300 26.46400
C  49.05000 17.81900 26.47300
C  51.97900 19.23300 28.60500
C  51.27100 18.89800 25.16500
O  50.90500 18.73700 24.00400
C  52.46200 19.83300 25.40200
N  46.37400 16.28400 26.31900
C  47.13400 16.65100 25.24100
C  46.48000 16.32100 23.86500
C  45.38200 15.28800 24.31600
C  45.33600 15.51100 25.86400
C  46.00900 17.52200 23.04000
C  45.51400 13.75100 23.99100
C  46.83800 13.18100 24.42900
N  45.26300 15.52500 28.87100
C  44.27400 14.93500 28.06900
C  43.29900 14.26800 28.89200
C  43.69200 14.61800 30.19400
C  44.86700 15.38500 30.17300
C  42.04400 13.60100 28.36800
C  43.15300 14.61300 31.53600
O  42.07000 14.21600 32.01900
C  44.17600 15.45000 32.40500
C  43.42400 16.61000 33.02500
O  43.23900 17.72100 32.57100
O  43.04000 16.29900 34.33500
C  42.27300 17.33700 35.06300
H  49.95000 18.96800 30.63000
H  48.86600 17.69700 24.44200
H  43.55700 14.50300 26.08400
H  46.13300 17.84200 33.34200
H  49.09100 17.95200 32.76100
H  47.04600 19.96300 33.28800
H  47.69700 20.21600 31.63300
H  48.74300 20.45800 32.89800
H  48.34800 15.69100 33.60100
H  46.69600 15.40500 33.88600
H  48.62200 16.42600 35.75200
H  47.07100 15.86300 36.05300
H  52.83300 18.59200 28.38500
H  51.86400 19.10100 29.68000
H  52.18400 20.27900 28.37300
H  52.80000 20.47700 24.59100
H  53.32500 19.27400 25.76300
H  52.28900 20.54800 26.20600
H  47.23800 15.82800 23.25700
H  44.37900 15.56600 23.99200
H  45.21600 17.38500 22.30600
H  46.89300 17.73600 22.44000
H  45.72100 18.33500 23.70700
H  45.33200 13.72500 22.91700
H  44.63100 13.27600 24.41900
H  46.70100 12.22900 24.94200
H  47.30400 13.80600 25.19000
H  47.45300 12.85300 23.59000
H  42.38400 12.78200 27.73400
H  41.45300 14.18700 27.66400
H  41.52700 13.23100 29.25300
H  44.70600 14.90900 33.18900
H  42.92400 18.10400 35.48400
H  41.77400 16.81700 35.88000
H  41.51000 17.87700 34.50100

