158

Mg 47.40400 16.47100 29.15400
C  45.20600 16.12500 31.79300
C  49.67200 18.00000 31.25900
C  49.40700 17.10500 26.49700
C  44.97700 14.95900 27.06200
N  47.37300 17.06000 31.20900
C  46.38200 16.82500 32.16500
C  46.83200 17.11800 33.63200
C  48.13600 17.91400 33.39100
C  48.43100 17.61400 31.89900
C  48.18700 19.42200 33.64700
C  46.86300 15.87500 34.62900
C  47.75200 15.97800 35.84500
H  47.54700 17.22400 36.75000
N  49.40100 17.35600 28.86400
C  50.14000 17.87300 29.89900
C  51.41400 18.35700 29.37600
C  51.35600 18.15300 27.95500
C  50.03500 17.50300 27.70100
C  52.59000 18.70200 30.24200
C  52.41500 18.37100 26.81000
O  52.18300 18.07100 25.63200
C  53.69100 18.97900 27.08400
N  47.22700 16.16000 27.09000
C  48.16900 16.53200 26.20100
C  47.71500 16.28400 24.78100
C  46.48100 15.33700 25.04400
C  46.13000 15.51800 26.52600
C  47.43800 17.55200 23.99300
C  46.74800 13.83300 24.63400
C  46.14800 13.23400 23.38300
N  45.41300 15.65300 29.34800
C  44.60800 15.14200 28.44700
C  43.37700 14.76700 29.09700
C  43.55900 15.14000 30.42500
C  44.81500 15.66400 30.52900
C  42.18300 14.15900 28.48400
C  42.97500 15.10500 31.75100
O  41.90600 14.62700 32.10300
C  43.96900 15.85000 32.69900
C  43.36400 17.01100 33.31200
O  42.96100 18.02100 32.79500
O  43.30500 16.72100 34.61500
C  42.50100 17.60500 35.47400
H  50.42400 18.53000 31.84700
H  50.01000 17.30400 25.60900
H  44.19400 14.60400 26.38800
H  46.07300 17.76900 34.06800
H  48.94700 17.47200 33.97000
H  49.18300 19.85200 33.74800
H  47.59800 19.70000 34.52100
H  47.73300 19.70400 32.69700
H  47.29700 15.01200 34.12400
H  45.88000 15.57900 34.99700
H  48.77100 15.81500 35.49500
H  47.41600 15.18700 36.51500
H  53.45000 19.05500 29.67200
H  52.99900 17.91900 30.88000
H  52.22400 19.47000 30.92300
H  53.37100 19.95300 27.45300
H  54.24200 19.05200 26.14700
H  54.11600 18.28800 27.81200
H  48.52100 15.79000 24.23800
H  45.66400 15.78200 24.47500
H  46.86800 18.20700 24.65200
H  46.88300 17.41000 23.06600
H  48.38600 18.04200 23.77000
H  46.39600 13.25300 25.48700
H  47.81400 13.62100 24.56300
H  46.85800 12.51900 22.96600
H  45.90300 13.96100 22.60900
H  45.35900 12.59400 23.77800
H  41.96600 14.87000 27.68800
H  41.43600 14.14900 29.27700
H  42.18500 13.11900 28.15500
H  44.27700 15.16700 33.49000
H  42.35700 17.36700 36.52700
H  41.50600 17.57100 35.03000
H  42.92100 18.61100 35.51300
Mg 5.94300 52.94100 40.56700
C  5.88300 49.33400 40.12300
C  9.21200 52.93400 39.75100
C  5.67700 56.22200 40.31300
C  2.34700 52.67200 41.08900
N  7.29500 51.27400 39.82000
C  7.16800 49.87900 39.93500
C  8.56400 49.21500 39.86600
C  9.54300 50.42700 40.14500
C  8.63300 51.68900 39.99200
C  10.15000 50.49100 41.62400
C  8.86500 48.54300 38.48000
C  8.76100 49.47500 37.20200
H  7.65700 49.14900 36.23000
N  7.25500 54.39500 39.96700
C  8.56500 54.16100 39.65700
C  9.17100 55.40100 39.29600
C  8.17900 56.43900 39.54400
C  6.95500 55.75000 39.90400
C  10.52200 55.53800 38.67500
C  8.39000 57.85500 39.31800
O  9.47700 58.25500 38.91600
C  7.34300 58.91400 39.66900
N  4.20900 54.29000 40.77300
C  4.44000 55.62200 40.66800
C  3.12800 56.31200 40.84200
C  2.02900 55.20100 41.02000
C  2.87200 53.94100 40.97200
C  3.15200 57.43100 41.98900
C  0.85900 55.23100 39.97300
C  -0.54600 55.69000 40.53400
N  4.42600 51.42900 40.72100
C  3.03500 51.44900 40.86800
C  2.48200 50.08400 40.88200
C  3.58400 49.27900 40.58700
C  4.74200 50.07900 40.48900
C  0.95400 49.82000 40.99800
C  3.92300 47.83000 40.32800
O  3.20400 46.83400 40.47900
C  5.44100 47.86400 39.95000
C  5.53000 47.32000 38.64100
O  5.11400 47.87000 37.65300
O  6.19500 46.12100 38.61000
C  6.33100 45.55300 37.27800
H  10.29900 52.83300 39.70900
H  5.55700 57.30600 40.26400
H  1.27000 52.51100 41.17500
H  8.58300 48.41400 40.60500
H  10.48900 50.44000 39.60500
H  10.52100 49.57900 42.09200
H  9.46700 51.00600 42.30000
H  11.03500 51.12800 41.63700
H  8.11400 47.75300 38.49800
H  9.83900 48.05400 38.50500
H  9.74100 49.18400 36.82400
H  8.85100 50.53700 37.42800
H  10.46500 56.36000 37.96200
H  10.69100 54.59600 38.15300
H  11.25200 55.68300 39.47100
H  7.67900 59.93000 39.46400
H  7.09600 58.77900 40.72200
H  6.42600 58.69500 39.12200
H  3.04200 56.80100 39.87200
H  1.64900 55.26300 42.04000
H  3.59500 58.36900 41.65400
H  3.68700 57.00900 42.84000
H  2.19100 57.71200 42.42100
H  0.66700 54.25000 39.53900
H  1.13200 55.85500 39.12200
H  -0.43700 56.02200 41.56600
H  -1.20800 54.82500 40.49300
H  -0.81800 56.54900 39.92000
H  0.46800 49.93400 40.02900
H  0.47100 50.52900 41.67000
H  0.82700 48.85000 41.47700
H  5.90000 47.17600 40.66000
H  7.19100 45.96000 36.74600
H  5.51900 45.61000 36.55300
H  6.46100 44.50600 37.55000

