158

Mg 40.81700 9.90700 30.07500
C  42.38300 10.95200 32.94500
C  38.04600 8.90300 31.87900
C  39.52000 8.66700 27.15800
C  43.49900 11.23900 28.21200
N  40.35900 9.71800 32.21000
C  41.09300 10.34200 33.14600
C  40.31800 10.51200 34.45000
C  39.09900 9.63700 34.19400
C  39.09000 9.45500 32.63000
C  38.90700 8.28300 34.98300
C  40.05600 11.99900 34.76200
C  39.56300 12.20500 36.15500
H  40.44600 13.02100 37.09700
N  39.02700 8.94900 29.59300
C  38.00200 8.56800 30.45900
C  37.04700 7.69300 29.67500
C  37.46000 7.66700 28.33500
C  38.69400 8.48700 28.28400
C  35.86300 7.06900 30.28700
C  36.82200 6.96900 27.15500
O  37.24100 7.15600 26.06600
C  35.61200 6.26300 27.30400
N  41.47300 9.89200 27.95100
C  40.67000 9.37600 26.98900
C  41.27100 9.69200 25.64400
C  42.40600 10.77900 25.99200
C  42.48000 10.69400 27.45200
C  41.73000 8.47900 24.72800
C  42.13000 12.21400 25.43600
C  41.01600 12.97500 26.14100
N  42.68500 10.69900 30.44900
C  43.63500 11.20400 29.59500
C  44.74400 11.67700 30.40300
C  44.30100 11.64400 31.71200
C  43.02800 11.09600 31.71600
C  45.98500 12.26600 29.85300
C  44.57600 12.03200 33.05200
O  45.58400 12.57600 33.56000
C  43.33500 11.60000 33.91600
C  43.80400 10.66300 34.94300
O  44.49600 9.64800 34.65500
O  43.40800 11.13800 36.21800
C  43.66700 10.21100 37.31900
H  37.10100 8.63200 32.35400
H  39.29200 8.16400 26.21500
H  44.27600 11.63700 27.55700
H  40.80100 10.02200 35.29500
H  38.22800 10.17500 34.56900
H  39.84600 8.16000 35.52200
H  38.76500 7.42300 34.32800
H  38.09100 8.44500 35.68800
H  39.31200 12.40800 34.07800
H  40.96800 12.58000 34.62800
H  39.44800 11.31900 36.78000
H  38.59800 12.70600 36.07400
H  35.09700 7.83500 30.17600
H  35.99300 6.88900 31.35500
H  35.66700 6.06600 29.90600
H  35.42100 5.98400 26.26700
H  34.85400 7.02200 27.49400
H  35.62300 5.34100 27.88400
H  40.56300 10.30300 25.08400
H  43.38500 10.42800 25.66500
H  41.30700 7.54400 25.09600
H  42.80600 8.31600 24.66000
H  41.31700 8.73100 23.75100
H  41.92500 12.01500 24.38400
H  43.03400 12.81300 25.54100
H  41.31900 13.99300 26.38800
H  40.55200 12.48100 26.99500
H  40.23600 13.07100 25.38700
H  46.66400 12.44500 30.68700
H  45.64800 13.05400 29.18000
H  46.51600 11.54800 29.22900
H  43.03100 12.53300 34.39100
H  44.46600 9.49200 37.13900
H  42.74000 9.74900 37.65800
H  43.99600 10.86100 38.13000
Mg 49.47600 35.64500 27.40800
C  47.58400 34.02400 29.90000
C  49.88700 38.27400 29.52300
C  50.88100 37.35100 24.84100
C  48.47400 33.10500 25.23300
N  48.81000 36.03300 29.48200
C  48.21600 35.21700 30.36700
C  48.26400 35.78500 31.77500
C  48.68600 37.24800 31.47900
C  49.20900 37.19300 30.11100
C  47.61600 38.31100 31.78500
C  49.30800 35.04900 32.66700
C  49.03100 34.97100 34.15900
H  48.01400 35.91100 34.82300
N  50.37400 37.45000 27.23900
C  50.41100 38.46500 28.23000
C  51.04200 39.64300 27.67400
C  51.41800 39.39400 26.36000
C  50.88000 38.03600 26.09900
C  51.15500 40.82900 28.56300
C  52.09400 40.21300 25.37900
O  52.42400 39.90300 24.19800
C  52.42700 41.65000 25.81500
N  49.66400 35.28400 25.37000
C  50.24700 36.14800 24.50100
C  50.17800 35.65400 23.05200
C  49.51300 34.27500 23.18100
C  49.27300 34.15200 24.73600
C  49.35900 36.67400 22.15300
C  50.36800 33.09800 22.63300
C  51.87600 33.05400 23.04000
N  48.38500 33.81500 27.56100
C  48.06500 32.94800 26.57900
C  47.11200 31.94200 27.07900
C  46.80500 32.42400 28.34600
C  47.68800 33.44400 28.61900
C  46.34900 30.95700 26.23000
C  45.93100 32.13400 29.45500
O  45.00300 31.28800 29.62200
C  46.47600 33.23200 30.57000
C  46.92600 32.35100 31.63100
O  48.03200 31.91200 31.75900
O  45.84000 32.12500 32.44300
C  46.10000 31.23000 33.56800
H  50.12800 39.08600 30.21200
H  51.39500 37.73900 23.95900
H  47.99600 32.43800 24.51200
H  47.28600 35.67500 32.24500
H  49.54100 37.53100 32.09200
H  46.68500 37.74500 31.82800
H  47.45000 38.90900 30.88900
H  47.77800 38.94200 32.65900
H  50.27200 35.53200 32.50600
H  49.45600 34.00100 32.40800
H  49.93000 35.17000 34.74300
H  48.87500 33.92800 34.43400
H  52.04400 40.84000 29.19300
H  50.37700 40.90900 29.32300
H  51.02100 41.74300 27.98400
H  53.00700 41.51100 26.72700
H  51.59800 42.34400 25.95500
H  52.95600 42.04800 24.94900
H  51.18000 35.55600 22.63300
H  48.50800 34.24800 22.76000
H  50.09700 36.94000 21.39600
H  49.08900 37.56700 22.71600
H  48.45800 36.29000 21.67600
H  50.36100 33.15800 21.54400
H  49.80100 32.19500 22.85600
H  52.04900 33.54400 23.99800
H  52.53200 33.63900 22.39600
H  52.32600 32.06200 23.01100
H  45.39400 30.63900 26.64700
H  46.96600 30.21200 25.72900
H  45.93000 31.59000 25.44700
H  45.75700 33.97600 30.91300
H  46.48300 30.28700 33.17800
H  45.21700 31.20400 34.20600
H  46.86300 31.65200 34.22200

