158

Mg 47.55700 45.86800 42.95600
C  44.29800 45.03200 41.83700
C  48.75900 43.17900 40.95300
C  50.78500 46.83500 43.33100
C  46.41500 48.88800 43.86300
N  46.67100 44.25400 41.48300
C  45.30500 44.16800 41.20900
C  45.00400 42.98700 40.24000
C  46.35600 42.18900 40.42800
C  47.34000 43.19300 41.04100
C  46.24600 40.97000 41.41700
C  44.72200 43.49600 38.81500
C  43.30700 43.06400 38.24400
H  43.26500 41.80700 37.29200
N  49.45100 45.00700 42.35000
C  49.72700 43.95800 41.50400
C  51.16600 43.74900 41.45600
C  51.75400 44.71000 42.26700
C  50.68000 45.60800 42.67600
C  51.80500 42.63400 40.64300
C  53.26300 44.86200 42.52300
O  54.01400 43.99900 42.10000
C  53.86700 45.94900 43.40200
N  48.49000 47.69900 43.32500
C  49.84500 47.80000 43.63200
C  50.11100 49.15200 44.21500
C  48.73700 49.87700 44.23300
C  47.78200 48.74500 43.74300
C  50.77000 49.06900 45.63200
C  48.57300 51.04700 43.18200
C  47.64500 52.14600 43.77500
N  45.71900 46.75100 43.05400
C  45.40500 47.94700 43.66200
C  43.97100 48.09700 43.76200
C  43.47800 46.95200 43.04000
C  44.62500 46.14700 42.64300
C  43.10600 49.16100 44.40200
C  42.31000 46.29400 42.51400
O  41.14000 46.71700 42.53000
C  42.80400 45.02600 41.68400
C  42.10000 43.86400 42.22900
O  41.13100 43.35200 41.68300
O  42.77500 43.33200 43.25300
C  42.35000 41.98700 43.62100
H  49.01300 42.26700 40.40900
H  51.78600 47.12400 43.65900
H  46.07300 49.82900 44.29700
H  44.12700 42.49700 40.66400
H  46.78800 41.87200 39.47900
H  45.47700 40.29700 41.03800
H  46.10600 41.28000 42.45200
H  47.19100 40.44600 41.26900
H  45.46400 43.08000 38.13300
H  44.76000 44.57900 38.69400
H  42.61900 43.82900 37.88500
H  42.84300 42.68700 39.15500
H  52.53200 43.01900 39.92700
H  51.12400 41.95100 40.13600
H  52.20900 41.87000 41.30700
H  53.63800 46.83100 42.80300
H  54.94100 45.76700 43.37500
H  53.47500 45.95900 44.41900
H  50.80900 49.53400 43.47000
H  48.33200 50.15400 45.20600
H  51.81100 48.83900 45.40400
H  50.18400 48.28400 46.10900
H  50.62600 49.97400 46.22200
H  48.01200 50.70300 42.31300
H  49.55400 51.24400 42.75000
H  46.80700 52.21000 43.08100
H  48.13100 53.12100 43.76500
H  47.32900 52.07500 44.81600
H  42.67600 49.75100 43.59200
H  43.80100 49.82600 44.91500
H  42.27800 48.78300 45.00200
H  42.50900 44.92100 40.64000
H  42.47300 41.23000 42.84700
H  41.35700 41.82300 44.03900
H  42.91600 41.54400 44.44000
Mg 41.68400 40.34500 26.12200
C  40.70100 42.60500 28.73300
C  42.51600 38.10200 28.49900
C  42.61900 38.24300 23.59200
C  40.97000 42.88700 23.82200
N  41.60900 40.41000 28.37700
C  41.07200 41.33400 29.21900
C  41.04700 40.85300 30.71300
C  41.83300 39.48500 30.55100
C  42.02000 39.33200 29.02400
C  43.14800 39.40500 31.38600
C  39.61300 40.72500 31.28800
C  39.41000 40.20600 32.73400
H  38.98000 41.03500 33.99500
N  42.51900 38.44100 26.09000
C  42.72300 37.61200 27.18500
C  43.22700 36.33400 26.76400
C  43.33800 36.34500 25.35800
C  42.81500 37.71800 24.90300
C  43.66800 35.22900 27.83100
C  43.82500 35.36000 24.30500
O  43.69800 35.40300 23.09000
C  44.49600 34.08100 24.82800
N  41.76800 40.58600 24.03000
C  42.09900 39.53800 23.25200
C  42.05400 39.89400 21.78500
C  41.30200 41.24900 21.79000
C  41.26400 41.61000 23.25500
C  43.44200 39.93700 20.95800
C  39.90200 41.15100 21.17500
C  38.92900 40.10400 21.84600
N  41.05500 42.33000 26.16600
C  40.81500 43.21600 25.14300
C  40.37000 44.49900 25.65900
C  40.34500 44.29300 27.02800
C  40.76200 42.96700 27.31200
C  40.06500 45.71800 24.88000
C  40.10500 44.88500 28.21400
O  39.89600 46.08500 28.43600
C  40.12700 43.80700 29.37100
C  41.02200 44.24000 30.53000
O  42.23100 44.46600 30.45900
O  40.30500 44.43000 31.61900
C  41.02500 44.98700 32.73900
H  42.72800 37.38600 29.29500
H  42.93900 37.56200 22.80100
H  40.77400 43.65400 23.07000
H  41.50400 41.54600 31.41900
H  41.19600 38.66700 30.88800
H  43.24600 40.30600 31.99100
H  43.94000 39.50200 30.64300
H  43.31800 38.47400 31.92700
H  39.11200 40.08200 30.56300
H  39.18800 41.72800 31.27300
H  40.31600 39.73700 33.11800
H  38.67300 39.41800 32.58200
H  43.70500 35.62400 28.84700
H  44.69300 34.93900 27.59800
H  43.02900 34.35800 27.68700
H  45.05600 33.59900 24.02700
H  43.62400 33.47400 25.07100
H  45.03900 34.21900 25.76300
H  41.50100 39.12500 21.24500
H  41.95100 42.00600 21.34900
H  43.73800 40.92600 20.60600
H  43.36300 39.35500 20.03900
H  44.11700 39.44600 21.65900
H  40.00300 40.84500 20.13300
H  39.48600 42.15500 21.09200
H  38.49900 39.54800 21.01300
H  38.03400 40.57600 22.25200
H  39.41300 39.42000 22.54300
H  40.80400 46.51700 24.82100
H  39.20900 46.13200 25.41100
H  39.80700 45.37700 23.87700
H  39.08600 43.68800 29.66900
H  41.48100 44.15100 33.27000
H  40.29900 45.50700 33.36400
H  41.83000 45.70300 32.58000

