158

Mg 40.53000 8.28200 29.68800
C  42.26800 9.57300 32.45300
C  37.98000 7.52300 31.88800
C  39.01100 6.48400 27.18700
C  43.28800 8.78600 27.74400
N  40.32800 8.38700 31.92600
C  41.00200 9.09000 32.81600
C  40.39200 9.17000 34.21900
C  39.06800 8.40800 34.02700
C  39.11500 8.06800 32.51300
C  38.85800 7.16300 34.89800
C  40.28700 10.66500 34.77300
C  39.34400 10.93600 35.99500
H  39.86000 11.63600 37.15400
N  38.72400 7.22700 29.52200
C  37.80200 7.15300 30.53000
C  36.58800 6.52700 29.99000
C  36.82700 6.19100 28.62400
C  38.24500 6.61200 28.41800
C  35.32600 6.24000 30.87500
C  35.93300 5.67900 27.57300
O  36.41900 5.32500 26.51200
C  34.51700 5.46700 27.83300
N  41.04600 7.77400 27.76500
C  40.28300 6.96700 26.94300
C  40.95900 6.88700 25.48500
C  42.33500 7.62300 25.68200
C  42.21100 8.15400 27.13300
C  41.08700 5.39400 24.98400
C  42.77300 8.69600 24.59800
C  42.17800 10.08600 24.82200
N  42.40200 9.08200 29.94800
C  43.38000 9.31600 29.03800
C  44.49100 10.00600 29.64200
C  44.10700 10.10700 31.01500
C  42.82800 9.59900 31.10900
C  45.76400 10.48600 29.00700
C  44.48800 10.54700 32.36700
O  45.61500 10.81800 32.77800
C  43.26500 10.32300 33.35900
C  43.63300 9.39100 34.47500
O  44.16000 8.31300 34.35900
O  43.48200 10.05400 35.65400
C  44.01100 9.30200 36.84400
H  37.15400 7.21200 32.53100
H  38.58400 6.03300 26.28900
H  44.24700 8.86400 27.22700
H  41.02900 8.57400 34.87200
H  38.24500 9.12100 34.07400
H  38.95500 6.23300 34.33900
H  37.89100 7.17300 35.40300
H  39.62800 7.14600 35.66900
H  39.95000 11.22700 33.90200
H  41.21500 11.15400 35.06800
H  39.08600 9.94500 36.36900
H  38.43200 11.43600 35.66800
H  34.59400 6.91900 30.43900
H  35.43600 6.52900 31.92000
H  34.94200 5.25300 30.61700
H  34.07600 6.32800 28.33500
H  34.31400 4.65800 28.53500
H  33.99200 5.03200 26.98300
H  40.34900 7.41000 24.74900
H  43.22000 7.00300 25.82400
H  42.08800 5.27800 24.56900
H  40.39900 5.26100 24.14900
H  40.96700 4.71800 25.83100
H  42.35100 8.43600 23.62700
H  43.86200 8.70100 24.54900
H  41.64500 10.40200 23.92500
H  43.01600 10.71700 25.11800
H  41.52100 10.24200 25.67700
H  45.64900 11.36300 28.36900
H  46.19800 9.68800 28.40500
H  46.58000 10.70900 29.69400
H  42.95600 11.30800 33.70900
H  44.01700 8.21600 36.75700
H  43.23800 9.39800 37.60600
H  44.94400 9.74300 37.19500
Mg 8.60400 48.94500 28.59700
C  6.67700 47.87500 31.25600
C  11.37200 48.89900 30.52700
C  10.32700 50.16200 26.00900
C  5.58200 49.54500 26.76300
N  8.95400 48.59200 30.75600
C  8.00600 48.04600 31.65500
C  8.69000 47.89900 33.08800
C  10.20900 48.33700 32.80200
C  10.18200 48.73300 31.27200
C  10.67300 49.50200 33.79200
C  8.65100 46.45600 33.72800
C  9.78100 45.87900 34.67800
H  9.53600 45.02100 35.97500
N  10.57600 49.31800 28.26200
C  11.60600 49.11400 29.17500
C  12.86300 49.12200 28.48100
C  12.63700 49.44500 27.14100
C  11.15200 49.65400 27.06900
C  14.16700 48.68800 29.18200
C  13.55300 49.43400 25.96600
O  13.11500 49.61500 24.84400
C  15.03900 49.24600 26.16900
N  7.93100 49.61000 26.58000
C  8.90300 50.20600 25.77800
C  8.30800 50.94500 24.56400
C  6.76300 50.65000 24.78900
C  6.74400 49.96500 26.16300
C  8.53200 52.50900 24.43900
C  6.05800 49.70000 23.70500
C  6.80800 48.49400 23.22700
N  6.55800 48.68100 28.83900
C  5.43900 48.85700 27.98800
C  4.25500 48.33800 28.63900
C  4.69100 47.99100 29.93100
C  6.15200 48.15200 30.00600
C  2.91700 48.09900 27.95300
C  4.21800 47.35900 31.20600
O  3.11400 46.98300 31.57500
C  5.53400 47.31500 32.10900
C  5.68100 45.95200 32.60700
O  6.05600 44.98000 31.99000
O  5.15900 45.86600 33.86100
C  5.24000 44.53700 34.47400
H  12.21800 48.70800 31.19100
H  10.90400 50.50300 25.14700
H  4.61000 49.71700 26.29500
H  8.17400 48.62200 33.72100
H  10.93400 47.52900 32.89700
H  10.86500 50.43700 33.26700
H  11.58500 49.13400 34.26300
H  9.93300 49.56000 34.59000
H  8.43300 45.74300 32.93300
H  7.68600 46.51100 34.23400
H  10.41400 46.70300 35.00700
H  10.39900 45.22400 34.06500
H  14.73000 47.84100 28.79200
H  13.95800 48.32300 30.18800
H  14.86000 49.52700 29.25300
H  15.34000 49.92700 26.96500
H  15.48800 49.54400 25.22100
H  15.28300 48.18500 26.20900
H  8.65300 50.55800 23.60500
H  6.05100 51.45100 24.99000
H  7.58500 53.04700 24.39200
H  9.13800 52.71300 23.55600
H  8.99700 52.89800 25.34400
H  6.01800 50.25900 22.77000
H  5.10700 49.32400 24.08300
H  7.11700 48.52600 22.18200
H  6.18300 47.61000 23.35100
H  7.66300 48.33900 23.88500
H  3.08800 47.74700 26.93500
H  2.33100 49.01700 27.92800
H  2.41500 47.33900 28.55200
H  5.32800 47.93000 32.98400
H  4.85300 43.67000 33.93800
H  4.52200 44.60800 35.29100
H  6.24400 44.25500 34.79100

