158

Mg -1.63600 17.44200 27.43100
C  -2.08600 15.20800 30.13500
C  -2.42400 19.98600 29.58500
C  -1.85200 19.66500 24.85100
C  -1.77300 14.85400 25.25800
N  -2.28100 17.49500 29.61600
C  -2.33600 16.48700 30.51100
C  -2.58700 17.02200 31.99600
C  -2.61600 18.58300 31.75600
C  -2.50500 18.71000 30.21900
C  -3.90300 19.23000 32.28200
C  -1.55400 16.56100 32.99200
C  -1.25200 17.45200 34.19200
H  -0.53000 16.79500 35.33900
N  -1.75800 19.57000 27.32200
C  -2.21000 20.44000 28.24700
C  -2.16400 21.85300 27.77300
C  -1.72500 21.64600 26.39400
C  -1.79700 20.25500 26.12200
C  -2.39100 23.13500 28.59600
C  -1.32700 22.68400 25.39100
O  -0.99200 22.45700 24.27700
C  -1.16900 24.06600 25.92900
N  -1.98000 17.32300 25.32900
C  -2.01200 18.36900 24.46000
C  -1.92800 17.79300 23.04900
C  -1.85700 16.23000 23.19000
C  -1.89600 16.10200 24.70800
C  -3.03600 18.19300 22.09600
C  -0.56700 15.53300 22.71600
C  0.70900 15.97800 23.52000
N  -1.74000 15.43900 27.61100
C  -1.77000 14.52400 26.63300
C  -1.78600 13.20000 27.25700
C  -1.91700 13.41000 28.61500
C  -1.87500 14.81100 28.79300
C  -1.82100 11.94900 26.57400
C  -2.09400 12.70300 29.84700
O  -2.20500 11.52600 30.10000
C  -2.08500 13.89000 30.97700
C  -0.88800 13.71100 31.75400
O  0.20400 14.17500 31.42300
O  -1.16900 13.07900 32.90900
C  0.09900 12.77500 33.63800
H  -2.44400 20.85400 30.24700
H  -1.65900 20.31300 23.99300
H  -1.82700 14.08300 24.48600
H  -3.54900 16.63100 32.32800
H  -1.69500 19.02900 32.12900
H  -4.44800 18.52800 32.91300
H  -4.45100 19.69100 31.46100
H  -3.57100 19.97300 33.00800
H  -0.68000 16.41100 32.35800
H  -1.82300 15.55000 33.29900
H  -2.19900 17.92700 34.44600
H  -0.64800 18.28800 33.83900
H  -3.06100 22.73500 29.35700
H  -3.02200 23.83000 28.04300
H  -1.49700 23.55600 29.05600
H  -2.13300 24.41200 26.30100
H  -0.88400 24.70700 25.09500
H  -0.30200 24.00100 26.58700
H  -0.98900 18.20000 22.67100
H  -2.63200 15.63500 22.70700
H  -3.30100 19.22800 22.31200
H  -3.91800 17.58500 22.30200
H  -2.73400 18.10200 21.05300
H  -0.44200 15.81500 21.67100
H  -0.59900 14.44500 22.67100
H  0.52400 16.85800 24.13600
H  1.52400 16.28500 22.86500
H  1.12300 15.14000 24.08000
H  -1.37800 12.02000 25.58100
H  -2.80800 11.48600 26.60700
H  -1.16200 11.27800 27.12500
H  -2.94500 13.74700 31.63200
H  -0.14900 12.46900 34.65500
H  0.69200 13.68900 33.67800
H  0.73200 11.98200 33.24000
Mg 0.80900 8.01900 27.04600
C  1.70100 10.05200 29.73400
C  0.71900 5.37100 29.25000
C  0.58600 6.02900 24.32300
C  1.09100 10.72500 24.92000
N  1.17300 7.78100 29.18900
C  1.31000 8.76000 30.11600
C  1.08200 8.28200 31.57800
C  1.17400 6.72900 31.29000
C  0.95900 6.65000 29.78400
C  2.49100 6.03400 31.79600
C  -0.20100 8.79700 32.31200
C  -0.22000 8.91700 33.81800
H  1.00700 8.55400 34.66100
N  0.72600 5.94400 26.81400
C  0.68100 5.06100 27.87200
C  0.73000 3.70700 27.23500
C  0.62100 3.86300 25.83000
C  0.64000 5.33500 25.61900
C  0.72000 2.40600 27.98700
C  0.46400 2.90700 24.75400
O  0.45100 3.31200 23.60700
C  0.30400 1.43100 24.96600
N  1.01200 8.33200 24.88900
C  0.63900 7.39800 24.00300
C  0.61100 7.93800 22.53300
C  0.38300 9.49200 22.88400
C  0.78600 9.50700 24.33200
C  1.91000 7.69400 21.72100
C  -1.05800 9.87300 22.45000
C  -1.21500 10.86100 21.23200
N  1.45200 10.01400 27.20100
C  1.50600 10.98500 26.31000
C  1.99100 12.15300 26.90900
C  2.14000 11.83600 28.30600
C  1.78800 10.53500 28.42800
C  1.99800 13.57000 26.33700
C  2.44000 12.44300 29.58000
O  2.83300 13.51900 30.05700
C  2.10800 11.30500 30.59000
C  3.33900 11.16400 31.45700
O  4.34300 10.58200 31.16400
O  3.05600 11.79000 32.61300
C  4.04400 11.80300 33.67900
H  0.66600 4.57500 29.99500
H  0.38600 5.42700 23.43400
H  0.95300 11.58800 24.26600
H  1.99600 8.50600 32.12900
H  0.35500 6.18000 31.75400
H  3.06600 6.77200 32.35600
H  3.14800 5.85800 30.94500
H  2.19900 5.14200 32.35000
H  -1.00200 8.13000 31.99500
H  -0.39100 9.79200 31.91000
H  -0.99300 8.20000 34.09300
H  -0.63100 9.89600 34.06500
H  0.95300 2.63800 29.02600
H  1.47900 1.78400 27.51200
H  -0.25700 1.92300 27.99400
H  -0.04200 0.88600 24.08700
H  -0.37500 1.22100 25.79200
H  1.25900 1.02700 25.30200
H  -0.25200 7.51700 22.01600
H  1.15000 10.01200 22.31000
H  2.41200 8.62400 21.45200
H  1.69100 7.23700 20.75600
H  2.61600 7.12500 22.32600
H  -1.53900 10.25700 23.34900
H  -1.68000 9.02200 22.17100
H  -0.28500 10.92300 20.66700
H  -1.64400 11.83400 21.46900
H  -1.98900 10.36900 20.64300
H  2.65700 14.30700 26.79500
H  0.97700 13.93900 26.43800
H  2.20100 13.55300 25.26600
H  1.21400 11.64600 31.11300
H  4.53600 12.77500 33.72200
H  4.83600 11.05500 33.67000
H  3.52400 11.73400 34.63400

