158

Mg 48.16000 15.11000 28.32900
C  46.08400 15.26000 31.34500
C  50.30500 17.28200 29.80100
C  49.91400 15.09100 25.50300
C  45.51800 13.48800 26.86900
N  48.09200 16.07500 30.38700
C  47.29500 16.00400 31.44000
C  47.88900 16.65200 32.67700
C  49.19100 17.50900 32.12400
C  49.19300 16.89300 30.63000
C  49.05400 19.05500 32.16600
C  48.33200 15.60800 33.70900
C  47.85100 15.90600 35.19900
H  47.74100 17.25200 35.82600
N  50.00300 15.99200 27.73700
C  50.75300 16.83700 28.49400
C  52.03800 17.14900 27.73300
C  51.92200 16.42700 26.49000
C  50.56500 15.79200 26.52500
C  53.09000 18.04000 28.27300
C  52.95300 16.43700 25.35900
O  52.69100 15.84500 24.32100
C  54.21800 17.19900 25.44400
N  47.72400 14.56100 26.37700
C  48.64100 14.60700 25.37200
C  48.15600 13.92400 24.06600
C  46.78400 13.33100 24.54100
C  46.67100 13.78000 26.06800
C  48.09700 14.76800 22.77200
C  46.56800 11.82900 24.24800
C  47.02800 10.84600 25.33500
N  46.18000 14.42200 28.91300
C  45.27400 13.80400 28.18800
C  44.12200 13.37700 28.95000
C  44.36800 14.00000 30.23900
C  45.58000 14.65700 30.13700
C  43.05600 12.47500 28.51200
C  43.94200 14.09500 31.55600
O  42.95600 13.55000 32.12200
C  45.00200 14.95100 32.34000
C  44.30000 16.15000 32.99400
O  43.35900 16.82700 32.49400
O  44.75900 16.34700 34.24000
C  43.98500 17.24700 35.18900
H  51.07900 17.82300 30.34900
H  50.48100 15.06900 24.57000
H  44.75400 12.82700 26.45300
H  47.05700 17.24600 33.05500
H  50.05600 17.25600 32.73700
H  49.32000 19.45400 31.18700
H  49.61500 19.38700 33.03900
H  48.02600 19.34900 32.37900
H  49.40600 15.42100 33.72400
H  47.88400 14.67400 33.37000
H  48.36400 15.23100 35.88300
H  46.82000 15.56500 35.29100
H  52.57100 18.55400 29.08200
H  53.41200 18.84300 27.60900
H  53.94900 17.46800 28.62300
H  53.94600 18.25300 25.38400
H  54.81300 16.92300 24.57400
H  54.72100 17.07800 26.40400
H  48.73100 13.02900 23.82800
H  45.95400 13.91400 24.14200
H  48.65200 15.69800 22.90000
H  47.13200 15.13200 22.42000
H  48.69800 14.20100 22.06100
H  46.88400 11.54600 23.24400
H  45.50500 11.61500 24.36300
H  46.19100 10.71400 26.02000
H  47.88800 11.16800 25.92300
H  47.32800 9.90800 24.86600
H  43.35500 11.42700 28.48300
H  42.79300 12.67400 27.47300
H  42.11200 12.56400 29.05000
H  45.51200 14.37900 33.11400
H  43.03600 16.80200 35.48600
H  43.88800 18.26700 34.81800
H  44.53600 17.28100 36.12900
Mg 26.41900 49.75000 25.99200
C  24.22300 51.03500 28.43400
C  28.40500 48.66400 28.66300
C  28.69700 48.78100 23.67200
C  24.48000 51.14800 23.58100
N  26.23800 49.76900 28.29700
C  25.28800 50.38300 29.07800
C  25.44900 49.96200 30.57800
C  26.90100 49.41900 30.65500
C  27.20000 49.22900 29.08800
C  27.96700 50.36800 31.32600
C  24.26300 49.11200 31.11100
C  23.75100 49.46900 32.53000
H  23.85900 48.28300 33.56500
N  28.32400 48.88900 26.17100
C  29.00000 48.54400 27.32800
C  30.31600 48.00000 27.03500
C  30.47500 48.12100 25.58500
C  29.14800 48.64900 25.08600
C  31.21100 47.46900 28.05900
C  31.68400 47.84100 24.76300
O  31.82600 48.14600 23.57700
C  32.85200 47.17200 25.35900
N  26.57100 49.89000 23.91500
C  27.42900 49.23500 23.16600
C  27.06800 49.31400 21.63600
C  25.86300 50.31100 21.60800
C  25.58400 50.46000 23.09300
C  28.29800 49.77200 20.76300
C  24.62700 49.72500 20.93500
C  23.86100 48.62800 21.73300
N  24.67600 50.85900 25.96600
C  23.96300 51.34400 24.90600
C  22.76800 52.04300 25.35200
C  22.85100 51.98300 26.71700
C  24.08000 51.27800 27.03700
C  21.63100 52.54100 24.44700
C  22.14400 52.31100 27.98000
O  21.12900 52.97100 28.14000
C  22.98100 51.63700 29.10200
C  23.43900 52.70900 30.03800
O  24.28800 53.56400 29.93200
O  22.69200 52.48200 31.22300
C  22.89700 53.29800 32.36500
H  28.90200 48.32400 29.57400
H  29.44100 48.29900 23.03300
H  23.92400 51.60300 22.75800
H  25.45900 50.87400 31.17600
H  26.87500 48.45600 31.16400
H  28.53800 49.92000 32.13900
H  27.46400 51.15100 31.89200
H  28.66100 50.83800 30.62800
H  24.58000 48.07000 31.07400
H  23.43900 49.09300 30.39700
H  22.75600 49.91400 32.51600
H  24.44700 50.21500 32.91400
H  30.75700 47.57400 29.04400
H  32.20100 47.91600 28.15400
H  31.30700 46.42600 27.75800
H  32.53800 46.26700 25.87800
H  33.23200 47.90700 26.06900
H  33.60300 46.97600 24.59400
H  26.76700 48.32400 21.29300
H  26.05800 51.27800 21.14400
H  28.42000 49.02200 19.98100
H  29.24100 49.82700 21.30600
H  28.16600 50.76500 20.33500
H  24.91900 49.25300 19.99700
H  23.95000 50.50300 20.58200
H  22.86800 49.00300 21.97900
H  24.29500 48.38300 22.70300
H  23.77500 47.69000 21.18400
H  21.07400 51.65300 24.15000
H  21.91800 53.10800 23.56100
H  21.02000 53.16000 25.10400
H  22.33200 50.90100 29.57500
H  23.28000 52.61600 33.12400
H  21.93100 53.64200 32.73500
H  23.53700 54.18100 32.34400

