158

Mg 44.66400 3.84400 46.59300
C  42.49800 6.75200 46.63800
C  41.85900 1.91100 46.03200
C  46.81700 1.37500 45.62000
C  47.31100 6.17500 46.59300
N  42.39800 4.38000 46.15500
C  41.75300 5.58300 46.37000
C  40.25400 5.35600 46.23500
C  40.07300 3.74700 46.40700
C  41.52900 3.27800 46.28200
C  39.47100 3.25500 47.81100
C  39.44700 6.00100 45.08900
C  39.98300 5.70500 43.68700
H  39.86600 6.79100 42.56000
N  44.35900 1.86000 45.94400
C  43.12400 1.25900 45.85700
C  43.37000 -0.14400 45.55800
C  44.81700 -0.33000 45.27900
C  45.43900 0.97600 45.60200
C  42.21000 -1.10300 45.35800
C  45.43800 -1.64200 44.65000
O  44.77600 -2.66000 44.34200
C  46.91200 -1.74300 44.39200
N  46.63300 3.82500 46.05600
C  47.31300 2.61700 45.86800
C  48.81500 2.93200 45.80000
C  48.94200 4.45100 45.97000
C  47.49700 4.84400 46.24800
C  49.63800 1.99500 46.73600
C  49.81100 5.16500 44.82100
C  51.22100 5.51000 45.30500
N  44.93300 6.05800 46.81200
C  46.09500 6.84800 46.73800
C  45.76600 8.26600 46.86500
C  44.34700 8.29000 46.75700
C  43.91600 6.94200 46.71900
C  46.83000 9.32500 46.90800
C  43.18500 9.20800 46.65000
O  43.14900 10.42200 46.58900
C  41.94500 8.21300 46.67500
C  41.16300 8.45200 47.94500
O  41.60700 8.09500 49.02700
O  39.91000 9.02800 47.77600
C  39.11300 8.91300 48.99000
H  41.07900 1.14800 46.08100
H  47.62100 0.65200 45.46600
H  48.15400 6.86500 46.66200
H  39.82900 5.74100 47.16200
H  39.46700 3.42300 45.56100
H  38.73000 3.94500 48.21400
H  40.21800 2.99600 48.56100
H  38.86900 2.37900 47.56900
H  39.48600 7.07600 45.26300
H  38.43500 5.61700 45.21800
H  39.23900 4.94600 43.44400
H  40.95500 5.21100 43.67300
H  42.53200 -2.14200 45.43200
H  41.93300 -0.79900 44.34900
H  41.45300 -0.95800 46.12900
H  47.51700 -1.63600 45.29200
H  47.22200 -0.98800 43.66900
H  47.11800 -2.70400 43.92000
H  49.08600 2.67300 44.77700
H  49.43100 4.66400 46.92000
H  49.95000 1.19000 46.07100
H  49.05500 1.60300 47.56900
H  50.41500 2.66500 47.10300
H  49.21700 6.05500 44.61100
H  49.94200 4.45100 44.00800
H  51.39900 6.57400 45.14700
H  51.92900 4.91100 44.73300
H  51.30500 5.19700 46.34500
H  46.60800 9.82000 47.85400
H  46.65300 10.12100 46.18500
H  47.86600 8.98900 46.92000
H  41.31200 8.41200 45.81100
H  38.94200 7.91800 49.40100
H  38.10300 9.10200 48.62600
H  39.20600 9.57400 49.85200
Mg 0.49800 43.00600 25.56700
C  2.61500 42.72900 28.42800
C  -2.00400 41.84600 27.36400
C  -1.10900 42.59000 22.63100
C  3.45900 43.51600 23.59100
N  0.39200 42.36900 27.62000
C  1.26500 42.53700 28.66900
C  0.61200 42.59400 29.99300
C  -0.84200 42.06000 29.68400
C  -0.84300 42.01400 28.13200
C  -1.12400 40.66000 30.40900
C  0.74700 44.05100 30.65700
C  1.25700 44.00300 32.13900
H  1.16600 42.70500 32.97500
N  -1.31700 42.45500 25.06000
C  -2.26300 41.92900 25.97400
C  -3.44200 41.49800 25.28600
C  -3.22700 41.91100 23.95200
C  -1.81900 42.31200 23.81800
C  -4.58600 40.92100 26.00200
C  -4.23000 41.98100 22.73400
O  -4.00100 42.38300 21.60600
C  -5.66300 41.54800 22.97400
N  1.02200 43.24200 23.34800
C  0.21800 42.97700 22.31000
C  0.86000 43.21300 20.95600
C  2.29200 43.72800 21.30400
C  2.25600 43.47700 22.84100
C  0.89500 41.87600 20.13400
C  2.49900 45.22400 21.03000
C  3.63500 45.50700 20.05800
N  2.62600 43.13400 25.83200
C  3.62900 43.33400 24.99100
C  4.91000 43.19400 25.68100
C  4.54300 43.09500 27.01700
C  3.14400 42.97800 27.10200
C  6.31200 43.24100 25.07200
C  5.06000 43.00400 28.41200
O  6.17300 43.15900 28.81100
C  3.78200 42.87100 29.35700
C  3.92700 41.72100 30.31500
O  3.39100 40.57000 30.19100
O  4.84500 42.03400 31.21600
C  5.12300 41.23700 32.46900
H  -2.92200 41.71400 27.94000
H  -1.69800 42.33000 21.74900
H  4.40500 43.70700 23.07900
H  1.25400 41.96000 30.60500
H  -1.65600 42.74500 29.92200
H  -0.21200 40.06600 30.46300
H  -1.78500 40.04300 29.80000
H  -1.58700 40.79100 31.38800
H  -0.17200 44.63500 30.69500
H  1.44600 44.66900 30.09400
H  0.73800 44.82200 32.63600
H  2.32800 44.20200 32.18500
H  -4.26900 40.33000 26.86200
H  -5.17300 40.25900 25.36500
H  -5.23100 41.73900 26.32200
H  -5.73200 40.47000 22.83400
H  -6.34800 42.09400 22.32500
H  -5.96100 41.80800 23.99000
H  0.28900 44.01900 20.49600
H  3.08700 43.13300 20.85300
H  1.79300 41.37400 20.49400
H  1.08300 42.06500 19.07700
H  0.07300 41.19500 20.35400
H  2.74000 45.83100 21.90200
H  1.60000 45.72400 20.66900
H  4.18600 44.70300 19.57100
H  4.36100 46.09200 20.62300
H  3.27200 46.15100 19.25700
H  6.35500 42.87800 24.04500
H  7.00600 42.63800 25.65700
H  6.69100 44.26000 24.99000
H  3.60700 43.76600 29.95500
H  4.45000 40.38000 32.50300
H  5.05900 41.77700 33.41400
H  6.14600 40.86300 32.46400

