158

Mg 47.82500 15.07800 28.75900
C  45.67200 15.08700 31.48000
C  49.86700 17.21100 30.62200
C  49.78600 15.20600 26.08400
C  45.47700 13.23600 26.95900
N  47.64600 16.15000 30.86000
C  46.79000 15.83700 31.75600
C  47.15600 16.52800 33.08900
C  48.42800 17.34900 32.78900
C  48.62000 16.97800 31.30600
C  48.23300 18.96100 33.01000
C  47.42400 15.30800 34.05600
C  46.65100 15.46400 35.39000
H  47.53800 16.21700 36.42900
N  49.55800 15.95900 28.43300
C  50.29200 16.73900 29.32300
C  51.65300 16.85800 28.78100
C  51.63000 16.43700 27.48800
C  50.31300 15.83700 27.27400
C  52.71400 17.39300 29.60400
C  52.67900 16.46800 26.44500
O  52.54400 15.89700 25.38100
C  53.93500 17.25100 26.78200
N  47.55800 14.48000 26.68500
C  48.56200 14.62900 25.76900
C  48.22400 13.95200 24.46900
C  46.91000 13.19500 24.85600
C  46.59900 13.64600 26.28000
C  48.20700 14.84500 23.22400
C  47.05000 11.69500 24.52400
C  47.64000 10.79700 25.69900
N  45.92800 14.32700 29.07100
C  45.11200 13.54600 28.31300
C  43.86800 13.21300 29.03200
C  44.02800 13.86200 30.27000
C  45.29800 14.45900 30.27200
C  42.77000 12.33500 28.55800
C  43.44000 14.09400 31.59900
O  42.40300 13.67600 32.07200
C  44.50700 14.85600 32.36100
C  43.91900 16.12800 32.87800
O  43.91200 17.21000 32.36600
O  43.36900 15.75800 34.09900
C  42.75500 16.78600 34.97100
H  50.50800 17.92800 31.13900
H  50.47800 15.12700 25.24300
H  44.79100 12.64300 26.35100
H  46.37500 17.23500 33.36800
H  49.26200 17.05400 33.42600
H  47.22200 19.25900 33.29000
H  48.60900 19.48200 32.12900
H  48.90000 19.16100 33.84800
H  48.48600 15.25000 34.29100
H  47.34600 14.34000 33.56000
H  46.43300 14.45000 35.72300
H  45.73900 16.03200 35.20600
H  53.08200 18.33900 29.20600
H  53.55400 16.69900 29.63400
H  52.41400 17.59200 30.63300
H  54.39900 16.71100 27.60700
H  53.72600 18.29200 27.02800
H  54.67600 17.21700 25.98300
H  49.06300 13.25600 24.44700
H  46.06600 13.51900 24.24700
H  48.69400 14.36400 22.37600
H  48.57400 15.86000 23.38000
H  47.16800 15.01600 22.94300
H  47.63700 11.56500 23.61400
H  46.01900 11.42700 24.29200
H  47.88000 11.41400 26.56500
H  48.63800 10.49700 25.38000
H  47.06000 9.92200 25.99100
H  42.37400 12.58400 27.57400
H  42.00700 12.38700 29.33500
H  43.10500 11.29800 28.57800
H  44.90400 14.35700 33.24400
H  43.40000 17.05500 35.80700
H  41.82700 16.29200 35.26100
H  42.48300 17.66600 34.38700
Mg 35.88700 49.48000 25.78200
C  35.86300 47.56400 28.68000
C  34.24700 52.03200 27.40700
C  35.73200 51.17800 22.82800
C  36.94300 46.57100 23.97800
N  35.19600 49.74200 27.81400
C  35.46700 48.92500 28.88900
C  34.98400 49.61100 30.24000
C  34.47100 51.01700 29.81800
C  34.62000 50.91200 28.24500
C  33.11300 51.47600 30.37600
C  36.07900 49.45900 31.35100
C  35.53800 49.00000 32.70900
H  35.39600 50.01800 33.81200
N  35.22600 51.41500 25.21800
C  34.45400 52.25400 26.02800
C  34.09900 53.45200 25.33200
C  34.58900 53.20400 23.98300
C  35.21100 51.86200 23.94300
C  33.54600 54.74600 25.91900
C  34.51300 54.09900 22.67300
O  34.83500 53.73200 21.52900
C  34.06200 55.54400 22.77700
N  36.13400 48.90300 23.66800
C  36.11400 49.81100 22.70500
C  36.57700 49.16600 21.36800
C  37.10600 47.79300 21.78300
C  36.67700 47.71700 23.27800
C  35.43100 49.17200 20.29200
C  38.58700 47.47000 21.39700
C  38.92600 46.07400 20.96400
N  36.31300 47.42400 26.15600
C  36.67500 46.35400 25.35000
C  36.97400 45.20600 26.20700
C  36.63800 45.58200 27.48600
C  36.24400 47.00900 27.41400
C  37.49600 43.82900 25.77600
C  36.55700 45.14800 28.89000
O  36.74600 44.07200 29.43800
C  36.09700 46.44800 29.69800
C  34.92200 46.02300 30.46600
O  33.80400 46.03000 30.07900
O  35.36400 45.84300 31.79100
C  34.41800 45.31900 32.79300
H  33.83900 52.83700 28.02200
H  35.79500 51.62000 21.83200
H  37.36200 45.70900 23.45700
H  34.14700 48.98500 30.54800
H  35.20400 51.74600 30.16400
H  32.39300 51.88100 29.66500
H  33.38800 52.32000 31.00900
H  32.67900 50.64300 30.92900
H  36.48000 50.45500 31.53800
H  36.94400 48.87100 31.04300
H  35.92000 48.06700 33.12400
H  34.52400 48.66700 32.48300
H  34.22000 55.56400 25.66700
H  33.47500 54.68700 27.00500
H  32.65700 54.94500 25.32000
H  33.10000 55.65700 23.27700
H  33.91700 56.10000 21.85100
H  34.87000 56.07000 23.28500
H  37.36300 49.85800 21.06600
H  36.46800 47.12900 21.20000
H  34.73800 50.00200 20.42500
H  34.91900 48.21100 20.24100
H  35.83800 49.42500 19.31300
H  39.13000 47.70700 22.31200
H  38.93900 48.20800 20.67600
H  39.25000 46.26400 19.94100
H  38.06000 45.41500 21.02500
H  39.74600 45.65500 21.54800
H  37.68000 43.71200 24.70900
H  36.67300 43.19000 26.09700
H  38.40100 43.64100 26.35300
H  36.95300 46.68900 30.32800
H  34.41200 46.06500 33.58700
H  34.74400 44.34500 33.15900
H  33.43600 45.17600 32.34000

