158

Mg 30.57400 58.09500 40.44200
C  27.69800 56.30100 39.56700
C  32.55600 55.70500 39.17300
C  33.24200 60.23800 40.53700
C  28.43300 60.84100 41.24600
N  30.11700 56.29400 39.37400
C  28.89300 55.66200 39.21800
C  29.02400 54.19400 38.71300
C  30.57800 54.08600 38.75300
C  31.17300 55.46300 39.16400
C  31.02800 52.98700 39.71000
C  28.27400 53.80300 37.39800
C  29.05900 53.90500 36.06700
H  28.21800 54.11600 34.84900
N  32.66200 58.00000 40.07200
C  33.23900 56.88100 39.50500
C  34.68800 57.04800 39.51800
C  34.92500 58.35200 40.01100
C  33.54900 58.94700 40.21200
C  35.69600 55.97800 39.13900
C  36.30500 59.02600 40.33900
O  37.39100 58.38600 40.21300
C  36.49800 60.49400 40.70600
N  30.82100 60.18900 40.87400
C  32.04000 60.80900 40.94400
C  31.86800 62.29600 41.11500
C  30.35300 62.44800 41.51200
C  29.81600 61.07600 41.18700
C  32.81800 63.09300 42.08700
C  29.49600 63.73600 40.92600
C  28.75700 64.58000 42.01700
N  28.47400 58.52100 40.52000
C  27.70600 59.68100 40.85000
C  26.26800 59.34400 40.56600
C  26.27700 57.99100 40.29600
C  27.57400 57.59600 40.13300
C  25.08600 60.20900 40.72600
C  25.35600 56.86400 40.09500
O  24.14700 56.85100 40.21600
C  26.30400 55.76800 39.48400
C  26.11200 54.60800 40.36100
O  26.64000 54.42300 41.43500
O  25.23800 53.64500 39.79800
C  24.89700 52.41200 40.69200
H  33.27500 54.93300 38.89300
H  33.89700 61.10100 40.40100
H  27.82600 61.68000 41.59400
H  28.61200 53.50300 39.44900
H  30.99300 53.84700 37.77400
H  31.47700 53.33600 40.64000
H  31.76800 52.40500 39.16100
H  30.23500 52.25700 39.86700
H  27.36600 54.40000 37.32000
H  27.99100 52.77500 37.62100
H  29.65100 52.99800 35.94400
H  29.88600 54.59900 36.21700
H  36.48600 56.44200 38.54900
H  35.20600 55.34800 38.39700
H  36.02000 55.36000 39.97700
H  35.87200 60.69500 41.57500
H  36.21100 61.08100 39.83400
H  37.55800 60.69100 40.86600
H  31.94600 62.83400 40.17100
H  30.36000 62.32100 42.59400
H  32.30600 63.54400 42.93600
H  33.28000 63.79100 41.38800
H  33.59800 62.50200 42.56600
H  28.82900 63.38900 40.13600
H  30.21000 64.43000 40.48200
H  29.40100 65.45500 42.09900
H  28.68600 64.04700 42.96600
H  27.74700 64.85600 41.71300
H  25.13700 60.95400 41.52000
H  24.10900 59.73900 40.83500
H  25.11600 60.76500 39.78900
H  26.03500 55.70900 38.43000
H  25.54300 51.56800 40.45000
H  23.85000 52.11400 40.64900
H  24.98200 52.53700 41.77200
Mg 7.05200 52.79500 41.33000
C  6.61700 49.35700 41.15100
C  10.39900 52.39100 40.54400
C  7.26300 56.17900 41.13300
C  3.45200 53.10600 41.74000
N  8.34900 51.07900 40.88300
C  7.96000 49.72900 40.91900
C  9.27600 48.83100 40.96000
C  10.45500 49.84600 40.93000
C  9.65100 51.20400 40.77700
C  11.42900 49.85700 42.13700
C  9.39100 47.73500 39.81600
C  9.50500 48.21700 38.34700
H  8.25900 48.14100 37.38200
N  8.58300 54.17100 40.92100
C  9.89100 53.74400 40.69100
C  10.67700 54.93500 40.49300
C  9.90300 56.06200 40.67000
C  8.50700 55.53700 40.96200
C  12.13300 54.89800 40.10300
C  10.31400 57.45100 40.58400
O  11.43400 57.71400 40.18900
C  9.42100 58.62500 40.83000
N  5.48700 54.48700 41.33600
C  5.93100 55.74500 41.36700
C  4.70400 56.63200 41.62700
C  3.44800 55.69000 41.53400
C  4.15700 54.32700 41.53200
C  4.76400 57.47000 42.91600
C  2.66900 55.93900 40.26000
C  1.14400 56.07500 40.52900
N  5.31300 51.56400 41.35800
C  4.00000 51.76400 41.66000
C  3.36500 50.56100 41.80200
C  4.37300 49.59700 41.70000
C  5.50500 50.27400 41.35300
C  1.93100 50.28500 42.01600
C  4.50500 48.19000 41.87400
O  3.63900 47.30900 42.07800
C  6.00800 47.92900 41.46400
C  5.87300 47.05100 40.24500
O  5.41100 47.44800 39.20100
O  6.16100 45.69600 40.54000
C  5.65300 44.73500 39.55400
H  11.47300 52.30100 40.37200
H  7.27500 57.26600 41.23600
H  2.36900 53.21200 41.82900
H  9.37700 48.24500 41.87300
H  11.00700 50.03200 40.00900
H  11.17300 48.98300 42.73600
H  11.33200 50.72100 42.79400
H  12.44500 49.81100 41.74400
H  8.66300 46.92800 39.90100
H  10.25400 47.10900 40.04500
H  10.34100 47.64500 37.94700
H  9.76600 49.27000 38.45400
H  12.23700 55.48300 39.19000
H  12.62900 53.92900 40.04400
H  12.71100 55.38600 40.88800
H  8.55900 58.69100 40.16600
H  10.00200 59.53900 40.95100
H  9.00400 58.50200 41.83000
H  4.93700 57.34000 40.83200
H  2.79000 55.70500 42.40400
H  5.63900 57.27600 43.53600
H  3.86000 57.49000 43.52500
H  4.88900 58.54600 42.79400
H  2.70000 55.10800 39.55400
H  2.86200 56.93900 39.87100
H  0.71900 55.80200 41.49500
H  0.67700 55.26500 39.96800
H  0.83400 57.07100 40.21300
H  1.53700 50.31300 41.00000
H  1.32300 50.91600 42.66400
H  1.82200 49.27100 42.40200
H  6.52300 47.33900 42.22200
H  5.77400 43.74100 39.98500
H  6.45000 44.65500 38.81500
H  4.76900 45.02300 38.98700

