158

Mg 8.19500 3.50600 27.81900
C  9.82300 1.98400 30.53300
C  5.98000 5.03200 30.20000
C  6.36400 4.71900 25.38900
C  9.68500 1.33100 25.77900
N  7.86000 3.39400 30.12000
C  8.72800 2.78500 30.96500
C  8.46000 3.28400 32.39200
C  7.29800 4.27500 32.31200
C  6.98100 4.18100 30.76700
C  6.07900 4.16100 33.26300
C  9.70600 3.84400 33.23600
C  9.41700 4.55600 34.56200
H  10.27900 4.33700 35.75600
N  6.45500 4.75200 27.80100
C  5.76200 5.27700 28.81200
C  4.68000 6.12500 28.33200
C  4.73200 6.05500 26.87600
C  5.84200 5.21400 26.58200
C  3.87500 7.00700 29.20900
C  3.86800 6.72100 25.82200
O  4.01900 6.65200 24.62800
C  2.65300 7.54400 26.16000
N  7.95400 3.00100 25.84000
C  7.19300 3.65900 25.02800
C  7.47900 3.36700 23.54200
C  8.71100 2.40000 23.64800
C  8.83600 2.19600 25.16100
C  6.19900 3.04700 22.61700
C  10.06600 2.90500 23.11900
C  10.98200 3.91900 24.01300
N  9.60100 1.96500 28.06400
C  10.13500 1.20200 27.10400
C  11.16700 0.34400 27.66100
C  11.12800 0.75900 29.04700
C  10.09000 1.65300 29.21600
C  12.17700 -0.48400 26.85700
C  11.64500 0.43700 30.30700
O  12.56600 -0.31200 30.60600
C  10.78100 1.11500 31.33500
C  10.03600 0.16500 32.20300
O  9.22000 -0.67200 31.83000
O  10.36400 0.32100 33.51900
C  9.68500 -0.64200 34.38300
H  5.40700 5.63700 30.90600
H  5.94800 5.11200 24.45900
H  10.33800 0.68100 25.19200
H  8.13100 2.31200 32.76000
H  7.67000 5.28400 32.49100
H  5.18600 3.94600 32.67700
H  5.85600 5.00900 33.91100
H  6.13800 3.33100 33.96700
H  10.42400 4.37000 32.60700
H  10.25300 2.95100 33.54100
H  8.35300 4.38000 34.71500
H  9.52100 5.62300 34.36500
H  3.83900 7.93200 28.63300
H  4.34900 7.31600 30.14000
H  2.91200 6.55300 29.44500
H  2.07300 7.00000 26.90500
H  1.96200 7.72500 25.33700
H  3.12900 8.48800 26.42700
H  7.89700 4.27800 23.11300
H  8.36100 1.46400 23.21400
H  5.28700 3.26900 23.17200
H  6.30800 1.99600 22.34800
H  6.25600 3.73000 21.77000
H  9.86900 3.40100 22.16800
H  10.64000 1.99200 22.95600
H  10.30100 4.52300 24.61100
H  11.53400 4.58100 23.34500
H  11.62900 3.33200 24.66500
H  12.79200 -1.02400 27.57600
H  12.66800 0.24800 26.21500
H  11.65900 -1.20500 26.22600
H  11.48200 1.61800 32.00000
H  10.48500 -1.35500 34.58300
H  8.87000 -1.18800 33.90700
H  9.32000 -0.23300 35.32500
Mg 35.93600 48.45400 26.33900
C  36.24200 46.35600 29.08300
C  34.15900 50.73900 28.41400
C  35.16500 50.50000 23.59100
C  37.06300 45.99700 24.34200
N  35.09500 48.46600 28.52500
C  35.65600 47.58000 29.40800
C  35.48400 48.22600 30.85000
C  34.46100 49.35800 30.64200
C  34.63400 49.61100 29.13700
C  32.93600 48.97800 30.88600
C  36.78900 48.79900 31.43700
C  37.22100 48.38700 32.87500
H  36.97500 49.52400 33.88600
N  34.89900 50.38700 26.16300
C  34.39300 51.18300 27.11100
C  33.89000 52.43800 26.56100
C  34.22200 52.41800 25.22500
C  34.78800 51.00200 24.89100
C  33.19900 53.44400 27.48600
C  34.23900 53.53600 24.15100
O  34.67500 53.40400 23.02100
C  33.90800 54.89100 24.49400
N  35.93600 48.14800 24.24100
C  35.69500 49.18300 23.39400
C  36.15200 48.79700 21.98700
C  36.96500 47.44800 22.22300
C  36.64200 47.18100 23.69700
C  34.93900 48.68400 21.08100
C  38.48900 47.43200 21.85900
C  38.96200 46.40300 20.77600
N  36.49500 46.53000 26.56100
C  36.98300 45.64400 25.66400
C  37.36300 44.36200 26.34600
C  37.11800 44.64000 27.72800
C  36.54400 45.95300 27.77500
C  37.91700 43.13100 25.70300
C  37.23700 44.15300 29.10400
O  37.54000 43.08200 29.47100
C  36.77400 45.28700 30.02500
C  35.71900 44.74800 30.92300
O  34.69500 44.31200 30.46100
O  36.10600 44.81300 32.24800
C  35.07900 44.53200 33.17000
H  33.69500 51.49600 29.04900
H  34.88600 51.09600 22.72000
H  37.55100 45.24800 23.71500
H  35.09200 47.45200 31.51000
H  34.60800 50.28500 31.19500
H  32.46100 49.50000 31.71600
H  32.82200 47.90600 31.04800
H  32.31400 49.28500 30.04500
H  36.88700 49.88500 31.41000
H  37.57700 48.33700 30.84300
H  38.29300 48.21600 32.78400
H  36.66200 47.53700 33.26700
H  32.99800 54.38900 26.98300
H  33.83100 53.53700 28.37000
H  32.19800 53.09100 27.73000
H  32.95700 54.74300 25.00600
H  33.77800 55.55700 23.64100
H  34.79200 55.13400 25.08300
H  36.86700 49.52200 21.59700
H  36.42700 46.68600 21.66000
H  34.02400 48.79300 21.66200
H  34.82000 47.78900 20.46900
H  34.87300 49.50400 20.36600
H  39.00000 47.14400 22.77800
H  38.77500 48.45600 21.61800
H  38.14300 45.84700 20.32000
H  39.54700 45.69600 21.36400
H  39.61800 46.88700 20.05300
H  38.77900 43.42300 25.10200
H  37.15600 42.75900 25.01600
H  38.19100 42.33900 26.40100
H  37.51800 45.65100 30.73400
H  34.58400 45.46600 33.43600
H  35.65200 44.14400 34.01200
H  34.35100 43.76700 32.89900

