158

Mg 25.47100 1.35700 29.38400
C  27.59700 0.82900 32.24000
C  22.77300 1.53700 31.60100
C  23.46000 1.34400 26.70900
C  28.21800 0.62500 27.37100
N  25.30100 1.20800 31.68400
C  26.23700 1.14200 32.63900
C  25.66000 1.24800 33.98500
C  24.10300 1.26900 33.76400
C  24.04200 1.35900 32.26800
C  23.37700 0.07100 34.39600
C  26.10500 2.43600 34.81900
C  26.66100 2.19000 36.18600
H  26.21900 3.10500 37.35400
N  23.37900 1.55700 29.15400
C  22.48500 1.57400 30.19700
C  21.16900 1.72700 29.57700
C  21.23700 1.70900 28.15900
C  22.75800 1.55500 27.93800
C  19.89000 1.65300 30.43400
C  20.14600 1.79200 27.04200
O  20.48100 1.74300 25.85400
C  18.74900 1.84100 27.44800
N  25.81400 0.94900 27.36900
C  24.82900 1.06300 26.44600
C  25.38000 0.59900 25.07800
C  26.98200 0.72400 25.20100
C  26.99000 0.76100 26.74700
C  24.84700 -0.70300 24.67200
C  27.60700 1.92900 24.55300
C  28.58000 1.68500 23.40800
N  27.54800 0.83800 29.68700
C  28.47100 0.56700 28.74700
C  29.78100 0.40600 29.42700
C  29.49600 0.42200 30.76100
C  28.10400 0.65900 30.91100
C  31.03700 0.14800 28.79500
C  30.06000 0.33000 32.12700
O  31.18300 0.09300 32.48200
C  28.83400 0.59200 33.07900
C  28.79100 -0.54400 34.03400
O  28.74800 -1.75800 33.76800
O  28.88200 -0.08000 35.36600
C  28.98700 -1.00800 36.48500
H  21.98300 1.78700 32.31200
H  22.83300 1.34900 25.81600
H  28.95700 0.48500 26.57900
H  25.97500 0.32800 34.47800
H  23.57800 2.16200 34.10300
H  23.90200 -0.53600 35.13300
H  23.02800 -0.57100 33.58700
H  22.39500 0.35600 34.77600
H  25.26400 3.11600 34.95500
H  26.81300 2.96100 34.17800
H  27.71000 2.48600 36.16100
H  26.54700 1.13900 36.45400
H  20.04700 1.38900 31.48000
H  19.16900 0.95700 30.00500
H  19.36700 2.60400 30.53400
H  18.04000 1.86500 26.62000
H  18.56700 2.62700 28.18100
H  18.59100 0.91900 28.00800
H  25.11000 1.27600 24.26700
H  27.47400 -0.19400 24.87800
H  25.64300 -1.41700 24.46100
H  24.32600 -0.73800 23.71500
H  24.19800 -1.11100 25.44700
H  28.17600 2.39200 25.35900
H  26.86700 2.68100 24.28200
H  29.61400 1.86900 23.69800
H  28.43700 2.28200 22.50800
H  28.46300 0.68300 22.99500
H  31.19900 0.89900 28.02300
H  30.91700 -0.82300 28.31400
H  31.80300 0.19600 29.56900
H  29.04400 1.49700 33.64800
H  28.03500 -1.53800 36.52000
H  28.96200 -0.55900 37.47800
H  29.81900 -1.71000 36.42200
Mg 47.98800 15.99600 28.78600
C  46.00700 15.05500 31.65800
C  49.95700 17.84800 30.87200
C  49.77600 16.97700 26.09400
C  45.55300 14.71400 26.72800
N  47.78300 16.56800 31.00900
C  46.99500 15.94300 32.01200
C  47.52500 16.30100 33.42200
C  48.61100 17.37900 33.09100
C  48.80100 17.38600 31.53700
C  48.34300 18.75400 33.80200
C  48.08400 15.10500 34.11900
C  48.10700 15.14300 35.60100
H  47.83400 16.49800 36.29100
N  49.76100 17.07000 28.57400
C  50.47200 17.71500 29.53500
C  51.76300 18.14500 29.01300
C  51.70400 17.89900 27.59800
C  50.35900 17.35200 27.37200
C  52.74100 18.92700 29.88600
C  52.67300 18.21300 26.60500
O  52.43400 17.90400 25.43500
C  53.96500 18.89200 27.02900
N  47.68400 15.98000 26.65600
C  48.57100 16.43100 25.76500
C  47.98000 16.37300 24.30100
C  46.62700 15.59700 24.50900
C  46.62000 15.39000 26.04900
C  47.95300 17.76800 23.59600
C  46.45700 14.25400 23.70300
C  47.11800 13.08900 24.43900
N  46.06200 15.10300 29.04000
C  45.29500 14.53800 28.12300
C  44.21200 13.82300 28.80400
C  44.46300 13.98900 30.17200
C  45.62600 14.79100 30.32300
C  43.07400 13.13500 28.15200
C  43.95500 13.64000 31.52300
O  42.97400 12.99200 31.78700
C  44.93200 14.39700 32.57000
C  44.14400 15.34500 33.32600
O  43.45900 16.22600 32.81100
O  44.25200 15.16700 34.68600
C  43.41000 16.02500 35.54900
H  50.65300 18.28000 31.59400
H  50.41300 17.03400 25.20900
H  45.00600 14.06300 26.04300
H  46.63600 16.69500 33.91400
H  49.58900 17.11400 33.49200
H  47.69100 18.53100 34.64700
H  47.74100 19.45000 33.21700
H  49.27300 19.19900 34.15600
H  49.11700 14.99800 33.78700
H  47.63000 14.22500 33.66400
H  48.99900 14.66900 36.01100
H  47.28000 14.46400 35.80600
H  53.13900 19.71100 29.24200
H  53.53000 18.27700 30.26500
H  52.19500 19.34500 30.73200
H  54.36700 18.60200 28.00000
H  53.61300 19.92100 27.09100
H  54.65000 18.77400 26.18900
H  48.58900 15.75900 23.63600
H  45.79100 16.25400 24.26900
H  48.44100 18.51400 24.22300
H  46.92200 18.08000 23.42800
H  48.37800 17.57000 22.61200
H  46.90800 14.27300 22.71100
H  45.37900 14.09300 23.70200
H  47.49400 12.38400 23.69900
H  46.39100 12.70000 25.15200
H  47.95100 13.51500 25.00000
H  42.16300 13.56400 28.57100
H  43.09600 12.06500 28.36000
H  43.02300 13.26500 27.07100
H  45.32300 13.61200 33.21700
H  43.16000 16.95600 35.04200
H  44.01600 16.33500 36.40100
H  42.53600 15.49800 35.93300

