158

Mg 47.79800 24.52200 27.41200
C  48.94300 26.69200 29.82800
C  47.63000 22.06800 29.93400
C  47.02100 22.19600 25.08600
C  49.05700 26.57100 24.96700
N  48.07600 24.51500 29.69000
C  48.52000 25.52000 30.46800
C  48.38600 25.14600 31.98200
C  48.11600 23.61100 31.94000
C  47.92900 23.35200 30.47400
C  49.19500 22.70300 32.50900
C  47.27900 25.95400 32.72600
C  47.70700 26.56900 34.14200
H  46.68100 26.33800 35.37500
N  47.26200 22.47600 27.54500
C  47.25300 21.62600 28.63300
C  46.80900 20.32200 28.28600
C  46.36300 20.39600 26.91200
C  46.83600 21.73800 26.43400
C  46.96100 19.20700 29.30000
C  45.68200 19.39000 26.06000
O  45.46500 19.67500 24.86700
C  45.17600 18.00300 26.56100
N  48.27100 24.24600 25.22400
C  47.54700 23.31300 24.52100
C  47.76800 23.51500 23.00700
C  48.25300 25.01900 23.00000
C  48.58900 25.31000 24.45700
C  48.77000 22.47600 22.45000
C  47.20700 26.09700 22.48100
C  47.49800 26.49200 21.07500
N  48.58700 26.36800 27.30600
C  49.01100 27.07100 26.24600
C  49.62500 28.34500 26.72500
C  49.46800 28.26600 28.14500
C  48.92500 27.00300 28.42400
C  50.16100 29.40500 25.82700
C  49.62800 28.92200 29.38900
O  50.11000 29.99400 29.68300
C  49.22200 27.99700 30.53100
C  50.26300 27.92800 31.59900
O  51.34300 27.41500 31.57300
O  49.91400 28.82500 32.57700
C  50.70800 28.90400 33.82400
H  47.41600 21.49400 30.83800
H  46.80400 21.40100 24.36900
H  49.37400 27.28500 24.20400
H  49.36600 25.35900 32.40700
H  47.23600 23.35000 32.52900
H  49.83200 22.35300 31.69700
H  48.64100 21.91200 33.01400
H  49.77400 23.15900 33.31300
H  46.40400 25.33100 32.91400
H  46.95300 26.78500 32.10200
H  47.68600 27.65000 34.00700
H  48.72400 26.31800 34.44400
H  46.01200 18.99100 29.79200
H  47.71100 19.52000 30.02600
H  47.38300 18.33600 28.79800
H  45.93300 17.23000 26.69200
H  44.55500 17.65500 25.73600
H  44.58700 18.33100 27.41700
H  46.79800 23.39900 22.52300
H  49.19800 25.11800 22.46500
H  48.54100 22.39400 21.38700
H  48.70000 21.52200 22.97200
H  49.77500 22.78500 22.73600
H  47.26700 26.98600 23.10900
H  46.17300 25.75600 22.53800
H  48.31600 26.04100 20.51300
H  47.57800 27.57800 21.01400
H  46.64700 26.15400 20.48300
H  49.46400 29.67000 25.03200
H  51.05200 29.06400 25.30100
H  50.38800 30.22200 26.51200
H  48.32100 28.42000 30.97600
H  50.02100 29.01300 34.66300
H  51.08000 29.92800 33.81500
H  51.51500 28.20200 34.03500
Mg 5.48900 54.48100 41.19400
C  5.33200 51.00600 40.97600
C  8.63900 54.33000 39.87900
C  5.52300 57.84100 41.11600
C  2.13500 54.52900 42.21700
N  6.74100 52.77200 40.19700
C  6.46700 51.46500 40.38700
C  7.77800 50.68500 40.03100
C  8.90800 51.79800 39.99700
C  8.06600 53.06400 40.03500
C  9.92000 51.73700 41.17300
C  7.77600 49.82500 38.68700
C  6.94500 50.51100 37.53200
H  7.71900 50.99200 36.28000
N  6.78900 55.81800 40.42100
C  8.06900 55.60200 39.97400
C  8.85300 56.82900 39.76200
C  7.92100 57.90400 40.06600
C  6.70500 57.20800 40.60600
C  10.30800 56.94300 39.41100
C  8.26600 59.37700 39.95200
O  9.41200 59.73800 39.55300
C  7.30300 60.46300 40.38400
N  3.98200 55.89300 41.57800
C  4.35300 57.25900 41.59300
C  3.11900 58.13400 42.04300
C  1.90600 57.11900 42.05400
C  2.69200 55.77500 41.95100
C  3.30600 58.72000 43.39300
C  0.83400 57.35700 40.85100
C  -0.43900 58.20100 41.21000
N  4.05300 53.12400 41.60900
C  2.75100 53.28200 42.10900
C  2.19200 51.95700 42.37700
C  3.18100 51.07200 41.97900
C  4.26300 51.78600 41.49400
C  0.79700 51.61600 42.90100
C  3.47000 49.57000 41.95500
O  2.91300 48.50800 42.25900
C  4.79800 49.55200 41.13700
C  4.62300 48.78500 39.86000
O  3.85300 49.16600 38.93800
O  5.40600 47.64900 39.88500
C  5.29900 46.84100 38.63800
H  9.72200 54.29500 39.74200
H  5.48300 58.92400 41.24600
H  1.06700 54.52600 42.44700
H  7.82200 50.00800 40.88400
H  9.49300 51.98500 39.09600
H  9.92700 50.67500 41.42000
H  9.55700 52.39400 41.96400
H  10.81400 52.26200 40.83700
H  7.28500 48.91700 39.03700
H  8.81900 49.76700 38.37700
H  6.31900 51.35000 37.83400
H  6.30400 49.73300 37.11900
H  10.42200 56.99200 38.32800
H  10.92000 56.19000 39.90800
H  10.86600 57.80400 39.78000
H  6.44500 60.41900 39.71400
H  7.80600 61.38700 40.09700
H  7.20100 60.47200 41.46900
H  3.09100 58.89500 41.26300
H  1.38400 57.12300 43.01100
H  2.36400 58.80700 43.93400
H  3.74800 59.71200 43.30200
H  3.93700 58.08400 44.01300
H  0.48600 56.37800 40.52100
H  1.28900 57.81600 39.97200
H  -1.28400 57.72800 40.70900
H  -0.28500 59.25300 40.96900
H  -0.74300 58.12100 42.25300
H  0.06900 51.56900 42.09100
H  0.51500 52.39000 43.61400
H  0.71700 50.64400 43.38700
H  5.38100 48.91100 41.79800
H  5.64600 45.81600 38.76100
H  5.83100 47.30600 37.80800
H  4.27200 46.74000 38.28600

