158

Mg 40.28200 9.71300 29.44400
C  42.17600 10.48400 32.08900
C  37.90100 8.27000 31.67400
C  38.24500 8.62000 26.80300
C  42.78400 10.38900 27.19200
N  40.05800 9.40500 31.67500
C  40.91200 10.08800 32.50200
C  40.39600 9.86000 33.89500
C  39.03100 9.13100 33.81400
C  39.01700 8.79100 32.31000
C  38.79900 8.00500 34.83400
C  40.36700 11.19900 34.74100
C  41.36100 11.37000 35.86400
H  40.87600 11.87100 37.22400
N  38.31000 8.65400 29.24400
C  37.58000 8.15800 30.30000
C  36.33400 7.71500 29.75000
C  36.41100 7.74600 28.35300
C  37.73100 8.39000 28.04700
C  35.29700 7.18400 30.65100
C  35.43700 7.19200 27.36500
O  35.66900 7.16600 26.12700
C  34.06400 6.73000 27.83500
N  40.51000 9.53000 27.21900
C  39.50100 9.06600 26.41000
C  39.94100 9.14200 24.90100
C  41.40500 9.68900 25.00900
C  41.62000 9.85100 26.55400
C  39.75000 7.68300 24.29600
C  41.63100 11.08000 24.32400
C  41.23500 12.30200 25.20400
N  42.08400 10.40600 29.57000
C  43.04400 10.59900 28.58400
C  44.28900 11.07100 29.22400
C  43.94900 11.09300 30.58300
C  42.63100 10.59200 30.72500
C  45.57500 11.29400 28.53200
C  44.48300 11.41400 31.89200
O  45.56400 11.93300 32.13700
C  43.29600 11.05100 32.94000
C  43.94600 10.07200 33.90500
O  43.86200 8.87300 33.77200
O  44.55000 10.72000 34.96300
C  44.98100 9.78800 35.96100
H  37.02800 8.11300 32.31100
H  37.66600 8.24300 25.95700
H  43.72900 10.32100 26.64900
H  41.14200 9.16400 34.27900
H  38.25100 9.81200 34.15400
H  37.91200 8.34100 35.37100
H  39.64100 8.03900 35.52500
H  38.76400 7.00700 34.39600
H  39.40900 11.35700 35.23700
H  40.55600 12.03800 34.07100
H  42.07600 12.12800 35.54500
H  41.85500 10.42100 36.07600
H  35.18800 6.10200 30.58500
H  34.29900 7.60900 30.55000
H  35.57100 7.18800 31.70700
H  33.98900 5.69600 28.16900
H  33.32000 6.81000 27.04300
H  33.68800 7.45900 28.55300
H  39.29800 9.80300 24.31900
H  42.14700 9.00800 24.59500
H  39.57100 6.91900 25.05300
H  40.66600 7.27500 23.86800
H  39.04700 7.65700 23.46400
H  41.06100 11.19000 23.40100
H  42.69100 11.09000 24.07100
H  40.33300 12.11800 25.78800
H  40.98300 13.09400 24.49900
H  42.10500 12.57400 25.80300
H  45.78900 10.49700 27.81900
H  46.44400 11.53700 29.14300
H  45.43300 12.23200 27.99500
H  42.93900 11.92100 33.49100
H  45.67400 10.31200 36.62000
H  45.35400 8.79900 35.69700
H  44.09600 9.58600 36.56500
Mg 9.91400 46.77800 25.39200
C  7.50300 47.09000 27.74300
C  12.32600 47.75600 27.51900
C  12.42100 46.40800 22.82300
C  7.54100 46.22200 22.89300
N  9.86300 47.31600 27.37000
C  8.78900 47.34100 28.20500
C  9.23300 47.50700 29.67600
C  10.56400 48.24000 29.38800
C  10.96200 47.86300 27.91400
C  10.66200 49.72600 29.67800
C  9.43200 46.22800 30.57300
C  10.11800 46.51700 31.94600
H  9.44100 45.93300 33.15700
N  12.12700 46.91500 25.25700
C  12.87900 47.33000 26.30800
C  14.27500 47.33200 25.93800
C  14.38100 46.82600 24.59200
C  12.95700 46.66800 24.14700
C  15.39100 47.96600 26.77200
C  15.60800 46.58300 23.74100
O  15.47900 46.22500 22.58500
C  17.02600 46.72400 24.25600
N  10.05500 46.46600 23.20400
C  11.09600 46.45500 22.36800
C  10.73000 46.26500 20.87600
C  9.23000 46.15600 20.94200
C  8.87200 46.27700 22.42900
C  11.37100 47.42400 19.98600
C  8.71800 44.79700 20.41400
C  8.10200 44.79600 19.05000
N  7.88100 46.62500 25.24700
C  7.01600 46.39600 24.21700
C  5.60500 46.35000 24.79500
C  5.78200 46.47000 26.18500
C  7.16700 46.78900 26.37600
C  4.32700 46.17100 24.00500
C  5.07500 46.47600 27.43800
O  3.86000 46.31400 27.73100
C  6.21400 46.87100 28.48200
C  6.35500 45.71600 29.51200
O  6.86100 44.61000 29.34100
O  5.78900 46.13400 30.66300
C  5.54400 45.11500 31.70500
H  12.87400 48.12200 28.38900
H  13.12200 46.36100 21.98700
H  6.75300 45.97800 22.17800
H  8.60800 48.26300 30.15100
H  11.35400 47.77500 29.97900
H  9.85200 50.04900 30.33100
H  10.72600 50.23200 28.71500
H  11.58100 49.86600 30.24700
H  10.07100 45.57000 29.98400
H  8.48500 45.71900 30.75600
H  10.35100 47.57200 32.09000
H  11.09300 46.05100 31.80200
H  15.81300 48.83800 26.27300
H  16.04600 47.14000 27.04900
H  15.08100 48.31700 27.75700
H  17.08600 47.77200 24.55000
H  17.78700 46.45400 23.52300
H  17.16500 46.03500 25.08800
H  11.14900 45.28500 20.64500
H  8.80600 46.91300 20.28200
H  11.78200 48.18000 20.65500
H  10.63100 47.76300 19.26100
H  12.12700 46.92000 19.38400
H  7.98300 44.32300 21.06400
H  9.51500 44.05700 20.35900
H  8.53600 45.54600 18.38900
H  7.01900 44.91500 19.04500
H  8.28000 43.82800 18.58100
H  4.16200 45.09500 23.96200
H  4.68000 46.50500 23.02900
H  3.49800 46.69500 24.48000
H  5.95600 47.73800 29.09000
H  4.50900 45.03500 32.03700
H  6.17600 45.47800 32.51600
H  5.84900 44.09800 31.45800

