158

Mg -2.75500 16.70700 26.59500
C  -3.03500 14.61800 29.39700
C  -2.80800 19.40800 28.78000
C  -2.82900 18.70700 23.96800
C  -3.50200 14.01400 24.53700
N  -2.90800 17.00300 28.83400
C  -2.91600 15.98400 29.79600
C  -3.07500 16.53400 31.19300
C  -3.31300 18.03600 31.00900
C  -3.01800 18.19900 29.47800
C  -4.62200 18.66800 31.49100
C  -1.89800 16.03800 32.20000
C  -1.39700 17.01300 33.33300
H  -0.72100 16.39800 34.54400
N  -2.68600 18.74100 26.39700
C  -2.72400 19.67300 27.37300
C  -2.67100 21.02300 26.80400
C  -2.61800 20.88000 25.35100
C  -2.77100 19.37700 25.19700
C  -2.87900 22.28700 27.68300
C  -2.37600 21.82100 24.25300
O  -2.20400 21.58700 23.09600
C  -2.23300 23.26400 24.57100
N  -2.91700 16.31500 24.44300
C  -2.97400 17.36300 23.62100
C  -3.35500 16.87000 22.27200
C  -3.67400 15.35300 22.43300
C  -3.27300 15.17600 23.86300
C  -4.45700 17.71900 21.48700
C  -2.97400 14.43100 21.45500
C  -1.50800 13.98800 21.69800
N  -3.05200 14.73300 26.79000
C  -3.38800 13.73900 25.89800
C  -3.66800 12.50800 26.64800
C  -3.44400 12.74400 28.00300
C  -3.16100 14.13300 28.08200
C  -4.19600 11.22100 26.06200
C  -3.40000 12.18700 29.29700
O  -3.53600 11.01400 29.67400
C  -3.24300 13.38600 30.25200
C  -2.07600 13.16500 31.17300
O  -0.93300 13.49200 30.86100
O  -2.48600 12.57000 32.32400
C  -1.33400 12.31600 33.24200
H  -2.78100 20.25900 29.46500
H  -2.92300 19.32500 23.07200
H  -3.86000 13.29600 23.79600
H  -3.96000 16.13100 31.68600
H  -2.57800 18.64400 31.53800
H  -5.19000 18.84600 30.57800
H  -4.49200 19.59600 32.04700
H  -5.27100 17.99000 32.04600
H  -1.11100 15.69600 31.52800
H  -2.36800 15.21100 32.73100
H  -2.14700 17.69600 33.73000
H  -0.56000 17.56700 32.90700
H  -3.42800 22.09900 28.60500
H  -3.38500 22.99600 27.02600
H  -1.91000 22.67400 27.99600
H  -1.28200 23.42700 25.07800
H  -3.09900 23.66600 25.09600
H  -2.25100 23.90900 23.69200
H  -2.45600 17.01300 21.67300
H  -4.73100 15.27200 22.18000
H  -4.85400 18.45200 22.18900
H  -5.35100 17.12100 21.30800
H  -4.05700 18.26400 20.63200
H  -2.98800 14.99200 20.52100
H  -3.48500 13.49600 21.22400
H  -1.37900 12.91800 21.86300
H  -1.08300 14.64600 22.45700
H  -0.89400 14.35700 20.87600
H  -3.28500 10.66700 25.83600
H  -4.64400 11.52200 25.11400
H  -4.92800 10.82700 26.76700
H  -3.97800 13.39700 31.05700
H  -1.48400 12.96300 34.10700
H  -0.32600 12.33200 32.82700
H  -1.28200 11.28800 33.59900
Mg -2.00200 33.77200 26.33300
C  -3.48900 32.25700 28.94000
C  -0.30300 35.78900 28.50600
C  -0.41800 35.15600 23.72300
C  -3.83800 31.84500 24.14100
N  -2.06400 34.05200 28.44400
C  -2.58500 33.28700 29.31900
C  -2.35400 33.62500 30.82400
C  -1.49000 34.92000 30.60300
C  -1.29400 34.96100 29.07000
C  -2.16100 36.24600 31.05800
C  -1.75900 32.44600 31.60900
C  -2.43700 32.12900 32.98500
H  -1.61500 31.91300 34.22400
N  -0.60700 35.39200 26.12200
C  0.07500 36.01200 27.15900
C  1.01400 36.96900 26.58900
C  0.92700 36.86100 25.11300
C  -0.05100 35.78800 24.94300
C  1.92400 37.86700 27.36600
C  1.58200 37.70000 23.98200
O  1.63000 37.33600 22.77800
C  2.28600 39.03100 24.39600
N  -2.16500 33.62900 24.25300
C  -1.39700 34.23600 23.40400
C  -1.70500 33.79200 21.95100
C  -2.48500 32.50600 22.17900
C  -2.87300 32.66500 23.63700
C  -2.35100 34.97600 21.18100
C  -1.56000 31.27000 21.94500
C  -2.26100 30.19700 21.07800
N  -3.44100 32.34000 26.43300
C  -4.11900 31.63500 25.45200
C  -4.97800 30.63900 26.14000
C  -4.82400 30.95000 27.51500
C  -3.85700 31.87600 27.61900
C  -5.94400 29.69600 25.41000
C  -5.23800 30.57600 28.81800
O  -6.13900 29.85300 29.20000
C  -4.44200 31.43800 29.83900
C  -5.39800 32.42200 30.52600
O  -5.68500 33.57900 30.18500
O  -5.97300 31.79800 31.61000
C  -6.64100 32.69200 32.47300
H  0.30800 36.41100 29.16400
H  0.28200 35.36200 22.91100
H  -4.22000 31.09900 23.44200
H  -3.29600 33.85500 31.32100
H  -0.58300 34.88500 31.20700
H  -1.57500 36.68500 31.86500
H  -3.13700 36.04600 31.49900
H  -2.21900 36.97800 30.25200
H  -0.69800 32.58000 31.82200
H  -1.69800 31.60300 30.92000
H  -2.99900 31.23300 32.72200
H  -3.18000 32.85400 33.31800
H  1.63700 38.91800 27.34000
H  2.91300 37.69800 26.93900
H  1.98600 37.49300 28.38800
H  2.68800 39.45200 23.47400
H  3.08800 38.97300 25.13200
H  1.44600 39.63900 24.73200
H  -0.77100 33.68200 21.39900
H  -3.37200 32.40800 21.55200
H  -3.36700 34.77100 20.84300
H  -1.81200 35.23300 20.26900
H  -2.39600 35.85600 21.82300
H  -1.39300 30.78500 22.90700
H  -0.60800 31.51400 21.47300
H  -2.09100 29.22000 21.53100
H  -1.93400 30.02200 20.05300
H  -3.33100 30.34300 20.93400
H  -6.17800 30.27900 24.51900
H  -6.76900 29.50400 26.09600
H  -5.53700 28.69900 25.24300
H  -4.05500 30.62500 30.45300
H  -7.53900 33.18100 32.09500
H  -6.10400 33.49000 32.98500
H  -7.11500 32.01600 33.18500

