158

Mg 36.21500 1.32200 29.81800
C  34.03200 2.58200 32.35100
C  38.60600 1.30900 32.35800
C  38.40200 0.70500 27.48800
C  33.69700 1.87500 27.46500
N  36.28600 1.97500 32.05500
C  35.32000 2.44200 32.82400
C  35.68500 2.42400 34.32100
C  37.21300 2.37200 34.24500
C  37.42900 1.89600 32.77600
C  38.06800 3.72600 34.55300
C  35.16500 1.16600 35.10500
C  34.74200 1.33100 36.56500
H  35.69000 2.15600 37.42300
N  38.18900 0.88900 29.91400
C  38.97400 0.84100 31.00700
C  40.31100 0.39500 30.67600
C  40.23400 0.27400 29.21900
C  38.91300 0.57800 28.80600
C  41.39800 0.17900 31.64700
C  41.28200 -0.18700 28.22100
O  41.15700 -0.39000 27.01600
C  42.58300 -0.68900 28.87400
N  36.03800 1.37300 27.75800
C  37.18700 1.21200 27.01800
C  36.92100 1.38300 25.51600
C  35.36500 1.53100 25.43500
C  34.94400 1.46300 26.95000
C  37.78900 2.54400 24.80100
C  34.62000 0.55200 24.46700
C  34.14800 -0.73700 25.07800
N  34.23300 2.03700 29.86400
C  33.37300 2.22800 28.88100
C  32.12600 2.71100 29.41700
C  32.30400 2.81700 30.78400
C  33.60500 2.39100 31.04800
C  30.91300 3.00800 28.54200
C  31.58000 3.20300 31.99700
O  30.41000 3.48600 32.16200
C  32.78100 2.93100 33.16500
C  32.85500 4.11800 33.95100
O  33.37500 5.15500 33.61300
O  32.43700 3.87800 35.25200
C  32.97300 4.93200 36.17200
H  39.28700 1.21700 33.20700
H  39.05100 0.44200 26.65000
H  32.88300 1.92400 26.73900
H  35.27300 3.36700 34.67900
H  37.64500 1.66000 34.94800
H  38.81300 3.93300 33.78400
H  38.62400 3.61200 35.48400
H  37.38700 4.57200 34.64100
H  35.83400 0.34100 34.86000
H  34.17900 0.89200 34.72900
H  34.83100 0.33800 37.00700
H  33.73800 1.73200 36.69700
H  41.80700 -0.80600 31.42300
H  41.03000 0.10500 32.67000
H  42.24900 0.85600 31.57500
H  42.94200 0.01500 29.62500
H  43.35500 -0.93800 28.14500
H  42.25600 -1.64600 29.28000
H  37.17900 0.45600 25.00300
H  35.17700 2.52700 25.03400
H  37.06300 3.35200 24.88800
H  37.99900 2.18900 23.79200
H  38.65200 2.82500 25.40400
H  35.37600 0.24200 23.74600
H  33.86800 0.96700 23.79700
H  34.92100 -1.50300 25.13100
H  33.30200 -1.08900 24.48800
H  33.87200 -0.72700 26.13200
H  30.53500 2.01300 28.30800
H  31.16500 3.46300 27.58500
H  30.16900 3.58400 29.09300
H  32.38900 2.10900 33.76400
H  32.39700 4.96000 37.09700
H  32.98100 5.97000 35.83900
H  34.00000 4.69600 36.45000
Mg 46.90500 45.44000 43.86400
C  43.67300 45.17900 43.14300
C  47.42200 42.14900 42.87300
C  50.27100 46.06200 43.92800
C  46.48800 48.99900 44.26600
N  45.76800 43.87800 43.11500
C  44.44600 44.03600 42.81200
C  43.92500 42.85200 42.05000
C  44.97300 41.74400 42.47700
C  46.16400 42.66800 42.66300
C  44.59200 40.91600 43.76300
C  43.67900 43.10000 40.49900
C  42.63000 42.12500 39.89700
H  42.94700 41.48100 38.49300
N  48.65300 44.22500 43.52200
C  48.64100 42.85100 43.18300
C  49.94600 42.29800 43.36200
C  50.72900 43.46500 43.57400
C  49.89200 44.66900 43.74600
C  50.32100 40.89700 43.08500
C  52.28300 43.47800 43.50300
O  52.90700 42.45500 43.45500
C  53.11100 44.76000 43.55800
N  48.21700 47.41900 43.86000
C  49.56500 47.24700 43.92100
C  50.29800 48.58000 44.24300
C  49.08100 49.52300 44.33000
C  47.87400 48.61800 44.14600
C  51.11300 48.43700 45.59000
C  49.18200 50.86200 43.53000
C  49.42700 52.12400 44.30200
N  45.40400 46.86000 43.91000
C  45.30500 48.20900 44.08500
C  43.92600 48.66600 43.91900
C  43.23000 47.46700 43.58800
C  44.15900 46.45000 43.61200
C  43.43000 50.06200 43.85300
C  41.97600 46.88400 43.20200
O  40.88000 47.42200 42.96100
C  42.16100 45.42500 42.98400
C  41.35000 44.54700 43.92100
O  40.35700 43.90600 43.53800
O  41.99500 44.39300 45.16300
C  41.17300 43.66900 46.16700
H  47.55800 41.11600 42.54800
H  51.24900 46.19300 44.39500
H  46.29400 50.05500 44.46200
H  42.96300 42.64100 42.51900
H  45.22400 41.08500 41.64600
H  45.11100 41.23600 44.66600
H  44.90100 39.88100 43.62200
H  43.52700 41.03900 43.96000
H  44.64500 43.12400 39.99400
H  43.30300 44.12100 40.42600
H  41.72100 42.70500 39.73800
H  42.36700 41.36100 40.62800
H  51.31900 40.63500 43.43600
H  50.22100 40.66700 42.02400
H  49.59900 40.25200 43.58500
H  53.21000 45.16400 44.56500
H  52.72200 45.57000 42.94100
H  54.11300 44.51400 43.20600
H  51.08700 48.81700 43.52800
H  49.01300 49.85400 45.36700
H  50.84300 49.23200 46.28500
H  52.17500 48.40100 45.34600
H  50.85700 47.49700 46.07900
H  48.28400 50.87100 42.91300
H  50.05700 50.79300 42.88400
H  50.07000 51.93900 45.16200
H  48.51200 52.62900 44.61300
H  49.98000 52.86100 43.71900
H  42.34700 50.06100 43.72900
H  43.93300 50.66400 43.09600
H  43.53200 50.58300 44.80500
H  41.80100 45.23200 41.97300
H  41.61200 43.81900 47.15300
H  41.23900 42.64200 45.80700
H  40.11900 43.93600 46.09000

