158

Mg 35.19000 2.13100 28.86100
C  33.08500 3.19300 31.52500
C  37.80500 2.15600 31.23900
C  37.24200 1.49100 26.54200
C  32.53800 2.52300 26.67800
N  35.39800 2.63100 31.07300
C  34.39600 2.92500 31.92300
C  34.93900 3.00700 33.39700
C  36.45200 2.96500 33.26700
C  36.60900 2.65300 31.73500
C  37.13100 4.31100 33.65800
C  34.30000 1.82300 34.22700
C  34.09700 1.97500 35.75000
H  34.80100 3.04600 36.55500
N  37.20700 1.86400 28.85900
C  38.14900 1.84000 29.88300
C  39.42400 1.39600 29.42900
C  39.29600 1.30300 27.99900
C  37.85600 1.53500 27.75700
C  40.65500 1.04800 30.31200
C  40.38000 1.13000 26.98500
O  40.09400 1.19400 25.80200
C  41.82500 1.18700 27.48400
N  34.92000 2.07800 26.86900
C  35.93600 1.72300 26.12700
C  35.51100 1.44200 24.58700
C  33.94400 1.64500 24.67400
C  33.78900 2.14900 26.13500
C  36.22300 2.28200 23.54300
C  33.04200 0.41400 24.36000
C  32.91300 -0.81500 25.34200
N  33.18000 2.58600 29.00100
C  32.18400 2.72900 28.01200
C  30.94200 3.07400 28.59200
C  31.22700 3.28200 29.92700
C  32.61300 3.00500 30.15500
C  29.63800 3.22300 27.74500
C  30.68300 3.69900 31.25200
O  29.59600 4.04900 31.64900
C  31.82100 3.44900 32.31600
C  31.78500 4.57600 33.18400
O  32.36400 5.63800 32.95200
O  31.14000 4.18000 34.38900
C  31.29800 5.25100 35.35500
H  38.60400 2.15400 31.98400
H  37.72200 1.15300 25.62200
H  31.77900 2.60600 25.89700
H  34.47500 3.90800 33.79900
H  36.90200 2.24900 33.95400
H  38.00500 4.50600 33.03700
H  37.43100 4.29300 34.70500
H  36.28300 4.99500 33.61900
H  34.82900 0.87100 34.18600
H  33.27300 1.62400 33.92100
H  34.09500 0.96300 36.15500
H  33.07700 2.35700 35.76500
H  40.86700 0.00100 30.09600
H  40.49400 1.06700 31.39000
H  41.51600 1.68200 30.09600
H  42.50200 1.40900 26.66000
H  42.13000 0.33100 28.08700
H  41.82100 2.09900 28.08100
H  35.65900 0.38700 24.35800
H  33.58500 2.38600 23.95900
H  36.58100 1.62000 22.75500
H  37.07700 2.86500 23.88700
H  35.57700 3.02100 23.06800
H  33.45900 -0.01300 23.44800
H  32.07100 0.86800 24.16000
H  33.50000 -0.61200 26.23800
H  33.37300 -1.60400 24.74700
H  31.86500 -1.04700 25.52800
H  28.93500 2.45300 28.06400
H  29.88200 3.00900 26.70400
H  29.38200 4.25500 27.98400
H  31.39000 2.66800 32.94300
H  31.06600 6.26000 35.01300
H  32.30400 5.19900 35.77000
H  30.61900 5.14300 36.20100
Mg -2.75200 33.99600 26.61100
C  -3.92400 32.16500 29.44200
C  -1.17700 36.07000 28.57400
C  -2.12400 35.71000 23.83700
C  -4.76800 31.77600 24.74400
N  -2.60300 34.09100 28.80000
C  -2.98300 33.20900 29.74600
C  -2.54200 33.57100 31.13800
C  -1.63500 34.83700 30.80700
C  -1.84700 35.07700 29.29900
C  -1.96400 36.15900 31.63400
C  -1.91800 32.32500 31.94400
C  -2.52300 32.10500 33.29600
H  -1.52700 31.96200 34.43300
N  -1.70800 35.60200 26.23500
C  -1.05500 36.37700 27.21000
C  -0.30900 37.43500 26.59200
C  -0.61000 37.40200 25.17500
C  -1.52800 36.23200 25.01500
C  0.60900 38.35700 27.32800
C  -0.28500 38.32800 24.04800
O  -0.79100 38.41900 22.92000
C  0.80400 39.37600 24.34200
N  -3.46200 33.79500 24.61100
C  -2.96200 34.61700 23.59400
C  -3.28000 34.04200 22.15700
C  -3.97300 32.68200 22.54200
C  -4.08300 32.76000 24.06600
C  -4.14700 34.98900 21.26100
C  -3.17900 31.50400 22.04100
C  -1.76500 31.39700 22.71400
N  -4.16300 32.34800 26.95100
C  -4.85400 31.52800 26.13000
C  -5.64000 30.57900 26.86800
C  -5.30800 30.85400 28.15500
C  -4.34400 31.85500 28.16100
C  -6.53000 29.56400 26.28700
C  -5.59600 30.39300 29.46900
O  -6.33400 29.53600 29.95000
C  -4.64700 31.22600 30.35700
C  -5.46700 31.90000 31.38200
O  -6.06600 32.97700 31.24200
O  -5.69700 31.11800 32.48000
C  -6.57800 31.71900 33.47900
H  -0.56100 36.64100 29.27200
H  -1.92600 36.17300 22.86800
H  -5.39500 31.04900 24.22400
H  -3.38400 34.01200 31.67200
H  -0.59200 34.68000 31.08000
H  -2.59100 36.77900 30.99400
H  -1.05700 36.66500 31.96500
H  -2.48300 36.04700 32.58600
H  -0.85400 32.53400 32.04900
H  -1.91200 31.46000 31.28100
H  -3.07600 31.16700 33.24100
H  -3.20300 32.86300 33.68400
H  0.42900 38.44100 28.40000
H  0.43500 39.37700 26.98600
H  1.64500 38.09600 27.11200
H  1.67500 38.86200 24.74700
H  0.54800 40.17600 25.03800
H  1.02100 39.82900 23.37500
H  -2.32200 33.88300 21.66000
H  -5.01100 32.58800 22.22300
H  -3.89300 36.02200 21.49800
H  -5.17700 34.77200 21.54400
H  -3.91500 34.87900 20.20200
H  -2.94700 31.53500 20.97700
H  -3.70700 30.61000 22.37300
H  -1.62900 32.25000 23.37900
H  -1.06700 31.35500 21.87900
H  -1.82500 30.49100 23.31700
H  -6.37600 29.42200 25.21700
H  -7.50100 29.98600 26.54900
H  -6.47300 28.54100 26.66000
H  -3.97100 30.58800 30.92600
H  -7.49500 32.04900 32.99200
H  -6.22900 32.55200 34.08900
H  -6.72500 30.83000 34.09300

