158

Mg 8.67400 4.61900 27.44600
C  9.46000 2.56200 30.23400
C  6.28500 6.11100 29.36300
C  7.56300 6.07400 24.64200
C  10.12200 2.00100 25.43400
N  7.88300 4.24300 29.49900
C  8.54500 3.52700 30.57000
C  8.02400 4.08300 31.88300
C  6.84100 5.00600 31.55300
C  6.97800 5.10500 30.02500
C  5.43000 4.47700 31.91100
C  9.07400 4.87500 32.67600
C  9.18100 4.74700 34.20000
H  10.49200 4.73800 35.00700
N  7.17700 5.92700 27.06300
C  6.35500 6.51600 28.02900
C  5.48000 7.46800 27.41600
C  5.86500 7.51100 26.00700
C  6.95500 6.50700 25.86800
C  4.27100 8.23800 28.07400
C  5.30700 8.41100 24.88400
O  5.70500 8.39000 23.73900
C  4.18000 9.38500 25.17800
N  8.82200 4.06000 25.30100
C  8.30000 4.95300 24.38500
C  8.70100 4.45600 22.99600
C  9.46100 3.09800 23.19900
C  9.45900 3.02000 24.73500
C  7.63700 4.35500 21.96500
C  10.90100 3.14600 22.52800
C  11.20400 2.14700 21.34300
N  9.84800 2.77100 27.66200
C  10.28300 1.81100 26.83100
C  10.91500 0.74300 27.55500
C  10.71300 1.13100 28.93300
C  9.91400 2.25600 28.94800
C  11.58100 -0.48800 26.90400
C  11.04500 0.71800 30.25600
O  11.85300 -0.15200 30.66600
C  10.24300 1.67100 31.20100
C  9.26100 0.89700 32.06400
O  8.21000 0.38900 31.69700
O  9.68400 0.97500 33.36800
C  8.67700 0.39400 34.32500
H  5.63300 6.82900 29.86500
H  7.39000 6.69200 23.75900
H  10.44000 1.21700 24.74300
H  7.75500 3.20000 32.46100
H  6.91200 6.01400 31.96200
H  5.71900 3.59200 32.47800
H  4.81300 4.12100 31.08500
H  4.89700 5.19700 32.53100
H  9.01500 5.91500 32.35300
H  10.08000 4.60100 32.35700
H  8.47700 4.00800 34.58200
H  8.68300 5.64100 34.57600
H  4.08300 7.99900 29.12000
H  3.33200 7.96900 27.59000
H  4.13600 9.28200 27.79300
H  4.51700 10.10600 25.92300
H  3.24200 8.91000 25.46600
H  3.88400 9.93300 24.28300
H  9.45200 5.18100 22.68100
H  8.99400 2.20700 22.77700
H  6.62200 4.45700 22.34900
H  7.63700 3.39300 21.45200
H  7.86600 5.00900 21.12400
H  11.62300 2.98600 23.32800
H  11.24500 4.10800 22.14700
H  10.32000 1.53200 21.17700
H  11.95700 1.45100 21.71300
H  11.57700 2.60700 20.42800
H  11.14600 -0.57000 25.90800
H  11.37800 -1.34800 27.54200
H  12.64400 -0.27000 26.80000
H  10.91800 2.29200 31.79000
H  9.09600 0.66300 35.29500
H  8.68900 -0.69600 34.34300
H  7.67300 0.79400 34.18100
Mg 54.71800 24.36900 44.64300
C  52.07600 26.36900 43.39200
C  52.83500 21.49700 44.04500
C  57.52900 22.53000 45.07000
C  56.52000 27.30500 45.32100
N  52.63500 24.02500 44.00400
C  51.78700 24.94800 43.36900
C  50.54400 24.22900 42.88700
C  50.67600 22.76400 43.47500
C  52.15500 22.70500 43.92300
C  49.67000 22.15900 44.56000
C  50.32200 24.33100 41.35500
C  48.89900 23.97400 40.93300
H  48.84200 22.79500 40.01700
N  55.24500 22.27700 44.52300
C  54.28700 21.30600 44.34500
C  54.96000 20.03000 44.35500
C  56.31400 20.27500 44.70400
C  56.42100 21.75000 44.75100
C  54.26200 18.69800 43.91200
C  57.31300 19.19900 44.95700
O  56.97200 17.99800 44.97700
C  58.70100 19.55200 45.40500
N  56.80000 24.89300 44.87700
C  57.71100 23.89800 45.14600
C  59.04100 24.47600 45.76000
C  58.69200 26.03900 45.78200
C  57.22800 26.11500 45.26700
C  59.43400 24.00400 47.16300
C  59.61300 26.83000 44.88000
C  59.94700 28.26400 45.39200
N  54.41800 26.47100 44.40900
C  55.22800 27.57300 44.76800
C  54.44500 28.76400 44.63000
C  53.24600 28.34200 44.08600
C  53.27600 26.91200 43.89700
C  54.98500 30.13600 44.94100
C  52.00400 28.78700 43.56100
O  51.56400 29.88000 43.34600
C  51.24700 27.55800 42.92200
C  51.28900 27.70200 41.40200
O  52.25800 27.57300 40.67700
O  49.99700 27.92000 41.06500
C  49.75100 28.00200 39.64800
H  52.25100 20.57500 44.01400
H  58.45500 22.06300 45.41200
H  57.07000 28.22700 45.52400
H  49.78700 24.71800 43.50000
H  50.61400 22.09500 42.61600
H  49.07800 23.00900 44.89700
H  50.23900 21.70800 45.37300
H  49.05400 21.41700 44.05000
H  51.00800 23.65900 40.83800
H  50.49900 25.31600 40.92400
H  48.31600 24.81400 40.55600
H  48.38800 23.68900 41.85200
H  54.04800 18.09600 44.79500
H  54.93000 18.01700 43.38500
H  53.38300 18.97900 43.33100
H  59.19900 20.04100 44.56900
H  59.24400 18.63500 45.63400
H  58.59900 20.13700 46.31900
H  59.84300 24.32400 45.03700
H  58.86300 26.47600 46.76600
H  59.11100 22.98000 47.34900
H  59.04800 24.62300 47.97300
H  60.51400 23.86200 47.13000
H  59.14400 27.07600 43.92700
H  60.59900 26.37600 44.77900
H  60.76600 28.14800 46.10300
H  59.18900 28.90600 45.84000
H  60.31400 28.85800 44.55400
H  54.76200 30.39900 45.97500
H  54.53100 30.95700 44.38600
H  56.07500 30.13600 44.94900
H  50.29400 27.29700 43.38300
H  49.64500 27.02900 39.16900
H  50.61200 28.47400 39.17300
H  48.86200 28.58400 39.40700

