158

Mg 17.33800 -0.90000 28.52800
C  16.18400 1.01300 31.13200
C  19.26800 -2.68100 30.73500
C  18.75100 -2.57700 26.00700
C  15.73700 1.29900 26.29600
N  17.75800 -0.78300 30.65500
C  16.97700 -0.02900 31.58000
C  17.35400 -0.41400 33.04900
C  18.45200 -1.53700 32.93800
C  18.56200 -1.66000 31.37600
C  19.82800 -1.22000 33.59200
C  16.09300 -0.88600 33.85800
C  16.06500 -0.62600 35.35700
H  17.20600 0.09700 36.05700
N  18.59600 -2.55900 28.36300
C  19.33700 -3.11800 29.35700
C  19.97600 -4.32500 28.90700
C  19.95500 -4.22100 27.47300
C  18.99400 -3.11800 27.21900
C  20.74600 -5.28200 29.71000
C  20.67500 -5.10600 26.35200
O  20.60300 -4.89900 25.13200
C  21.53400 -6.22600 26.81500
N  17.26100 -0.69600 26.38200
C  17.91200 -1.56600 25.57400
C  17.86000 -1.10200 24.09300
C  17.02300 0.33400 24.17200
C  16.61300 0.31200 25.69600
C  19.25100 -1.00500 23.36700
C  15.75300 0.57400 23.20100
C  15.81700 1.73500 22.26300
N  16.12300 0.70000 28.62000
C  15.57300 1.52000 27.68300
C  14.80200 2.57000 28.29300
C  15.07700 2.44900 29.62200
C  15.85900 1.33100 29.78500
C  13.91400 3.60800 27.60800
C  14.71300 2.97300 30.91700
O  13.98500 3.83800 31.30600
C  15.53100 2.10500 31.98500
C  16.56700 2.95700 32.58500
O  17.73200 3.19300 32.19000
O  16.10600 3.45000 33.75300
C  16.93300 4.32800 34.62200
H  19.76300 -3.42400 31.36500
H  19.13400 -3.10900 25.13300
H  15.25100 2.09300 25.72500
H  17.79100 0.47500 33.50400
H  18.08200 -2.45400 33.39800
H  20.04300 -1.84400 34.45900
H  19.70700 -0.20600 33.97300
H  20.76900 -1.24600 33.04300
H  15.95200 -1.96600 33.80600
H  15.18900 -0.43100 33.45200
H  15.70700 -1.43600 35.99200
H  15.38000 0.22200 35.34800
H  20.55500 -6.34900 29.59700
H  20.63800 -5.10900 30.78100
H  21.76700 -4.94300 29.53500
H  21.06300 -6.81100 27.60600
H  22.51400 -5.79800 27.02300
H  21.69200 -6.92500 25.99400
H  17.32800 -1.92600 23.61700
H  17.76400 1.12400 24.04600
H  19.86500 -0.24700 23.85300
H  18.98000 -0.71800 22.35100
H  19.75800 -1.97000 23.39100
H  14.86500 0.72900 23.81500
H  15.50400 -0.29600 22.59300
H  15.07300 2.47100 22.56900
H  15.55800 1.40900 21.25600
H  16.84600 2.09300 22.29500
H  13.74900 3.50800 26.53500
H  14.43100 4.56800 27.63000
H  12.96200 3.49600 28.12600
H  14.77300 1.66800 32.63400
H  17.11100 3.83800 35.57900
H  16.38800 5.26900 34.69600
H  17.89200 4.55800 34.15800
Mg 9.44100 48.03200 25.08900
C  7.28300 48.58300 27.74100
C  12.02100 48.94300 27.19300
C  11.55200 47.65100 22.64100
C  6.73000 47.76500 22.92300
N  9.63600 48.57800 27.28400
C  8.58900 48.67300 28.18400
C  9.10000 48.94500 29.53900
C  10.56200 49.42900 29.26400
C  10.79500 48.96100 27.81900
C  10.72000 50.96200 29.43300
C  8.98600 47.82800 30.57200
C  9.47700 48.13800 31.97600
H  8.94900 47.20700 33.10500
N  11.56400 48.26100 25.00200
C  12.43800 48.65300 25.90400
C  13.81600 48.50200 25.37600
C  13.73000 47.93100 24.03100
C  12.25400 47.92600 23.83900
C  14.95400 48.73400 26.19700
C  14.77900 47.44900 23.07200
O  14.45300 47.00000 21.94900
C  16.17400 47.41400 23.54600
N  9.20400 47.69500 23.13500
C  10.21600 47.61700 22.24200
C  9.76600 47.11700 20.85200
C  8.20200 47.30100 20.89700
C  7.99800 47.54100 22.39900
C  10.52700 47.69100 19.57500
C  7.44500 46.03000 20.34500
C  6.53100 46.34600 19.11400
N  7.34500 48.22900 25.23300
C  6.36100 47.98300 24.27200
C  5.04700 48.39700 24.89700
C  5.42200 48.43300 26.22400
C  6.82600 48.34600 26.38400
C  3.65900 48.33700 24.30800
C  4.83900 48.59900 27.54300
O  3.66500 48.73400 27.85500
C  6.02100 48.65500 28.62400
C  5.83200 47.43300 29.42500
O  6.02600 46.29800 28.95700
O  5.45600 47.72800 30.69800
C  5.30400 46.56800 31.54800
H  12.72100 49.38300 27.90700
H  12.25800 47.47700 21.82700
H  5.97900 47.83200 22.13300
H  8.46700 49.76200 29.88500
H  11.30200 48.90800 29.87300
H  9.76300 51.39700 29.72200
H  11.21600 51.46600 28.60300
H  11.37500 51.16100 30.28000
H  9.35600 46.97200 30.00800
H  7.95000 47.60300 30.82700
H  9.06200 49.12300 32.18900
H  10.56200 48.13600 31.86800
H  14.66000 48.75300 27.24700
H  15.35900 49.68200 25.84200
H  15.73000 48.00400 25.96700
H  16.62900 46.71600 22.84300
H  16.33200 46.95200 24.52100
H  16.65500 48.37700 23.37600
H  9.98700 46.05300 20.93700
H  7.85600 48.20100 20.38900
H  9.73100 47.91500 18.86600
H  11.08400 46.88700 19.09500
H  11.20300 48.50700 19.83300
H  6.89100 45.54300 21.14700
H  8.16700 45.33300 19.92100
H  5.53700 45.91200 19.22500
H  6.92200 45.89100 18.20500
H  6.35600 47.42000 19.03800
H  3.25300 49.31300 24.57300
H  3.08600 47.51300 24.73400
H  3.46900 48.50500 23.24800
H  5.83400 49.47600 29.31500
H  4.26900 46.24200 31.64900
H  5.70500 46.76200 32.54300
H  5.90400 45.69100 31.30500

