158

Mg 35.19100 1.99100 29.90200
C  33.26300 3.42200 32.17900
C  37.95500 2.16000 32.18500
C  37.32400 1.01000 27.39500
C  32.67500 2.36500 27.38900
N  35.47800 2.58900 31.99800
C  34.47400 3.07700 32.78400
C  34.91800 3.19200 34.24100
C  36.46200 2.95400 34.22500
C  36.69300 2.51400 32.70700
C  37.45400 4.17900 34.68300
C  34.20600 2.16600 35.22800
C  33.54900 2.75900 36.48300
H  34.27200 3.82900 37.19000
N  37.29900 1.52800 29.85500
C  38.23300 1.69200 30.88500
C  39.50300 1.26200 30.38900
C  39.31200 0.83900 28.99300
C  37.94500 1.08000 28.68200
C  40.71700 1.23400 31.25200
C  40.41100 0.38100 28.00300
O  40.18800 0.03200 26.82800
C  41.80500 0.13000 28.55900
N  34.97200 1.58400 27.74000
C  36.03900 1.27000 26.97500
C  35.59500 1.27000 25.51100
C  34.07300 1.32000 25.52000
C  33.87100 1.76300 27.00500
C  36.33100 2.45500 24.73100
C  33.32600 0.05600 25.07900
C  32.38500 0.23300 23.88000
N  33.32200 2.65100 29.78500
C  32.37700 2.67900 28.72400
C  31.19100 3.29100 29.27600
C  31.49900 3.63200 30.57500
C  32.81300 3.15600 30.83200
C  29.95900 3.58900 28.47000
C  30.91700 4.15900 31.77500
O  29.76300 4.54800 31.97100
C  31.99100 3.98100 32.88800
C  32.32700 5.25100 33.52000
O  33.19200 6.12700 33.29100
O  31.33900 5.39400 34.49200
C  31.37300 6.56600 35.39500
H  38.79400 2.17700 32.88400
H  37.91300 0.79800 26.50000
H  31.95900 2.41800 26.56600
H  34.70000 4.23000 34.49000
H  36.84300 2.19200 34.90500
H  36.91000 5.06200 35.01600
H  37.92100 4.66900 33.82900
H  38.27900 3.94800 35.35700
H  34.87200 1.35200 35.51500
H  33.49300 1.62200 34.60800
H  33.28300 2.01400 37.23200
H  32.56900 3.12600 36.17800
H  41.13500 0.23100 31.34700
H  40.60700 1.57500 32.28100
H  41.49000 1.79900 30.73100
H  42.37200 1.05800 28.48300
H  42.34200 -0.55500 27.90300
H  41.87000 -0.40100 29.50800
H  35.93900 0.30100 25.14900
H  33.65100 2.01700 24.79600
H  37.10100 1.98800 24.11800
H  36.88700 3.14200 25.36900
H  35.70100 3.05500 24.07500
H  32.72100 -0.29400 25.91600
H  34.04700 -0.73000 24.85600
H  32.38100 -0.74100 23.39100
H  32.56900 1.02800 23.15800
H  31.39200 0.38800 24.30200
H  29.22800 2.78200 28.52000
H  30.18300 3.79600 27.42300
H  29.42000 4.42500 28.91600
H  31.51600 3.29200 33.58700
H  32.28600 6.62400 35.98900
H  30.64000 6.36700 36.17700
H  31.27500 7.51800 34.87400
Mg 27.19400 49.88900 26.62200
C  25.07900 51.07200 29.22300
C  29.44800 48.99400 28.98400
C  29.09600 49.34300 24.12800
C  24.69800 51.24100 24.33400
N  27.22000 50.14400 28.90100
C  26.17400 50.43600 29.71700
C  26.50900 49.96200 31.20600
C  28.04400 49.48000 31.14900
C  28.19100 49.43000 29.57300
C  29.00700 50.45700 31.76400
C  25.53000 48.91000 31.71200
C  24.59100 49.26600 32.92000
H  24.61300 48.44400 34.29500
N  29.03700 49.43100 26.59100
C  29.87600 49.08600 27.62300
C  31.21800 48.84600 27.12700
C  31.18000 48.95500 25.68500
C  29.73900 49.20900 25.40100
C  32.38400 48.40000 28.06400
C  32.25200 48.92500 24.54100
O  31.91800 49.21600 23.36600
C  33.75900 48.56300 24.81900
N  26.91800 50.07400 24.48600
C  27.84900 49.73100 23.67500
C  27.42600 49.85900 22.16000
C  25.88000 50.18100 22.35000
C  25.81700 50.48600 23.82800
C  28.24300 50.92900 21.37900
C  24.95400 49.06400 21.93400
C  23.60300 49.62400 21.40000
N  25.39100 50.97700 26.68700
C  24.51700 51.47200 25.69000
C  23.41200 52.12800 26.26800
C  23.63400 52.05900 27.63000
C  24.80300 51.29600 27.84800
C  22.28100 52.74700 25.53000
C  23.05900 52.36600 28.91500
O  22.00800 52.98600 29.23300
C  23.93700 51.74700 30.01800
C  24.43600 52.73700 31.06600
O  25.30000 53.60400 30.98700
O  23.61300 52.59900 32.18500
C  23.90100 53.50900 33.26900
H  30.17600 48.64900 29.72100
H  29.70100 49.09000 23.25500
H  23.96100 51.69300 23.66700
H  26.47400 50.76800 31.93900
H  28.27000 48.46300 31.47100
H  28.42400 51.15500 32.36500
H  29.49000 51.04600 30.98500
H  29.81000 49.98500 32.32900
H  25.96200 47.91800 31.84600
H  24.82700 48.67500 30.91300
H  23.60600 49.51000 32.52300
H  24.90900 50.24700 33.27200
H  32.34800 47.31500 28.17000
H  32.20200 48.91100 29.01000
H  33.35800 48.66600 27.65400
H  34.21800 49.53400 25.00300
H  34.09000 47.95100 23.98000
H  33.87500 47.92100 25.69200
H  27.48200 48.86900 21.70600
H  25.69800 51.07800 21.75800
H  28.99000 51.29200 22.08400
H  27.69100 51.79000 21.00400
H  28.77100 50.45900 20.54800
H  24.62500 48.43600 22.76200
H  25.40800 48.39700 21.20100
H  22.82500 48.86900 21.50900
H  23.55000 49.91200 20.35000
H  23.32300 50.57200 21.86000
H  22.59700 53.72000 25.15300
H  21.36000 52.78400 26.11100
H  22.04300 52.12700 24.66500
H  23.30400 50.96900 30.44300
H  23.03700 53.63500 33.92200
H  24.25800 54.50500 33.00600
H  24.60800 53.07700 33.97600

