158

Mg 33.87800 2.50700 29.35900
C  31.82400 3.34500 32.13100
C  36.44000 2.11500 31.64200
C  35.89100 2.30500 26.77300
C  31.16600 3.29500 27.35700
N  34.05900 2.88100 31.67400
C  33.07600 3.05200 32.55600
C  33.66500 3.03300 33.98100
C  35.23000 2.69600 33.81500
C  35.24700 2.46900 32.26400
C  36.19600 3.83300 34.20700
C  32.80800 2.05300 34.90200
C  32.78400 2.40200 36.43600
H  33.93900 3.15500 37.10700
N  35.86000 2.20900 29.22700
C  36.81000 2.07100 30.26500
C  38.13100 1.92700 29.72800
C  38.04100 2.07200 28.29100
C  36.52800 2.21300 28.06600
C  39.41400 1.73700 30.60600
C  39.11400 1.97800 27.17300
O  38.81500 2.09200 25.99200
C  40.54200 1.61400 27.56900
N  33.56500 2.78100 27.41700
C  34.53500 2.45800 26.50700
C  34.09200 2.61100 25.02900
C  32.50500 2.73500 25.25600
C  32.37700 2.90400 26.76400
C  34.69100 3.85600 24.22200
C  31.66300 1.53300 24.63900
C  30.60500 1.72000 23.55900
N  31.91000 3.22500 29.59500
C  30.93900 3.50300 28.67700
C  29.71100 3.93400 29.28000
C  30.00900 3.94700 30.63300
C  31.37100 3.44700 30.75700
C  28.37700 4.23200 28.59800
C  29.54200 4.23700 31.95300
O  28.44800 4.58800 32.29700
C  30.69300 3.96800 32.92500
C  31.09200 5.22300 33.54800
O  31.55100 6.17600 32.96000
O  30.91900 5.07700 34.89100
C  31.31600 6.10100 35.76500
H  37.29200 2.04600 32.32200
H  36.51000 2.05300 25.91000
H  30.33100 3.48500 26.67900
H  33.60100 4.07400 34.29700
H  35.49600 1.78200 34.34700
H  36.70200 3.37000 35.05500
H  35.61100 4.68400 34.55600
H  36.84000 4.11600 33.37400
H  33.39900 1.13900 34.86200
H  31.78600 1.93300 34.54400
H  32.63500 1.52400 37.06500
H  31.89600 3.03200 36.48000
H  40.36800 2.18600 30.33000
H  39.60100 0.66600 30.68200
H  39.41500 2.11200 31.62900
H  40.62600 0.85700 28.34900
H  40.84500 2.58700 27.95600
H  41.15900 1.44400 26.68600
H  34.38800 1.68300 24.54000
H  32.16800 3.69300 24.86000
H  35.35400 4.35200 24.93200
H  34.01800 4.68900 24.01500
H  35.17700 3.47700 23.32400
H  31.27300 0.90800 25.44200
H  32.34300 0.87700 24.09400
H  29.56600 1.65300 23.88300
H  30.76800 1.00500 22.75300
H  30.77700 2.73200 23.19300
H  28.38700 4.56900 27.56200
H  27.81700 5.03100 29.08500
H  27.79700 3.31300 28.52100
H  30.31700 3.27600 33.67800
H  31.44400 5.69700 36.76900
H  30.44700 6.75900 35.80200
H  32.20500 6.71000 35.60000
Mg 6.01900 53.60000 40.70300
C  4.87400 50.26600 40.39100
C  9.14400 52.66100 39.60700
C  6.84800 56.79700 40.70800
C  2.66700 54.47700 41.11600
N  6.88600 51.70800 40.10300
C  6.23700 50.48700 40.05900
C  7.27400 49.45000 39.71700
C  8.66300 50.19300 39.94200
C  8.18600 51.62300 39.81800
C  9.47700 49.75200 41.21000
C  7.18400 48.82900 38.29100
C  7.00100 49.74600 37.10100
H  6.14200 49.17600 35.96600
N  7.79100 54.65700 40.21500
C  8.94300 54.05700 39.77100
C  9.89100 55.14000 39.49500
C  9.36100 56.34900 40.03300
C  7.95000 55.97100 40.34100
C  11.25300 54.81500 38.97600
C  10.08900 57.70100 40.20700
O  11.24200 57.81600 39.83300
C  9.50400 58.76400 41.08300
N  4.94100 55.34500 40.68900
C  5.53600 56.49900 40.88200
C  4.51700 57.61700 40.94300
C  3.13600 56.94600 41.06900
C  3.63200 55.47400 40.99300
C  4.75100 58.64800 42.06700
C  2.03200 57.28700 40.01700
C  0.65800 57.59800 40.61600
N  4.14800 52.62700 40.75300
C  2.86000 53.07600 40.96400
C  1.93300 52.01300 41.18500
C  2.72400 50.86100 40.92300
C  4.02500 51.31900 40.67100
C  0.47400 52.07600 41.51600
C  2.68100 49.40800 40.83800
O  1.79400 48.67800 41.22900
C  4.08300 48.98100 40.46100
C  3.95400 48.17400 39.28900
O  3.51400 48.54700 38.21500
O  4.20100 46.86500 39.57300
C  3.84300 45.90500 38.48000
H  10.11500 52.26700 39.29800
H  7.04800 57.84700 40.48600
H  1.65700 54.71000 41.46100
H  7.14600 48.72900 40.52500
H  9.33500 50.11200 39.08700
H  9.39500 50.53500 41.96500
H  10.52500 49.64000 40.93200
H  9.15200 48.79800 41.62500
H  6.48800 47.99500 38.37700
H  8.10600 48.28400 38.08900
H  8.06600 49.86700 36.90100
H  6.66400 50.73200 37.42100
H  11.16200 54.13000 38.13400
H  11.87000 54.48700 39.81300
H  11.69200 55.74000 38.60300
H  10.13900 59.39000 41.71100
H  8.76400 58.27400 41.71400
H  8.96800 59.27100 40.28100
H  4.59200 58.07600 39.95800
H  2.80200 57.23100 42.06700
H  3.79200 59.13500 42.24300
H  5.41900 59.47800 41.83600
H  5.14000 58.18000 42.97200
H  2.03600 56.54700 39.21600
H  2.24800 58.27300 39.60500
H  0.44100 58.65500 40.46100
H  0.66000 57.34000 41.67500
H  -0.08600 57.01300 40.07600
H  0.60100 52.17500 42.59500
H  -0.13200 51.22100 41.21600
H  0.02800 52.98500 41.11300
H  4.52400 48.39000 41.26300
H  2.80400 45.98500 38.16000
H  4.27700 44.97100 38.83500
H  4.56300 46.17200 37.70600

