158

Mg 8.59600 3.73800 26.84700
C  10.09300 2.03800 29.63100
C  6.69800 5.42700 29.09400
C  6.93500 4.93500 24.31100
C  10.38400 1.63400 24.78400
N  8.40300 3.63800 29.14500
C  9.15300 3.01800 30.05500
C  8.81400 3.57500 31.50600
C  7.58700 4.45700 31.28400
C  7.54800 4.47000 29.70600
C  6.25500 3.97700 31.97800
C  9.89800 4.37400 32.15900
C  9.66400 4.46200 33.68600
H  10.79600 4.58400 34.64700
N  7.21000 5.27300 26.70700
C  6.50200 5.78900 27.74900
C  5.40900 6.60500 27.20100
C  5.59100 6.53000 25.79200
C  6.61800 5.55100 25.51800
C  4.48100 7.39400 28.07000
C  4.88200 7.37700 24.72100
O  5.23100 7.35200 23.54300
C  3.72200 8.27700 25.05500
N  8.68800 3.30100 24.80700
C  7.90400 3.93700 23.92900
C  8.13400 3.46000 22.47700
C  9.31300 2.50800 22.69600
C  9.53600 2.52300 24.16500
C  6.83200 2.90800 21.85600
C  10.53200 2.67700 21.70400
C  11.32500 1.45100 21.20900
N  9.91400 2.13500 27.07600
C  10.65800 1.42900 26.13100
C  11.48400 0.42600 26.78000
C  11.24100 0.64400 28.15700
C  10.29800 1.68300 28.32200
C  12.32200 -0.60900 26.12300
C  11.71800 0.23800 29.40200
O  12.47700 -0.64900 29.80100
C  11.14100 1.26800 30.43800
C  10.58900 0.47100 31.60000
O  9.59200 -0.12900 31.43500
O  11.18100 0.78200 32.82700
C  10.57900 0.19700 34.07600
H  5.98900 5.80200 29.83500
H  6.31300 5.20800 23.45500
H  10.89900 0.99800 24.06100
H  8.53800 2.67700 32.05800
H  7.74900 5.49700 31.56700
H  5.84000 4.61300 32.76000
H  6.44500 3.01100 32.44800
H  5.49800 3.86100 31.20300
H  10.02000 5.26300 31.54000
H  10.87500 3.90800 32.02700
H  8.97800 3.67900 34.00800
H  9.09700 5.38300 33.82500
H  4.45000 8.42700 27.72500
H  4.76800 7.36500 29.12100
H  3.51900 6.95100 27.81400
H  2.98000 7.88400 25.75000
H  3.25300 8.59200 24.12300
H  4.08100 9.24200 25.41200
H  8.42900 4.31600 21.87000
H  8.87300 1.53700 22.46800
H  6.16500 2.62600 22.67100
H  7.02400 1.99700 21.28900
H  6.26700 3.60400 21.23600
H  11.16500 3.37800 22.24700
H  10.30200 3.14100 20.74500
H  11.30900 1.50800 20.12100
H  11.07000 0.48100 21.63500
H  12.37400 1.51400 21.50100
H  13.17600 -0.74300 26.78800
H  12.60900 -0.25000 25.13500
H  11.74500 -1.53300 26.16500
H  11.95100 1.92900 30.74700
H  10.25700 1.05700 34.66200
H  11.22400 -0.29800 34.80200
H  9.70000 -0.41500 33.87400
Mg -11.50700 15.86800 41.57100
C  -8.66200 14.02300 41.09900
C  -9.84200 18.71500 40.30200
C  -14.52200 17.52000 41.40800
C  -13.14500 12.86900 42.29200
N  -9.56000 16.27800 40.62400
C  -8.49600 15.37500 40.71100
C  -7.23300 16.03600 40.11200
C  -7.59500 17.55900 40.31500
C  -9.07000 17.53000 40.34700
C  -7.11100 18.17300 41.59700
C  -6.75600 15.67900 38.64500
C  -5.24900 15.61800 38.47400
H  -4.67700 16.16100 37.22200
N  -12.04200 17.83500 40.98500
C  -11.25200 18.87000 40.54600
C  -12.04500 20.09200 40.27000
C  -13.36200 19.77600 40.57900
C  -13.39200 18.28500 41.03100
C  -11.46100 21.29800 39.55800
C  -14.54100 20.67600 40.49400
O  -14.28100 21.81700 40.18700
C  -16.13600 20.32600 40.69400
N  -13.59700 15.32500 41.85300
C  -14.64600 16.14000 41.78200
C  -15.99200 15.41300 41.75200
C  -15.55700 13.97400 42.28900
C  -13.99900 14.04500 42.25100
C  -17.13200 16.04500 42.62600
C  -16.06700 12.84100 41.47700
C  -17.42100 12.92600 40.79800
N  -10.96900 13.82300 41.87600
C  -11.82000 12.75500 42.04700
C  -11.00100 11.56100 42.07400
C  -9.71800 12.04100 41.76800
C  -9.82900 13.39000 41.48100
C  -11.36800 10.19400 42.35900
C  -8.35800 11.65500 41.46200
O  -7.78700 10.59100 41.34800
C  -7.59700 12.94500 41.11700
C  -6.66800 13.29600 42.08700
O  -6.83900 13.54000 43.25600
O  -5.41700 13.08500 41.61300
C  -4.24200 13.23500 42.47000
H  -9.27800 19.64100 40.17600
H  -15.53500 17.87700 41.21500
H  -13.73900 11.96300 42.43000
H  -6.40900 15.89600 40.81100
H  -7.29700 18.17800 39.47000
H  -6.39900 17.51100 42.09000
H  -7.87900 18.34000 42.35200
H  -6.69500 19.14700 41.34100
H  -7.28000 16.30600 37.92400
H  -7.12500 14.65600 38.58000
H  -4.85700 14.61100 38.61100
H  -4.81400 16.28400 39.21900
H  -11.99900 21.50200 38.63200
H  -10.42700 21.24000 39.21600
H  -11.49400 22.19400 40.17700
H  -16.62200 21.30000 40.74500
H  -16.17400 19.74300 41.61400
H  -16.33900 19.75700 39.78700
H  -16.15500 15.37600 40.67500
H  -15.83400 13.79200 43.32700
H  -18.00800 16.14500 41.98500
H  -16.70500 16.98300 42.97900
H  -17.35800 15.40200 43.47600
H  -16.22100 12.05700 42.21800
H  -15.27400 12.60000 40.76900
H  -18.00800 13.71100 41.27500
H  -17.83900 11.94000 41.00200
H  -17.27600 13.16100 39.74400
H  -10.45700 9.65500 42.61900
H  -11.88900 9.71400 41.53000
H  -11.97200 10.20100 43.26700
H  -7.22700 12.84800 40.09600
H  -3.46400 12.66200 41.96700
H  -4.45700 12.86200 43.47100
H  -3.83800 14.24700 42.43200

