158

Mg 24.31300 -5.04000 46.45400
C  26.44400 -2.58000 45.24700
C  21.86300 -3.91500 44.27000
C  22.61300 -8.00700 46.88800
C  26.86900 -6.32900 48.45600
N  24.20800 -3.45700 44.85700
C  25.19400 -2.55100 44.55000
C  24.78200 -1.82800 43.26400
C  23.20200 -2.02100 43.12500
C  23.04000 -3.12800 44.23900
C  22.47300 -0.70800 43.49200
C  25.58400 -2.42700 42.04200
C  26.14100 -1.32300 41.15000
H  25.38400 -1.06800 39.87400
N  22.41300 -5.79100 45.81100
C  21.61000 -5.17900 44.91900
C  20.37300 -5.93100 44.78000
C  20.55500 -7.07700 45.52000
C  21.90900 -7.03400 46.03700
C  19.25200 -5.34800 43.98100
C  19.46300 -8.17000 45.82400
O  18.33300 -8.00600 45.34200
C  19.77300 -9.40600 46.62000
N  24.63300 -6.84500 47.62200
C  23.74600 -7.92700 47.66100
C  24.37400 -9.13000 48.42700
C  25.72700 -8.51300 48.93500
C  25.74200 -7.12400 48.35200
C  23.35000 -9.61700 49.47600
C  26.90800 -9.46100 48.35100
C  28.14100 -9.62000 49.24000
N  26.21900 -4.59800 46.87900
C  27.16800 -5.16600 47.72400
C  28.33500 -4.31600 47.73600
C  28.11800 -3.32900 46.77100
C  26.84000 -3.53100 46.25000
C  29.60700 -4.70600 48.45800
C  28.72900 -2.23900 46.08000
O  29.84800 -1.77700 46.34100
C  27.69100 -1.84100 44.94400
C  27.48600 -0.34700 45.05800
O  26.65900 0.19100 45.78100
O  28.23400 0.30100 44.15600
C  28.11800 1.80200 44.11400
H  20.98500 -3.52300 43.75200
H  22.19200 -8.98700 47.12400
H  27.63600 -6.54600 49.20300
H  25.05900 -0.77400 43.30200
H  22.91100 -2.33000 42.12100
H  21.48600 -0.96400 43.87500
H  22.28200 -0.10000 42.60700
H  23.00400 -0.05300 44.18300
H  24.91000 -2.97100 41.38000
H  26.32400 -3.12900 42.42600
H  27.14200 -1.65400 40.87400
H  26.41600 -0.45700 41.75200
H  19.60000 -4.88200 43.06000
H  18.53100 -4.73900 44.52700
H  18.68800 -6.14200 43.49100
H  19.83900 -9.00800 47.63200
H  20.72500 -9.87900 46.38100
H  19.00500 -10.16900 46.49500
H  24.43700 -9.92500 47.68400
H  25.93400 -8.40100 50.00000
H  22.50600 -8.95300 49.66200
H  23.88300 -9.68200 50.42500
H  22.98700 -10.56900 49.08800
H  27.20200 -9.02400 47.39700
H  26.50600 -10.40400 47.98100
H  28.01000 -9.03900 50.15300
H  29.00000 -9.30100 48.65100
H  28.24400 -10.68800 49.43500
H  30.29500 -5.24300 47.80500
H  29.46000 -5.36700 49.31200
H  30.19400 -3.87600 48.85000
H  28.05900 -2.12200 43.95700
H  27.12600 1.94500 43.68500
H  28.90000 2.29400 43.53500
H  28.13900 2.23200 45.11500
Mg -2.09200 34.43100 26.95800
C  -3.93900 32.91300 29.50500
C  -1.14300 36.91300 29.20800
C  -0.75700 36.12700 24.42500
C  -3.56800 32.31400 24.70600
N  -2.49700 34.87500 29.10300
C  -3.19900 33.99900 29.93300
C  -3.11200 34.44700 31.35200
C  -2.44700 35.91800 31.25200
C  -1.96200 35.95100 29.81700
C  -3.31000 37.09200 31.61800
C  -2.44900 33.43200 32.33100
C  -3.02300 33.43300 33.80000
H  -2.19400 34.08500 34.86000
N  -0.98300 36.14100 26.87100
C  -0.63200 37.00400 27.95000
C  0.28200 38.02200 27.36700
C  0.27400 37.88200 25.89800
C  -0.56300 36.73100 25.69500
C  0.87700 39.19700 28.14800
C  1.10600 38.62400 24.82300
O  0.83300 38.50800 23.67400
C  2.09100 39.69000 25.33800
N  -2.18900 34.29800 24.90900
C  -1.49600 35.07200 24.06900
C  -1.55600 34.53000 22.58300
C  -2.29900 33.22700 22.75400
C  -2.76900 33.31300 24.18400
C  -2.24100 35.61300 21.65800
C  -1.44400 31.96200 22.59500
C  -1.97800 30.73600 21.82000
N  -3.52900 32.89500 27.02500
C  -3.96100 32.08900 25.99700
C  -4.85800 31.07400 26.55100
C  -4.78800 31.31100 27.95700
C  -4.01200 32.45400 28.16300
C  -5.54600 29.96700 25.74900
C  -5.27600 30.80500 29.21100
O  -6.01000 29.84600 29.46100
C  -4.54400 31.76200 30.31400
C  -5.65300 32.19700 31.20200
O  -6.54300 32.96300 30.88600
O  -5.58500 31.54900 32.43900
C  -6.55500 31.87900 33.45000
H  -0.82900 37.75900 29.82200
H  -0.31200 36.58400 23.53900
H  -4.07100 31.63400 24.01700
H  -4.12400 34.53400 31.74700
H  -1.59500 36.01400 31.92400
H  -3.11700 37.36200 32.65600
H  -4.34300 36.80700 31.41700
H  -3.14100 37.98900 31.02300
H  -1.40900 33.75000 32.40900
H  -2.49000 32.45600 31.84800
H  -3.13000 32.38000 34.06100
H  -4.00400 33.90600 33.77600
H  1.96600 39.20200 28.19600
H  0.49800 39.26100 29.16800
H  0.64000 40.08800 27.56500
H  1.59700 40.56600 25.75900
H  2.77600 39.93500 24.52700
H  2.73800 39.12200 26.00600
H  -0.50900 34.43200 22.29600
H  -3.12100 33.16100 22.04100
H  -1.51700 35.93600 20.91000
H  -2.64900 36.44400 22.23400
H  -3.03400 35.10900 21.10500
H  -1.21900 31.67700 23.62300
H  -0.50900 32.21000 22.09300
H  -2.23900 29.93300 22.50900
H  -1.34800 30.53900 20.95200
H  -2.91000 31.09900 21.38600
H  -5.48000 30.10000 24.66900
H  -6.61300 29.85600 25.94400
H  -5.16400 28.98600 26.03100
H  -3.73900 31.24800 30.83900
H  -6.78200 31.08200 34.15800
H  -7.51600 32.20400 33.05100
H  -6.25800 32.70500 34.09800

