158

Mg 1.14900 8.30700 26.58600
C  1.78000 10.19000 29.34400
C  1.29400 5.47700 28.49800
C  1.30200 6.58900 23.73900
C  1.47100 11.36400 24.67500
N  1.64400 7.92400 28.64600
C  1.78300 8.83000 29.63400
C  1.54800 8.09900 31.00800
C  1.56800 6.60500 30.67800
C  1.44700 6.65200 29.18600
C  2.85200 5.88500 31.17100
C  0.21300 8.51000 31.69500
C  0.30600 8.58900 33.20700
H  1.48500 7.93000 33.96800
N  1.28000 6.29000 26.14400
C  1.26900 5.32200 27.09900
C  1.38000 3.99700 26.43300
C  1.44400 4.29500 25.02500
C  1.39900 5.77700 24.89600
C  1.26300 2.62100 27.11100
C  1.44300 3.40000 23.86600
O  1.45800 3.77100 22.72200
C  1.49500 1.90000 24.08700
N  1.18400 8.86300 24.60700
C  1.31400 8.00600 23.58400
C  1.54000 8.65600 22.26500
C  1.05700 10.09100 22.51800
C  1.25000 10.15400 24.00100
C  3.01800 8.52400 21.78700
C  -0.39800 10.52400 21.98000
C  -0.61500 12.02500 21.68600
N  1.42000 10.42500 26.90500
C  1.60300 11.50300 26.05800
C  1.94500 12.65500 26.84000
C  2.08200 12.14500 28.10900
C  1.74300 10.80400 28.12800
C  2.04400 14.04000 26.31800
C  2.32100 12.57300 29.43600
O  2.68000 13.61100 29.90300
C  1.85400 11.36300 30.34100
C  2.81600 11.21100 31.40200
O  3.98400 10.94900 31.23300
O  2.16600 11.39900 32.56900
C  2.81800 11.50900 33.87100
H  1.11600 4.50300 28.95800
H  1.19200 6.04800 22.79700
H  1.51800 12.24800 24.03600
H  2.38100 8.24300 31.69700
H  0.74400 6.00800 31.06900
H  2.58200 5.29000 32.04400
H  3.61700 6.57900 31.51900
H  3.17700 5.25700 30.34200
H  -0.54900 7.87400 31.24400
H  0.01300 9.56500 31.50600
H  -0.58400 8.14100 33.64800
H  0.38500 9.65500 33.42000
H  2.14000 2.00500 26.91500
H  0.39700 2.09600 26.70900
H  1.10900 2.62400 28.19000
H  2.27700 1.50600 24.73700
H  1.51100 1.30100 23.17700
H  0.55400 1.69300 24.59700
H  0.90800 8.21700 21.49300
H  1.84200 10.78600 22.22000
H  3.47700 7.94000 22.58400
H  3.52800 9.45400 21.53900
H  2.94800 7.89300 20.90000
H  -1.21900 10.26000 22.64700
H  -0.54200 9.88300 21.11100
H  -1.20500 12.03300 20.76900
H  0.36000 12.50000 21.58000
H  -1.20600 12.49600 22.47200
H  1.62800 14.39700 25.37600
H  3.11100 14.25400 26.24600
H  1.69700 14.70100 27.11200
H  0.84600 11.60500 30.67700
H  3.86000 11.19100 33.83200
H  2.20200 11.00900 34.61800
H  2.85100 12.54800 34.19700
Mg 17.58300 0.03500 28.11800
C  16.57800 1.73300 31.12400
C  19.62100 -2.01500 29.97200
C  18.90200 -1.05200 25.29900
C  16.05200 2.77700 26.42000
N  17.93000 -0.11300 30.31700
C  17.41400 0.67600 31.36300
C  17.96800 0.10100 32.73500
C  19.17900 -0.75100 32.26400
C  18.90600 -1.09100 30.74900
C  20.65500 -0.15200 32.36800
C  16.80200 -0.63500 33.46600
C  16.55800 -0.50500 35.01400
H  17.64500 0.23000 35.81400
N  18.91100 -1.53900 27.67500
C  19.64200 -2.23800 28.54200
C  20.15100 -3.43700 27.81500
C  20.11800 -3.05800 26.39200
C  19.28800 -1.81800 26.35100
C  20.99900 -4.51100 28.59400
C  20.63100 -3.75800 25.15200
O  20.53000 -3.33100 23.97900
C  21.42200 -5.08200 25.51100
N  17.55700 0.81100 26.16400
C  18.12700 0.09200 25.12100
C  17.93500 0.90600 23.81800
C  16.96100 2.04100 24.20400
C  16.78500 1.80900 25.66400
C  19.25600 1.50500 23.25900
C  15.60400 2.03600 23.45700
C  15.57500 1.59100 22.00500
N  16.55500 1.80700 28.60900
C  15.92000 2.77600 27.79900
C  15.17800 3.67800 28.63800
C  15.46400 3.33400 29.89500
C  16.23700 2.18300 29.84800
C  14.17700 4.82200 28.17200
C  15.07000 3.64500 31.26000
O  14.33500 4.46100 31.67200
C  15.96100 2.66800 32.13800
C  16.95100 3.49700 32.88500
O  18.01000 3.95100 32.56100
O  16.23000 4.00500 33.90300
C  16.92700 4.98200 34.76500
H  20.24300 -2.60600 30.64700
H  19.31500 -1.31800 24.32300
H  15.59300 3.63900 25.93100
H  18.30700 0.93800 33.34600
H  19.17900 -1.60000 32.94700
H  21.17700 -0.86700 33.00400
H  20.57000 0.76400 32.95400
H  21.21700 -0.01800 31.44400
H  16.97000 -1.66400 33.14700
H  15.87800 -0.43300 32.92400
H  16.26300 -1.43200 35.50500
H  15.64200 0.06700 35.15900
H  22.07500 -4.38700 28.46900
H  20.64800 -5.47900 28.23600
H  20.66000 -4.46500 29.62900
H  20.78800 -5.94700 25.70400
H  22.18000 -4.95600 26.28400
H  21.86800 -5.33000 24.54800
H  17.60700 0.16500 23.08900
H  17.26600 3.08500 24.28000
H  20.11900 1.24200 23.87100
H  19.11900 2.56700 23.06000
H  19.48900 1.05400 22.29500
H  15.11100 3.00200 23.56300
H  14.96600 1.29700 23.94200
H  15.25400 2.36300 21.30600
H  14.78200 0.84300 22.02700
H  16.49400 1.15100 21.61800
H  14.39900 5.02700 27.12500
H  14.51500 5.65500 28.78800
H  13.15100 4.52200 28.38400
H  15.27500 2.16900 32.82200
H  16.96300 6.01300 34.41200
H  17.95100 4.69900 35.01100
H  16.40300 5.00300 35.72100

