158

Mg 48.15000 25.52800 29.76600
C  49.77300 27.50800 32.08800
C  47.08500 23.52500 32.48300
C  47.05200 23.24000 27.67500
C  49.71800 27.25500 27.10100
N  48.55800 25.43400 32.10700
C  49.15200 26.45300 32.80700
C  48.88400 26.34400 34.29300
C  48.21100 24.91100 34.37200
C  47.92600 24.55900 32.91700
C  49.03800 23.80900 35.15800
C  48.01400 27.51500 34.98500
C  48.67500 28.25400 36.19700
H  47.66400 28.65300 37.34800
N  47.16200 23.77000 30.04300
C  46.78700 23.07700 31.16800
C  46.06100 21.93600 30.86700
C  46.08600 21.77200 29.47300
C  46.77200 23.00100 28.98200
C  45.46000 20.97800 31.96200
C  45.49500 20.69500 28.61700
O  45.60500 20.60500 27.40100
C  44.76800 19.56100 29.21300
N  48.54900 25.16600 27.68300
C  47.83700 24.20100 27.01600
C  47.87200 24.32400 25.46800
C  48.68200 25.72000 25.37300
C  48.97400 26.11900 26.81000
C  48.69200 23.24400 24.68800
C  47.92800 26.76000 24.47600
C  48.64500 27.05000 23.16300
N  49.45500 27.08600 29.55700
C  49.98700 27.68600 28.41600
C  50.68600 28.94700 28.86800
C  50.67600 28.82300 30.22200
C  49.98600 27.67500 30.66500
C  51.40000 29.94800 28.01200
C  51.09000 29.53800 31.40300
O  51.67000 30.60600 31.51600
C  50.53200 28.67600 32.62600
C  51.73500 28.17400 33.48500
O  52.34200 27.17500 33.31400
O  51.87400 29.09500 34.53300
C  52.77100 28.82700 35.65100
H  46.56500 23.04800 33.31700
H  46.37800 22.72900 26.98400
H  50.02000 27.94600 26.31200
H  49.84200 26.32900 34.81100
H  47.22100 24.98900 34.82000
H  49.72700 24.26700 35.86800
H  49.76600 23.28300 34.54000
H  48.25600 23.25600 35.67800
H  47.04300 27.10000 35.25600
H  47.92800 28.23600 34.17300
H  49.25400 29.07600 35.77600
H  49.42800 27.56100 36.57100
H  45.78300 21.16000 32.98600
H  45.73800 19.93900 31.78600
H  44.38300 21.09800 32.08500
H  45.29500 19.02400 30.00100
H  44.49100 18.88400 28.40400
H  43.89500 20.02800 29.66700
H  46.82900 24.40000 25.15800
H  49.66500 25.55500 24.93300
H  48.06300 22.40600 24.38900
H  49.27700 22.82800 25.50800
H  49.32000 23.64800 23.89400
H  47.61600 27.59000 25.11000
H  46.92100 26.37900 24.30600
H  47.93200 26.96800 22.34300
H  49.54300 26.46700 22.96000
H  49.05200 28.05500 23.04700
H  51.63600 29.48200 27.05500
H  52.35700 30.05400 28.52500
H  50.78000 30.81200 27.77500
H  49.92800 29.40600 33.16500
H  53.52300 28.09800 35.35100
H  52.19700 28.35200 36.44700
H  53.25800 29.74700 35.97400
Mg 49.38300 47.03300 43.11000
C  45.98300 47.42000 42.53200
C  49.18000 43.94700 41.59400
C  52.73500 46.97800 43.01600
C  49.35800 50.48200 44.08900
N  47.72900 45.85400 42.08300
C  46.40900 46.18900 42.09200
C  45.56400 45.13600 41.47000
C  46.62000 43.90500 41.44300
C  47.91700 44.57000 41.74200
C  46.34300 42.75300 42.44800
C  44.86500 45.41100 40.10400
C  43.75700 44.44800 39.57800
H  44.23000 43.51800 38.50500
N  50.77700 45.60800 42.52200
C  50.46800 44.37400 42.02400
C  51.65200 43.58700 41.93600
C  52.72600 44.41700 42.31500
C  52.10200 45.75800 42.58500
C  51.65200 42.06100 41.57500
C  54.15600 44.05800 42.40300
O  54.50400 42.88200 42.13200
C  55.30500 45.02300 42.68600
N  50.81200 48.56700 43.45500
C  52.14700 48.26600 43.38400
C  52.99100 49.40500 43.84200
C  51.91700 50.54300 44.11200
C  50.58900 49.82500 43.88700
C  53.93100 49.01600 45.09200
C  52.13600 51.81600 43.19600
C  51.54800 53.09400 43.70400
N  47.96400 48.63100 43.42800
C  48.09500 49.94500 43.86100
C  46.77400 50.57400 43.94800
C  45.92700 49.62300 43.43200
C  46.71600 48.45100 43.15000
C  46.55400 52.02300 44.41800
C  44.53600 49.36600 43.06400
O  43.49000 50.04800 43.15600
C  44.55900 47.99800 42.40200
C  43.66200 47.20500 43.25400
O  43.80800 47.00900 44.43300
O  42.82600 46.50800 42.43500
C  42.12900 45.47600 43.14400
H  49.06100 42.90400 41.29600
H  53.79900 47.03200 43.25400
H  49.41200 51.52000 44.42400
H  44.84100 44.84300 42.23100
H  46.71400 43.49000 40.44000
H  45.40900 42.85500 43.00000
H  47.09400 42.57900 43.21800
H  46.15500 41.85300 41.86300
H  45.69600 45.42200 39.39900
H  44.52700 46.44200 40.21300
H  42.96700 45.07000 39.15800
H  43.31800 43.87800 40.39700
H  52.13800 42.06600 40.59900
H  50.64900 41.63800 41.63400
H  52.21300 41.56500 42.36700
H  55.26500 45.39700 43.71000
H  55.28700 45.78800 41.91000
H  56.22200 44.50500 42.40600
H  53.67400 49.69000 43.04200
H  52.09100 50.78600 45.16000
H  54.89800 48.93900 44.59400
H  53.69500 48.10000 45.63300
H  54.08500 49.82200 45.80900
H  51.70600 51.58300 42.22200
H  53.21100 51.96700 43.09800
H  51.15500 53.02200 44.71800
H  50.79100 53.47900 43.02100
H  52.36500 53.80900 43.79600
H  45.52100 52.21400 44.12500
H  47.17800 52.71000 43.84700
H  46.75300 52.04600 45.48900
H  44.07100 48.21500 41.45200
H  41.41700 45.73500 43.92800
H  42.85200 44.73300 43.48000
H  41.54600 45.01600 42.34500

