158

Mg 0.45900 7.91900 24.81100
C  1.32800 9.60200 27.88800
C  0.73900 4.98200 26.53600
C  0.08300 6.38500 21.95200
C  0.79300 11.12400 23.13300
N  0.90200 7.41200 26.96900
C  1.13500 8.26100 28.07700
C  1.24600 7.42000 29.34500
C  1.15300 5.92900 28.87000
C  0.89400 6.08500 27.35600
C  2.38000 4.94700 29.09000
C  0.23200 7.92400 30.37700
C  0.71000 7.76900 31.78900
H  1.89700 6.77600 32.17500
N  0.40400 5.96000 24.33500
C  0.46500 4.89800 25.19400
C  0.33000 3.66600 24.48700
C  0.17200 4.05400 23.10400
C  0.11800 5.49800 23.13200
C  0.43800 2.28400 25.00800
C  0.12500 3.25700 21.80100
O  -0.14100 3.79700 20.73800
C  0.35500 1.79500 21.80200
N  0.65900 8.73800 22.83500
C  0.30600 7.77500 21.83100
C  0.16500 8.52200 20.47800
C  0.37900 10.02700 20.86600
C  0.62000 10.03300 22.37000
C  1.05900 8.00500 19.37700
C  -0.62200 11.01700 20.41200
C  -1.90500 11.19100 21.27300
N  0.92200 9.94800 25.38200
C  0.99300 11.08900 24.54600
C  1.21400 12.19900 25.42700
C  1.43800 11.68400 26.72700
C  1.21000 10.29700 26.63300
C  1.19500 13.67500 25.06500
C  1.69000 12.04400 28.05800
O  1.88100 13.15300 28.61000
C  1.56000 10.72400 28.92400
C  2.74100 10.65100 29.83000
O  3.87300 10.39100 29.46900
O  2.37800 11.09300 31.11300
C  3.32800 11.42200 32.14800
H  0.88800 4.06700 27.11400
H  -0.00300 5.94300 20.95800
H  0.91500 12.08700 22.63300
H  2.23800 7.64400 29.73700
H  0.34500 5.43400 29.40900
H  2.86700 4.60700 28.17600
H  1.97000 4.09400 29.63100
H  3.08800 5.49800 29.70900
H  -0.61200 7.24300 30.26900
H  0.02600 8.98900 30.27500
H  -0.15000 7.37100 32.32700
H  0.93300 8.72700 32.25600
H  -0.44600 1.65500 24.90400
H  0.68400 2.30600 26.07000
H  1.29900 1.78900 24.55800
H  0.01300 1.24000 22.67500
H  1.43000 1.62600 21.73400
H  -0.12500 1.32100 20.94600
H  -0.85500 8.44900 20.10200
H  1.31200 10.29700 20.37100
H  1.59200 8.84000 18.92200
H  0.40400 7.60000 18.60600
H  1.76000 7.26000 19.75300
H  -0.92600 10.85200 19.37800
H  -0.24600 12.03900 20.39000
H  -2.88100 11.30000 20.79900
H  -1.74800 12.10900 21.84000
H  -1.92400 10.47300 22.09300
H  2.04900 13.87300 24.41700
H  1.22100 14.44800 25.83300
H  0.43000 13.84000 24.30700
H  0.64200 10.89300 29.48800
H  3.31800 12.51000 32.21700
H  4.33300 11.13800 31.83600
H  3.07900 10.80200 33.00900
Mg 16.73900 51.82700 26.49100
C  18.55900 50.30100 29.07400
C  14.34600 52.56500 28.83400
C  14.99200 53.09200 24.02600
C  18.97600 50.29000 24.15200
N  16.59500 51.63900 28.67300
C  17.43700 51.00700 29.51800
C  16.99900 51.16800 31.01500
C  15.57200 51.62100 30.87000
C  15.46600 51.95200 29.41100
C  14.42900 50.67300 31.26500
C  17.88900 52.24500 31.65600
C  17.50400 52.76500 33.02000
H  16.48000 51.95300 33.84300
N  14.94800 52.80100 26.38500
C  14.11000 53.08500 27.49000
C  13.02400 53.98900 27.08000
C  13.24800 54.20100 25.69500
C  14.41000 53.39200 25.29600
C  12.05400 54.64000 28.09700
C  12.42800 55.05300 24.74400
O  12.72700 55.20100 23.59800
C  11.15400 55.68100 25.28400
N  17.10600 51.77400 24.35200
C  16.15900 52.39800 23.56700
C  16.56700 52.37300 22.05900
C  17.93300 51.49800 22.07400
C  17.96300 51.11800 23.59000
C  15.51800 51.77400 20.98100
C  19.28400 52.16500 21.64000
C  20.20800 51.33400 20.71100
N  18.54200 50.60300 26.57100
C  19.30700 50.14600 25.52800
C  20.45400 49.51000 26.13900
C  20.23500 49.51600 27.52800
C  19.02600 50.17700 27.76500
C  21.60700 48.91700 25.26200
C  20.73000 49.13700 28.83600
O  21.80400 48.65600 29.24200
C  19.63500 49.65400 29.89500
C  19.33800 48.55500 30.77700
O  18.73700 47.50000 30.50600
O  19.78300 48.85000 32.01900
C  19.55100 47.76300 33.04000
H  13.50400 52.86300 29.46200
H  14.48500 53.50800 23.15200
H  19.68600 49.96100 23.39100
H  16.94800 50.28500 31.65200
H  15.34500 52.62100 31.24000
H  13.87200 50.96600 32.15500
H  14.82200 49.66400 31.39500
H  13.75300 50.49600 30.42800
H  17.76900 53.11300 31.00800
H  18.91800 51.88500 31.68500
H  17.16100 53.78600 32.85300
H  18.48200 52.69500 33.49800
H  12.02100 55.72800 28.03800
H  12.40200 54.54000 29.12500
H  11.03800 54.26100 27.98400
H  10.74900 56.09500 24.36000
H  11.52900 56.53200 25.85100
H  10.56400 55.07800 25.97400
H  16.67700 53.41500 21.76000
H  17.75000 50.56100 21.54900
H  14.77200 51.18200 21.51200
H  16.03100 51.00700 20.40100
H  14.98000 52.45400 20.32100
H  19.91700 52.51100 22.45600
H  19.00100 53.07200 21.10600
H  20.58000 51.91700 19.86900
H  19.58500 50.54200 20.29600
H  20.99500 50.80700 21.25000
H  21.57600 49.55400 24.37800
H  21.39200 47.89100 24.96500
H  22.53200 48.90300 25.83900
H  20.16300 50.43100 30.44800
H  20.39400 47.11500 32.79700
H  18.59100 47.25600 32.94700
H  19.72700 47.96400 34.09700

