158

Mg 51.05500 46.26700 42.66700
C  48.10000 47.76800 41.63300
C  50.17800 43.53100 40.74100
C  54.13400 44.95100 43.14000
C  52.12700 49.30200 44.11000
N  49.30200 45.73200 41.33300
C  48.26800 46.48300 41.03800
C  47.23300 45.85600 40.16700
C  47.84300 44.45500 39.93900
C  49.14300 44.51600 40.71600
C  46.97800 43.17400 40.27900
C  47.02600 46.71700 38.87100
C  45.60000 46.91600 38.41600
H  45.21400 46.38500 37.00200
N  51.96400 44.39800 42.07800
C  51.46200 43.46100 41.30500
C  52.37600 42.33100 41.28000
C  53.52700 42.67700 41.98900
C  53.25200 44.05800 42.38100
C  52.12000 40.98700 40.53800
C  54.74400 41.92700 42.11000
O  54.83700 40.86400 41.52800
C  55.80900 42.34500 42.94900
N  52.86900 46.99500 43.51800
C  54.00800 46.30300 43.55000
C  55.10200 47.11200 44.20800
C  54.48900 48.54600 44.41500
C  53.07300 48.31000 43.95200
C  55.63700 46.37500 45.45500
C  55.10500 49.80600 43.74900
C  54.72800 50.10500 42.27400
N  50.30900 48.19000 42.89200
C  50.82100 49.38300 43.41100
C  49.83800 50.38400 43.30000
C  48.71300 49.81000 42.75900
C  49.05400 48.46900 42.47200
C  49.94500 51.84800 43.51000
C  47.31100 50.08000 42.35300
O  46.64900 51.04900 42.46000
C  46.94900 48.75500 41.48700
C  45.63000 48.29900 41.97900
O  45.57900 47.63600 42.96500
O  44.64900 48.67200 41.15800
C  43.26700 48.41500 41.52800
H  49.88600 42.60000 40.25100
H  55.14700 44.57600 43.30200
H  52.21400 50.27800 44.59200
H  46.28100 45.75600 40.68800
H  47.90900 44.36400 38.85500
H  45.92000 43.43300 40.24900
H  47.22500 43.00300 41.32700
H  47.17200 42.28500 39.68000
H  47.46600 46.12300 38.07000
H  47.62300 47.62800 38.82300
H  45.39400 47.98400 38.49300
H  44.93300 46.39100 39.10000
H  52.13900 41.14100 39.46000
H  51.20800 40.57300 40.96900
H  52.78200 40.12200 40.50900
H  56.53300 41.54000 43.07000
H  55.40500 42.62000 43.92300
H  56.43500 43.16100 42.58700
H  55.99100 47.19000 43.58400
H  54.38500 48.70000 45.48900
H  55.58200 46.93700 46.38700
H  56.66800 46.02600 45.40200
H  55.12500 45.43900 45.67800
H  56.19000 49.69900 43.73200
H  54.76900 50.65000 44.35100
H  53.91200 50.82400 42.20900
H  54.44300 49.22500 41.69800
H  55.56200 50.57200 41.74900
H  49.65100 52.17500 44.50800
H  49.22000 52.24500 42.80000
H  50.96900 52.07800 43.21700
H  46.83200 48.88400 40.41100
H  43.00300 47.36400 41.40700
H  42.54100 49.04600 41.01600
H  43.14600 48.70800 42.57100
Mg 27.04100 51.22100 26.14000
C  25.12700 52.14200 29.03100
C  29.39700 50.04900 28.38500
C  28.98900 50.72800 23.54200
C  24.65200 52.81200 24.11600
N  27.24200 51.16800 28.44300
C  26.31100 51.40100 29.39900
C  26.73900 50.97600 30.72400
C  28.24500 50.47400 30.57300
C  28.32500 50.58500 29.04000
C  29.28600 51.45200 31.17500
C  25.67500 49.91500 31.30200
C  24.91800 50.32200 32.60600
H  24.63300 49.22300 33.71700
N  28.86300 50.48200 25.97300
C  29.69400 49.99700 26.97300
C  30.90800 49.54600 26.39600
C  30.87900 49.75700 24.98100
C  29.55100 50.35300 24.80700
C  31.97700 48.72100 27.15200
C  31.93900 49.50400 24.01100
O  31.84800 49.86700 22.84800
C  33.25400 48.87700 24.45000
N  26.79400 51.56800 24.09600
C  27.76500 51.28800 23.18600
C  27.26800 51.58100 21.67500
C  25.79200 52.15100 21.93400
C  25.75500 52.25200 23.43100
C  28.22400 52.47800 20.78800
C  24.65600 51.21100 21.34300
C  23.55300 52.04700 20.71800
N  25.28700 52.24800 26.41200
C  24.44800 52.81900 25.50900
C  23.38200 53.43500 26.17700
C  23.57500 53.20400 27.51100
C  24.78800 52.49500 27.65500
C  22.23900 54.08700 25.60600
C  22.97300 53.34400 28.84900
O  21.93100 53.81200 29.25700
C  23.98300 52.71200 29.80500
C  24.47200 53.87100 30.70200
O  25.04100 54.87200 30.34100
O  24.23200 53.47300 32.02400
C  24.82100 54.48600 32.96500
H  30.04400 49.71600 29.20000
H  29.60900 50.52100 22.66800
H  24.04900 53.47000 23.48700
H  26.82400 51.81700 31.41200
H  28.33300 49.44700 30.92800
H  28.76900 52.29700 31.63000
H  29.99000 51.84600 30.44200
H  29.88300 50.87800 31.88300
H  26.20600 49.03300 31.66000
H  24.95400 49.50500 30.59500
H  23.92900 50.71800 32.37500
H  25.38800 51.20500 33.03800
H  32.87700 49.33500 27.12800
H  32.20600 47.75900 26.69500
H  31.74400 48.67700 28.21600
H  33.93200 48.71800 23.61000
H  33.00900 47.87800 24.81000
H  33.72800 49.54500 25.16800
H  27.24200 50.60100 21.19900
H  25.72700 53.18900 21.60800
H  28.86100 51.92400 20.09900
H  28.92200 53.08600 21.36300
H  27.57500 53.18100 20.26700
H  24.26100 50.45800 22.02500
H  25.02900 50.65200 20.48400
H  22.62400 51.71700 21.18300
H  23.43600 52.01100 19.63500
H  23.70700 53.09100 20.99400
H  21.50400 54.11600 26.41100
H  21.90300 53.42000 24.81300
H  22.43300 55.08800 25.22000
H  23.50100 51.85000 30.26700
H  23.98700 55.16900 33.12500
H  25.77900 54.92900 32.69200
H  24.98800 54.03900 33.94500

