158

Mg 54.64600 23.98900 44.95300
C  52.13600 26.14900 43.89600
C  52.71800 21.28200 43.93600
C  57.51200 22.01200 44.95700
C  56.72000 26.71600 45.61900
N  52.61500 23.79100 44.10900
C  51.81700 24.82300 43.67700
C  50.45100 24.27400 43.25200
C  50.53200 22.69800 43.63300
C  52.05500 22.50300 43.89400
C  49.62900 22.26500 44.88300
C  50.17700 24.46800 41.70300
C  48.73000 24.83800 41.41400
H  48.15800 24.61100 40.05800
N  55.00900 22.00800 44.56100
C  54.03300 21.00100 44.31400
C  54.58900 19.71000 44.33500
C  56.02400 19.92400 44.35100
C  56.26000 21.36300 44.58700
C  53.75300 18.50300 43.99500
C  57.05200 18.85600 44.14500
O  56.72200 17.66900 44.09700
C  58.43100 19.26300 43.84600
N  56.82300 24.39800 45.12400
C  57.75400 23.36600 45.23400
C  59.08200 23.82800 45.95300
C  58.84400 25.42100 46.03500
C  57.36400 25.50500 45.63200
C  59.18200 23.07500 47.39600
C  59.70800 26.23500 45.10900
C  61.25200 25.79900 44.87800
N  54.49700 26.05600 44.83900
C  55.42000 27.01500 45.23500
C  54.63200 28.29900 45.21300
C  53.35300 27.94400 44.68900
C  53.36900 26.62800 44.41700
C  55.15600 29.68300 45.65200
C  52.05600 28.50800 44.47900
O  51.55500 29.61000 44.70600
C  51.17300 27.37500 43.86400
C  50.84200 27.79100 42.52900
O  51.61600 27.89100 41.62400
O  49.57100 28.23200 42.62600
C  48.98400 28.92900 41.41200
H  52.07500 20.42100 43.74200
H  58.31000 21.27200 45.04600
H  57.30000 27.62000 45.81400
H  49.74500 24.85700 43.84300
H  50.20500 22.08500 42.79400
H  49.49500 21.18500 44.82400
H  48.60200 22.62600 44.83300
H  49.99000 22.49400 45.88600
H  50.31700 23.49500 41.23200
H  51.00400 25.12300 41.43000
H  48.67000 25.90300 41.64000
H  48.00300 24.38200 42.08500
H  53.38700 18.55400 42.97000
H  52.93600 18.69100 44.69300
H  54.19200 17.57800 44.36900
H  58.99200 18.52600 43.27200
H  58.98300 19.34800 44.78200
H  58.34100 20.16000 43.23300
H  60.01700 23.64100 45.42500
H  58.94100 25.74900 47.07000
H  59.29900 23.80300 48.19800
H  59.96600 22.32000 47.44900
H  58.22900 22.62000 47.66600
H  59.85000 27.24100 45.50100
H  59.13000 26.41300 44.20200
H  61.40600 24.94800 44.21400
H  61.78900 25.67200 45.81800
H  61.80200 26.53500 44.29100
H  56.23500 29.73100 45.50300
H  55.05500 29.87000 46.72100
H  54.64500 30.38000 44.98700
H  50.30300 27.07400 44.44800
H  49.69600 28.99500 40.59000
H  48.60400 29.94100 41.55300
H  48.12800 28.34000 41.08400
Mg 42.54800 41.69600 25.55700
C  41.66400 43.75600 28.08500
C  44.01200 39.58400 27.90600
C  43.55600 39.46900 23.06400
C  41.92400 44.07000 23.20500
N  42.68200 41.61400 27.81000
C  42.17800 42.57800 28.63500
C  42.30400 42.23800 30.15200
C  43.29400 40.94700 29.95500
C  43.46000 40.74000 28.47700
C  44.59300 40.92700 30.73600
C  41.06600 41.98600 31.00700
C  41.21400 42.54600 32.39800
H  40.15000 42.28000 33.49600
N  43.66200 39.79200 25.51000
C  44.07900 39.08500 26.60400
C  44.70300 37.84600 26.16900
C  44.56500 37.81700 24.76900
C  43.91500 39.07600 24.41700
C  45.36000 36.86400 27.08500
C  45.02600 36.68200 23.88700
O  45.07000 36.87500 22.68700
C  45.34500 35.34300 24.48200
N  42.96400 41.86400 23.44400
C  43.12600 40.71900 22.65900
C  42.71500 40.99200 21.21000
C  42.28600 42.42200 21.27200
C  42.30600 42.82700 22.74000
C  43.82800 40.83000 20.15500
C  40.79200 42.60300 20.67800
C  40.58800 43.82400 19.80500
N  41.90900 43.49900 25.59600
C  41.69900 44.35400 24.59100
C  41.18700 45.62100 25.10700
C  41.11200 45.38200 26.48100
C  41.57500 44.07100 26.75000
C  40.86800 46.91900 24.39900
C  40.78200 46.04300 27.71500
O  40.38100 47.19300 27.99800
C  41.06800 44.95600 28.76900
C  42.04500 45.63900 29.65800
O  43.20900 45.90300 29.27700
O  41.43300 46.03100 30.85000
C  42.45200 46.54600 31.75300
H  44.36900 38.85000 28.63100
H  43.55200 38.78700 22.21100
H  41.70300 44.82700 22.45000
H  43.01900 42.96400 30.53900
H  42.76400 40.06000 30.30300
H  45.49200 41.48700 30.47900
H  44.81400 39.91300 31.07000
H  44.24600 41.41000 31.64900
H  40.97900 40.92300 31.23400
H  40.13900 42.42700 30.64100
H  41.27700 43.62500 32.25800
H  42.17900 42.23900 32.80200
H  44.69100 36.01900 27.24500
H  45.59200 37.35000 28.03300
H  46.31500 36.42600 26.79500
H  46.31100 35.49800 24.96300
H  45.40500 34.66000 23.63500
H  44.56300 35.17800 25.22300
H  41.96100 40.28700 20.86100
H  42.97900 43.13100 20.82000
H  43.71100 39.81800 19.76800
H  44.82400 40.80600 20.59600
H  43.69900 41.57900 19.37400
H  39.96000 42.54700 21.37900
H  40.58200 41.79000 19.98300
H  40.46900 43.48700 18.77500
H  41.49700 44.42400 19.77400
H  39.72100 44.43600 20.05300
H  39.79600 46.88800 24.20300
H  41.30100 47.07100 23.41000
H  40.97100 47.73800 25.11000
H  40.16500 44.69500 29.32000
H  41.93300 46.69400 32.70000
H  43.17600 47.29600 31.43500
H  43.22600 45.82500 32.01500

