158

Mg 0.51500 8.00300 25.75400
C  1.23300 10.02600 28.33400
C  0.48800 5.30600 27.75200
C  0.17100 6.03200 22.94700
C  0.68500 10.78300 23.65700
N  0.99100 7.69600 27.87800
C  1.08100 8.70600 28.77200
C  1.14700 8.20400 30.19600
C  1.09000 6.62200 30.01300
C  0.74700 6.53400 28.42700
C  2.47900 5.84600 30.22700
C  0.04300 8.80500 31.03800
C  0.45400 8.97700 32.49800
H  1.60300 8.12000 33.11800
N  0.41100 5.99000 25.43700
C  0.36900 5.00600 26.38200
C  0.21800 3.71600 25.72900
C  0.08600 3.87300 24.36500
C  0.17500 5.33100 24.18000
C  0.14800 2.41500 26.56700
C  -0.13400 2.92400 23.21800
O  -0.16900 3.17800 21.97900
C  -0.16400 1.42900 23.56900
N  0.43800 8.31400 23.62000
C  0.26700 7.39900 22.65100
C  -0.05800 7.96400 21.30100
C  0.05400 9.44800 21.51700
C  0.52200 9.50400 23.04100
C  0.98000 7.52800 20.22800
C  -1.33500 10.20500 21.28700
C  -1.27400 11.13800 20.16300
N  0.88000 10.05200 25.93500
C  0.91700 11.03100 24.99600
C  1.23300 12.32500 25.59900
C  1.42800 11.96200 26.92400
C  1.13900 10.60000 27.04100
C  1.31100 13.65800 24.89800
C  1.88600 12.39900 28.19400
O  2.36600 13.45300 28.56700
C  1.60000 11.20900 29.17300
C  2.85300 11.08600 29.91700
O  3.94100 10.56400 29.51300
O  2.65200 11.54600 31.16400
C  3.90900 11.82800 31.92100
H  0.48100 4.45500 28.43600
H  -0.06900 5.36100 22.11900
H  0.89600 11.61600 22.98200
H  2.13400 8.51300 30.54000
H  0.29800 6.21400 30.64100
H  2.81200 5.40300 29.28800
H  2.57600 5.01800 30.92900
H  3.25400 6.56900 30.48200
H  -0.76300 8.07300 31.01200
H  -0.16100 9.78700 30.61000
H  -0.40200 8.72800 33.12600
H  0.62300 10.05300 32.54500
H  -0.90300 2.15100 26.44500
H  0.42300 2.53400 27.61500
H  0.80500 1.67200 26.11600
H  -0.87000 1.13900 24.34700
H  0.85500 1.10800 23.78700
H  -0.45900 0.79900 22.72900
H  -1.09900 7.67400 21.15800
H  0.89500 9.85700 20.95700
H  1.57700 6.69800 20.60500
H  1.72300 8.29000 19.99200
H  0.52800 7.21500 19.28700
H  -1.50400 10.70300 22.24200
H  -2.15300 9.49600 21.16400
H  -0.39000 11.02400 19.53600
H  -1.35500 12.11900 20.63100
H  -2.14600 11.03500 19.51700
H  1.63400 14.42500 25.60200
H  0.31400 13.88600 24.51800
H  2.10200 13.54300 24.15700
H  0.78800 11.51000 29.83400
H  4.53500 12.50600 31.34100
H  4.37200 10.85400 32.07800
H  3.60700 12.30700 32.85300
Mg 30.78800 57.73700 40.36400
C  27.88200 56.03000 39.40700
C  32.60500 55.20200 39.13200
C  33.40900 59.82600 40.55900
C  28.70500 60.63800 40.94900
N  30.30600 55.81900 39.55700
C  29.07100 55.25700 39.35500
C  29.18600 53.76300 38.93900
C  30.68100 53.53800 38.77800
C  31.26100 54.95000 39.29100
C  31.27400 52.34100 39.52800
C  28.36900 53.41500 37.63600
C  28.42800 54.51600 36.58700
H  28.90200 54.18600 35.16800
N  32.74000 57.50100 40.00400
C  33.33300 56.40200 39.41000
C  34.70300 56.63000 39.11300
C  34.92700 57.94300 39.59600
C  33.63100 58.47600 40.10600
C  35.61600 55.56300 38.48400
C  36.35000 58.58400 39.61200
O  37.24600 58.03200 38.95500
C  36.83500 59.96500 40.25800
N  31.05200 59.92300 40.74900
C  32.23700 60.50100 40.77200
C  32.15300 62.00800 41.10400
C  30.61600 62.27600 41.40500
C  30.06700 60.87300 41.04200
C  33.26300 62.70400 41.89500
C  30.03700 63.48300 40.67200
C  29.06900 64.32700 41.52800
N  28.75400 58.33900 40.05800
C  28.07800 59.44100 40.46100
C  26.70500 59.25200 40.23800
C  26.52100 57.91900 39.88900
C  27.81000 57.38100 39.70400
C  25.57500 60.19800 40.38300
C  25.57100 56.85700 39.61300
O  24.36800 56.84200 39.61100
C  26.38400 55.60800 39.22500
C  26.06200 54.54100 40.23400
O  26.60400 54.57100 41.32700
O  25.29700 53.50300 39.67300
C  25.09400 52.34200 40.56000
H  33.19500 54.38400 38.71500
H  34.35100 60.36100 40.69800
H  27.97100 61.36300 41.30700
H  28.78200 53.18600 39.77100
H  30.91600 53.28400 37.74400
H  32.16200 52.64300 40.08300
H  31.72400 51.57300 38.89800
H  30.59200 51.84500 40.21900
H  27.34000 53.23200 37.94400
H  28.71600 52.46700 37.22600
H  29.08100 55.34000 36.87600
H  27.41300 54.88400 36.43500
H  35.06400 54.71200 38.08600
H  36.33900 55.22900 39.22800
H  36.19800 55.93000 37.63800
H  36.54800 59.76000 41.28900
H  36.13800 60.69900 39.85400
H  37.89200 60.21100 40.15100
H  32.37200 62.33400 40.08700
H  30.50200 62.35100 42.48600
H  32.79000 63.23100 42.72400
H  33.67300 63.44800 41.21200
H  33.99200 62.00600 42.30800
H  29.61300 62.99600 39.79300
H  30.91400 64.09800 40.47000
H  28.67200 63.72600 42.34600
H  28.21700 64.69000 40.95300
H  29.68800 65.13400 41.92100
H  25.25800 59.95800 41.39700
H  24.87100 60.03500 39.56600
H  25.86700 61.24600 40.31400
H  26.16800 55.20800 38.23400
H  26.10700 51.97000 40.71300
H  24.49200 51.60600 40.02900
H  24.76200 52.67100 41.54400

