158

Mg 47.68100 16.70100 29.02900
C  45.25600 16.39000 31.74300
C  49.59500 18.69100 31.01500
C  49.54000 17.31000 26.40600
C  45.10100 15.31700 26.97500
N  47.39300 17.35400 31.13500
C  46.42900 17.07800 32.11000
C  46.86900 17.55800 33.50200
C  48.12000 18.39600 33.15200
C  48.43400 18.15600 31.61600
C  47.93800 19.90500 33.45600
C  47.00700 16.36200 34.55300
C  46.19300 16.48300 35.86800
H  46.08200 17.82400 36.56000
N  49.41000 17.75100 28.79100
C  50.04400 18.50300 29.69500
C  51.22300 19.07900 29.08100
C  51.30300 18.58600 27.79700
C  50.06000 17.78900 27.61000
C  52.16900 19.94700 29.78300
C  52.33600 18.94300 26.65000
O  52.17200 18.46000 25.57500
C  53.50400 19.89800 26.90300
N  47.36700 16.13300 27.06200
C  48.28300 16.58500 26.19000
C  47.77600 16.45000 24.76200
C  46.48200 15.62600 24.88000
C  46.27200 15.68000 26.36400
C  47.57900 17.81700 23.92700
C  46.60000 14.15900 24.36200
C  45.94200 13.88000 23.02600
N  45.68400 15.86700 29.26000
C  44.80200 15.37300 28.31300
C  43.53100 15.04300 28.90600
C  43.74000 15.31700 30.23800
C  45.02500 15.88100 30.41800
C  42.50500 14.22200 28.20800
C  43.10600 15.28300 31.51700
O  41.98200 14.89300 31.82500
C  44.11200 15.89700 32.60400
C  43.44500 17.04300 33.21400
O  43.48400 18.14800 32.78700
O  42.77800 16.68700 34.34900
C  42.07400 17.78100 34.98600
H  50.12900 19.31400 31.73500
H  50.19600 17.27400 25.53300
H  44.23500 15.20300 26.32000
H  46.02000 18.17000 33.80700
H  48.94500 18.08900 33.79400
H  47.06100 20.12700 34.06400
H  47.79500 20.45600 32.52600
H  48.77900 20.35800 33.98000
H  48.05600 16.30100 34.84000
H  46.61700 15.46400 34.07300
H  46.83100 15.89500 36.52700
H  45.20100 16.03300 35.89200
H  53.17100 19.52200 29.72000
H  51.96300 20.11100 30.84100
H  52.13400 20.95300 29.36400
H  54.10100 20.02800 26.00100
H  54.23500 19.45000 27.57600
H  53.25200 20.88100 27.30300
H  48.57400 15.83700 24.34300
H  45.59200 16.05800 24.42200
H  46.53700 17.79700 23.60800
H  48.35500 17.83900 23.16200
H  47.85500 18.75900 24.40100
H  46.10700 13.49400 25.07100
H  47.63400 13.81600 24.37700
H  45.04300 13.28100 23.17100
H  46.57400 13.22000 22.43100
H  45.87700 14.78800 22.42700
H  42.79800 13.19400 27.99600
H  42.11200 14.59400 27.26200
H  41.67200 14.10800 28.90200
H  44.34400 15.19600 33.40500
H  41.43200 18.18800 34.20400
H  42.74600 18.46400 35.50500
H  41.50300 17.33500 35.80100
Mg -1.73400 34.42700 27.72100
C  -3.29700 32.39300 30.07400
C  -0.26400 36.16100 30.40700
C  -0.53700 36.56900 25.50400
C  -3.66500 32.82500 25.20600
N  -1.89800 34.40000 30.01900
C  -2.55100 33.39100 30.73500
C  -2.36600 33.62800 32.26100
C  -1.55000 34.92500 32.29400
C  -1.10200 35.11800 30.84500
C  -2.39500 36.24600 32.74600
C  -1.65200 32.38800 32.88800
C  -2.36200 31.75700 34.08900
H  -1.71900 31.64500 35.47100
N  -0.46000 36.04500 27.92200
C  0.15500 36.51900 29.07500
C  1.04000 37.61400 28.69700
C  0.91300 37.77400 27.29700
C  -0.06600 36.75600 26.81800
C  1.91400 38.41000 29.72900
C  1.64500 38.82300 26.41600
O  1.46400 38.99900 25.24500
C  2.72400 39.67900 27.14700
N  -2.13400 34.66600 25.67200
C  -1.49200 35.65200 25.01300
C  -2.18900 35.83900 23.59300
C  -2.87200 34.39100 23.35800
C  -2.90700 33.91800 24.83000
C  -3.32400 36.96800 23.58300
C  -2.02500 33.44200 22.52700
C  -2.66000 33.09000 21.18200
N  -3.16900 32.87600 27.63900
C  -3.78600 32.33300 26.50200
C  -4.58300 31.18900 26.93000
C  -4.43000 31.20900 28.34700
C  -3.55000 32.27100 28.71400
C  -5.27600 30.26200 26.07800
C  -4.85100 30.47000 29.55500
O  -5.58500 29.50900 29.67000
C  -4.16900 31.26500 30.74200
C  -5.07600 31.65600 31.83500
O  -5.75800 32.68000 31.91400
O  -5.09400 30.56600 32.72200
C  -5.88900 30.77300 33.83100
H  0.12900 36.83600 31.17000
H  -0.12300 37.34000 24.85000
H  -4.36000 32.35300 24.51000
H  -3.39400 33.76500 32.59400
H  -0.65100 34.83600 32.90400
H  -3.43000 36.14400 33.07200
H  -2.45600 36.99200 31.95400
H  -1.94000 36.78400 33.57800
H  -0.67800 32.72000 33.24800
H  -1.33700 31.63100 32.16900
H  -2.49000 30.69700 33.86700
H  -3.32400 32.25100 34.22200
H  2.98300 38.24100 29.59900
H  1.58300 38.12800 30.72900
H  1.71000 39.47300 29.85700
H  3.20800 40.40100 26.49000
H  3.60000 39.05500 27.32800
H  2.45900 40.28400 28.01400
H  -1.51600 36.17500 22.80500
H  -3.81100 34.66500 22.87700
H  -4.35800 36.63100 23.51400
H  -3.14800 37.64800 22.75000
H  -3.27400 37.63300 24.44500
H  -1.89900 32.52000 23.09500
H  -1.07700 33.87100 22.20300
H  -1.91100 33.14300 20.39200
H  -3.53200 33.67700 20.89700
H  -2.92800 32.03300 21.19300
H  -6.31100 30.60100 26.02400
H  -5.50200 29.28300 26.49900
H  -4.92800 30.19500 25.04700
H  -3.50600 30.59500 31.29000
H  -6.91500 31.04200 33.57700
H  -5.49600 31.58100 34.44800
H  -5.82700 29.84900 34.40500

