158

Mg 17.09800 -1.71300 27.74800
C  16.27700 0.49600 30.36200
C  19.22800 -3.38100 29.92900
C  18.39600 -3.40900 25.04700
C  15.65400 0.55700 25.52200
N  17.64100 -1.47300 29.92100
C  17.04900 -0.54700 30.80000
C  17.47100 -0.88100 32.21700
C  18.43400 -2.20000 32.11600
C  18.49600 -2.33800 30.59100
C  19.82500 -2.03100 32.80800
C  16.17700 -1.12500 33.06600
C  16.00600 -0.29400 34.39100
H  17.27200 -0.06300 35.24600
N  18.47000 -3.28800 27.47200
C  19.25600 -3.78000 28.50600
C  19.99800 -4.96500 28.03900
C  19.88400 -4.87300 26.59600
C  18.90200 -3.85600 26.29900
C  20.86400 -5.81600 28.92300
C  20.66300 -5.72900 25.54700
O  20.53400 -5.58000 24.32900
C  21.75000 -6.77000 26.05800
N  17.05400 -1.38300 25.49300
C  17.59100 -2.34200 24.66100
C  17.36600 -1.88900 23.20200
C  16.26100 -0.79700 23.39300
C  16.31000 -0.53600 24.89700
C  18.73000 -1.23900 22.54300
C  14.87200 -1.25900 22.99800
C  14.18400 -2.28600 23.92300
N  16.24300 0.16700 27.82700
C  15.66900 0.94200 26.82800
C  15.07800 2.17000 27.45700
C  15.35200 2.04100 28.84700
C  15.94800 0.75900 29.00900
C  14.46500 3.24900 26.70500
C  15.28500 2.64500 30.12100
O  14.87100 3.76000 30.42400
C  15.91400 1.71600 31.14800
C  17.04000 2.43600 31.87100
O  18.20400 2.67200 31.46000
O  16.49600 3.04800 32.99000
C  17.30400 3.92800 33.90700
H  19.94000 -3.94300 30.53700
H  18.80400 -3.98400 24.21300
H  15.27500 1.29800 24.81600
H  18.11500 -0.10300 32.62600
H  17.93300 -3.10400 32.46300
H  19.82500 -1.24200 33.56100
H  20.66700 -1.88400 32.13200
H  20.02800 -3.00100 33.26200
H  16.07500 -2.18800 33.28600
H  15.26600 -0.90900 32.50800
H  15.14300 -0.67300 34.93900
H  15.90100 0.77100 34.18200
H  20.37700 -5.79100 29.89800
H  21.87600 -5.41300 28.94400
H  20.74600 -6.88100 28.72600
H  21.13400 -7.58600 26.43700
H  22.35000 -6.37600 26.87900
H  22.36500 -7.04800 25.20300
H  16.98500 -2.71200 22.59700
H  16.61600 0.10400 22.89300
H  19.66800 -1.29300 23.09500
H  18.63600 -0.18000 22.30400
H  18.82800 -1.68100 21.55100
H  14.83700 -1.68500 21.99500
H  14.24800 -0.36900 23.08500
H  13.54400 -1.78000 24.64500
H  14.87000 -2.97600 24.41400
H  13.57100 -3.00000 23.37400
H  13.65200 2.91000 26.06300
H  15.20700 3.73000 26.06700
H  13.99600 3.94200 27.40400
H  15.21400 1.55200 31.96800
H  16.90600 3.69000 34.89400
H  17.15000 5.00300 33.82600
H  18.36300 3.69200 33.79800
Mg -11.57300 16.97100 41.79400
C  -8.28200 15.49900 41.35300
C  -10.21500 19.96500 40.44600
C  -14.67500 18.16700 41.38100
C  -12.71000 13.86400 42.27600
N  -9.46000 17.57700 40.87000
C  -8.34100 16.77300 40.90400
C  -7.21300 17.63600 40.35400
C  -7.76000 19.14000 40.25500
C  -9.23200 18.91600 40.51900
C  -7.19000 20.26100 41.23400
C  -6.60500 17.02100 39.07400
C  -5.17800 17.55500 38.77000
H  -5.00100 18.56000 37.61300
N  -12.36000 18.79600 41.12600
C  -11.61900 19.88500 40.68200
C  -12.51900 21.08900 40.57800
C  -13.83900 20.62300 40.93400
C  -13.70400 19.12400 41.16700
C  -12.11200 22.48700 40.16900
C  -15.04700 21.41200 41.00900
O  -14.97900 22.64000 40.84600
C  -16.40400 20.89300 41.42000
N  -13.43800 16.12500 41.87900
C  -14.56200 16.84000 41.76500
C  -15.84600 16.00000 42.10300
C  -15.22200 14.55900 42.18100
C  -13.68500 14.80600 42.14000
C  -16.58900 16.34700 43.38400
C  -15.55300 13.65200 40.92600
C  -16.20900 12.26900 41.33200
N  -10.67000 15.05500 41.97500
C  -11.30600 13.87000 42.14800
C  -10.23900 12.90100 42.43000
C  -9.05100 13.47700 42.12800
C  -9.31800 14.78500 41.83000
C  -10.52000 11.43900 42.83300
C  -7.59300 13.27100 42.04100
O  -6.82000 12.34300 42.25900
C  -7.03700 14.59200 41.53000
C  -6.05500 15.17100 42.54800
O  -6.38100 15.94700 43.42800
O  -4.74300 14.70700 42.26900
C  -3.62700 15.35400 42.99300
H  -9.74400 20.89100 40.11100
H  -15.70900 18.51800 41.38100
H  -13.05300 12.86200 42.53800
H  -6.49500 17.64100 41.17500
H  -7.68200 19.57400 39.25800
H  -7.93400 20.31900 42.02900
H  -7.18800 21.17800 40.64400
H  -6.16300 20.07900 41.55000
H  -7.34000 17.37800 38.35300
H  -6.62200 15.93300 39.00100
H  -4.62200 16.73600 38.31400
H  -4.68400 17.87600 39.68700
H  -12.30200 23.16700 41.00000
H  -12.61400 22.76200 39.24100
H  -11.06200 22.42800 39.88100
H  -17.14800 21.67300 41.58200
H  -16.31400 20.39300 42.38500
H  -16.67300 20.26000 40.57500
H  -16.59000 16.07200 41.31000
H  -15.57900 14.08600 43.09500
H  -17.67700 16.38800 43.32000
H  -16.22000 17.32600 43.69000
H  -16.35700 15.54900 44.08900
H  -14.66500 13.45500 40.32600
H  -16.30600 14.17800 40.33900
H  -17.17900 12.08800 40.87000
H  -16.24800 12.07300 42.40400
H  -15.48100 11.54500 40.96500
H  -11.26800 10.94900 42.21000
H  -10.96500 11.36600 43.82500
H  -9.62200 10.84000 42.67800
H  -6.46300 14.41600 40.62000
H  -2.96700 15.93100 42.34600
H  -3.13600 14.49100 43.44400
H  -3.94300 15.99700 43.81400

