158

Mg 0.27800 7.22000 26.36700
C  0.77000 9.66900 28.90700
C  0.42300 4.93500 28.93700
C  -0.04400 5.04700 24.04600
C  0.49900 9.81700 24.06300
N  0.68400 7.29000 28.65600
C  0.61900 8.41100 29.50400
C  0.42000 7.96700 31.08500
C  0.53300 6.43400 31.00200
C  0.50500 6.24300 29.43900
C  1.79000 5.76100 31.69900
C  -0.99400 8.45900 31.65100
C  -1.10900 8.66400 33.12500
H  -0.01300 8.00400 34.04100
N  0.04700 5.27200 26.43800
C  0.21200 4.45300 27.58500
C  -0.05100 3.07900 27.17400
C  -0.15500 3.06400 25.67900
C  0.00000 4.47700 25.33600
C  -0.30600 1.91800 28.09700
C  -0.46400 1.90900 24.77800
O  -0.58600 2.02800 23.56700
C  -0.42200 0.52800 25.32500
N  0.06100 7.40700 24.36800
C  -0.11700 6.36300 23.59800
C  -0.14800 6.75000 22.10900
C  -0.11400 8.28400 22.19000
C  0.09500 8.55400 23.60300
C  0.85300 6.05500 21.14300
C  -1.24600 9.06900 21.55200
C  -2.50500 9.44100 22.32100
N  0.70100 9.32700 26.41900
C  0.67600 10.27200 25.37500
C  1.04400 11.52900 25.89700
C  1.02900 11.36900 27.26000
C  0.89500 9.97600 27.55900
C  0.99500 12.75900 25.05500
C  1.08100 12.07200 28.43700
O  1.34000 13.28400 28.60400
C  0.84500 11.03200 29.62300
C  2.03500 11.10100 30.48700
O  3.20100 10.95200 30.08300
O  1.74000 11.26800 31.84200
C  2.83200 11.28300 32.85300
H  0.49800 4.15800 29.70000
H  0.04000 4.29300 23.26200
H  0.48700 10.68800 23.40500
H  1.22800 8.45100 31.63400
H  -0.33400 5.96400 31.46600
H  2.35500 6.46800 32.30600
H  2.47700 5.28600 30.99800
H  1.50300 4.95300 32.37200
H  -1.76200 7.71200 31.44900
H  -1.31000 9.38600 31.17300
H  -2.00100 8.14000 33.46700
H  -1.20900 9.74300 33.24700
H  -0.38600 2.17100 29.15400
H  0.57700 1.28300 28.01600
H  -1.17400 1.31100 27.83900
H  -1.39700 0.35600 25.78200
H  0.40000 0.43100 26.03400
H  -0.35000 -0.13800 24.46500
H  -1.14500 6.39200 21.85400
H  0.80100 8.72500 21.79300
H  0.29700 5.17500 20.82200
H  1.81800 5.95200 21.64100
H  1.12000 6.65100 20.27000
H  -1.46400 8.54800 20.62000
H  -0.84900 10.03200 21.22900
H  -3.33400 9.22700 21.64600
H  -2.42400 10.51800 22.46200
H  -2.60500 8.90900 23.26700
H  1.19400 13.71200 25.54500
H  -0.03300 12.85900 24.70600
H  1.71400 12.67100 24.24100
H  -0.00600 11.27000 30.26100
H  3.36300 12.23400 32.82300
H  3.48800 10.43700 32.64500
H  2.42200 11.22000 33.86000
Mg 24.32200 -5.39600 45.89900
C  26.37000 -3.00400 44.26700
C  21.77700 -4.48800 43.78200
C  22.59400 -7.87900 47.30900
C  27.21700 -6.31900 47.86800
N  24.10100 -3.98400 44.10600
C  25.08200 -3.09400 43.68600
C  24.54600 -2.24000 42.48400
C  22.99700 -2.57100 42.45500
C  22.95700 -3.78200 43.45200
C  21.96300 -1.43800 42.74000
C  25.29700 -2.57800 41.13900
C  25.50100 -1.39900 40.18300
H  24.90000 -1.51600 38.79600
N  22.41600 -5.98300 45.63700
C  21.55300 -5.54900 44.64100
C  20.38900 -6.30800 44.73700
C  20.52200 -7.23900 45.78600
C  21.87000 -7.02700 46.35000
C  19.21600 -5.97600 43.80900
C  19.42000 -8.11100 46.21600
O  18.36500 -8.16700 45.61800
C  19.50700 -9.00300 47.42700
N  24.90200 -6.97300 47.30500
C  23.94800 -7.81200 47.76000
C  24.46400 -8.81100 48.70800
C  25.93600 -8.35800 48.94100
C  26.04100 -7.06700 48.02600
C  23.58600 -9.05300 49.94300
C  27.08000 -9.40900 48.67600
C  27.15300 -9.82800 47.19300
N  26.35000 -4.82600 46.10700
C  27.34700 -5.24800 46.99500
C  28.47600 -4.36600 46.76400
C  28.15100 -3.48200 45.72000
C  26.86800 -3.81700 45.37800
C  29.71300 -4.33500 47.56900
C  28.55300 -2.37800 44.92100
O  29.59100 -1.75400 44.99700
C  27.46300 -2.09700 43.87400
C  27.07700 -0.66300 44.01500
O  26.39300 -0.19100 44.90100
O  27.51700 0.14400 42.98500
C  27.29900 1.52800 43.18100
H  20.98100 -4.13200 43.12400
H  22.08200 -8.78500 47.63800
H  28.13200 -6.63000 48.37700
H  24.68900 -1.18100 42.69800
H  22.78200 -2.98100 41.46900
H  21.17900 -1.70500 43.44900
H  21.50000 -1.17500 41.78900
H  22.53600 -0.56100 43.04000
H  24.80100 -3.35200 40.55300
H  26.31700 -2.91200 41.32900
H  26.56200 -1.29700 39.95600
H  25.26100 -0.42400 40.60800
H  18.62600 -6.87200 43.61800
H  19.66000 -5.70000 42.85200
H  18.64400 -5.17600 44.27800
H  18.64300 -9.65700 47.54300
H  19.58800 -8.30900 48.26400
H  20.36300 -9.66700 47.31300
H  24.45000 -9.74700 48.15000
H  26.01100 -7.93200 49.94100
H  23.30600 -10.10700 49.96900
H  22.69900 -8.42000 49.91300
H  24.16900 -8.78100 50.82300
H  27.05600 -10.24300 49.37800
H  28.05700 -8.99000 48.91600
H  27.00100 -10.90700 47.17200
H  28.22600 -9.85800 47.00600
H  26.66700 -9.24100 46.41400
H  30.60400 -4.33400 46.94100
H  29.78900 -5.18300 48.24800
H  29.68300 -3.43600 48.18500
H  27.81200 -2.09500 42.84200
H  28.12800 1.87500 43.79800
H  26.30100 1.76100 43.54900
H  27.31600 1.95500 42.17800

