158

Mg 29.07700 57.86500 40.54700
C  26.39400 55.98300 39.59500
C  31.16200 55.75800 38.81200
C  31.45500 60.25300 40.60700
C  26.76300 60.33100 41.79700
N  28.75400 56.30900 39.06600
C  27.56700 55.56000 38.97200
C  27.72500 54.48100 37.91000
C  29.26300 54.20700 38.01800
C  29.83600 55.44100 38.71000
C  29.77300 52.88400 38.74600
C  27.14100 54.84300 36.59400
C  27.76800 56.06000 35.87200
H  27.88900 56.00600 34.33900
N  31.04900 57.90400 39.95200
C  31.72700 56.94800 39.31600
C  33.13300 57.18100 39.31600
C  33.25900 58.46600 39.94400
C  31.89200 58.97900 40.17500
C  34.21200 56.25900 38.78100
C  34.53900 59.11500 40.21100
O  35.56500 58.72500 39.78200
C  34.58200 60.24500 41.13900
N  29.08500 60.02000 41.07400
C  30.18200 60.76300 40.95400
C  30.02500 62.15200 41.53800
C  28.55000 62.10500 42.13700
C  28.07900 60.71800 41.68000
C  31.09600 62.53900 42.66200
C  27.67400 63.38900 41.81000
C  26.73200 63.78300 42.92100
N  27.00800 58.04100 40.83200
C  26.20300 59.08700 41.34200
C  24.88400 58.57900 41.39800
C  24.87500 57.41700 40.68100
C  26.19900 57.15100 40.33400
C  23.71900 59.21900 42.13400
C  24.08300 56.23500 40.21900
O  22.90900 55.97000 40.44000
C  25.09100 55.32300 39.34500
C  25.16100 54.00800 39.99700
O  25.45400 53.84600 41.19500
O  24.80800 53.06300 39.11400
C  24.70400 51.66700 39.61200
H  31.78900 54.93900 38.45300
H  32.32000 60.90700 40.73400
H  26.10000 61.13200 42.12900
H  27.19400 53.63400 38.34500
H  29.59300 54.16800 36.97900
H  30.42400 53.10400 39.59200
H  30.28400 52.22900 38.04000
H  28.99300 52.24100 39.15200
H  26.06900 54.99200 36.71600
H  27.28600 53.89500 36.07700
H  28.78700 56.15900 36.24600
H  27.26100 56.93400 36.27900
H  33.90500 55.21400 38.71900
H  35.12700 56.25900 39.37300
H  34.40900 56.63800 37.77800
H  34.48600 61.17100 40.57100
H  35.61600 60.17100 41.47600
H  33.91500 60.14800 41.99500
H  30.09000 62.79500 40.66000
H  28.65400 61.98800 43.21500
H  30.52700 62.63300 43.58700
H  31.63800 63.46200 42.45600
H  31.81000 61.71800 42.73000
H  27.10700 63.10600 40.92300
H  28.39100 64.16200 41.53400
H  26.88000 64.80400 43.27500
H  26.86300 63.19400 43.82900
H  25.68200 63.77500 42.62900
H  23.03400 58.40800 42.38400
H  23.25700 59.88000 41.40200
H  24.17400 59.75600 42.96600
H  24.73100 55.30400 38.31700
H  25.68200 51.26500 39.87300
H  24.32200 50.91900 38.91800
H  24.21500 51.65800 40.58700
Mg 10.45100 46.87200 25.29500
C  8.24500 47.07600 27.95700
C  12.75900 48.54900 27.19000
C  12.56600 46.57900 22.73200
C  7.70100 46.19500 23.08700
N  10.49000 47.63800 27.33000
C  9.53300 47.56600 28.28300
C  10.10300 48.18200 29.61500
C  11.30100 49.12500 29.15700
C  11.48000 48.42700 27.80800
C  10.92600 50.64000 29.15400
C  10.47400 47.06700 30.67100
C  9.74400 47.18100 32.03900
H  9.74300 45.99700 32.94800
N  12.50500 47.40300 25.00700
C  13.26100 48.05400 25.98800
C  14.59500 47.96400 25.50000
C  14.60900 47.33600 24.19900
C  13.17500 46.97800 23.98800
C  15.76200 48.49700 26.26600
C  15.66500 47.10700 23.30100
O  15.46700 46.60300 22.22300
C  17.07900 47.43300 23.65400
N  10.09000 46.61700 23.10900
C  11.19800 46.47900 22.31400
C  10.79600 46.04000 20.93900
C  9.25600 45.72100 21.02700
C  8.97600 46.18200 22.48800
C  11.21000 46.97500 19.79800
C  8.90000 44.26100 20.62300
C  8.81800 43.31100 21.84100
N  8.38800 46.65700 25.42700
C  7.40900 46.44200 24.45000
C  6.10900 46.55900 25.06800
C  6.39800 46.68600 26.44800
C  7.76900 46.79000 26.65000
C  4.72600 46.46500 24.36600
C  5.80200 46.77100 27.83200
O  4.58900 46.71100 28.08800
C  6.96600 47.03500 28.84500
C  7.06300 45.89100 29.76000
O  7.78600 44.95700 29.67000
O  6.22800 46.12900 30.82900
C  6.22300 45.13400 31.94400
H  13.42200 49.10600 27.85500
H  13.18500 46.39900 21.85000
H  6.87900 45.92800 22.41900
H  9.31700 48.85300 29.96100
H  12.20700 48.97600 29.74500
H  9.89400 50.81000 29.46200
H  11.05200 51.08700 28.16800
H  11.67400 51.04000 29.83700
H  11.53200 47.13500 30.92400
H  10.27000 46.07400 30.27100
H  8.71400 47.53800 32.02600
H  10.27000 47.96700 32.58200
H  16.43200 47.65500 26.43900
H  15.42600 48.77500 27.26400
H  16.13300 49.38500 25.75400
H  17.73200 47.19300 22.81500
H  17.29700 46.71400 24.44400
H  17.19000 48.44700 24.03600
H  11.42700 45.17700 20.72400
H  8.62600 46.36600 20.41600
H  11.77400 47.78800 20.25500
H  10.25900 47.17800 19.30400
H  11.96100 46.41000 19.24600
H  9.57300 43.93200 19.83200
H  7.95200 44.37600 20.09600
H  9.22500 42.36500 21.48600
H  7.79800 43.17900 22.20200
H  9.38100 43.71100 22.68500
H  4.58000 46.99600 23.42600
H  3.96100 46.56500 25.13600
H  4.67100 45.39200 24.18200
H  6.80200 47.91100 29.47300
H  6.17000 45.61200 32.92300
H  6.97400 44.34700 32.00300
H  5.28700 44.61300 31.74200

