158

Mg 48.97900 44.57900 43.22600
C  45.68200 44.40200 42.19800
C  49.13600 41.09100 42.90200
C  52.37600 44.73100 43.19000
C  48.82500 48.00000 43.20800
N  47.59200 42.94000 42.67200
C  46.24800 43.12400 42.32800
C  45.55900 41.76900 42.09900
C  46.57600 40.75900 42.69200
C  47.84400 41.61000 42.78400
C  46.17600 40.18200 44.01100
C  45.17900 41.58000 40.55700
C  46.05400 42.37000 39.49100
H  46.14900 41.74000 38.04600
N  50.50800 43.08800 43.07600
C  50.37000 41.71900 42.94500
C  51.63200 41.11600 42.88200
C  52.60700 42.15500 42.96800
C  51.86300 43.36400 43.14400
C  51.82300 39.66700 42.60900
C  54.18200 41.92300 43.02000
O  54.65000 40.84100 42.75800
C  55.10700 43.00200 43.31400
N  50.39900 46.14300 43.20500
C  51.71100 45.96200 43.30300
C  52.49500 47.30400 43.44200
C  51.36700 48.34600 43.58300
C  50.11000 47.44900 43.29100
C  53.63800 47.42200 44.49000
C  51.56600 49.60500 42.69500
C  51.23300 49.47700 41.18300
N  47.52600 45.97600 42.95600
C  47.60200 47.36300 42.96500
C  46.35000 47.87900 42.58600
C  45.45600 46.76200 42.29300
C  46.29300 45.63200 42.47000
C  46.03200 49.32800 42.31500
C  44.18200 46.26500 41.89600
O  43.15800 46.86400 41.70600
C  44.20600 44.66900 41.96400
C  43.26400 44.18600 42.96300
O  42.37100 43.39100 42.73600
O  43.35500 44.92800 44.18600
C  42.14100 44.74700 45.04100
H  49.17700 40.00600 42.78600
H  53.46500 44.77800 43.26100
H  48.79500 49.09000 43.26600
H  44.58000 41.73800 42.57600
H  46.75800 40.01200 41.91900
H  45.95700 39.12300 43.87300
H  45.36000 40.64900 44.56300
H  46.96600 40.18000 44.76100
H  44.16600 41.95800 40.42300
H  45.15800 40.51300 40.33200
H  47.09900 42.52200 39.76100
H  45.59100 43.33100 39.26800
H  52.05500 39.53000 41.55300
H  50.92100 39.17600 42.97400
H  52.64500 39.26900 43.20500
H  55.20100 43.79600 42.57300
H  56.12300 42.63100 43.44900
H  54.88100 43.37600 44.31300
H  53.03700 47.50500 42.51800
H  51.09600 48.70500 44.57600
H  53.32300 48.07400 45.30500
H  54.49300 47.95800 44.07900
H  53.78100 46.41900 44.89400
H  52.63100 49.84000 42.69400
H  51.05000 50.45300 43.14500
H  50.95000 48.43300 41.04500
H  52.03900 49.68500 40.48000
H  50.47900 50.23700 40.97800
H  45.06600 49.32900 41.81000
H  46.84900 49.88500 41.85600
H  45.76600 49.94500 43.17300
H  43.90100 44.40300 40.95200
H  42.09500 45.51500 45.81300
H  42.07400 43.76300 45.50500
H  41.21000 44.87700 44.48900
Mg -12.67300 37.53400 42.97400
C  -10.18600 35.24900 41.62700
C  -10.97400 39.94700 41.44400
C  -15.29300 39.48500 43.41900
C  -14.42500 34.72400 43.87500
N  -10.77700 37.51900 41.74200
C  -9.94200 36.56600 41.32300
C  -8.77700 37.06300 40.48300
C  -9.03800 38.57900 40.65400
C  -10.37300 38.74700 41.33300
C  -7.93900 39.33600 41.42800
C  -8.69600 36.54700 38.99800
C  -7.37000 35.81800 38.58500
H  -6.66400 36.33500 37.33900
N  -12.99400 39.55700 42.65100
C  -12.13400 40.43000 42.04200
C  -12.63100 41.77500 42.11300
C  -13.86200 41.62400 42.78300
C  -14.15200 40.20300 42.91000
C  -11.90000 42.88200 41.44200
C  -14.66000 42.82100 43.27900
O  -14.26700 43.95400 43.09300
C  -15.89400 42.61800 44.08300
N  -14.62600 37.26800 43.61400
C  -15.58300 38.17300 43.68500
C  -16.93600 37.61000 44.16400
C  -16.55400 36.06000 44.42200
C  -15.10700 35.99100 43.84000
C  -17.66700 38.30600 45.34100
C  -17.52900 35.08200 43.77000
C  -17.73300 35.08000 42.16600
N  -12.34000 35.44100 42.89600
C  -13.13800 34.44100 43.42200
C  -12.43700 33.16700 43.27400
C  -11.26300 33.47900 42.59300
C  -11.25100 34.85600 42.39900
C  -12.86800 31.82800 43.63700
C  -10.06900 32.82700 41.99600
O  -9.58800 31.69000 42.06200
C  -9.41600 33.99000 41.20800
C  -7.95800 34.04800 41.64000
O  -7.44500 34.42300 42.68500
O  -7.25900 33.45300 40.65600
C  -5.79300 33.32900 40.93800
H  -10.29300 40.66100 40.97500
H  -16.10200 40.19900 43.58900
H  -14.99800 33.85100 44.19400
H  -7.84100 36.83100 40.99300
H  -9.05300 38.99100 39.64500
H  -8.43800 39.72200 42.31700
H  -7.60800 40.12500 40.75300
H  -7.04700 38.83700 41.80600
H  -8.64900 37.37600 38.29300
H  -9.63700 36.02400 38.82300
H  -7.48800 34.76200 38.34100
H  -6.57500 35.89000 39.32800
H  -11.44800 42.50000 40.52600
H  -11.21300 43.30200 42.17700
H  -12.67500 43.63200 41.28300
H  -16.25400 43.51300 44.59100
H  -15.70900 41.86300 44.84700
H  -16.73600 42.29000 43.47400
H  -17.61200 37.71700 43.31600
H  -16.42500 35.83000 45.48000
H  -17.67600 37.60200 46.17300
H  -18.69500 38.53600 45.06000
H  -17.13000 39.17800 45.71400
H  -18.53800 35.25100 44.14700
H  -17.20100 34.09600 44.09700
H  -17.27700 36.00200 41.80500
H  -18.80600 35.22500 42.04200
H  -17.35500 34.18700 41.67000
H  -13.41900 31.93500 44.57100
H  -11.93000 31.32500 43.87300
H  -13.40500 31.29700 42.85000
H  -9.41500 33.78500 40.13800
H  -5.38200 33.54300 41.92500
H  -5.19000 33.80600 40.16500
H  -5.58900 32.25900 40.93600

