158

Mg 44.71900 4.83100 46.82000
C  43.26400 8.02900 46.68500
C  41.53700 3.45000 45.96600
C  46.23100 1.83000 46.42700
C  47.87500 6.28600 46.97200
N  42.69100 5.67900 46.25200
C  42.35900 7.03000 46.32400
C  40.80100 7.13900 46.18200
C  40.36700 5.69300 45.90900
C  41.56700 4.84900 46.06700
C  39.20500 5.26800 46.89000
C  40.33500 8.09600 45.05900
C  40.99500 7.94500 43.67700
H  40.05900 7.93100 42.46200
N  43.97200 2.83900 46.43100
C  42.67800 2.51000 46.05800
C  42.60000 1.06700 45.80000
C  43.90800 0.59700 46.02800
C  44.77800 1.79100 46.30400
C  41.36700 0.28800 45.51900
C  44.31200 -0.83500 45.90000
O  43.53500 -1.71100 45.58800
C  45.77300 -1.41100 46.20400
N  46.80500 4.17900 46.38800
C  47.09700 2.91500 46.43600
C  48.63100 2.70300 46.62500
C  49.15700 4.12800 46.74800
C  47.88500 4.95200 46.68600
C  48.93600 1.74900 47.77300
C  50.24300 4.47400 45.63500
C  51.61200 4.87100 46.24000
N  45.47000 6.72600 46.86100
C  46.79500 7.16200 46.95000
C  46.80200 8.56400 47.04300
C  45.49800 8.91900 46.90700
C  44.68800 7.82400 46.84100
C  48.00700 9.52100 47.15000
C  44.63900 10.05700 46.70700
O  44.98500 11.17900 46.38700
C  43.16800 9.55900 46.70300
C  42.32600 10.02500 47.86900
O  41.54700 9.44000 48.62500
O  42.44600 11.42800 47.81900
C  41.63600 12.13100 48.74900
H  40.56800 2.97300 45.80300
H  46.65700 0.83000 46.53400
H  48.89300 6.67200 47.05000
H  40.47400 7.57300 47.12600
H  39.97800 5.66400 44.89100
H  38.96600 6.07000 47.58800
H  39.58700 4.47000 47.52600
H  38.34900 4.80600 46.39800
H  40.39300 9.13600 45.38200
H  39.26300 7.96800 44.91000
H  41.73700 7.14900 43.61500
H  41.47900 8.90700 43.50600
H  41.18000 -0.43000 46.31700
H  41.34000 -0.16000 44.52600
H  40.47200 0.91000 45.48500
H  46.51500 -1.10700 45.46600
H  45.79600 -2.49800 46.27400
H  46.13800 -0.97200 47.13300
H  48.99500 2.24500 45.70600
H  49.48900 4.17800 47.78500
H  48.08100 1.15700 48.10000
H  49.29700 2.29500 48.64400
H  49.66300 0.94500 47.65700
H  50.00200 5.39300 45.10000
H  50.41400 3.59500 45.01400
H  51.98100 5.83600 45.89200
H  52.37300 4.15500 45.92900
H  51.51000 4.94000 47.32300
H  48.65800 9.51800 46.27600
H  48.60500 9.37200 48.05000
H  47.68800 10.56300 47.16600
H  42.68900 10.10800 45.89100
H  41.53800 13.19400 48.52800
H  42.15700 12.03700 49.70200
H  40.68000 11.63200 48.91100
Mg 9.73400 49.07600 26.56200
C  7.95200 48.80400 29.57400
C  12.42300 50.34600 28.31100
C  11.25800 49.83800 23.62600
C  6.72100 48.45900 24.86900
N  10.08700 49.53800 28.66700
C  9.30400 49.22100 29.72600
C  10.00700 49.57700 31.09000
C  11.31100 50.34800 30.59900
C  11.29500 50.10500 29.09400
C  11.27600 51.85300 30.98600
C  10.07200 48.38800 32.11900
C  9.50100 48.65700 33.53200
H  9.41800 47.44400 34.44400
N  11.61300 49.85900 26.04100
C  12.57500 50.19200 26.90000
C  13.82700 50.25300 26.19600
C  13.50800 50.29000 24.81400
C  12.03900 50.02000 24.75100
C  15.16400 50.49700 26.91300
C  14.47100 50.48600 23.66500
O  14.09000 50.58600 22.50800
C  15.94100 50.41300 23.91000
N  8.92700 49.43600 24.57800
C  9.84400 49.48300 23.52100
C  9.19500 48.96800 22.25800
C  7.85500 48.38700 22.70700
C  7.84600 48.79600 24.10600
C  9.08100 49.96500 21.02500
C  7.68700 46.81300 22.49400
C  8.30600 45.84500 23.47900
N  7.70600 48.74900 27.04600
C  6.62300 48.56800 26.26500
C  5.45000 48.35000 27.15800
C  5.91700 48.39600 28.47500
C  7.31100 48.64400 28.36400
C  4.00000 48.21300 26.59800
C  5.52800 48.36700 29.88200
O  4.39400 48.17900 30.39400
C  6.84500 48.34000 30.61600
C  7.13600 46.97600 31.12900
O  7.60600 46.08300 30.46500
O  6.77300 46.90500 32.47200
C  7.16000 45.62000 33.16000
H  13.34900 50.74800 28.72900
H  11.70200 50.19800 22.69600
H  5.82300 48.16800 24.32000
H  9.37000 50.29200 31.61100
H  12.18000 49.88400 31.06600
H  10.36600 52.16200 31.49900
H  11.39000 52.31500 30.00500
H  12.15900 52.07200 31.58700
H  11.14400 48.27400 32.27800
H  9.67400 47.47200 31.68300
H  8.55500 49.19700 33.54300
H  10.26500 49.31100 33.95300
H  15.85600 49.74200 26.53800
H  15.10700 50.50600 28.00100
H  15.62400 51.40300 26.52100
H  16.32900 51.18900 24.57000
H  16.25400 50.62700 22.88800
H  16.29900 49.42200 24.19200
H  9.78300 48.09600 21.97000
H  7.05700 48.93600 22.20800
H  9.88000 50.70200 20.94300
H  8.23900 50.65600 20.99600
H  8.91100 49.38000 20.12100
H  8.28400 46.65300 21.59600
H  6.61800 46.66000 22.34800
H  8.45500 46.38900 24.41200
H  9.23800 45.47100 23.05500
H  7.65500 45.01700 23.76200
H  3.24300 48.36000 27.36800
H  3.81000 47.22300 26.18200
H  3.61800 48.87800 25.82400
H  6.86500 49.00800 31.47700
H  6.67800 44.72300 32.77100
H  6.83300 45.58700 34.20000
H  8.23900 45.48500 33.09700

