158

Mg 8.28900 2.93400 28.30600
C  9.93500 1.52800 31.06800
C  6.38400 4.81100 30.57600
C  6.61700 4.47500 25.73700
C  9.89600 0.82600 26.18600
N  7.93100 2.87800 30.52000
C  8.88500 2.39000 31.42200
C  8.59100 2.86800 32.83000
C  7.34100 3.71400 32.68500
C  7.22600 3.80700 31.11400
C  6.00700 3.29200 33.40700
C  9.85400 3.53800 33.44000
C  9.60000 4.27200 34.74500
H  10.33700 3.73100 36.01300
N  6.70500 4.47900 28.18500
C  6.09600 5.10100 29.19900
C  5.15300 6.03200 28.71600
C  5.12200 5.93400 27.28200
C  6.21700 4.95500 27.00500
C  4.22600 6.76400 29.63700
C  4.19100 6.65900 26.37500
O  4.25500 6.43800 25.16600
C  3.19100 7.66300 26.87000
N  8.38800 2.81800 26.28200
C  7.49500 3.43900 25.38800
C  7.64200 2.88400 24.00100
C  8.88000 1.88200 24.07600
C  9.02700 1.75700 25.60500
C  6.38400 2.25700 23.38100
C  10.15000 2.28900 23.33400
C  10.25700 2.02400 21.81600
N  9.67400 1.44300 28.52900
C  10.24600 0.65700 27.53600
C  11.14200 -0.21500 28.16800
C  11.14100 0.12500 29.53000
C  10.22900 1.14100 29.70400
C  11.90800 -1.28100 27.51700
C  11.75100 -0.22200 30.87200
O  12.58600 -1.04600 31.14600
C  11.04100 0.78800 31.92000
C  10.50100 0.01400 33.09900
O  9.34800 -0.45500 33.13700
O  11.39700 0.13400 34.04900
C  10.91500 -0.38700 35.33600
H  5.96000 5.53500 31.27500
H  6.09200 4.82300 24.84500
H  10.41500 0.07700 25.58400
H  8.30800 1.99000 33.40900
H  7.41900 4.76100 32.97700
H  5.97300 2.22100 33.60700
H  5.13000 3.70500 32.90900
H  6.06800 3.83500 34.35100
H  10.46200 4.03900 32.68600
H  10.50600 2.72800 33.76700
H  8.55100 4.25200 35.04000
H  10.05700 5.25400 34.62300
H  4.06200 7.80600 29.36300
H  4.74700 6.78700 30.59400
H  3.30600 6.21200 29.83100
H  2.65800 8.06400 26.00800
H  3.75400 8.46500 27.34600
H  2.46800 7.08100 27.44200
H  7.99400 3.75700 23.45200
H  8.50800 0.88100 23.85200
H  5.84600 3.08500 22.92000
H  5.71400 1.81500 24.11900
H  6.73200 1.58700 22.59500
H  11.08300 1.92300 23.76400
H  10.27400 3.37100 23.39200
H  9.26000 1.73400 21.48400
H  10.91300 1.17300 21.63100
H  10.74800 2.82400 21.26300
H  11.46400 -2.27100 27.61600
H  12.89600 -1.23800 27.97600
H  12.14900 -1.00700 26.49000
H  11.61600 1.56400 32.42400
H  10.31800 0.31400 35.91900
H  11.72900 -0.58300 36.03500
H  10.33100 -1.30700 35.28900
Mg 47.18400 16.71900 28.24600
C  45.27500 16.40600 31.27200
C  49.74000 18.09700 30.08600
C  48.74500 17.24600 25.33600
C  44.33000 15.50200 26.54100
N  47.36300 17.38000 30.46200
C  46.53900 17.00100 31.54400
C  47.12400 17.50000 32.89600
C  48.51400 18.11200 32.42600
C  48.56100 17.86700 30.87900
C  48.93400 19.64500 32.71000
C  47.23600 16.41200 33.97800
C  47.04600 16.72900 35.38100
H  46.92500 18.24300 35.60900
N  48.99700 17.52900 27.75500
C  49.96000 17.97700 28.65900
C  51.18900 18.31300 27.91100
C  50.82500 18.25700 26.53400
C  49.44900 17.57500 26.47300
C  52.44100 18.74200 28.63000
C  51.63400 18.66500 25.28000
O  51.25400 18.45000 24.12000
C  52.98600 19.21300 25.48500
N  46.71100 16.12300 26.22800
C  47.47200 16.71000 25.20900
C  46.71500 16.37800 23.91400
C  45.59700 15.40300 24.27900
C  45.48800 15.70500 25.71700
C  46.31300 17.66900 23.07800
C  45.95900 13.82200 24.16900
C  44.80300 12.97900 23.58500
N  45.20700 16.20500 28.75400
C  44.17700 15.75400 27.90300
C  42.93600 15.51900 28.66100
C  43.39100 15.65600 30.03400
C  44.70000 16.11200 30.01200
C  41.57400 15.14800 28.19400
C  42.95700 15.56100 31.44200
O  41.91900 15.18600 31.87900
C  44.12500 16.10300 32.26700
C  43.67900 17.33100 33.00200
O  43.54400 18.46400 32.54600
O  43.39100 16.92100 34.26500
C  42.73800 17.97100 35.02300
H  50.58500 18.45500 30.67800
H  49.25400 17.31800 24.37300
H  43.45600 15.17600 25.97200
H  46.49200 18.34200 33.18000
H  49.31500 17.46300 32.78000
H  48.12600 20.09100 33.28900
H  48.96400 20.26400 31.81300
H  49.90400 19.64600 33.20700
H  48.21100 15.93700 33.86500
H  46.55100 15.59600 33.74900
H  47.91300 16.39500 35.95100
H  46.12800 16.29700 35.78000
H  53.30700 18.34600 28.09900
H  52.53700 18.24200 29.59400
H  52.67900 19.77900 28.86200
H  53.37300 19.57000 24.53100
H  53.55900 18.40100 25.93300
H  52.95200 20.05700 26.17400
H  47.43500 15.93700 23.22400
H  44.67900 15.62400 23.73500
H  45.24200 17.84800 23.16800
H  46.70600 17.66100 22.06100
H  46.79000 18.48200 23.62500
H  46.19300 13.30400 25.10000
H  46.82200 13.67600 23.51900
H  43.90300 13.59100 23.52200
H  44.59000 12.07100 24.14900
H  45.14900 12.64100 22.60800
H  40.86900 15.71200 28.80500
H  41.50500 14.07300 28.36000
H  41.35600 15.46600 27.17400
H  44.29100 15.29300 32.97700
H  41.84700 18.41800 34.58300
H  43.39500 18.79000 35.31400
H  42.27600 17.64100 35.95300

