158

Mg 54.04100 23.58700 44.18700
C  51.71500 26.18900 43.44500
C  51.82600 21.27900 43.11200
C  56.50000 21.50000 44.07500
C  56.34000 26.20000 44.70400
N  52.09100 23.70200 43.33000
C  51.34800 24.86600 43.01500
C  49.97100 24.51400 42.28300
C  49.91000 22.99800 42.57200
C  51.36600 22.62300 43.10600
C  48.76300 22.51400 43.55400
C  49.86300 24.84800 40.75100
C  51.05300 24.58400 39.75800
H  51.30500 25.48000 38.49000
N  54.09900 21.59500 43.67400
C  53.06700 20.77300 43.26600
C  53.58600 19.45200 43.34200
C  54.92600 19.44900 43.82700
C  55.26400 20.87000 43.84800
C  52.82100 18.26000 42.92800
C  55.79600 18.15500 44.01100
O  55.42100 17.12400 43.50100
C  57.18200 18.16200 44.61000
N  56.19800 23.86600 44.38500
C  57.00700 22.75400 44.27600
C  58.50500 23.04200 44.26200
C  58.47900 24.54900 44.66300
C  56.95600 24.91800 44.62600
C  59.56400 22.17300 45.04700
C  59.36200 25.38500 43.66900
C  60.24600 26.48700 44.25100
N  54.02000 25.72900 44.38700
C  54.99700 26.61600 44.58500
C  54.49400 27.99500 44.68700
C  53.16600 27.83100 44.24900
C  52.94400 26.43600 44.03300
C  55.20900 29.32200 45.22600
C  51.85800 28.52300 44.01100
O  51.51700 29.72800 44.13500
C  50.92000 27.56900 43.38100
C  50.77800 28.05100 41.95900
O  51.65600 28.27700 41.13800
O  49.43200 28.22700 41.73700
C  49.15800 29.19200 40.66900
H  51.01400 20.59200 42.86300
H  57.26000 20.74300 43.87100
H  56.97100 27.06900 44.90500
H  49.16400 24.97000 42.85500
H  49.61000 22.48400 41.65900
H  48.58300 23.30400 44.28300
H  49.15400 21.57500 43.94700
H  47.84800 22.27900 43.01000
H  49.58400 25.89100 40.59700
H  49.15200 24.15000 40.30900
H  50.95600 23.58400 39.33500
H  51.99400 24.48400 40.29800
H  53.18000 17.96100 41.94300
H  51.78000 18.58400 42.89600
H  52.92600 17.64600 43.82200
H  57.33700 18.82800 45.45800
H  57.92600 18.54000 43.90900
H  57.37100 17.14900 44.96600
H  58.73500 23.00200 43.19700
H  58.82900 24.72000 45.68100
H  60.37900 21.75300 44.45700
H  58.94300 21.43200 45.55200
H  59.92300 22.76700 45.88700
H  58.64700 25.74800 42.93100
H  60.08500 24.77000 43.13300
H  61.28300 26.60600 43.93600
H  60.33600 26.33800 45.32700
H  59.82300 27.47700 44.08300
H  55.65900 29.97800 44.48000
H  56.00500 28.91400 45.84900
H  54.44200 29.74000 45.87700
H  49.96900 27.44600 43.89900
H  49.29700 28.84600 39.64400
H  49.80300 30.06600 40.74400
H  48.09500 29.43200 40.69100
Mg 47.39400 24.55800 28.41100
C  48.49900 26.98200 30.89400
C  46.40300 22.47600 31.03800
C  47.02400 22.10400 26.13800
C  49.03100 26.53700 25.97600
N  47.38400 24.76400 30.83400
C  47.81600 25.87200 31.55300
C  47.51700 25.59100 33.01300
C  46.85700 24.11700 33.04600
C  46.82100 23.72700 31.58600
C  47.48200 23.08300 33.99500
C  46.94900 26.72800 33.76700
C  45.90100 26.57300 34.88900
H  46.15700 27.24500 36.24000
N  46.55800 22.63200 28.54400
C  46.26100 22.01000 29.70200
C  45.62700 20.72200 29.29600
C  45.80600 20.60400 27.84100
C  46.52100 21.85400 27.46100
C  44.97400 19.77400 30.28800
C  45.30200 19.50400 26.87400
O  45.51100 19.46300 25.66100
C  44.41600 18.41000 27.48800
N  47.64800 24.46400 26.38900
C  47.58500 23.23500 25.69600
C  48.04600 23.32300 24.24400
C  48.34900 24.91700 24.10800
C  48.39100 25.34700 25.59400
C  49.30000 22.46500 23.86700
C  47.50200 25.80300 23.11500
C  46.34000 26.67400 23.65200
N  48.47900 26.42300 28.32100
C  49.12500 27.05000 27.25500
C  49.70800 28.28900 27.72100
C  49.48300 28.29500 29.13000
C  48.74600 27.13800 29.42800
C  50.58300 29.17600 26.93200
C  49.76900 29.09200 30.23700
O  50.41600 30.12700 30.34600
C  49.01700 28.26500 31.44000
C  50.02000 28.17700 32.55200
O  50.58100 27.14300 32.86200
O  49.99500 29.33400 33.29700
C  50.67800 29.35800 34.60200
H  46.01500 21.80900 31.81000
H  47.00400 21.33900 25.35800
H  49.30800 27.21800 25.16900
H  48.45100 25.43500 33.55300
H  45.83800 24.20200 33.42400
H  48.06700 23.62500 34.73800
H  48.14100 22.40800 33.44700
H  46.62000 22.64500 34.49800
H  46.59700 27.43300 33.01300
H  47.76800 27.24900 34.26300
H  45.78100 25.50300 35.06100
H  44.89200 26.75400 34.51900
H  45.50600 18.82300 30.26500
H  43.96500 19.56500 29.93300
H  44.66700 20.18200 31.25100
H  44.85000 17.95500 28.37800
H  44.37700 17.63000 26.72900
H  43.47900 18.92400 27.70100
H  47.29700 23.02100 23.51200
H  49.33800 25.07800 23.67900
H  48.97800 21.54300 23.38300
H  49.96700 22.09200 24.64500
H  49.90000 22.99500 23.12800
H  47.02200 25.05500 22.48500
H  48.18500 26.44200 22.55600
H  46.18300 26.64500 24.73000
H  45.41400 26.24300 23.27100
H  46.39700 27.70600 23.30800
H  50.19600 29.45400 25.95200
H  51.54700 28.73500 26.68100
H  50.78700 30.07300 27.51800
H  48.18800 28.87800 31.79300
H  51.65300 28.87300 34.64800
H  50.04800 28.90800 35.36900
H  50.95300 30.36500 34.91600

