158

Mg 8.84600 3.70100 27.39700
C  10.01000 2.20000 30.28500
C  6.53600 5.37300 29.26900
C  7.33200 4.74000 24.51400
C  10.53300 1.14600 25.51500
N  8.18900 3.59400 29.62300
C  9.02800 3.14000 30.60900
C  8.72900 3.80400 31.93500
C  7.52800 4.75800 31.48200
C  7.40300 4.59500 30.03500
C  6.18000 4.67800 32.25700
C  9.83200 4.65500 32.63400
C  10.17500 4.16200 34.07000
H  10.27600 5.21400 35.21500
N  7.30600 4.95200 26.94100
C  6.49700 5.58300 27.84500
C  5.61800 6.50000 27.11500
C  5.88700 6.41300 25.73800
C  6.88800 5.29400 25.70300
C  4.71400 7.51400 27.87800
C  5.42400 7.27300 24.57500
O  5.54000 6.98600 23.37200
C  4.70800 8.68800 24.84700
N  8.87900 3.04900 25.27900
C  8.29100 3.71600 24.29500
C  8.77300 3.12400 22.91500
C  9.83700 2.08800 23.24600
C  9.81100 2.13900 24.76000
C  7.59400 2.60400 22.03200
C  11.23700 2.47500 22.80100
C  11.37800 2.56300 21.30300
N  10.16400 2.10500 27.76100
C  10.70900 1.15300 26.94000
C  11.55400 0.29000 27.74200
C  11.34800 0.68500 29.07000
C  10.44600 1.76100 29.01500
C  12.35500 -0.92600 27.30700
C  11.66900 0.37300 30.43800
O  12.40700 -0.46300 30.93900
C  10.95000 1.50700 31.30300
C  10.22500 0.87200 32.36500
O  9.07600 0.43400 32.24500
O  10.93800 0.77100 33.49900
C  10.24200 0.04300 34.56100
H  6.04800 6.17800 29.82400
H  7.05600 5.13100 23.53200
H  11.03400 0.31200 25.02000
H  8.27000 3.08300 32.61200
H  7.68000 5.82500 31.64600
H  5.47500 4.16100 31.60700
H  5.84600 5.63100 32.66900
H  6.21200 3.95900 33.07600
H  9.48900 5.66600 32.85100
H  10.65500 4.86300 31.95000
H  11.14900 3.69000 33.93800
H  9.49400 3.39400 34.43800
H  3.80000 7.42100 27.29200
H  5.05700 8.54700 27.83300
H  4.49400 7.35000 28.93300
H  4.52200 9.03100 23.82900
H  5.38400 9.38600 25.34000
H  3.81200 8.54600 25.45200
H  9.09100 4.04100 22.41900
H  9.59400 1.07900 22.91200
H  7.70000 1.53100 21.87200
H  7.74800 3.00700 21.03100
H  6.62800 2.83400 22.48100
H  11.80500 1.59200 23.09600
H  11.76600 3.35700 23.16200
H  11.72400 3.50300 20.87300
H  10.37700 2.28200 20.97600
H  11.99300 1.73700 20.94400
H  12.42300 -0.89600 26.22000
H  11.83700 -1.84400 27.58500
H  13.38000 -0.97600 27.67700
H  11.69200 2.16400 31.75500
H  10.05000 -1.02100 34.42000
H  9.36600 0.61900 34.85900
H  10.90800 -0.04700 35.41900
Mg 17.39600 -1.02300 27.34700
C  16.26800 1.11200 29.85500
C  19.25300 -2.64700 29.88100
C  18.84800 -2.70300 24.99600
C  15.70200 1.06600 24.99800
N  17.63200 -0.85000 29.64200
C  17.11900 0.16200 30.38800
C  17.42800 -0.03500 31.90200
C  18.54500 -1.14100 31.82900
C  18.53700 -1.51800 30.39300
C  19.90900 -0.78000 32.37200
C  16.19300 -0.45500 32.80600
C  16.54000 -0.47400 34.29900
H  17.78600 0.16500 34.86600
N  18.83500 -2.52600 27.40700
C  19.36800 -3.19000 28.53300
C  20.11200 -4.33400 28.10000
C  19.94700 -4.38400 26.67000
C  19.24400 -3.14000 26.28400
C  20.82000 -5.31700 28.97500
C  20.48500 -5.37600 25.59300
O  20.40500 -5.20000 24.38300
C  21.24000 -6.55300 26.14900
N  17.48600 -0.65700 25.35000
C  18.09500 -1.59000 24.57200
C  17.84200 -1.32600 23.04700
C  16.88100 -0.05400 23.08000
C  16.66400 0.19500 24.56600
C  19.03400 -1.24300 22.17600
C  15.66500 -0.41000 22.21100
C  14.94500 0.72600 21.58300
N  16.07300 0.65800 27.39200
C  15.46900 1.32400 26.36500
C  14.70300 2.39200 26.88800
C  14.96700 2.36700 28.23200
C  15.81600 1.27600 28.52300
C  13.75500 3.33200 26.15300
C  14.76500 3.04100 29.49600
O  13.97800 3.95100 29.75400
C  15.43900 2.23200 30.57100
C  16.24600 3.16600 31.42300
O  17.43600 3.35700 31.25000
O  15.56000 3.72800 32.51200
C  16.31200 4.47700 33.45800
H  19.75800 -3.12300 30.72300
H  19.15800 -3.26400 24.11200
H  15.20500 1.71500 24.27400
H  17.87300 0.92100 32.17500
H  18.27800 -2.05200 32.36500
H  19.87600 0.08800 33.02900
H  20.52100 -0.44600 31.53300
H  20.26300 -1.57000 33.03400
H  15.82300 -1.43200 32.49500
H  15.44500 0.31500 32.61400
H  16.45300 -1.52500 34.57600
H  15.74700 -0.01400 34.88800
H  21.85900 -5.13900 28.69700
H  20.46700 -6.31600 28.71800
H  20.59400 -5.01600 29.99800
H  22.07600 -6.24100 26.77500
H  21.62800 -7.20100 25.36300
H  20.47800 -7.11100 26.69300
H  17.33500 -2.23900 22.73500
H  17.43400 0.83500 22.77500
H  18.87400 -0.47700 21.41700
H  19.14900 -2.23600 21.74100
H  19.83600 -1.03100 22.88300
H  14.99600 -0.94400 22.88700
H  15.87000 -1.04000 21.34600
H  13.89200 0.50500 21.40400
H  15.46000 0.84300 20.63000
H  15.15100 1.67200 22.08400
H  13.06000 2.85600 25.46100
H  14.32300 4.17600 25.76200
H  13.12900 3.65900 26.98300
H  14.59800 1.86200 31.15700
H  16.52200 5.44900 33.01100
H  17.23600 4.01900 33.81200
H  15.58000 4.69100 34.23700

