158

Mg -9.23900 39.87800 39.89300
C  -8.24300 36.77400 38.67700
C  -6.20100 41.07000 38.98700
C  -10.60900 42.88400 40.00600
C  -12.50000 38.42300 40.30700
N  -7.50700 38.95700 38.66600
C  -7.19600 37.66200 38.62300
C  -5.78200 37.38100 38.03900
C  -5.12800 38.70100 38.55000
C  -6.35800 39.69700 38.78000
C  -4.11200 38.60800 39.66200
C  -5.96800 37.25700 36.43300
C  -5.41300 36.01700 35.62200
H  -6.37100 35.51700 34.55000
N  -8.46800 41.75300 39.66700
C  -7.19000 42.01600 39.32200
C  -7.04700 43.50700 39.19200
C  -8.27000 44.06800 39.62500
C  -9.24200 42.87600 39.79700
C  -5.85700 44.13200 38.60000
C  -8.48800 45.51100 39.74800
O  -7.56100 46.27800 39.51000
C  -9.80300 46.19400 40.26500
N  -11.31600 40.61700 40.04900
C  -11.61500 41.89500 40.08200
C  -13.16800 42.03900 40.24200
C  -13.70400 40.60300 40.45600
C  -12.38600 39.80600 40.25400
C  -13.73000 42.93000 41.36700
C  -14.92800 40.18400 39.61200
C  -16.06100 39.50200 40.41900
N  -10.17600 38.06300 39.68500
C  -11.46100 37.64000 39.90100
C  -11.52800 36.21900 39.71100
C  -10.31300 35.82700 39.22800
C  -9.60300 36.97800 39.12700
C  -12.77100 35.33400 39.89600
C  -9.53800 34.74300 38.78100
O  -9.78900 33.53000 38.70900
C  -8.17100 35.34000 38.45800
C  -7.20900 34.75700 39.40000
O  -6.91600 35.32200 40.41600
O  -6.57000 33.60700 38.95300
C  -5.38300 33.25300 39.72100
H  -5.19900 41.45400 38.79000
H  -11.07600 43.86300 40.13100
H  -13.54500 38.12500 40.41900
H  -5.57800 36.41900 38.50900
H  -4.64600 39.20000 37.71000
H  -4.51500 38.93200 40.62100
H  -3.24900 39.22600 39.41100
H  -3.73900 37.59200 39.79100
H  -5.63800 38.19300 35.98100
H  -7.04100 37.21800 36.24600
H  -5.04700 35.15300 36.17600
H  -4.51000 36.36300 35.11800
H  -6.01100 44.67600 37.66800
H  -5.12800 43.32300 38.55600
H  -5.45600 44.80000 39.36200
H  -10.70600 45.87100 39.74700
H  -9.65200 47.26400 40.12100
H  -9.81900 45.92800 41.32200
H  -13.53000 42.32600 39.25500
H  -13.92200 40.37600 41.49900
H  -12.96400 43.67200 41.59100
H  -14.09200 42.42700 42.26400
H  -14.56100 43.48100 40.92600
H  -14.57200 39.44000 38.89900
H  -15.23300 41.07000 39.05500
H  -16.26100 38.52800 39.97300
H  -16.98700 39.98400 40.10500
H  -16.06700 39.47400 41.50900
H  -13.09500 35.35700 40.93700
H  -12.53000 34.30200 39.64200
H  -13.68600 35.70500 39.43300
H  -7.90100 35.04400 37.44400
H  -5.65800 32.81500 40.68000
H  -4.70900 34.10200 39.83800
H  -4.72000 32.55400 39.21000
Mg -0.82100 34.53900 27.01000
C  -2.97600 32.80300 29.15200
C  -0.26300 36.79800 29.47200
C  0.96400 36.42600 24.81900
C  -2.24200 32.80700 24.27600
N  -1.35300 34.58100 29.11900
C  -2.14100 33.75600 29.82300
C  -2.30200 34.16500 31.27000
C  -1.59900 35.58300 31.35000
C  -1.07100 35.73300 29.86500
C  -2.57100 36.75700 31.63700
C  -1.76200 33.17400 32.36200
C  -2.32700 33.30400 33.78100
H  -1.64100 32.59300 35.01200
N  0.27700 36.35600 27.14100
C  0.35000 37.15300 28.24600
C  1.16200 38.38000 27.92800
C  1.51800 38.25800 26.61400
C  0.93600 36.96100 26.14800
C  1.43800 39.48200 28.84300
C  2.42000 39.19600 25.74200
O  2.74800 38.95600 24.61900
C  3.04600 40.40500 26.49400
N  -0.71900 34.56100 24.83200
C  0.21400 35.41700 24.23200
C  0.30800 35.05500 22.74300
C  -0.54800 33.71800 22.56200
C  -1.13700 33.62000 24.00000
C  -0.06800 36.18000 21.73000
C  0.22800 32.55100 22.06300
C  1.32200 31.99000 22.96800
N  -2.19600 33.02900 26.68800
C  -2.76400 32.57900 25.55900
C  -3.80000 31.58500 25.90500
C  -3.82400 31.62700 27.29200
C  -2.95200 32.56500 27.75600
C  -4.63900 30.75400 25.05000
C  -4.51600 31.02800 28.50300
O  -5.34800 30.19900 28.49400
C  -4.00300 31.79200 29.73900
C  -5.19400 32.44100 30.44400
O  -5.68600 33.54100 30.15500
O  -5.78800 31.49700 31.37000
C  -6.81700 32.12900 32.18900
H  -0.03200 37.45700 30.31100
H  1.42900 37.05100 24.05500
H  -2.76100 32.34500 23.43300
H  -3.38400 34.29100 31.30700
H  -0.76600 35.61700 32.05300
H  -2.19500 37.30000 32.50300
H  -3.55200 36.47000 32.01500
H  -2.75800 37.49600 30.85700
H  -0.72700 33.46100 32.54800
H  -1.75200 32.10900 32.13400
H  -3.29200 32.80600 33.68500
H  -2.49000 34.36500 33.96500
H  2.43900 39.56400 29.26700
H  0.78500 39.43500 29.71400
H  1.02100 40.41600 28.46700
H  2.15000 40.98000 26.72900
H  3.77900 40.89700 25.85300
H  3.64900 39.97500 27.29400
H  1.37600 34.94300 22.55600
H  -1.40500 33.77200 21.89200
H  -0.41400 37.14400 22.10200
H  -0.83400 35.86800 21.02000
H  0.85000 36.39800 21.18500
H  0.59800 32.72900 21.05300
H  -0.36200 31.65400 21.87600
H  1.32400 32.49600 23.93300
H  2.25200 32.32000 22.50500
H  1.14200 30.92100 23.08100
H  -4.21300 29.75400 24.97200
H  -4.90300 31.26000 24.12100
H  -5.57700 30.65600 25.59800
H  -3.54400 31.01800 30.35400
H  -7.51900 32.75900 31.64300
H  -6.31000 32.84600 32.83600
H  -7.45200 31.51500 32.82800

