158

Mg 17.22800 -0.01600 28.24400
C  16.00600 1.73200 30.97700
C  18.99000 -2.02400 30.34600
C  18.27200 -1.76100 25.55500
C  14.94700 1.92500 26.13300
N  17.50200 -0.00200 30.40400
C  16.86400 0.70900 31.33700
C  17.11700 0.17200 32.78500
C  18.22700 -0.85900 32.52800
C  18.24400 -1.01300 30.99700
C  19.56100 -0.45400 33.27300
C  15.83300 -0.38100 33.54300
C  15.29500 0.37800 34.76900
H  16.36000 0.88100 35.73500
N  18.60500 -1.60000 28.00600
C  19.16400 -2.33500 28.99000
C  19.97000 -3.42300 28.38500
C  19.75800 -3.30600 26.99200
C  18.84300 -2.19300 26.76600
C  20.71700 -4.41100 29.23200
C  20.28000 -4.22900 25.82800
O  20.01200 -4.03700 24.63900
C  21.13700 -5.37000 26.09900
N  16.64400 0.12900 26.09800
C  17.28000 -0.78100 25.21600
C  16.84500 -0.42300 23.79600
C  15.55300 0.56600 24.01100
C  15.70600 0.91600 25.48000
C  18.08900 0.25400 23.02200
C  14.21300 -0.08400 23.56300
C  13.49500 0.66800 22.32100
N  15.88800 1.61100 28.46300
C  15.02200 2.30700 27.51700
C  14.33700 3.32300 28.25000
C  14.68900 3.11000 29.61900
C  15.67800 2.11100 29.62900
C  13.43500 4.31600 27.63100
C  14.34700 3.51400 30.97000
O  13.48200 4.25300 31.35500
C  15.25600 2.66700 31.90100
C  16.16500 3.62200 32.59300
O  17.17200 4.14900 32.10300
O  15.76900 3.81000 33.90900
C  16.43600 4.96700 34.62100
H  19.62900 -2.70500 30.91200
H  18.50700 -2.29900 24.63500
H  14.30600 2.58000 25.53900
H  17.49800 1.05100 33.30400
H  17.94700 -1.85400 32.87300
H  19.46600 0.15200 34.17400
H  20.21600 0.04300 32.55700
H  20.07400 -1.33800 33.65300
H  15.95100 -1.39900 33.91500
H  15.00200 -0.32700 32.84000
H  14.71100 -0.33100 35.35500
H  14.70200 1.26500 34.54700
H  20.45700 -4.33400 30.28800
H  21.79800 -4.38400 29.09100
H  20.31100 -5.35200 28.86100
H  20.53700 -6.10200 26.64000
H  21.97100 -5.04000 26.71800
H  21.41700 -5.78800 25.13200
H  16.59700 -1.27900 23.16800
H  15.70300 1.44900 23.39000
H  18.18600 -0.23800 22.05400
H  19.00000 0.03300 23.57800
H  17.90200 1.30500 22.80000
H  13.45200 -0.02000 24.34000
H  14.21400 -1.12800 23.25100
H  12.61200 1.18900 22.68900
H  13.12600 -0.10100 21.64200
H  14.27400 1.23400 21.81000
H  12.54700 3.78600 27.28900
H  13.94200 4.78900 26.79000
H  13.10400 4.98100 28.42900
H  14.66000 2.19800 32.68400
H  16.64700 5.81600 33.97100
H  17.21100 4.41900 35.15600
H  15.71400 5.29200 35.37000
Mg 49.24100 16.19800 28.38500
C  47.07100 15.79300 31.00400
C  51.26700 18.15800 30.31500
C  51.21700 16.51000 25.78300
C  46.81700 14.68200 26.34500
N  49.07000 16.96500 30.35800
C  48.24800 16.49000 31.33900
C  48.53100 17.11300 32.68400
C  49.73400 18.11900 32.38500
C  50.06900 17.73200 30.93500
C  49.42000 19.62700 32.61800
C  48.71100 16.08800 33.77200
C  48.10900 16.41000 35.17200
H  48.05900 17.85400 35.68800
N  51.06000 17.15100 28.13900
C  51.80800 17.86100 29.01100
C  53.08900 18.21700 28.46000
C  53.08900 17.75500 27.15200
C  51.73500 17.08000 26.94300
C  54.03500 19.06000 29.18000
C  54.12700 17.76200 26.09200
O  54.02900 17.19900 25.02800
C  55.40500 18.50800 26.27200
N  49.15400 15.51500 26.38600
C  50.06900 15.83100 25.51500
C  49.64100 15.33800 24.07000
C  48.29800 14.55300 24.36000
C  48.08400 14.92000 25.80300
C  49.52000 16.57500 23.14600
C  48.50700 13.03500 24.18100
C  47.47400 12.29700 23.30900
N  47.28800 15.40100 28.52600
C  46.47400 14.77200 27.67000
C  45.24600 14.31400 28.35900
C  45.47500 14.63400 29.68400
C  46.69600 15.34000 29.72000
C  44.06900 13.55900 27.68400
C  44.91900 14.56400 31.07100
O  43.88800 14.09600 31.48200
C  45.89800 15.44500 31.93300
C  45.01300 16.51100 32.42500
O  44.57800 17.53000 31.84200
O  44.86000 16.19100 33.76600
C  43.97700 16.99500 34.61400
H  51.93300 18.82800 30.86300
H  51.75500 16.49000 24.83300
H  46.16000 14.07400 25.71900
H  47.61300 17.67000 32.87200
H  50.62300 17.79300 32.92400
H  48.46400 19.89600 33.06800
H  49.26800 20.11600 31.65600
H  50.19100 19.94900 33.31800
H  49.76400 15.94700 34.01800
H  48.36300 15.09500 33.48800
H  48.77200 15.87600 35.85300
H  47.07100 16.08000 35.21600
H  55.09400 18.81100 29.11500
H  53.82600 19.10500 30.24900
H  54.08300 20.04500 28.71400
H  56.08300 18.18700 27.06300
H  55.14700 19.56500 26.33700
H  55.95200 18.54000 25.33000
H  50.44800 14.74300 23.64400
H  47.47600 14.97700 23.78400
H  50.36200 16.54800 22.45300
H  49.38200 17.59500 23.50400
H  48.64900 16.30300 22.54900
H  48.50600 12.60500 25.18200
H  49.47300 12.72600 23.78100
H  46.75900 12.01100 24.08000
H  47.83900 11.42400 22.76800
H  47.08000 13.07600 22.65700
H  44.10300 12.47100 27.74700
H  44.01600 13.89500 26.64800
H  43.12200 13.95500 28.04900
H  46.26400 14.84200 32.76400
H  42.98400 16.54800 34.65300
H  43.80500 18.06900 34.53800
H  44.45200 16.81400 35.57800

