158

Mg 43.91700 3.37500 46.72900
C  41.84200 6.40300 46.32500
C  41.05300 1.63000 46.33500
C  45.90200 0.70800 46.38300
C  46.69000 5.48200 46.62400
N  41.76400 4.00500 46.29100
C  41.11400 5.22700 46.20700
C  39.62700 5.08100 46.33500
C  39.43200 3.55800 46.58200
C  40.84700 3.01900 46.51600
C  38.74200 3.32500 47.94400
C  38.98400 5.64300 45.01400
C  39.28500 4.89200 43.71500
H  39.62200 5.63000 42.40600
N  43.45400 1.44000 46.37400
C  42.26600 0.83600 46.20500
C  42.40700 -0.53200 46.00600
C  43.80900 -0.77000 45.94500
C  44.49800 0.44300 46.25200
C  41.33900 -1.47500 45.97100
C  44.38400 -2.21200 45.68000
O  43.62600 -3.17300 45.56000
C  45.80100 -2.55800 45.69300
N  46.05000 3.11000 46.41900
C  46.51800 1.91900 46.64400
C  47.98900 1.92900 46.89100
C  48.26400 3.50700 46.92000
C  46.93900 4.07600 46.66600
C  48.56100 1.08900 48.09800
C  49.45600 4.05900 45.97500
C  50.87600 3.47800 46.25600
N  44.31500 5.52700 46.54300
C  45.48200 6.19100 46.59000
C  45.25500 7.62800 46.61700
C  43.83100 7.70500 46.58700
C  43.28000 6.43600 46.48900
C  46.24300 8.67500 46.48700
C  42.70100 8.69600 46.59800
O  42.60800 9.91000 46.72800
C  41.40600 7.80500 46.50300
C  40.60400 8.00800 47.74300
O  40.75700 7.55700 48.84000
O  39.41800 8.60400 47.41400
C  38.42800 8.68500 48.50500
H  40.25400 0.92400 46.09900
H  46.54000 -0.17500 46.44900
H  47.54300 6.13900 46.80800
H  39.23700 5.65800 47.17400
H  38.74400 3.20100 45.81600
H  38.36100 4.27700 48.31400
H  39.46300 2.98500 48.68700
H  37.96600 2.59000 47.72700
H  39.37300 6.62000 44.73000
H  37.94400 5.86000 45.25700
H  38.48000 4.24500 43.36600
H  40.11500 4.22300 43.94000
H  41.18800 -2.00800 45.03200
H  40.33700 -1.08200 46.14400
H  41.49600 -2.31100 46.65200
H  46.13300 -1.99400 44.82200
H  46.06000 -3.60100 45.51200
H  46.34200 -2.45600 46.63400
H  48.50700 1.52900 46.01900
H  48.38300 3.74900 47.97600
H  49.31600 0.41300 47.69600
H  47.76500 0.51100 48.56800
H  48.98900 1.80700 48.79800
H  49.58200 5.12900 46.14400
H  49.22900 3.88500 44.92300
H  50.84900 2.60100 46.90200
H  51.40600 4.32800 46.68600
H  51.27400 3.08300 45.32100
H  45.87500 9.59000 46.02300
H  47.00400 8.35700 45.77400
H  46.70000 8.73800 47.47400
H  40.83400 8.04700 45.60700
H  37.91100 7.75800 48.75300
H  37.69400 9.37700 48.09400
H  38.66700 9.20000 49.43500
Mg 46.92200 24.96700 29.35600
C  48.02000 27.09700 32.01200
C  46.56200 22.51400 31.69900
C  46.85600 22.63900 26.93900
C  48.02800 27.30500 27.19200
N  47.26500 24.81900 31.63400
C  47.64800 25.84800 32.48100
C  47.37500 25.44300 33.94700
C  47.02900 23.88500 33.81400
C  46.89900 23.73500 32.27300
C  48.00100 22.94000 34.47100
C  46.23100 26.23600 34.66200
C  46.64200 26.97300 35.97300
H  45.49000 27.09600 36.98600
N  46.48900 22.92900 29.26600
C  46.33400 22.10600 30.39100
C  46.06000 20.73700 29.93900
C  46.17800 20.72300 28.49800
C  46.41400 22.15400 28.15200
C  45.67700 19.59300 30.84000
C  46.10700 19.59800 27.53200
O  46.09100 19.80500 26.30100
C  46.03100 18.16200 27.95400
N  47.19000 25.02000 27.29700
C  47.10600 23.91000 26.46000
C  47.42000 24.30500 25.03200
C  47.56200 25.88700 25.11900
C  47.56400 26.14600 26.60000
C  48.71200 23.59200 24.45700
C  46.38900 26.62300 24.50900
C  46.83000 27.75600 23.54900
N  47.68100 26.87300 29.48500
C  48.02400 27.75400 28.52200
C  48.51400 28.95600 29.05200
C  48.43900 28.82900 30.46000
C  48.02100 27.47200 30.67500
C  48.97300 30.06300 28.13100
C  48.69200 29.44300 31.73900
O  49.15600 30.55000 31.95700
C  48.53000 28.28800 32.76400
C  49.86400 28.00100 33.45300
O  50.60000 27.10400 33.09600
O  49.98200 28.78300 34.54300
C  50.89700 28.26000 35.57200
H  46.25900 21.75200 32.42000
H  47.08200 21.84400 26.22500
H  48.38700 27.99300 26.42500
H  48.29500 25.57400 34.51600
H  46.05700 23.80800 34.30000
H  48.94400 23.41000 34.74800
H  48.39200 22.20700 33.76500
H  47.39200 22.42500 35.21300
H  45.32200 25.64500 34.77600
H  45.85700 27.00100 33.98100
H  46.94700 27.98000 35.69000
H  47.57400 26.51700 36.30800
H  46.49700 18.88100 30.74400
H  44.73500 19.06300 30.69400
H  45.74500 19.90900 31.88100
H  45.16500 18.13900 28.61600
H  46.87600 17.97500 28.61600
H  45.93300 17.48700 27.10400
H  46.57600 24.08300 24.37900
H  48.53400 26.09500 24.67300
H  49.38900 23.17000 25.19900
H  49.34500 24.22900 23.84000
H  48.34900 22.83400 23.76200
H  45.88600 27.23900 25.25400
H  45.68800 25.93400 24.03700
H  46.80400 28.69300 24.10600
H  46.15700 27.75400 22.69200
H  47.85400 27.59600 23.20900
H  48.10000 30.65500 27.85200
H  49.34300 29.56900 27.23300
H  49.64200 30.76200 28.63300
H  47.82600 28.58400 33.54100
H  50.94700 29.04600 36.32500
H  51.93200 28.22900 35.23100
H  50.69300 27.23700 35.89000

