158

Mg -2.36700 17.43500 26.54800
C  -3.18300 15.15400 29.17600
C  -2.45500 19.95700 28.79500
C  -2.20200 19.47800 23.92800
C  -2.92900 14.64100 24.22200
N  -2.77500 17.52700 28.76300
C  -3.03000 16.50500 29.62100
C  -3.00000 17.09200 31.03600
C  -2.82200 18.64800 30.83500
C  -2.75100 18.72100 29.40400
C  -3.98900 19.57300 31.40300
C  -1.96300 16.45400 31.99800
C  -1.57700 17.19100 33.23300
H  -1.11200 16.34100 34.43900
N  -2.23700 19.47400 26.38100
C  -2.28000 20.34300 27.42500
C  -2.06700 21.65500 26.85300
C  -1.99100 21.56700 25.39900
C  -2.17300 20.14000 25.20100
C  -1.97100 22.97200 27.75600
C  -1.77500 22.62200 24.42100
O  -1.71000 22.40800 23.22700
C  -1.72700 24.08200 24.79200
N  -2.73200 17.07100 24.36200
C  -2.48000 18.15700 23.55500
C  -2.53600 17.77300 22.05500
C  -2.67200 16.20800 22.13500
C  -2.76800 15.92400 23.69000
C  -3.70800 18.53200 21.32400
C  -1.50000 15.47500 21.54400
C  -0.16000 15.70000 22.30100
N  -2.97000 15.31900 26.61200
C  -3.04400 14.32000 25.59800
C  -3.33800 13.09400 26.25900
C  -3.41500 13.31500 27.66500
C  -3.20900 14.71300 27.82400
C  -3.46300 11.76700 25.55300
C  -3.56200 12.72800 28.97600
O  -3.78300 11.61300 29.36200
C  -3.54000 13.90700 30.01100
C  -2.34200 13.53400 30.85800
O  -1.17200 13.58100 30.50100
O  -2.72400 12.87400 32.01100
C  -1.70900 12.37800 32.90300
H  -2.35200 20.76000 29.52800
H  -2.00200 20.05600 23.02400
H  -2.98800 13.79900 23.53000
H  -4.00600 17.00900 31.44700
H  -1.96400 19.12000 31.31300
H  -4.51000 19.86000 30.48900
H  -3.55500 20.42300 31.92800
H  -4.69600 19.06900 32.06200
H  -1.00200 16.41600 31.48400
H  -2.35800 15.49200 32.32500
H  -2.33300 17.93500 33.48600
H  -0.71900 17.78900 32.92500
H  -1.04000 23.52900 27.64700
H  -1.93600 22.67100 28.80300
H  -2.80200 23.62800 27.49400
H  -2.60500 24.21700 25.42400
H  -1.79600 24.67300 23.87900
H  -0.80000 24.25500 25.33900
H  -1.55500 18.03300 21.65800
H  -3.53300 15.85900 21.56500
H  -4.51200 17.79600 21.32700
H  -3.51600 18.76000 20.27600
H  -4.03400 19.36400 21.94900
H  -1.36800 15.84000 20.52500
H  -1.75000 14.43400 21.34000
H  -0.06300 16.60900 22.89600
H  0.44800 15.93600 21.42800
H  0.26000 14.90200 22.91300
H  -4.12400 11.87300 24.69300
H  -3.79600 10.99200 26.24400
H  -2.62100 11.26700 25.07400
H  -4.44300 13.94200 30.62100
H  -2.11100 11.90000 33.79600
H  -1.20800 13.29900 33.20200
H  -0.97100 11.70600 32.46500
Mg 34.91000 2.12300 29.34200
C  32.48600 3.38900 31.70700
C  37.25300 2.20200 31.61500
C  37.01600 1.56800 26.77400
C  32.37800 2.68400 26.89500
N  34.82400 2.69200 31.39200
C  33.82600 3.11500 32.20300
C  34.26900 3.18000 33.70100
C  35.85900 2.95600 33.63700
C  35.99500 2.53000 32.14700
C  36.75000 4.10200 33.98700
C  33.45500 2.24300 34.66400
C  32.79800 2.71400 35.95900
H  33.45300 3.95400 36.65800
N  36.78800 1.75000 29.24900
C  37.63500 1.85100 30.32400
C  38.95200 1.45600 29.83000
C  38.85800 1.26500 28.48100
C  37.49600 1.53400 28.05200
C  40.21300 1.34700 30.72900
C  39.96800 0.86200 27.48700
O  39.72600 0.41500 26.39800
C  41.34300 0.61100 28.01900
N  34.74100 2.27300 27.11600
C  35.73000 1.81200 26.30300
C  35.25000 1.82600 24.84800
C  33.69600 1.87300 24.98100
C  33.56500 2.25800 26.41400
C  35.87600 3.04800 23.99700
C  33.09800 0.44400 24.78700
C  31.80300 0.36200 23.91500
N  32.81600 2.83200 29.27500
C  31.94900 3.04100 28.18100
C  30.65200 3.60500 28.68200
C  30.87500 3.75400 30.04800
C  32.15100 3.27100 30.35900
C  29.45100 4.07900 27.85800
C  30.35000 4.25400 31.33200
O  29.25600 4.79200 31.50400
C  31.29700 4.04200 32.45800
C  31.58800 5.38300 33.03100
O  32.29400 6.21800 32.47800
O  30.82900 5.46500 34.13200
C  31.03900 6.68800 34.87000
H  38.12400 2.26500 32.27100
H  37.73500 1.38700 25.97200
H  31.52800 2.69600 26.21000
H  33.95100 4.19300 33.94800
H  36.16800 2.03800 34.13600
H  36.10600 4.83700 34.47200
H  37.18400 4.61700 33.13000
H  37.54200 3.92500 34.71400
H  34.15600 1.43500 34.87100
H  32.57700 1.86200 34.14200
H  32.70900 1.88300 36.65900
H  31.76800 3.03400 35.79900
H  40.47700 0.29200 30.79400
H  39.96200 1.83600 31.67100
H  40.99800 1.96500 30.29200
H  41.82400 1.52700 28.36300
H  41.86900 0.17000 27.17200
H  41.40400 -0.05200 28.88300
H  35.42300 0.84900 24.39600
H  33.22700 2.61800 24.33800
H  36.34400 2.78800 23.04800
H  36.58300 3.62800 24.58900
H  35.09200 3.77800 23.79700
H  32.90500 0.14000 25.81600
H  33.87300 -0.19100 24.35700
H  31.52800 1.33600 23.51100
H  30.98100 0.03700 24.55300
H  31.95900 -0.24700 23.02400
H  28.62900 3.38300 28.02600
H  29.71800 4.12400 26.80200
H  29.17700 5.10800 28.09200
H  30.84000 3.36600 33.18000
H  30.50700 7.43000 34.27500
H  32.10300 6.86700 35.02600
H  30.47000 6.66800 35.79900

