158

Mg 9.00800 3.02100 27.51000
C  10.19600 1.27600 30.26100
C  7.17700 5.03800 29.54900
C  7.55400 4.48500 24.76300
C  10.13100 0.45400 25.45900
N  8.74200 3.08100 29.66900
C  9.40500 2.35800 30.64200
C  9.04700 2.82700 32.07900
C  7.92300 3.85900 31.77200
C  7.93300 4.02400 30.21200
C  6.41500 3.61100 32.31000
C  10.34200 3.24400 32.81100
C  10.19800 4.25000 34.00200
H  11.08900 4.15500 35.22100
N  7.59900 4.64500 27.22500
C  6.90000 5.36600 28.20900
C  6.09100 6.44600 27.62300
C  6.22100 6.25200 26.19900
C  7.19400 5.09700 25.97100
C  5.35400 7.57100 28.35600
C  5.56400 7.05700 25.08000
O  5.66900 6.73500 23.86200
C  4.71400 8.23700 25.43000
N  8.78000 2.53400 25.43200
C  8.21200 3.27600 24.53200
C  8.36000 2.65800 23.12800
C  9.19400 1.41100 23.44300
C  9.36400 1.45000 24.86100
C  7.01500 2.24000 22.44100
C  10.55400 1.29700 22.70500
C  10.94800 -0.09400 22.14000
N  10.03300 1.30000 27.75800
C  10.37600 0.34200 26.85300
C  11.02200 -0.71400 27.47800
C  11.09900 -0.31700 28.80500
C  10.37900 0.86200 28.94500
C  11.68500 -1.89800 26.80800
C  11.59900 -0.69500 30.08200
O  12.39100 -1.59100 30.42900
C  11.02500 0.34900 31.10700
C  10.15200 -0.17800 32.11700
O  8.97300 -0.54200 31.89900
O  10.75600 -0.09900 33.33200
C  9.87700 -0.29000 34.45600
H  6.63800 5.61600 30.30300
H  7.24500 4.92700 23.81300
H  10.47200 -0.37100 24.83000
H  8.53800 2.06700 32.67300
H  8.24000 4.84600 32.11000
H  5.74100 3.49900 31.46100
H  5.96400 4.47200 32.80400
H  6.38300 2.60200 32.72100
H  11.13900 3.62600 32.17200
H  10.75900 2.38200 33.33100
H  9.17600 4.21400 34.37800
H  10.31900 5.21200 33.50300
H  5.78000 8.51900 28.02900
H  5.39200 7.34700 29.42200
H  4.31700 7.64800 28.02800
H  3.86600 7.77200 25.93400
H  4.37600 8.78000 24.54800
H  5.28300 9.02400 25.92400
H  8.99800 3.33800 22.56300
H  8.59100 0.50400 23.39400
H  6.12600 2.39700 23.05100
H  6.95700 1.18800 22.16300
H  6.77100 2.73200 21.49900
H  11.37800 1.49400 23.39000
H  10.62000 1.93700 21.82500
H  11.80600 -0.40400 22.73600
H  11.33100 -0.16900 21.12200
H  10.09700 -0.77600 22.14600
H  11.17300 -2.18600 25.89000
H  11.60100 -2.68700 27.55600
H  12.67000 -1.54700 26.50100
H  11.76600 0.85800 31.72300
H  8.96800 -0.88600 34.37600
H  9.56000 0.72500 34.69700
H  10.46500 -0.58000 35.32700
Mg 26.81500 -1.28800 29.39800
C  28.70000 -1.13500 32.24900
C  23.91800 -1.19500 31.29300
C  25.14500 -1.29500 26.48200
C  29.79800 -1.81400 27.53400
N  26.46600 -1.17800 31.53800
C  27.33200 -1.05700 32.57700
C  26.60400 -0.87800 34.00200
C  25.11900 -0.87400 33.56000
C  25.12700 -1.07600 32.00800
C  24.29400 -1.89700 34.40800
C  27.08900 0.33600 34.95500
C  26.65900 0.01900 36.41800
H  27.12900 0.91800 37.58400
N  24.88500 -1.25100 28.97800
C  23.78400 -1.32200 29.88400
C  22.63900 -1.39400 29.17100
C  22.93600 -1.29800 27.76700
C  24.38400 -1.20400 27.65800
C  21.32100 -1.67700 29.84400
C  22.01600 -1.32200 26.54500
O  22.39300 -1.01500 25.43200
C  20.46900 -1.66000 26.73700
N  27.41300 -1.56500 27.25500
C  26.52700 -1.42000 26.25600
C  27.25700 -1.45200 24.87600
C  28.70900 -1.35700 25.27200
C  28.71300 -1.55500 26.76800
C  26.83600 -2.61800 23.89600
C  29.35200 0.01100 25.03700
C  28.64100 1.29700 25.60700
N  28.78900 -1.65400 29.83600
C  29.86000 -1.87100 28.96600
C  31.08400 -1.89100 29.71400
C  30.67900 -1.58700 31.02400
C  29.29400 -1.44300 30.99000
C  32.51800 -2.03300 29.20600
C  31.09700 -1.34800 32.40700
O  32.22800 -1.42900 32.81300
C  29.85800 -0.92700 33.21700
C  29.78800 -1.84800 34.39900
O  29.52800 -3.05600 34.25200
O  30.10700 -1.13300 35.51600
C  30.23000 -1.93000 36.72700
H  23.01400 -1.01600 31.87800
H  24.65500 -1.26300 25.50600
H  30.68800 -1.91400 26.91000
H  26.79400 -1.77400 34.59200
H  24.68500 0.09000 33.82600
H  24.00300 -2.58400 33.61300
H  23.37600 -1.46700 34.80800
H  24.83600 -2.46000 35.16900
H  26.38700 1.16400 34.85200
H  28.14600 0.60000 34.92400
H  26.93500 -0.99800 36.69700
H  25.58000 0.17800 36.40600
H  20.66000 -0.91200 29.43600
H  21.33000 -1.59900 30.93200
H  21.02300 -2.66300 29.49000
H  20.07100 -2.03200 25.79300
H  20.03800 -0.74100 27.13400
H  20.23300 -2.47700 27.41900
H  26.96800 -0.55900 24.32100
H  29.31600 -2.20700 24.96200
H  26.08300 -3.23700 24.38300
H  27.70400 -3.24100 23.68100
H  26.37400 -2.20300 23.00100
H  29.49300 0.09400 23.96000
H  30.39600 0.00400 25.35400
H  29.40000 1.71200 26.27000
H  27.81800 0.96200 26.23900
H  28.32600 1.97200 24.81200
H  32.87100 -2.99900 29.56700
H  33.14500 -1.22800 29.58800
H  32.64800 -1.86400 28.13700
H  30.07500 0.12300 33.41500
H  30.08800 -3.00300 36.60400
H  29.48800 -1.57400 37.44100
H  31.27500 -1.80000 37.00900

