158

Mg 8.30000 4.37800 27.41500
C  9.62200 2.57300 30.21700
C  6.44200 6.15100 29.54300
C  7.23900 5.84400 24.74700
C  9.84500 1.72500 25.40600
N  7.82100 4.08100 29.64400
C  8.64100 3.54000 30.56400
C  8.22100 3.91800 32.00100
C  7.04800 4.96100 31.72900
C  7.05200 5.06200 30.16700
C  5.66900 4.69000 32.29400
C  9.38200 4.53100 32.80500
C  8.94300 5.29200 34.12900
H  9.87100 5.20100 35.37500
N  7.08500 5.89800 27.20000
C  6.38100 6.60200 28.21500
C  5.70700 7.74000 27.59700
C  5.91000 7.58500 26.19100
C  6.74800 6.38800 25.97900
C  4.77400 8.64500 28.41600
C  5.25600 8.44900 25.11600
O  5.34100 8.16700 23.91600
C  4.55200 9.71000 25.42200
N  8.50200 3.78900 25.38000
C  7.86000 4.59600 24.52500
C  8.05800 4.04900 23.05900
C  9.10600 2.84900 23.26100
C  9.16200 2.75200 24.79500
C  6.62800 3.72100 22.47400
C  10.54300 2.95300 22.60100
C  11.10700 1.63100 21.98800
N  9.50300 2.56700 27.71700
C  9.94700 1.60700 26.81800
C  10.74800 0.59800 27.53400
C  10.66700 0.99700 28.80600
C  9.84000 2.12100 28.91300
C  11.70500 -0.43500 26.94700
C  11.16500 0.66900 30.17100
O  11.84000 -0.21200 30.62500
C  10.56600 1.80600 31.09800
C  9.70600 1.02000 32.10500
O  8.52000 0.66500 32.00400
O  10.54100 0.65500 33.17400
C  9.83400 0.21300 34.39800
H  5.90200 6.69100 30.32400
H  6.75000 6.23700 23.85300
H  10.42600 0.99200 24.84200
H  7.74500 3.04800 32.45500
H  7.40700 5.93000 32.07700
H  5.63500 3.68200 32.70700
H  5.03500 4.56100 31.41600
H  5.21100 5.46300 32.91100
H  10.13000 5.05600 32.21300
H  9.92000 3.64500 33.14100
H  7.95000 5.06100 34.51300
H  8.95100 6.32900 33.79300
H  3.74500 8.71600 28.06200
H  5.17400 9.65800 28.37500
H  4.69800 8.34600 29.46100
H  4.37600 10.43600 24.62900
H  5.25600 10.16300 26.12000
H  3.62100 9.49400 25.94500
H  8.56000 4.79900 22.44800
H  8.76000 1.88600 22.88600
H  5.86000 3.95400 23.21200
H  6.46000 2.67300 22.22700
H  6.29100 4.29400 21.61000
H  11.13700 3.26700 23.45900
H  10.60500 3.63500 21.75300
H  11.51000 1.89300 21.01000
H  10.33700 0.86100 22.03400
H  11.98600 1.34500 22.56600
H  11.75800 -1.31200 27.59200
H  12.66000 0.07200 26.81000
H  11.37600 -0.88400 26.00900
H  11.27800 2.43800 31.63000
H  9.13200 -0.60200 34.22300
H  9.34100 1.05100 34.89000
H  10.58200 -0.24700 35.04400
Mg 54.74100 24.17800 45.41100
C  52.14400 26.26500 44.44600
C  53.08700 21.49600 44.16900
C  57.56300 22.33500 45.99400
C  56.47200 27.06100 46.55500
N  53.02200 24.04600 44.08800
C  51.99800 24.95900 43.94800
C  50.78600 24.32100 43.17000
C  51.02500 22.87500 43.65100
C  52.53300 22.79100 43.85200
C  50.23100 22.30000 44.84800
C  50.74100 24.58400 41.63600
C  49.39900 24.44600 41.00600
H  49.37600 23.87300 39.58900
N  55.19300 22.14000 45.18000
C  54.37900 21.20600 44.62300
C  55.03900 19.98000 44.56500
C  56.40700 20.13600 44.94100
C  56.48000 21.57400 45.45700
C  54.39000 18.76100 44.03800
C  57.45400 19.13000 44.88100
O  57.21600 17.98900 44.44300
C  58.89900 19.39700 45.19700
N  56.82300 24.63200 45.95700
C  57.74700 23.70800 46.19500
C  59.04900 24.35200 46.62100
C  58.72000 25.85300 46.72800
C  57.26200 25.87200 46.46600
C  59.64900 23.74600 47.97600
C  59.47200 26.80600 45.76700
C  60.14900 28.07500 46.32400
N  54.41200 26.26700 45.55200
C  55.19000 27.26400 46.11500
C  54.37200 28.47800 46.23000
C  53.20100 28.13800 45.54100
C  53.31600 26.76100 45.16100
C  54.70600 29.69300 46.87600
C  51.95400 28.55300 45.11900
O  51.41600 29.67000 45.19200
C  51.28400 27.49800 44.30400
C  51.07700 28.02000 42.94700
O  51.96800 28.28600 42.12600
O  49.69900 28.16600 42.67700
C  49.40900 28.53800 41.28100
H  52.45900 20.62700 43.96100
H  58.52400 21.89900 46.27500
H  56.92800 27.99300 46.89500
H  49.84500 24.74500 43.52200
H  50.74000 22.18600 42.85600
H  49.42100 22.94900 45.18000
H  50.89500 22.04300 45.67300
H  49.79200 21.39100 44.43500
H  51.30800 23.79100 41.14800
H  51.22600 25.53400 41.41300
H  48.95300 25.43900 40.94500
H  48.70200 23.84500 41.58900
H  54.70000 18.58300 43.00900
H  53.30800 18.82800 43.92600
H  54.64300 17.87400 44.61900
H  59.25100 20.38000 44.88400
H  59.56900 18.63800 44.79200
H  59.02600 19.45100 46.27800
H  59.73700 24.19900 45.78900
H  58.96400 26.20000 47.73200
H  59.15800 22.77800 48.07100
H  59.33400 24.28400 48.87000
H  60.72100 23.56000 47.90400
H  58.72400 27.16000 45.05800
H  60.15300 26.31100 45.07500
H  59.60200 28.94700 45.96500
H  61.18700 27.90400 46.03800
H  60.14400 28.23900 47.40100
H  55.52500 29.64700 47.59300
H  53.82800 30.05600 47.41100
H  54.98700 30.43600 46.12900
H  50.28100 27.46200 44.72900
H  48.84800 29.47300 41.29800
H  48.58000 27.99700 40.82600
H  50.16000 28.46300 40.49500

