158

Mg 23.34700 -5.34700 44.61000
C  24.92100 -2.66100 43.25000
C  20.37900 -4.56800 43.09100
C  22.07200 -8.46300 45.38000
C  26.52300 -6.64500 45.69200
N  22.75100 -3.70900 43.41000
C  23.56500 -2.74500 42.85700
C  22.78300 -1.70900 41.97600
C  21.31700 -2.16600 42.27200
C  21.43500 -3.58100 43.00700
C  20.56800 -1.17200 43.18600
C  23.18000 -1.82500 40.46900
C  23.86100 -0.59300 39.85200
H  25.07900 -0.74100 38.97200
N  21.48400 -6.30900 44.35300
C  20.36000 -5.83100 43.67800
C  19.22700 -6.76100 43.79100
C  19.72200 -7.89900 44.48400
C  21.13700 -7.58600 44.79100
C  17.95100 -6.48200 43.11800
C  18.92300 -9.10300 44.74300
O  17.69900 -9.07900 44.55200
C  19.43600 -10.43100 45.23000
N  24.23300 -7.36000 45.30900
C  23.47000 -8.38200 45.69900
C  24.25600 -9.47700 46.53300
C  25.67900 -8.77500 46.66200
C  25.44500 -7.43600 45.94400
C  23.70200 -10.00400 47.89800
C  26.85300 -9.71300 46.23100
C  28.15500 -9.77400 47.08100
N  25.36200 -4.79500 44.54800
C  26.51300 -5.42400 44.96200
C  27.66500 -4.59400 44.66300
C  27.07100 -3.45400 43.98100
C  25.64400 -3.66800 43.94300
C  29.12300 -4.93200 44.88900
C  27.30300 -2.20600 43.29100
O  28.36200 -1.57100 43.21400
C  25.88400 -1.67300 42.75600
C  25.59300 -0.36200 43.38600
O  24.74000 -0.09900 44.20700
O  26.50300 0.54900 42.84900
C  26.34200 1.90900 43.28100
H  19.41600 -4.26200 42.67500
H  21.66800 -9.43500 45.67100
H  27.54600 -6.98200 45.87300
H  22.97500 -0.72500 42.40500
H  20.67800 -2.19200 41.38900
H  20.95400 -0.15300 43.15400
H  20.47400 -1.50200 44.22100
H  19.56700 -1.03800 42.77800
H  22.36400 -2.20200 39.85300
H  23.75100 -2.74200 40.31800
H  23.97100 0.13300 40.65700
H  23.14300 -0.21800 39.12300
H  17.97000 -6.84100 42.08900
H  17.66600 -5.43500 43.01100
H  17.16000 -6.92300 43.72400
H  18.74300 -11.24800 45.03100
H  19.67100 -10.36300 46.29300
H  20.19800 -10.66400 44.48600
H  24.28900 -10.35400 45.88600
H  25.86400 -8.45500 47.68800
H  22.66000 -9.68600 47.94200
H  24.15900 -9.48000 48.73800
H  23.71400 -11.08200 48.05600
H  27.12600 -9.41600 45.21900
H  26.48600 -10.72200 46.04500
H  28.85600 -9.21600 46.46000
H  28.56700 -10.78100 47.15400
H  27.95300 -9.38300 48.07800
H  29.31500 -5.55500 45.76300
H  29.53800 -3.94700 45.10200
H  29.52800 -5.36700 43.97600
H  25.98300 -1.45300 41.69300
H  25.50100 2.40100 42.79200
H  27.18200 2.47500 42.87500
H  26.27700 2.01100 44.36400
Mg 1.56800 41.98500 25.33500
C  3.70400 42.17900 28.19400
C  -0.98200 41.01000 27.34600
C  -0.24400 41.27500 22.56200
C  4.42900 42.21500 23.37800
N  1.42300 41.61600 27.46800
C  2.27900 41.97300 28.41500
C  1.59000 41.87700 29.83000
C  0.12900 41.46900 29.52400
C  0.17100 41.32800 28.03800
C  -0.37200 40.17700 30.19600
C  1.74500 43.25700 30.52900
C  1.75500 43.23500 32.01600
H  1.64800 41.98100 32.91900
N  -0.42800 41.34100 25.04200
C  -1.30300 40.86000 25.95600
C  -2.58400 40.41500 25.34700
C  -2.41700 40.63000 23.90200
C  -0.95800 41.05700 23.75300
C  -3.68600 39.78900 26.16800
C  -3.26600 40.39400 22.70500
O  -2.92800 40.50300 21.55000
C  -4.65700 39.99100 22.90300
N  1.93500 41.87200 23.27200
C  1.07500 41.61500 22.30400
C  1.73200 41.51300 20.94600
C  3.12600 42.19200 21.19300
C  3.20900 42.12500 22.74900
C  1.77700 40.12700 20.30300
C  3.29300 43.62400 20.47500
C  2.96400 44.84600 21.38500
N  3.63900 42.35700 25.67200
C  4.65400 42.39900 24.74400
C  5.91700 42.66200 25.45000
C  5.57300 42.54300 26.87000
C  4.21800 42.33000 26.91200
C  7.20400 42.92100 24.83600
C  6.15100 42.45900 28.15900
O  7.32800 42.45200 28.43900
C  4.93300 42.30500 29.09700
C  5.17500 41.14900 29.99100
O  4.86500 39.97500 29.77600
O  5.64200 41.56400 31.20800
C  5.74500 40.61000 32.25400
H  -1.81800 40.69100 27.97100
H  -0.79000 41.08400 21.63500
H  5.27000 42.31600 22.68900
H  2.04300 41.01900 30.32700
H  -0.56600 42.25600 29.81500
H  -1.31200 40.49200 30.65100
H  0.26900 39.61500 30.87600
H  -0.63100 39.51000 29.37400
H  0.86900 43.69400 30.04900
H  2.49500 43.92000 30.09700
H  0.97100 43.92200 32.33300
H  2.69100 43.75200 32.22800
H  -4.66200 40.05700 25.76400
H  -3.59800 40.10800 27.20700
H  -3.56200 38.70600 26.14600
H  -4.57400 39.17700 23.62300
H  -5.10700 39.71500 21.95000
H  -5.24600 40.78000 23.37100
H  1.10900 42.03700 20.22200
H  3.82500 41.44300 20.82100
H  1.49100 39.47500 21.12800
H  2.73500 39.96400 19.80900
H  1.02500 40.09700 19.51400
H  2.80900 43.63300 19.49800
H  4.36700 43.59000 20.29700
H  2.52200 44.59400 22.34900
H  2.34200 45.55500 20.83800
H  3.81800 45.51000 21.52300
H  7.58800 43.93900 24.90300
H  7.12900 42.53900 23.81800
H  7.83400 42.13400 25.25100
H  4.90900 43.14900 29.78600
H  4.77600 40.13900 32.42000
H  5.93200 41.05300 33.23200
H  6.43200 39.79100 32.03800

