158

Mg 24.36900 -7.05000 47.94900
C  26.49000 -4.54800 46.83300
C  22.06800 -6.07100 45.48200
C  22.49100 -9.72000 48.74800
C  26.91600 -8.23100 50.04500
N  24.40200 -5.65300 46.13700
C  25.31900 -4.64300 46.03500
C  24.96500 -3.69000 44.95200
C  23.39700 -4.00500 44.62100
C  23.32900 -5.32300 45.38700
C  22.49500 -2.89000 45.07600
C  25.89600 -3.94600 43.76500
C  26.47600 -2.70500 43.16200
H  25.57800 -2.05700 42.08800
N  22.51600 -7.79200 47.18600
C  21.71500 -7.25700 46.19700
C  20.63300 -8.13700 45.93400
C  20.75200 -9.29200 46.74500
C  21.89100 -8.98000 47.67400
C  19.50200 -7.87100 44.90200
C  19.88100 -10.51900 46.81300
O  18.78900 -10.53600 46.21300
C  20.32200 -11.68500 47.58200
N  24.73800 -8.75100 49.10700
C  23.75300 -9.61000 49.40400
C  24.27000 -10.64800 50.48600
C  25.71200 -10.19600 50.81000
C  25.82300 -9.03300 49.95400
C  23.39300 -10.65400 51.74200
C  26.82200 -11.22200 50.50700
C  27.74200 -11.51000 51.72300
N  26.26200 -6.44400 48.45300
C  27.17600 -7.04100 49.27600
C  28.37900 -6.26500 49.19100
C  28.08700 -5.23900 48.27300
C  26.82900 -5.43400 47.79100
C  29.63300 -6.60000 49.98900
C  28.70600 -4.15300 47.61200
O  29.84800 -3.64700 47.72300
C  27.63100 -3.52200 46.75600
C  27.15500 -2.23600 47.08600
O  26.52300 -1.91900 48.08300
O  27.70600 -1.29000 46.18000
C  27.00300 -0.00600 46.29500
H  21.41700 -5.81200 44.64400
H  21.81300 -10.44500 49.20300
H  27.78900 -8.50900 50.64000
H  25.08600 -2.70000 45.38900
H  23.34600 -4.10200 43.53600
H  21.84700 -2.50000 44.29100
H  22.96800 -2.01300 45.51700
H  21.81600 -3.30500 45.82100
H  25.51600 -4.54700 42.94000
H  26.71200 -4.55100 44.16100
H  27.40000 -3.06300 42.70900
H  26.64500 -1.93500 43.91500
H  19.47700 -8.70000 44.19500
H  19.50400 -6.91800 44.37200
H  18.54000 -7.91200 45.41300
H  21.41000 -11.73500 47.61400
H  19.94300 -12.59500 47.11700
H  19.95100 -11.71800 48.60600
H  24.24900 -11.63400 50.02100
H  25.93600 -9.74800 51.77800
H  23.60000 -9.83400 52.43000
H  23.73900 -11.57600 52.20800
H  22.31700 -10.62000 51.56800
H  27.46300 -10.85500 49.70500
H  26.31200 -12.16400 50.30800
H  27.69900 -12.59700 51.79200
H  27.21500 -11.13600 52.60100
H  28.71900 -11.04200 51.59900
H  30.03100 -7.60000 49.81800
H  29.49000 -6.43200 51.05700
H  30.44300 -5.96100 49.63500
H  28.15300 -3.53000 45.79900
H  27.26200 0.58400 47.17500
H  25.91600 -0.03800 46.37300
H  27.31700 0.64600 45.48000
Mg -0.91700 33.52400 26.67100
C  -2.48500 31.97900 29.52200
C  0.68900 35.45300 28.80500
C  -0.14100 35.31500 24.03500
C  -2.78800 31.31900 24.63000
N  -0.96700 33.65100 28.95100
C  -1.57400 32.97400 29.91500
C  -1.08200 33.18500 31.30100
C  -0.06800 34.40000 31.12100
C  -0.05300 34.57000 29.53000
C  -0.30000 35.71600 31.98900
C  -0.43700 31.93800 31.98200
C  -1.06100 31.55700 33.38100
H  -0.26000 32.09100 34.66500
N  0.12400 35.21400 26.50800
C  0.76700 35.85800 27.46300
C  1.53500 36.92500 26.91500
C  1.23300 36.91700 25.53600
C  0.37100 35.75400 25.31300
C  2.37600 37.83900 27.77000
C  1.71400 37.80000 24.43300
O  1.36400 37.73000 23.24600
C  2.66000 38.84600 24.84400
N  -1.65800 33.49800 24.55800
C  -0.99900 34.26800 23.66800
C  -1.47500 33.91500 22.27600
C  -2.09500 32.51500 22.46900
C  -2.22300 32.41000 23.96200
C  -2.42100 34.92800 21.67900
C  -1.23600 31.27300 21.95000
C  0.22200 31.07100 22.30500
N  -2.32700 31.95400 26.97700
C  -2.94700 31.14800 26.02900
C  -3.75200 30.24500 26.72400
C  -3.68400 30.54300 28.09400
C  -2.73800 31.58000 28.23300
C  -4.77400 29.29400 26.10200
C  -4.19900 30.28800 29.46400
O  -5.00900 29.49600 29.82800
C  -3.34800 31.14800 30.46500
C  -4.33200 31.91400 31.22800
O  -5.07200 32.82300 30.75900
O  -4.29400 31.62700 32.52900
C  -5.23900 32.43400 33.28800
H  1.46500 35.89600 29.43200
H  0.08700 35.82100 23.09500
H  -3.07900 30.52900 23.93400
H  -1.94000 33.49500 31.89900
H  0.98400 34.14100 31.24600
H  -0.66800 36.46600 31.29000
H  0.68600 36.03900 32.32400
H  -0.90500 35.53000 32.87700
H  0.60600 32.17500 32.19100
H  -0.50400 31.10600 31.28000
H  -1.04300 30.47500 33.50800
H  -2.04400 32.00700 33.52000
H  3.44700 37.67300 27.88600
H  2.03600 37.82300 28.80600
H  2.02100 38.80900 27.42200
H  2.94500 39.43000 23.96900
H  3.58800 38.35300 25.13400
H  2.20100 39.52600 25.56200
H  -0.65100 33.81200 21.57100
H  -3.06800 32.47600 21.97800
H  -1.94000 35.83300 21.30700
H  -3.12500 35.18100 22.47300
H  -3.03300 34.49000 20.89100
H  -1.25600 31.44100 20.87300
H  -1.80100 30.36500 22.16300
H  0.47600 31.90200 22.96300
H  0.84100 31.22700 21.42200
H  0.30800 30.13600 22.85900
H  -4.82400 29.33000 25.01300
H  -5.81600 29.48800 26.35300
H  -4.59200 28.29800 26.50600
H  -2.80000 30.44800 31.09600
H  -6.27000 32.08300 33.23500
H  -5.20200 33.49800 33.05400
H  -5.05800 32.34600 34.35900

