158

Mg -2.37400 17.31000 26.63100
C  -2.52700 15.08300 29.15700
C  -2.56600 19.87400 28.81300
C  -2.36900 19.52100 23.86500
C  -2.86200 14.75900 24.26400
N  -2.47500 17.47500 28.75500
C  -2.46000 16.40700 29.62500
C  -2.46800 16.89700 31.15500
C  -2.72300 18.43300 30.93900
C  -2.53400 18.59200 29.38700
C  -4.00000 19.07300 31.56900
C  -1.22700 16.42300 32.02500
C  -0.70500 17.37800 33.11600
H  -0.37500 16.61600 34.40000
N  -2.40200 19.40200 26.41500
C  -2.48200 20.29300 27.44500
C  -2.41000 21.66100 26.89100
C  -2.25900 21.58900 25.50000
C  -2.28800 20.15200 25.18900
C  -2.51000 22.88700 27.76500
C  -1.97300 22.62400 24.47700
O  -1.82300 22.30700 23.29400
C  -1.90200 24.08500 24.83500
N  -2.71900 17.20000 24.30700
C  -2.57700 18.24700 23.48000
C  -2.60400 17.75400 22.00800
C  -2.83800 16.26000 22.12900
C  -2.84500 16.04000 23.64800
C  -3.76600 18.37100 21.08600
C  -1.93100 15.32400 21.22000
C  -2.51400 14.59800 19.96000
N  -2.63400 15.33900 26.66900
C  -2.72400 14.37400 25.66700
C  -2.70900 13.01600 26.32900
C  -2.59900 13.26700 27.64400
C  -2.58200 14.68200 27.80500
C  -2.75700 11.67100 25.76400
C  -2.41200 12.60600 28.98600
O  -2.15400 11.43400 29.33900
C  -2.45600 13.84000 30.02500
C  -1.22800 13.60100 30.83200
O  -0.09500 13.94800 30.63100
O  -1.68000 12.89200 31.88700
C  -0.75000 12.54300 33.02000
H  -2.66700 20.68800 29.53300
H  -2.40900 20.06600 22.91900
H  -3.00300 13.92300 23.57600
H  -3.35800 16.51000 31.65000
H  -1.82800 18.93100 31.31200
H  -4.66600 19.61200 30.89600
H  -3.57000 19.82900 32.22600
H  -4.50100 18.33100 32.19100
H  -0.43600 16.32600 31.28100
H  -1.27500 15.47100 32.55300
H  -1.47800 18.11900 33.31700
H  0.28100 17.75700 32.84500
H  -1.56000 23.37500 27.98300
H  -2.85600 22.55100 28.74300
H  -3.30700 23.57100 27.47200
H  -2.81600 24.39700 25.34100
H  -1.73800 24.70100 23.95100
H  -0.97800 24.21800 25.39800
H  -1.65200 18.06200 21.57700
H  -3.85700 15.96400 21.87800
H  -3.41200 18.47700 20.06100
H  -4.08000 19.33000 21.50000
H  -4.65000 17.73400 21.06500
H  -1.35200 14.63500 21.83400
H  -1.24400 16.03600 20.76400
H  -2.12600 13.58500 19.84900
H  -2.27800 15.24300 19.11400
H  -3.60200 14.57100 19.90400
H  -1.78300 11.18100 25.77100
H  -3.26700 11.75100 24.80400
H  -3.37200 11.04500 26.41000
H  -3.36900 13.72700 30.60900
H  0.01800 11.82100 32.74200
H  -1.18800 11.94100 33.81700
H  -0.21800 13.44100 33.33500
Mg 30.51400 58.49300 39.82200
C  27.78800 56.30200 39.10400
C  32.66600 55.72800 39.11800
C  32.95100 60.61800 39.90200
C  28.16700 61.17800 39.68400
N  30.26700 56.27900 39.19500
C  29.01500 55.66000 39.12600
C  29.27100 54.30400 38.49100
C  30.76500 54.00100 38.98900
C  31.30300 55.40300 39.07400
C  30.86200 53.12600 40.21100
C  29.18700 54.31800 36.93900
C  28.39900 53.18800 36.25600
H  27.90900 53.49300 34.79500
N  32.55500 58.16800 39.57000
C  33.27500 57.03800 39.15500
C  34.61000 57.30900 39.03800
C  34.80000 58.67300 39.35500
C  33.40500 59.27500 39.64300
C  35.74900 56.34200 38.73500
C  36.09900 59.49200 39.44700
O  37.15300 58.95700 39.11600
C  36.25900 60.89300 39.79800
N  30.48600 60.61400 39.77500
C  31.67100 61.18700 40.03300
C  31.60100 62.59200 40.15400
C  30.11800 62.87200 39.93900
C  29.54400 61.47500 39.73000
C  32.28400 63.27200 41.44300
C  29.78000 63.86000 38.72200
C  29.63400 63.27900 37.25700
N  28.38700 58.76700 39.57000
C  27.59900 59.93100 39.52800
C  26.24900 59.48200 39.37700
C  26.28000 58.13000 39.06400
C  27.59300 57.69300 39.28800
C  25.01300 60.34900 39.36400
C  25.41800 57.00700 38.63500
O  24.19800 56.85000 38.42100
C  26.43700 55.76800 38.60000
C  25.96700 54.55400 39.33600
O  26.10700 54.41500 40.54900
O  25.31700 53.62900 38.53800
C  24.67700 52.41700 39.17900
H  33.30500 54.85100 38.99000
H  33.77600 61.30000 40.11700
H  27.50300 62.02900 39.84700
H  28.66000 53.49700 38.89600
H  31.16600 53.44100 38.14500
H  31.53100 52.33200 39.87900
H  29.91000 52.83500 40.65300
H  31.32800 53.72200 40.99600
H  30.20500 54.16900 36.57900
H  28.86000 55.31500 36.64400
H  27.41800 53.06000 36.71200
H  29.08900 52.34500 36.22400
H  36.15100 56.34000 37.72200
H  35.32500 55.33800 38.77000
H  36.54700 56.38400 39.47500
H  35.89400 61.14800 40.79300
H  35.58100 61.40800 39.11700
H  37.19600 61.32900 39.45200
H  32.18000 62.96300 39.30800
H  29.72100 63.29800 40.86000
H  32.85800 62.70800 42.17900
H  31.49400 63.77300 42.00200
H  32.85100 64.16100 41.16900
H  30.43500 64.72200 38.59600
H  28.83600 64.29600 39.05000
H  28.58100 63.02300 37.13200
H  30.21100 62.35900 37.17300
H  29.84000 64.01900 36.48400
H  24.46700 60.35300 40.30700
H  24.30600 59.98400 38.61900
H  25.23000 61.38800 39.11800
H  26.54600 55.49800 37.55000
H  25.27700 52.04900 40.01100
H  24.58800 51.66500 38.39500
H  23.67900 52.62600 39.56500

