158

Mg 17.44900 -1.75300 27.91900
C  16.36600 0.46900 30.31400
C  19.12800 -3.48000 30.26900
C  18.94500 -3.45400 25.44200
C  16.14200 0.52200 25.40200
N  17.66900 -1.53300 29.95700
C  17.14500 -0.57500 30.82100
C  17.54500 -0.84600 32.25700
C  18.78300 -1.77400 32.13700
C  18.49200 -2.29200 30.67000
C  20.23800 -1.21600 32.44500
C  16.35800 -1.34000 33.19700
C  16.54600 -1.03200 34.77300
H  17.99400 -0.97000 35.23800
N  18.61400 -3.47500 27.91400
C  19.23800 -4.05600 28.99100
C  19.92800 -5.23200 28.51900
C  19.97800 -5.12500 27.08000
C  19.07400 -4.02700 26.73400
C  20.56800 -6.08300 29.48200
C  20.62000 -6.10700 26.08200
O  20.42800 -6.00600 24.91100
C  21.42800 -7.21200 26.65600
N  17.44300 -1.54000 25.77600
C  18.25400 -2.36100 25.00900
C  18.11700 -1.92600 23.47900
C  17.19300 -0.68200 23.52100
C  16.91400 -0.52900 25.00000
C  19.35800 -1.68600 22.74400
C  15.95800 -0.83600 22.59300
C  14.80800 -1.66500 23.20100
N  16.38500 0.02300 27.84000
C  15.84700 0.72100 26.77700
C  15.02400 1.80300 27.32200
C  15.18400 1.65400 28.67900
C  16.06700 0.59600 28.99600
C  14.16100 2.75800 26.47900
C  14.80600 2.25500 29.96800
O  13.93800 3.09200 30.23200
C  15.54000 1.54900 31.10900
C  16.38000 2.65800 31.78900
O  17.56200 2.82400 31.66400
O  15.55000 3.20800 32.79200
C  16.25800 3.97100 33.81000
H  19.80100 -3.88500 31.02800
H  19.59900 -3.85600 24.66500
H  15.84900 1.17700 24.57900
H  17.85100 0.10300 32.69600
H  18.62900 -2.63200 32.79000
H  20.17100 -0.16900 32.74100
H  20.75400 -1.36400 31.49700
H  20.77200 -1.77000 33.21700
H  16.24700 -2.42400 33.15800
H  15.42100 -0.84300 32.94700
H  16.06900 -1.84200 35.32400
H  15.95100 -0.15600 35.02800
H  20.46600 -7.14900 29.27800
H  20.20900 -5.73900 30.45200
H  21.63500 -5.89500 29.36600
H  22.17200 -6.73800 27.29600
H  22.07100 -7.72200 25.93900
H  20.76900 -7.86300 27.23100
H  17.66900 -2.70700 22.86400
H  17.64300 0.26600 23.22700
H  19.44500 -2.28600 21.83800
H  20.18700 -2.00200 23.37800
H  19.56800 -0.63000 22.57500
H  16.17400 -1.31600 21.63800
H  15.63600 0.17500 22.34200
H  13.98400 -1.06700 23.59000
H  15.13200 -2.39400 23.94400
H  14.44100 -2.31700 22.40800
H  14.12800 3.69300 27.03900
H  13.19200 2.26300 26.54500
H  14.53500 2.84300 25.45900
H  14.85200 1.03300 31.77800
H  16.71400 4.88800 33.43700
H  17.02100 3.28500 34.17700
H  15.64900 4.27100 34.66300
Mg 35.76300 1.22100 28.79300
C  33.77800 2.25600 31.50400
C  38.46100 1.24900 30.89000
C  37.68200 0.53200 26.16800
C  32.94000 1.55800 26.69000
N  36.01200 1.66600 30.92500
C  35.09500 1.97300 31.82100
C  35.68400 2.07900 33.21700
C  37.23800 1.99700 32.96400
C  37.25300 1.55800 31.49800
C  38.07900 3.28100 33.23400
C  35.04700 1.02800 34.18200
C  34.75500 1.65500 35.53900
H  35.97800 2.27000 36.27800
N  37.82900 0.88400 28.55000
C  38.72700 0.89200 29.53800
C  39.97700 0.57400 29.00400
C  39.79400 0.21900 27.63800
C  38.38800 0.59300 27.38100
C  41.27600 0.43300 29.86700
C  40.71700 -0.38600 26.54900
O  40.34400 -0.75100 25.44900
C  42.12800 -0.75800 26.96900
N  35.32200 0.90400 26.71900
C  36.35400 0.82500 25.79500
C  35.77100 0.77700 24.29200
C  34.26600 0.99600 24.48300
C  34.19000 1.14400 26.05800
C  36.40000 1.87400 23.34900
C  33.27000 0.00600 24.02100
C  33.54300 -0.73700 22.62800
N  33.80000 1.69000 29.01400
C  32.78000 1.83000 28.07600
C  31.58400 2.39300 28.65800
C  31.93700 2.50800 30.00800
C  33.30600 2.10100 30.17100
C  30.30700 2.64700 27.96300
C  31.37800 2.91500 31.32100
O  30.23800 3.25500 31.66900
C  32.54000 2.76300 32.35100
C  32.80900 4.08200 32.89700
O  33.31600 5.09300 32.28200
O  32.45000 4.10600 34.23400
C  32.66500 5.43700 34.88400
H  39.35700 1.16900 31.51000
H  38.27700 0.33500 25.27300
H  32.08900 1.84500 26.06900
H  35.45700 3.02700 33.70500
H  37.66800 1.15500 33.50600
H  38.67500 3.56800 32.36800
H  38.83700 3.09900 33.99600
H  37.56500 4.18700 33.55400
H  35.70000 0.16800 34.32900
H  34.16900 0.52900 33.77200
H  34.24300 0.96800 36.21300
H  34.07600 2.49100 35.36700
H  41.16400 0.74700 30.90500
H  42.09300 1.04300 29.48300
H  41.57000 -0.61600 29.90000
H  42.74900 -1.23100 26.20800
H  41.91700 -1.47000 27.76700
H  42.56800 0.20000 27.24700
H  35.87200 -0.22700 23.88100
H  34.02600 1.99300 24.11300
H  37.10300 1.33700 22.71300
H  36.92000 2.62700 23.94100
H  35.61400 2.25300 22.69500
H  32.29700 0.49800 24.03000
H  33.18400 -0.78600 24.76400
H  33.71800 -1.81200 22.69100
H  34.46400 -0.32300 22.21700
H  32.76800 -0.52500 21.89200
H  29.85600 1.76300 27.51200
H  30.53600 3.41900 27.22900
H  29.61200 3.12100 28.65600
H  32.15700 2.14700 33.16500
H  32.25300 6.18400 34.20500
H  33.72600 5.49500 35.12400
H  32.09700 5.43800 35.81500

