158

Mg 47.48300 16.80300 28.31300
C  45.25600 16.35700 31.06500
C  49.53600 18.52200 30.22700
C  49.25500 17.49500 25.54100
C  45.34200 14.85800 26.42200
N  47.27200 17.46300 30.39700
C  46.38100 17.08400 31.36500
C  46.91500 17.50800 32.77400
C  48.23400 18.27100 32.41100
C  48.41400 18.12200 30.94600
C  48.15000 19.81300 32.80500
C  47.03900 16.34100 33.85000
C  46.57300 16.53000 35.30500
H  46.23600 17.86900 35.86200
N  49.29300 17.77700 27.93900
C  49.97200 18.43700 28.86800
C  51.09700 19.06000 28.28600
C  51.09100 18.75100 26.87600
C  49.85300 17.99400 26.68900
C  52.09700 19.79900 29.14900
C  52.02600 19.07500 25.85900
O  51.93900 18.68000 24.71400
C  53.25400 19.89000 26.27500
N  47.27800 16.25200 26.28200
C  48.16000 16.60900 25.34900
C  47.68600 16.20900 23.99400
C  46.47800 15.28200 24.22500
C  46.39500 15.36000 25.74100
C  47.29000 17.42800 23.13100
C  46.66400 13.78000 23.70000
C  45.43700 12.99900 23.18700
N  45.67100 15.91900 28.55600
C  44.87400 15.21000 27.70100
C  43.60900 14.76100 28.30400
C  43.76200 15.25700 29.57600
C  44.95000 15.91300 29.70700
C  42.48000 13.92700 27.69900
C  43.07900 15.16800 30.84400
O  42.06900 14.58000 31.18100
C  44.09200 15.84700 31.89500
C  43.22700 16.80600 32.60700
O  42.78800 17.87100 32.19600
O  42.92300 16.32600 33.87200
C  42.04100 17.14100 34.76300
H  50.25100 18.96800 30.92200
H  49.70100 17.76500 24.58200
H  44.50600 14.31300 25.97700
H  46.17500 18.18200 33.20600
H  49.01000 17.71100 32.93300
H  48.65900 20.39800 32.03900
H  48.91400 19.94900 33.57000
H  47.17200 20.19400 33.09800
H  48.07800 16.05600 33.68400
H  46.41900 15.51700 33.49500
H  47.18400 16.07400 36.08400
H  45.68300 15.90200 35.30600
H  52.29000 19.26500 30.07900
H  51.78800 20.81800 29.38600
H  53.10400 19.66500 28.75400
H  53.57300 20.38300 25.35700
H  54.04400 19.29100 26.72700
H  52.90100 20.75400 26.83900
H  48.46500 15.63600 23.49200
H  45.54000 15.70800 23.86800
H  47.04100 18.29100 23.74700
H  46.43900 17.17800 22.49700
H  48.09700 17.54900 22.40800
H  47.04400 13.07900 24.44300
H  47.36000 13.78200 22.86100
H  45.66600 12.72300 22.15800
H  44.54100 13.61900 23.20700
H  45.24200 12.08600 23.75000
H  42.82400 13.40800 26.80500
H  41.61000 14.49600 27.37300
H  42.04700 13.26600 28.45000
H  44.54900 15.22600 32.66600
H  41.08400 16.69400 35.03300
H  41.88600 18.14000 34.35600
H  42.58300 17.24400 35.70200
Mg 42.64200 41.07900 26.06900
C  41.63300 43.50300 28.54800
C  43.54100 39.09400 28.73500
C  43.53400 39.02800 23.84500
C  41.78300 43.62700 23.57200
N  42.51800 41.26800 28.38300
C  42.01200 42.30600 29.16000
C  42.05200 42.00200 30.67600
C  42.87600 40.64500 30.65100
C  42.99300 40.31600 29.17700
C  44.18100 40.60400 31.43400
C  40.67500 41.93100 31.31800
C  40.75000 41.53900 32.84200
H  40.22500 42.56900 33.80300
N  43.52500 39.28600 26.21800
C  43.70800 38.62800 27.38800
C  44.23300 37.28800 26.95300
C  44.18600 37.25800 25.53200
C  43.79700 38.56300 25.11900
C  44.68400 36.18900 27.97400
C  44.52300 36.16500 24.56200
O  44.42300 36.24900 23.28400
C  44.94300 34.85200 25.12000
N  42.90700 41.39400 23.96200
C  43.09300 40.24500 23.25200
C  42.93100 40.51200 21.73700
C  42.15800 41.93100 21.77000
C  42.15900 42.33800 23.22800
C  44.23100 40.58300 20.80300
C  40.67900 41.78700 21.22900
C  39.79700 40.67000 21.79600
N  41.96300 43.17100 25.99400
C  41.68800 44.03200 24.95800
C  41.22100 45.30300 25.47900
C  41.14400 45.12500 26.86900
C  41.61700 43.80700 27.12300
C  40.88600 46.53400 24.61500
C  40.74500 45.79900 28.14000
O  40.28300 46.91500 28.32300
C  41.02800 44.71800 29.27100
C  41.79100 45.38000 30.38000
O  43.03100 45.56200 30.40700
O  40.93000 45.80200 31.32100
C  41.50400 46.29900 32.61200
H  44.01900 38.43900 29.46600
H  43.67100 38.37800 22.97900
H  41.45200 44.29000 22.77000
H  42.62400 42.72700 31.25500
H  42.16600 39.94500 31.09100
H  44.24400 41.39100 32.18500
H  45.11500 40.68400 30.87900
H  44.16200 39.69800 32.04100
H  39.92100 41.36000 30.77700
H  40.25300 42.93600 31.31000
H  41.78600 41.29500 33.07700
H  40.03800 40.72300 32.96200
H  44.46500 36.42500 29.01500
H  45.76000 36.01900 27.94600
H  44.27700 35.21100 27.71700
H  44.12000 34.21000 25.43600
H  45.69000 34.94200 25.90800
H  45.47900 34.45100 24.26000
H  42.20400 39.75300 21.44800
H  42.71000 42.68800 21.21200
H  43.90500 40.18100 19.84300
H  45.01300 39.86500 21.05100
H  44.65200 41.57900 20.66400
H  40.77400 41.56100 20.16700
H  40.27600 42.79100 21.36200
H  39.48000 39.95000 21.04200
H  38.89900 40.99200 22.32400
H  40.39300 40.12100 22.52500
H  41.82600 46.95700 24.26100
H  40.33500 47.25700 25.21700
H  40.20700 46.23700 23.81600
H  40.12200 44.36800 29.76700
H  42.26800 47.05700 32.43800
H  41.85100 45.52000 33.29000
H  40.71500 46.85200 33.12100

