158

Mg 8.04300 2.40000 27.81400
C  9.94200 0.92000 30.52600
C  6.32900 4.20600 30.07500
C  6.43700 3.57800 25.20300
C  9.56200 -0.10000 25.78200
N  8.18800 2.44500 30.06600
C  9.10300 1.92800 30.97400
C  8.99400 2.58500 32.36700
C  7.64700 3.43800 32.14600
C  7.32800 3.38900 30.67200
C  6.48000 3.00400 32.97200
C  10.29200 3.32900 32.73000
C  10.97200 2.82700 34.03600
H  11.03000 3.81100 35.19300
N  6.58500 3.74600 27.65400
C  6.03100 4.43800 28.69700
C  5.03900 5.35300 28.09100
C  5.08700 5.21400 26.71200
C  6.04700 4.19900 26.45200
C  4.23900 6.28500 29.03900
C  4.38000 5.99100 25.60800
O  4.38700 5.67300 24.38400
C  3.68800 7.29300 25.99600
N  8.04700 1.84500 25.82600
C  7.20400 2.43200 24.89700
C  7.47700 1.93900 23.46000
C  8.61100 0.94600 23.72500
C  8.72600 0.85800 25.21200
C  6.17200 1.29100 22.80600
C  9.99600 1.23300 23.08100
C  10.89800 0.10500 22.57600
N  9.44700 0.66400 28.04300
C  9.91100 -0.16000 27.13600
C  10.84400 -0.98500 27.74300
C  10.93400 -0.63900 29.07300
C  9.98900 0.38800 29.24600
C  11.54200 -2.09700 27.01200
C  11.59100 -0.96200 30.42900
O  12.40000 -1.76400 30.77000
C  10.88700 0.10400 31.35400
C  10.23400 -0.55500 32.53600
O  9.13300 -1.02000 32.53400
O  11.01200 -0.39700 33.67400
C  10.35500 -0.76000 34.95600
H  5.76200 4.90900 30.68900
H  5.92800 3.91900 24.29900
H  10.18400 -0.69500 25.11100
H  8.90500 1.80300 33.12200
H  7.77100 4.51800 32.22600
H  5.92000 2.28200 32.37800
H  5.84000 3.84900 33.22500
H  6.73100 2.41700 33.85500
H  9.99500 4.37500 32.81200
H  11.05100 3.16100 31.96600
H  11.99900 2.53200 33.82400
H  10.52000 1.90700 34.40700
H  4.31700 6.03600 30.09800
H  3.24900 6.51300 28.64500
H  4.73900 7.24700 28.92500
H  2.80500 7.14300 26.61700
H  3.30100 7.68200 25.05300
H  4.39700 7.98300 26.45300
H  7.75800 2.78700 22.83500
H  8.32600 0.02100 23.22400
H  5.31900 1.71100 23.33900
H  6.01600 0.21300 22.83100
H  6.21100 1.77300 21.82900
H  10.53000 1.76700 23.86700
H  9.74500 1.91000 22.26400
H  11.76700 -0.07100 23.20900
H  11.35700 0.34600 21.61700
H  10.43400 -0.87300 22.45000
H  12.55100 -2.34700 27.34200
H  11.68400 -1.96900 25.93900
H  10.85200 -2.92700 27.16300
H  11.64400 0.73400 31.82100
H  10.41200 -1.82700 35.17100
H  9.30200 -0.47900 34.91200
H  10.97100 -0.17900 35.64200
Mg 46.79800 25.30200 28.45800
C  47.86100 27.69600 31.05500
C  46.27500 23.16200 31.15500
C  45.93200 23.16500 26.24000
C  48.23300 27.56000 26.18100
N  46.91200 25.49200 30.78800
C  47.23600 26.57300 31.58500
C  47.03000 26.34400 33.02500
C  46.63700 24.83200 33.09800
C  46.63300 24.43100 31.55900
C  47.61700 23.93600 33.94800
C  46.02000 27.31000 33.72500
C  46.49600 27.79000 35.04600
H  45.48600 27.91300 36.10000
N  46.08400 23.54900 28.65100
C  45.93900 22.75600 29.81200
C  45.14500 21.62600 29.45700
C  44.86800 21.72900 28.01200
C  45.62400 22.85900 27.58400
C  44.75200 20.56600 30.40600
C  44.03200 20.85300 27.14100
O  43.82900 21.10800 25.94800
C  43.19600 19.74200 27.76000
N  47.02600 25.41100 26.42900
C  46.56600 24.41200 25.72900
C  46.89300 24.61400 24.23000
C  47.40000 26.09600 24.20100
C  47.65200 26.37500 25.68100
C  47.93800 23.50400 23.71900
C  46.37800 27.15500 23.58200
C  46.95600 28.07000 22.48500
N  47.77400 27.19800 28.48600
C  48.35500 27.97100 27.44400
C  48.83500 29.23000 27.99400
C  48.64700 29.11600 29.41100
C  48.05500 27.90200 29.66300
C  49.46700 30.35100 27.19100
C  48.89400 29.81900 30.68300
O  49.28800 30.99200 30.85800
C  48.43600 28.81700 31.77100
C  49.42200 28.49800 32.77600
O  50.18500 27.55100 32.67100
O  49.33900 29.31900 33.90400
C  50.08000 28.94000 35.11600
H  46.07000 22.50300 32.00200
H  45.55700 22.44800 25.50700
H  48.70000 28.17800 25.41200
H  48.01300 26.39000 33.49400
H  45.61600 24.57400 33.37900
H  48.03800 23.21000 33.25300
H  47.11800 23.35100 34.72200
H  48.39300 24.49000 34.47600
H  45.10800 26.73500 33.88500
H  45.76700 28.13000 33.05400
H  47.02200 28.74300 34.99200
H  47.27700 27.09800 35.36100
H  43.66900 20.60500 30.52500
H  44.99400 20.69500 31.46100
H  45.11600 19.62600 29.99100
H  43.90000 18.97100 28.07500
H  42.65200 19.22400 26.97000
H  42.58800 20.02200 28.62000
H  45.92100 24.53600 23.74300
H  48.30700 26.18900 23.60400
H  47.91100 22.73100 24.48800
H  48.93800 23.90400 23.55300
H  47.51600 22.98400 22.85900
H  45.99000 27.82800 24.34700
H  45.55000 26.62000 23.11700
H  47.89100 27.63800 22.12900
H  47.10100 29.05300 22.93300
H  46.25000 28.09600 21.65500
H  49.31400 31.23300 27.81300
H  49.04900 30.47400 26.19100
H  50.55000 30.24600 27.13800
H  47.71400 29.44700 32.29000
H  51.12000 29.26200 35.06200
H  49.96300 27.87700 35.32600
H  49.63000 29.45300 35.96600

