158

Mg 41.54800 41.20100 26.75000
C  40.79400 43.38800 29.47400
C  42.61800 38.90400 29.05000
C  42.65600 39.28800 24.21800
C  40.77300 43.82600 24.55600
N  41.70500 41.13900 29.06700
C  41.16800 42.13900 29.89700
C  41.36900 41.57500 31.37300
C  42.11300 40.15100 31.29700
C  42.17500 40.04100 29.73100
C  43.37900 39.99300 32.03700
C  40.06500 41.59900 32.13000
C  40.20400 41.40400 33.63600
H  39.54600 42.50600 34.52300
N  42.45900 39.31800 26.61400
C  42.81900 38.52900 27.67100
C  43.43400 37.27600 27.14600
C  43.45700 37.34100 25.72400
C  42.80300 38.70900 25.45000
C  43.96100 36.18600 28.07500
C  44.04600 36.32300 24.75000
O  44.04600 36.55300 23.50100
C  44.89100 35.14000 25.17200
N  41.80300 41.58900 24.71700
C  42.14900 40.55900 23.87900
C  41.97400 40.99900 22.46100
C  41.11700 42.31500 22.50000
C  41.23000 42.58300 24.01900
C  43.32000 41.37100 21.61900
C  39.63700 42.27400 22.02000
C  38.81700 41.06400 22.45600
N  40.95000 43.19500 26.93000
C  40.74300 44.21100 25.89000
C  40.44600 45.45800 26.49900
C  40.28500 45.13200 27.91000
C  40.72700 43.76900 28.11600
C  40.13100 46.72900 25.84100
C  39.84100 45.73200 29.22300
O  39.44100 46.86800 29.53000
C  40.14000 44.54600 30.24500
C  41.16200 45.22200 31.13900
O  42.20000 45.65700 30.70200
O  40.80000 45.31700 32.46300
C  41.85400 45.97200 33.38600
H  42.97000 38.19800 29.80600
H  43.08800 38.73900 23.37900
H  40.37700 44.63500 23.93800
H  42.09300 42.27100 31.79600
H  41.43500 39.33200 31.54100
H  43.87500 40.94400 32.23200
H  43.99900 39.36200 31.39900
H  43.28000 39.44900 32.97700
H  39.48500 40.74400 31.78300
H  39.59300 42.58000 32.08400
H  41.27000 41.25000 33.80900
H  39.75000 40.45600 33.92300
H  44.97600 35.90900 27.78900
H  43.35600 35.30400 27.86100
H  43.95300 36.36800 29.14900
H  44.97400 34.39200 24.38400
H  44.33100 34.70400 25.99900
H  45.86700 35.58800 25.35900
H  41.57200 40.18500 21.85600
H  41.56200 43.14600 21.95100
H  44.15400 40.93100 22.16700
H  43.46600 42.44500 21.50400
H  43.35100 41.04500 20.57900
H  39.65300 42.26500 20.93000
H  39.05800 43.15900 22.28300
H  38.63400 40.51200 21.53400
H  37.87600 41.31000 22.94700
H  39.43600 40.40100 23.06200
H  40.31100 46.70600 24.76600
H  40.74200 47.53400 26.24900
H  39.08800 46.96000 26.05700
H  39.22300 44.45000 30.82500
H  42.02100 45.30200 34.22900
H  41.52400 46.94900 33.73900
H  42.81500 46.06300 32.88000
Mg 6.78500 54.20500 41.25400
C  6.37100 50.85200 40.86700
C  10.05600 53.84800 40.29900
C  6.95000 57.59100 40.98700
C  3.23800 54.53100 42.03400
N  7.98400 52.57400 40.35100
C  7.57300 51.24100 40.33700
C  8.65300 50.32600 39.80200
C  9.95900 51.21800 40.00400
C  9.35500 52.66200 40.26000
C  11.03200 50.78500 41.02200
C  8.36500 49.97900 38.30100
C  7.70800 51.07400 37.42300
H  7.24000 50.74200 35.95900
N  8.22900 55.52500 40.79600
C  9.54400 55.20000 40.37900
C  10.30300 56.43300 40.18100
C  9.44300 57.47700 40.32900
C  8.09600 56.85000 40.74200
C  11.81300 56.37600 39.80400
C  9.85600 58.94300 40.21200
O  10.93900 59.29400 39.71700
C  8.94300 59.98800 40.72400
N  5.24100 55.81600 41.51700
C  5.66600 57.14000 41.39500
C  4.49900 58.05400 41.61400
C  3.28800 57.14100 41.90400
C  3.93700 55.74700 41.85600
C  4.95800 59.04100 42.76300
C  2.03600 57.39600 40.94400
C  0.87500 58.29100 41.43400
N  5.15500 52.98700 41.47700
C  3.80500 53.24000 41.82100
C  3.18100 51.99500 42.08700
C  4.12800 51.07000 41.75100
C  5.28100 51.69100 41.36000
C  1.76200 51.75600 42.45900
C  4.31800 49.64400 41.52100
O  3.56600 48.66200 41.70600
C  5.82400 49.51900 41.05800
C  5.62400 48.74200 39.87200
O  5.07100 49.11500 38.82000
O  6.19800 47.54900 39.97300
C  5.87400 46.53100 38.93400
H  11.08500 53.71200 39.95900
H  6.99500 58.67000 40.82500
H  2.20400 54.58000 42.38200
H  8.57200 49.40800 40.38500
H  10.41000 51.40900 39.03100
H  11.43900 51.66000 41.52900
H  11.82900 50.35500 40.41500
H  10.62200 50.05000 41.71500
H  7.77400 49.06300 38.31500
H  9.30300 49.70500 37.81900
H  8.41900 51.90000 37.39200
H  6.82600 51.37900 37.98600
H  12.45500 55.57400 40.16800
H  12.26400 57.35200 39.98000
H  11.81700 56.13600 38.74100
H  8.16000 60.27400 40.02100
H  9.40100 60.96800 40.59200
H  8.70600 59.84500 41.77800
H  4.28700 58.55200 40.66700
H  3.04100 57.30600 42.95300
H  4.92200 60.04200 42.33400
H  5.98700 58.83000 43.05500
H  4.32000 58.87200 43.63100
H  1.50400 56.47000 40.72500
H  2.28400 57.78400 39.95600
H  0.06100 57.61700 41.70200
H  0.63300 59.00000 40.64200
H  1.18800 58.79300 42.34900
H  1.42800 50.89900 41.87500
H  1.10900 52.62700 42.39400
H  1.84300 51.39000 43.48200
H  6.35700 48.87900 41.76100
H  5.82500 45.59400 39.48900
H  6.68900 46.60600 38.21500
H  4.99800 46.71700 38.31200

