158

Mg 2.11600 -1.15400 44.62600
C  5.48400 -0.10200 44.33000
C  1.19100 1.85100 43.19200
C  -0.96500 -2.41000 44.24900
C  3.37900 -4.33700 45.44700
N  3.29300 0.67100 43.77100
C  4.63800 0.89500 43.92400
C  4.98800 2.26800 43.41700
C  3.57700 2.96400 43.25300
C  2.60500 1.82600 43.42900
C  3.31800 4.17800 44.21700
C  5.81500 2.33800 42.04600
C  5.58200 1.23300 40.92200
H  5.03800 1.70100 39.57000
N  0.32500 -0.38300 43.89600
C  0.14700 0.87500 43.42700
C  -1.25300 1.08200 43.11900
C  -1.95000 -0.12000 43.49300
C  -0.90600 -1.04100 43.91500
C  -1.67800 2.33200 42.48500
C  -3.42900 -0.33800 43.28500
O  -4.04400 0.52400 42.68000
C  -4.10000 -1.64800 43.74000
N  1.39700 -3.14500 44.58700
C  0.00600 -3.35200 44.60500
C  -0.35600 -4.80500 44.98400
C  1.02900 -5.30000 45.47100
C  2.04800 -4.21200 45.08300
C  -1.43300 -5.07100 45.96200
C  1.49900 -6.63600 44.86000
C  1.37400 -7.93800 45.72000
N  3.97500 -2.05300 45.01700
C  4.36600 -3.39100 45.28000
C  5.76500 -3.45000 45.52800
C  6.24000 -2.14400 45.24300
C  5.12700 -1.34300 44.82200
C  6.58000 -4.68700 46.00600
C  7.34300 -1.38000 45.23000
O  8.41000 -1.54700 45.82700
C  6.92200 0.04200 44.68900
C  7.17000 1.14700 45.64800
O  6.59000 1.33600 46.69400
O  8.17900 1.99100 45.17600
C  8.40000 3.22700 45.89300
H  0.95400 2.84400 42.80500
H  -1.96500 -2.84900 44.21700
H  3.73300 -5.26600 45.90000
H  5.56400 2.79800 44.17600
H  3.58400 3.29500 42.21400
H  3.11800 5.08000 43.63800
H  4.20900 4.34300 44.82300
H  2.41800 3.99900 44.80400
H  6.82900 2.17800 42.41500
H  5.82600 3.37600 41.71200
H  4.90400 0.48800 41.33800
H  6.42900 0.60400 40.64700
H  -1.13500 2.56700 41.57000
H  -1.39200 3.19100 43.09200
H  -2.73900 2.48700 42.28800
H  -4.00500 -2.54000 43.12100
H  -5.15000 -1.42400 43.92600
H  -3.73700 -1.77100 44.76100
H  -0.44300 -5.43700 44.10100
H  0.98000 -5.24100 46.55800
H  -2.17700 -4.32100 45.69400
H  -1.24600 -5.02100 47.03500
H  -1.95100 -5.97500 45.64300
H  2.57800 -6.65600 44.70900
H  1.08700 -6.90900 43.88900
H  0.50900 -7.77700 46.36400
H  2.31000 -8.07100 46.26200
H  1.25800 -8.83700 45.11400
H  6.35000 -5.56200 45.39900
H  6.33800 -5.00700 47.01900
H  7.64000 -4.43800 45.95900
H  7.52100 0.15900 43.78600
H  9.36800 3.07900 46.37100
H  7.73900 3.58000 46.68500
H  8.44500 3.93300 45.06300
Mg 25.76300 0.53100 29.86600
C  27.65500 0.25300 32.83600
C  22.91400 0.89300 31.84200
C  23.74900 0.64400 27.15500
C  28.47700 -0.32200 27.96400
N  25.37400 0.58900 32.03600
C  26.27900 0.49800 33.08100
C  25.70500 0.76400 34.41100
C  24.18900 0.97400 34.13700
C  24.15700 0.78400 32.60000
C  23.13600 -0.10800 34.74400
C  26.38700 1.90400 35.19000
C  26.70900 1.57900 36.66200
H  26.24700 2.69700 37.60600
N  23.59400 0.73300 29.58200
C  22.60800 0.90400 30.49000
C  21.37400 1.21600 29.91800
C  21.62000 1.10700 28.52400
C  22.99500 0.88700 28.37000
C  20.14400 1.58600 30.69500
C  20.70900 1.04400 27.34800
O  21.01100 0.67900 26.18400
C  19.24400 1.33000 27.59200
N  26.12700 0.13000 27.85500
C  25.11700 0.28100 26.90200
C  25.67200 0.17400 25.44900
C  27.22000 0.08100 25.67200
C  27.31700 -0.03400 27.24000
C  25.00800 -0.99500 24.73700
C  28.08900 1.31000 25.14600
C  27.75200 2.72300 25.69600
N  27.68400 0.12100 30.25800
C  28.63900 -0.30700 29.37800
C  29.87700 -0.62800 30.21100
C  29.48300 -0.30300 31.49700
C  28.20500 0.02200 31.52000
C  31.16500 -1.04600 29.77800
C  29.99900 -0.32400 32.87100
O  31.07300 -0.70200 33.33600
C  28.87600 0.12200 33.82300
C  28.75500 -1.01900 34.74300
O  28.47700 -2.11300 34.39800
O  29.23800 -0.65100 35.95800
C  29.07000 -1.56900 37.09200
H  22.07400 1.16500 32.48500
H  23.30700 1.04600 26.24100
H  29.43400 -0.52000 27.47800
H  25.80800 -0.05800 35.11900
H  23.89500 1.99300 34.38600
H  22.28800 0.37000 35.23300
H  23.65800 -0.59500 35.56700
H  22.66400 -0.88400 34.14000
H  25.74000 2.77900 35.12100
H  27.25600 2.32100 34.68200
H  27.79300 1.59200 36.77500
H  26.35400 0.59600 36.96900
H  19.95900 2.64200 30.49600
H  20.18500 1.54700 31.78400
H  19.24600 1.04400 30.39900
H  19.21900 2.20600 28.24000
H  18.82600 0.49000 28.14700
H  18.65100 1.61600 26.72300
H  25.33700 1.14800 25.09200
H  27.65600 -0.82300 25.24700
H  24.58900 -1.67600 25.47800
H  25.81600 -1.48800 24.19600
H  24.27900 -0.75600 23.96300
H  27.95100 1.44900 24.07300
H  29.12800 0.98300 25.19100
H  28.52300 3.25500 26.25400
H  26.95500 2.71700 26.44000
H  27.47400 3.30100 24.81400
H  31.28500 -1.26900 28.71800
H  31.43300 -2.03600 30.14600
H  31.90900 -0.29600 30.04400
H  29.06800 1.01900 34.41200
H  28.21100 -1.27800 37.69500
H  30.00100 -1.61200 37.65700
H  28.84700 -2.59200 36.78600

