158

Mg 44.09500 4.81900 46.48800
C  41.88100 7.55800 46.10000
C  41.52200 2.69400 46.09600
C  46.35000 2.26700 46.18800
C  46.70600 7.11300 46.20000
N  41.92100 5.09800 45.89800
C  41.24100 6.27500 45.95500
C  39.73300 6.06100 45.86300
C  39.61100 4.48500 45.95200
C  41.11400 4.03600 46.04100
C  38.64900 3.96100 47.08100
C  39.02700 6.76000 44.66600
C  39.83500 6.78500 43.41400
H  39.10400 7.25000 42.12200
N  43.90100 2.65800 46.34700
C  42.72400 2.07300 46.14200
C  42.92400 0.60200 45.97400
C  44.38800 0.50900 45.85600
C  44.94400 1.84200 46.10600
C  41.85500 -0.48100 45.71500
C  45.17300 -0.75900 45.46300
O  44.52600 -1.81100 45.37500
C  46.65300 -0.79000 45.23500
N  46.25800 4.63200 46.30500
C  46.93600 3.51800 46.23800
C  48.44900 3.66300 46.12000
C  48.51400 5.24300 46.09200
C  47.09100 5.71400 46.23800
C  49.24900 3.04200 47.32600
C  49.08800 5.72800 44.72000
C  50.59500 5.49800 44.61100
N  44.27300 6.89400 46.26400
C  45.41600 7.71800 46.20900
C  45.00200 9.11600 45.98700
C  43.63200 9.05900 46.16200
C  43.21400 7.75100 46.20900
C  45.88400 10.31300 45.79700
C  42.45500 9.93300 46.26000
O  42.40600 11.15200 46.32600
C  41.20600 8.95000 46.10300
C  40.22900 9.14300 47.25300
O  40.22100 8.50200 48.32100
O  39.32800 10.13000 46.92900
C  38.49200 10.66500 47.97200
H  40.70000 2.01800 45.85200
H  46.97300 1.37100 46.21200
H  47.59100 7.71600 45.98600
H  39.44700 6.55700 46.79000
H  39.25600 4.08900 45.00100
H  39.32800 3.38400 47.70900
H  37.85600 3.37600 46.61500
H  38.22100 4.81300 47.60900
H  39.08100 7.82700 44.88300
H  38.00300 6.46500 44.43500
H  40.20300 5.79500 43.14500
H  40.73000 7.39200 43.55200
H  41.93100 -1.36800 46.34300
H  41.97200 -0.82200 44.68600
H  40.86600 -0.05900 45.89600
H  47.21500 -0.79700 46.16900
H  46.75300 0.04900 44.54700
H  46.88900 -1.72100 44.72000
H  48.74000 3.29300 45.13700
H  49.14200 5.50900 46.94300
H  48.63200 3.10700 48.22200
H  50.24800 3.46600 47.43400
H  49.36400 1.97500 47.13400
H  48.97300 6.80600 44.60800
H  48.66800 5.15300 43.89500
H  51.00700 5.00800 45.49300
H  51.03600 6.49000 44.51100
H  50.83200 4.99100 43.67600
H  46.01100 10.48700 44.72800
H  46.80200 10.09200 46.34200
H  45.38800 11.21100 46.16300
H  40.75500 9.21100 45.14500
H  38.81800 11.59100 48.44700
H  38.48100 9.99500 48.83200
H  37.51500 10.74400 47.49500
Mg -11.81100 17.07900 43.00600
C  -9.04000 15.00500 42.40900
C  -9.90400 19.76600 42.02200
C  -14.70400 18.71700 42.47300
C  -13.61500 14.06600 43.72900
N  -9.78300 17.27200 42.19700
C  -8.78000 16.34300 42.10800
C  -7.46600 16.96900 41.64700
C  -7.74100 18.47000 42.16900
C  -9.25700 18.56300 42.17200
C  -7.15000 18.88600 43.52600
C  -7.15300 16.96100 40.13900
C  -5.65600 16.84400 39.72800
H  -5.27300 15.58100 38.98900
N  -12.26800 18.97300 42.24400
C  -11.29000 19.94600 41.89500
C  -12.00400 21.12100 41.58300
C  -13.42000 20.88200 41.67900
C  -13.54500 19.48000 42.24100
C  -11.17300 22.34600 41.14000
C  -14.48500 22.00300 41.43000
O  -14.20400 23.12300 41.00300
C  -15.95000 21.80200 41.88700
N  -13.85200 16.45800 43.03000
C  -14.85400 17.40100 42.92900
C  -16.20800 16.79000 43.19600
C  -15.76800 15.36300 43.75300
C  -14.29100 15.26400 43.56100
C  -17.24300 17.50500 44.06800
C  -16.56200 14.23500 42.89600
C  -17.77800 13.73000 43.74000
N  -11.48300 14.96200 43.20100
C  -12.28800 13.89100 43.51600
C  -11.51500 12.67700 43.56600
C  -10.18200 13.06400 43.19600
C  -10.26900 14.43900 42.89600
C  -12.12300 11.36800 43.75800
C  -8.88500 12.54500 42.96200
O  -8.44400 11.41300 42.96000
C  -8.16600 13.77400 42.22900
C  -6.89600 13.92500 42.98300
O  -6.87000 14.26900 44.13100
O  -5.74600 13.60200 42.25600
C  -4.58900 14.19600 42.87300
H  -9.34300 20.69700 41.92300
H  -15.61200 19.29400 42.28400
H  -14.24500 13.18100 43.83800
H  -6.65600 16.64600 42.30000
H  -7.35100 19.12300 41.38900
H  -7.03100 18.01700 44.17300
H  -7.72700 19.63100 44.07300
H  -6.11800 19.23100 43.45600
H  -7.57800 17.76700 39.54200
H  -7.68600 16.07400 39.79500
H  -5.08000 16.68900 40.64100
H  -5.27300 17.72700 39.21600
H  -11.64000 23.32300 41.26500
H  -10.73900 22.12300 40.16600
H  -10.35200 22.39700 41.85600
H  -16.02000 21.45000 42.91700
H  -16.54600 21.21700 41.18700
H  -16.50600 22.71100 42.11700
H  -16.68700 16.66500 42.22500
H  -15.82900 15.25800 44.83700
H  -17.46300 16.80200 44.87100
H  -18.14700 17.76600 43.51600
H  -16.86800 18.49100 44.34000
H  -15.95100 13.40600 42.53900
H  -16.94900 14.57200 41.93400
H  -17.71900 12.68300 44.03600
H  -18.70100 13.79800 43.16500
H  -17.91600 14.30100 44.65800
H  -12.52300 10.95800 42.83100
H  -12.92400 11.32300 44.49600
H  -11.29600 10.72700 44.06500
H  -7.97500 13.43700 41.21000
H  -4.23000 13.46100 43.59400
H  -4.69300 15.16600 43.35900
H  -3.81400 14.31500 42.11500

