158

Mg -0.09100 7.02500 26.55200
C  0.81100 9.19000 29.24600
C  -0.24100 4.39900 28.83700
C  -0.72200 5.01000 24.13800
C  0.22600 9.78200 24.40800
N  0.03200 6.87800 28.77100
C  0.52500 7.84400 29.63000
C  0.79000 7.29700 31.05100
C  0.49200 5.78000 30.89800
C  0.07700 5.62700 29.40200
C  1.69300 4.86200 31.31500
C  0.04600 7.93600 32.22800
C  0.73200 8.04300 33.66500
H  1.96200 7.20800 33.99900
N  -0.56000 4.97800 26.50700
C  -0.57400 4.08300 27.50200
C  -0.98700 2.79600 27.03700
C  -1.11900 2.89600 25.66000
C  -0.81300 4.33200 25.35400
C  -1.26100 1.65400 27.95200
C  -1.34100 1.79600 24.61300
O  -1.27200 2.03500 23.39300
C  -1.57700 0.38400 24.98200
N  -0.26400 7.33300 24.54600
C  -0.39600 6.30800 23.70900
C  -0.60600 6.78000 22.21600
C  -0.24300 8.32400 22.32000
C  -0.12300 8.49800 23.91500
C  0.25400 5.98700 21.17000
C  -1.28000 9.20900 21.63500
C  -2.49900 9.78000 22.33200
N  0.48500 9.10000 26.73300
C  0.47800 10.07900 25.77000
C  0.80100 11.36000 26.39300
C  0.96200 11.05200 27.75300
C  0.73100 9.67600 27.90900
C  0.95000 12.67500 25.75500
C  1.37300 11.62700 28.96900
O  1.80300 12.76900 29.20600
C  1.10600 10.44100 30.04500
C  2.21800 10.27600 30.96800
O  3.24600 9.69900 30.81700
O  1.94100 11.08600 32.03200
C  2.91100 11.08400 33.08000
H  -0.20000 3.61300 29.59400
H  -0.97700 4.28500 23.36200
H  0.46600 10.60400 23.73100
H  1.86700 7.37300 31.20000
H  -0.46700 5.57300 31.37300
H  2.47900 5.38100 31.86400
H  2.16300 4.24800 30.54700
H  1.41500 4.23000 32.15800
H  -0.86600 7.36000 32.38200
H  -0.21200 8.94200 31.89700
H  0.00100 7.97800 34.47100
H  1.02900 9.09100 33.62700
H  -0.32800 1.11200 28.10800
H  -1.95700 1.04700 27.37300
H  -1.78700 1.94000 28.86300
H  -2.39600 0.36300 25.70100
H  -0.62300 0.19600 25.47500
H  -1.73700 -0.30300 24.15100
H  -1.64200 6.65900 21.89800
H  0.74500 8.59900 21.95000
H  0.98000 6.64500 20.69200
H  -0.35200 5.61800 20.34200
H  0.89200 5.25800 21.66800
H  -1.51800 8.56100 20.79200
H  -0.73400 10.06300 21.23400
H  -3.40000 9.54600 21.76600
H  -2.43800 10.84100 22.57300
H  -2.62100 9.25000 23.27700
H  1.78200 12.71100 25.05100
H  1.13300 13.38500 26.56200
H  0.08000 12.84100 25.11900
H  0.27800 10.78500 30.66500
H  2.30700 11.34400 33.95000
H  3.68900 11.83600 32.94700
H  3.28500 10.08500 33.30500
Mg 49.78800 45.81600 42.80600
C  46.35600 45.89100 42.45100
C  49.73800 42.29800 42.15700
C  53.14400 45.87200 42.16500
C  49.77000 49.38400 42.90400
N  48.20900 44.32000 42.27100
C  46.87500 44.60800 42.17000
C  46.06700 43.34400 41.84200
C  47.14400 42.26100 41.96400
C  48.49100 42.96600 42.09900
C  46.85500 41.14400 42.97800
C  45.34900 43.36000 40.51200
C  46.18900 43.81900 39.26400
H  45.99700 43.04400 37.98200
N  51.24300 44.28500 42.46200
C  51.02000 42.89200 42.30700
C  52.28000 42.25200 42.38800
C  53.30600 43.22100 42.21700
C  52.59300 44.54800 42.23200
C  52.30800 40.74200 42.36500
C  54.80000 42.88200 41.90200
O  55.14400 41.71600 41.86500
C  55.77500 43.98400 41.85000
N  51.20500 47.41900 42.41800
C  52.49400 47.15500 42.29000
C  53.40600 48.43000 42.27500
C  52.31400 49.52200 42.42100
C  51.00900 48.73400 42.59900
C  54.54300 48.38400 43.30700
C  52.17000 50.50600 41.20000
C  52.05000 52.02500 41.36200
N  48.34800 47.30900 42.79100
C  48.51900 48.71100 42.94900
C  47.14400 49.25200 43.13000
C  46.30800 48.17700 42.83000
C  47.06300 47.07500 42.70100
C  46.70900 50.61100 43.58200
C  44.92300 47.76800 42.53100
O  43.91200 48.45700 42.52600
C  44.97100 46.27300 42.17900
C  43.99800 45.56400 43.00100
O  42.98100 45.04500 42.57500
O  44.33000 45.51100 44.32600
C  43.32000 44.82000 45.20300
H  49.70700 41.21000 42.06000
H  54.22200 45.85400 41.99200
H  49.67100 50.47100 42.94400
H  45.32300 43.20200 42.62600
H  47.12200 41.78300 40.98500
H  47.66400 41.12700 43.70800
H  46.89800 40.19700 42.44000
H  45.97400 41.32800 43.59300
H  44.50100 44.04000 40.59600
H  44.93200 42.36800 40.33900
H  47.25200 43.86700 39.49900
H  45.90900 44.84700 39.03500
H  53.28700 40.31300 42.58200
H  52.06700 40.26300 41.41600
H  51.59900 40.27200 43.04600
H  55.59100 44.57900 42.74500
H  55.57800 44.51900 40.92100
H  56.76500 43.52900 41.88500
H  53.78200 48.35900 41.25500
H  52.43800 50.10300 43.33400
H  54.62700 49.26700 43.94200
H  55.50900 48.01800 42.96100
H  54.22300 47.55000 43.93100
H  51.27500 50.23700 40.63900
H  53.03200 50.32700 40.55700
H  52.91300 52.59400 41.01500
H  52.02600 52.30200 42.41600
H  51.10000 52.33500 40.92600
H  46.50600 51.17800 42.67300
H  47.46200 51.07700 44.21800
H  45.71600 50.56900 44.02900
H  44.83700 46.20800 41.09900
H  43.27700 45.12900 46.24800
H  43.76900 43.82700 45.16600
H  42.29200 44.80500 44.84200

