158

Mg 48.02300 36.12800 28.31500
C  46.03800 34.73400 30.84800
C  48.79500 38.69700 30.56100
C  49.79800 37.61100 25.95000
C  47.25000 33.36600 26.30600
N  47.54200 36.55900 30.54500
C  46.70600 35.82200 31.36700
C  46.73500 36.33300 32.84400
C  47.26200 37.79100 32.57500
C  47.95900 37.70400 31.19500
C  46.07000 38.78600 32.45100
C  47.67400 35.48900 33.83900
C  48.85600 36.06500 34.71400
H  48.50400 36.64200 36.04000
N  49.08000 37.92400 28.26400
C  49.28200 38.83500 29.29600
C  50.09000 39.90500 28.76900
C  50.39100 39.58800 27.47800
C  49.77300 38.32200 27.19500
C  50.67700 41.09200 29.67800
C  51.25600 40.43200 26.51200
O  51.73700 39.96200 25.51300
C  51.63300 41.80900 26.84700
N  48.39700 35.64300 26.36200
C  49.28500 36.34900 25.57900
C  49.43200 35.70400 24.18700
C  48.89000 34.28200 24.38800
C  48.20400 34.33800 25.79600
C  48.84100 36.61800 23.08300
C  49.93200 33.14600 24.38300
C  50.81700 32.95000 23.21800
N  46.74400 34.49600 28.39200
C  46.61200 33.39100 27.57300
C  45.72600 32.38500 28.13200
C  45.41500 32.89600 29.39200
C  46.10800 34.12600 29.52500
C  45.33600 31.07000 27.45300
C  44.72800 32.61100 30.66900
O  44.04100 31.65900 30.98300
C  45.02400 33.86800 31.56200
C  45.20300 33.49100 32.91600
O  46.00600 32.74600 33.35300
O  44.26200 34.07500 33.69500
C  44.05200 33.65900 35.12000
H  49.00200 39.48900 31.28400
H  50.45700 38.04000 25.19200
H  47.31200 32.42800 25.75100
H  45.71000 36.37600 33.21400
H  47.97700 38.07800 33.34700
H  45.91600 39.34600 33.37300
H  45.15200 38.23900 32.23500
H  46.39600 39.55200 31.74700
H  47.95400 34.61400 33.25300
H  46.91400 35.21500 34.57200
H  49.35500 36.86700 34.17100
H  49.59700 35.26800 34.76900
H  51.75900 41.22400 29.64700
H  50.52000 40.93300 30.74500
H  50.21400 42.03100 29.37500
H  50.72500 42.26700 27.23900
H  51.95500 42.35000 25.95700
H  52.45200 41.76000 27.56400
H  50.51000 35.58300 24.07600
H  48.10400 34.01000 23.68300
H  48.07000 36.04700 22.56600
H  49.66700 36.87200 22.41800
H  48.43800 37.50700 23.56800
H  49.43000 32.19300 24.55400
H  50.48500 33.34600 25.30100
H  51.84700 32.95500 23.57300
H  50.87400 33.79600 22.53300
H  50.72300 31.97500 22.73900
H  44.34300 31.07600 27.00300
H  45.64100 30.23600 28.08600
H  46.06700 30.98900 26.64900
H  44.08700 34.40700 31.41900
H  43.47800 32.73400 35.18100
H  43.42700 34.39600 35.62400
H  44.97500 33.57100 35.69300
Mg -11.70000 16.29000 41.91600
C  -9.00300 14.11400 41.30100
C  -10.23800 18.64600 39.91500
C  -14.54800 17.97800 41.79300
C  -13.61100 13.37600 42.73700
N  -9.82000 16.37800 40.80000
C  -8.84900 15.45000 40.75200
C  -7.56800 15.88700 39.89400
C  -7.94600 17.38700 39.58700
C  -9.47000 17.46400 40.07900
C  -6.92900 18.39600 40.18900
C  -7.27700 15.03600 38.62900
C  -5.77400 14.92700 38.45900
H  -5.32200 15.77800 37.25400
N  -12.16500 18.12200 41.26500
C  -11.41000 18.98700 40.48200
C  -12.10800 20.19800 40.19900
C  -13.34700 20.04200 40.93600
C  -13.41700 18.68400 41.46200
C  -11.70400 21.33900 39.21500
C  -14.49300 21.03900 41.08800
O  -14.34200 22.11400 40.53900
C  -15.67600 20.95200 42.03000
N  -13.84200 15.76300 42.14000
C  -14.77300 16.65600 42.15400
C  -16.16000 16.08400 42.30800
C  -15.90200 14.60500 42.54300
C  -14.39900 14.51200 42.48100
C  -17.09300 16.88500 43.33600
C  -16.56700 13.59200 41.54600
C  -18.11800 13.56000 41.49000
N  -11.38200 14.23200 42.08400
C  -12.24400 13.16100 42.47400
C  -11.53200 11.89700 42.66800
C  -10.22000 12.23200 42.19500
C  -10.25500 13.61900 41.78200
C  -12.01000 10.49000 43.08000
C  -8.86400 11.73100 41.90900
O  -8.34200 10.60400 41.83900
C  -8.04800 12.95300 41.37600
C  -6.85900 13.34800 42.23800
O  -6.86700 13.42900 43.45800
O  -5.79300 13.58500 41.35900
C  -4.54600 13.73700 42.13300
H  -9.65500 19.27000 39.23600
H  -15.53200 18.45300 41.78200
H  -14.10700 12.47200 43.09700
H  -6.77300 15.88500 40.63900
H  -7.95700 17.49500 38.50200
H  -7.58700 19.00200 40.81100
H  -6.47900 18.91000 39.34000
H  -6.15100 17.92400 40.79000
H  -7.73800 15.62800 37.83800
H  -7.67800 14.02300 38.65100
H  -5.42300 13.91700 38.24900
H  -5.29900 15.27800 39.37500
H  -12.47700 21.51200 38.46600
H  -10.70800 21.15100 38.81600
H  -11.71700 22.18500 39.90200
H  -16.04700 21.96300 42.19800
H  -15.27700 20.54500 42.95900
H  -16.46400 20.31100 41.63500
H  -16.68200 16.22700 41.36200
H  -16.30800 14.33000 43.51700
H  -17.52800 16.11300 43.97200
H  -17.94200 17.33500 42.82300
H  -16.50300 17.56900 43.94600
H  -16.37500 12.59300 41.93600
H  -16.06600 13.61700 40.57800
H  -18.42500 14.31100 42.21700
H  -18.62200 12.60800 41.66200
H  -18.33100 13.86200 40.46400
H  -12.03800 9.78700 42.24800
H  -12.99100 10.44800 43.55400
H  -11.28300 10.04200 43.75800
H  -7.65600 12.60400 40.42000
H  -4.43200 14.56700 42.83000
H  -3.82300 13.86300 41.32800
H  -4.38000 12.83800 42.72800

