158

Mg -3.33400 16.94900 26.52800
C  -3.57700 14.83900 29.32000
C  -3.85200 19.66200 28.63300
C  -3.03000 18.94400 23.92000
C  -3.52400 14.22800 24.52200
N  -3.79000 17.17300 28.72300
C  -3.67300 16.18700 29.73800
C  -3.73700 16.73400 31.10200
C  -3.96300 18.27500 30.90100
C  -3.90900 18.43600 29.32400
C  -5.26100 18.87700 31.49300
C  -2.57500 16.35900 32.16200
C  -2.35900 17.18900 33.39800
H  -1.73100 16.54500 34.59400
N  -3.42000 18.96400 26.31100
C  -3.50200 19.90300 27.31700
C  -3.41400 21.21800 26.72300
C  -2.96900 21.04800 25.39200
C  -3.16200 19.60700 25.13400
C  -3.63000 22.48700 27.54200
C  -2.40400 22.04200 24.43400
O  -2.09700 21.77800 23.26900
C  -2.02000 23.28700 24.84700
N  -3.32900 16.61300 24.54100
C  -3.06300 17.62800 23.65200
C  -3.13000 17.04500 22.22700
C  -2.98000 15.55100 22.41500
C  -3.28100 15.40200 23.89000
C  -4.36400 17.42800 21.39300
C  -1.63800 14.88300 22.00500
C  -0.45900 15.40600 22.92100
N  -3.60300 14.90300 26.75600
C  -3.55300 13.89500 25.89000
C  -3.75100 12.61100 26.55200
C  -3.68300 12.96900 27.86300
C  -3.61800 14.33500 27.98900
C  -3.89500 11.25400 25.87100
C  -3.74100 12.32400 29.11400
O  -3.77900 11.16100 29.38100
C  -3.65200 13.56500 30.17600
C  -2.42000 13.26900 30.97200
O  -1.26600 13.43100 30.64600
O  -2.87300 12.86700 32.21200
C  -1.68900 12.54600 33.03300
H  -3.91300 20.50700 29.32200
H  -2.92200 19.56000 23.02500
H  -3.45200 13.31900 23.92000
H  -4.64200 16.41800 31.62000
H  -3.13300 18.85800 31.30100
H  -5.52600 18.28400 32.36800
H  -6.10000 19.01300 30.81000
H  -5.00700 19.86400 31.88100
H  -1.65900 16.17400 31.60000
H  -2.96500 15.38000 32.43900
H  -3.25300 17.74500 33.68100
H  -1.66900 17.94000 33.01400
H  -4.38300 22.33400 28.31500
H  -3.96600 23.33900 26.95100
H  -2.71200 22.77100 28.05800
H  -1.64600 23.21800 25.86900
H  -2.91200 23.91100 24.89900
H  -1.26100 23.79600 24.25300
H  -2.25200 17.38200 21.67500
H  -3.85000 15.13700 21.90500
H  -4.62700 18.43300 21.72500
H  -5.24100 16.78800 21.49500
H  -4.13100 17.32500 20.33400
H  -1.29300 15.20100 21.02100
H  -1.78200 13.80500 22.09000
H  -0.05500 14.50200 23.37700
H  -0.80200 16.09700 23.69100
H  0.37100 15.81800 22.34600
H  -3.64900 10.47100 26.58800
H  -3.20300 11.27100 25.02900
H  -4.88100 10.93200 25.53700
H  -4.55600 13.55700 30.78400
H  -1.95300 12.80200 34.05800
H  -0.73900 13.04900 32.85200
H  -1.57800 11.46200 33.01300
Mg 10.45100 46.87200 25.29500
C  8.24500 47.07600 27.95700
C  12.75900 48.54900 27.19000
C  12.56600 46.57900 22.73200
C  7.70100 46.19500 23.08700
N  10.49000 47.63800 27.33000
C  9.53300 47.56600 28.28300
C  10.10300 48.18200 29.61500
C  11.30100 49.12500 29.15700
C  11.48000 48.42700 27.80800
C  10.92600 50.64000 29.15400
C  10.47400 47.06700 30.67100
C  9.74400 47.18100 32.03900
H  9.74300 45.99700 32.94800
N  12.50500 47.40300 25.00700
C  13.26100 48.05400 25.98800
C  14.59500 47.96400 25.50000
C  14.60900 47.33600 24.19900
C  13.17500 46.97800 23.98800
C  15.76200 48.49700 26.26600
C  15.66500 47.10700 23.30100
O  15.46700 46.60300 22.22300
C  17.07900 47.43300 23.65400
N  10.09000 46.61700 23.10900
C  11.19800 46.47900 22.31400
C  10.79600 46.04000 20.93900
C  9.25600 45.72100 21.02700
C  8.97600 46.18200 22.48800
C  11.21000 46.97500 19.79800
C  8.90000 44.26100 20.62300
C  8.81800 43.31100 21.84100
N  8.38800 46.65700 25.42700
C  7.40900 46.44200 24.45000
C  6.10900 46.55900 25.06800
C  6.39800 46.68600 26.44800
C  7.76900 46.79000 26.65000
C  4.72600 46.46500 24.36600
C  5.80200 46.77100 27.83200
O  4.58900 46.71100 28.08800
C  6.96600 47.03500 28.84500
C  7.06300 45.89100 29.76000
O  7.78600 44.95700 29.67000
O  6.22800 46.12900 30.82900
C  6.22300 45.13400 31.94400
H  13.42200 49.10600 27.85500
H  13.18500 46.39900 21.85000
H  6.87900 45.92800 22.41900
H  9.31700 48.85300 29.96100
H  12.20700 48.97600 29.74500
H  9.89400 50.81000 29.46200
H  11.05200 51.08700 28.16800
H  11.67400 51.04000 29.83700
H  11.53200 47.13500 30.92400
H  10.27000 46.07400 30.27100
H  8.71400 47.53800 32.02600
H  10.27000 47.96700 32.58200
H  16.43200 47.65500 26.43900
H  15.42600 48.77500 27.26400
H  16.13300 49.38500 25.75400
H  17.73200 47.19300 22.81500
H  17.29700 46.71400 24.44400
H  17.19000 48.44700 24.03600
H  11.42700 45.17700 20.72400
H  8.62600 46.36600 20.41600
H  11.77400 47.78800 20.25500
H  10.25900 47.17800 19.30400
H  11.96100 46.41000 19.24600
H  9.57300 43.93200 19.83200
H  7.95200 44.37600 20.09600
H  9.22500 42.36500 21.48600
H  7.79800 43.17900 22.20200
H  9.38100 43.71100 22.68500
H  4.58000 46.99600 23.42600
H  3.96100 46.56500 25.13600
H  4.67100 45.39200 24.18200
H  6.80200 47.91100 29.47300
H  6.17000 45.61200 32.92300
H  6.97400 44.34700 32.00300
H  5.28700 44.61300 31.74200

