158

Mg 30.75500 58.55900 40.33800
C  27.85700 56.49900 39.48100
C  32.69200 55.91300 39.49600
C  33.31100 60.63100 40.43500
C  28.55000 61.26800 40.58900
N  30.28300 56.48100 39.49500
C  29.11600 55.80600 39.29500
C  29.37100 54.40900 38.68900
C  30.83600 54.17600 39.21000
C  31.30200 55.61900 39.45000
C  30.89600 53.36000 40.53600
C  29.27500 54.41000 37.15000
C  28.02800 53.52000 36.53300
H  27.15700 54.18800 35.53600
N  32.73600 58.37000 40.01700
C  33.30100 57.15900 39.65200
C  34.69100 57.32800 39.42400
C  35.04300 58.65700 39.86500
C  33.69900 59.31200 40.24600
C  35.69800 56.28000 38.82000
C  36.40800 59.28100 39.93800
O  37.35600 58.65900 39.38400
C  36.70000 60.72000 40.45200
N  30.94800 60.64500 40.71900
C  32.11200 61.31700 40.68800
C  31.96300 62.78100 40.52500
C  30.38400 63.03200 40.71500
C  29.87800 61.57500 40.70600
C  32.74700 63.73200 41.55100
C  29.73100 63.92200 39.61100
C  30.30500 65.28700 39.19700
N  28.59400 58.81900 40.20800
C  27.93000 60.02500 40.29600
C  26.54700 59.81400 40.02600
C  26.41700 58.44600 39.74900
C  27.72700 57.84900 39.83600
C  25.48000 60.89300 40.01600
C  25.55100 57.36900 39.29000
O  24.35600 57.41600 39.05500
C  26.44200 56.14800 39.11500
C  26.06300 55.09300 40.00500
O  26.58400 54.84000 41.08700
O  25.05600 54.27800 39.50700
C  24.46500 53.18300 40.23100
H  33.31100 55.04200 39.26900
H  34.08600 61.36900 40.21700
H  27.86100 62.11600 40.60100
H  28.69800 53.78800 39.28100
H  31.58100 53.78400 38.51800
H  30.00300 52.74100 40.62500
H  30.97400 54.04600 41.38000
H  31.69500 52.62100 40.48400
H  30.13600 53.99200 36.62900
H  29.14600 55.43100 36.79200
H  27.35700 53.02800 37.23800
H  28.54400 52.69400 36.04300
H  36.15400 56.45100 37.84500
H  35.41900 55.22700 38.81500
H  36.53900 56.23700 39.51200
H  36.38600 61.49400 39.75200
H  37.78500 60.71500 40.55700
H  36.13200 60.95500 41.35200
H  32.36200 63.07400 39.55400
H  30.17000 63.46900 41.69000
H  32.11500 63.97800 42.40400
H  32.90500 64.60000 40.91100
H  33.69300 63.28700 41.85900
H  28.71600 64.10600 39.96500
H  29.57000 63.34400 38.70100
H  29.68200 66.17600 39.28800
H  30.74200 65.30000 38.19900
H  31.17400 65.42100 39.84100
H  25.61400 61.55400 39.15900
H  25.45800 61.28600 41.03200
H  24.58300 60.34200 39.73200
H  26.58300 55.79900 38.09200
H  25.16800 52.58600 40.81200
H  24.04700 52.50200 39.48900
H  23.60800 53.48000 40.83500
Mg 0.82500 43.91900 26.23200
C  3.23300 43.90300 28.76300
C  -1.50600 42.90500 28.56300
C  -1.33200 43.66200 23.70200
C  3.45000 44.16100 23.90200
N  0.87000 43.44700 28.45200
C  1.96700 43.60400 29.24400
C  1.59900 43.42400 30.72900
C  0.17500 42.82900 30.52800
C  -0.23400 43.11500 29.11700
C  -0.05900 41.34400 31.00600
C  1.61700 44.84400 31.41700
C  1.54700 44.99600 32.95400
H  1.26600 43.79700 33.89200
N  -1.18900 43.38800 26.17200
C  -1.94100 43.03000 27.19700
C  -3.26300 42.74000 26.72400
C  -3.26200 43.02200 25.30400
C  -1.89500 43.36900 24.99100
C  -4.43000 42.19200 27.49900
C  -4.37800 42.97400 24.24400
O  -4.16900 43.38500 23.11500
C  -5.84300 42.69000 24.57800
N  1.08100 43.91800 24.06900
C  -0.00300 43.81100 23.28200
C  0.44100 43.85900 21.78900
C  1.96900 44.08300 21.90500
C  2.21100 43.98100 23.38200
C  0.01400 42.66600 20.95900
C  2.46700 45.39900 21.14100
C  1.99900 46.73500 21.90700
N  2.90300 44.19400 26.21700
C  3.88500 44.29400 25.25800
C  5.17700 44.43900 25.85600
C  4.96900 44.25800 27.22900
C  3.57100 44.11900 27.42300
C  6.46400 44.38800 25.08500
C  5.64700 44.04500 28.49200
O  6.80100 43.69900 28.70500
C  4.63300 44.13700 29.55600
C  4.92700 43.05700 30.64300
O  5.00600 41.85200 30.35500
O  4.97400 43.63200 31.86500
C  5.27300 42.71300 32.98400
H  -2.25400 42.59000 29.29400
H  -1.94100 43.50500 22.80900
H  4.23800 44.31700 23.16200
H  2.26700 42.70000 31.19700
H  -0.54900 43.34800 31.15500
H  -0.54500 40.64800 30.32300
H  -0.60700 41.36800 31.94700
H  0.86900 40.87000 31.32600
H  0.72000 45.32200 31.02500
H  2.45300 45.45300 31.07400
H  0.83100 45.80700 33.09100
H  2.48600 45.40600 33.32300
H  -5.21200 42.93500 27.34100
H  -4.14600 42.21400 28.55100
H  -4.85500 41.25200 27.14800
H  -6.09100 41.66400 24.84800
H  -6.53500 42.78400 23.74100
H  -6.19500 43.41100 25.31500
H  -0.06800 44.70900 21.33500
H  2.45100 43.17000 21.55400
H  -0.27600 41.99500 21.76700
H  0.77900 42.21800 20.32500
H  -0.88500 42.94400 20.40800
H  2.08500 45.38400 20.12000
H  3.55600 45.39900 21.13100
H  2.27400 47.55700 21.24700
H  2.55900 46.79400 22.84000
H  0.92800 46.93900 21.92900
H  6.32400 44.88800 24.12600
H  6.61800 43.35300 24.77900
H  7.28500 44.92000 25.56700
H  4.64400 45.12100 30.02500
H  5.08600 43.26900 33.90300
H  6.31400 42.39300 32.93600
H  4.62700 41.83600 32.94500

