158

Mg -1.16000 17.45600 25.93200
C  -1.67900 15.04600 28.54900
C  -1.48800 19.96100 28.23100
C  -1.06900 19.51600 23.43300
C  -1.47400 14.68400 23.67000
N  -1.59000 17.46900 28.13100
C  -1.56700 16.39100 28.97500
C  -1.45600 16.91000 30.41500
C  -1.88200 18.37600 30.29000
C  -1.61200 18.64800 28.83000
C  -3.38700 18.60100 30.69000
C  -0.09200 16.65800 31.12500
C  -0.03800 15.83400 32.40600
H  0.81500 16.09500 33.63200
N  -1.24400 19.49700 25.82300
C  -1.36300 20.33100 26.89600
C  -1.39000 21.74400 26.32700
C  -1.13700 21.60000 24.92900
C  -1.27600 20.16700 24.65400
C  -1.68900 22.93500 27.10800
C  -1.03500 22.65600 23.89900
O  -1.21500 22.43800 22.70300
C  -0.80600 24.06300 24.32000
N  -1.42700 17.19500 23.83000
C  -1.22500 18.14300 23.01200
C  -1.40500 17.79300 21.55100
C  -1.17900 16.21500 21.61800
C  -1.33800 15.97100 23.10200
C  -2.78100 18.21200 20.90400
C  0.08200 15.77100 20.84600
C  1.43400 16.38800 21.26900
N  -1.35000 15.31900 26.05000
C  -1.55100 14.35300 25.02400
C  -1.66500 13.07900 25.63500
C  -1.77500 13.29900 26.96400
C  -1.56700 14.67800 27.21100
C  -1.79100 11.80100 24.87500
C  -1.93800 12.67600 28.29400
O  -2.00700 11.52000 28.57100
C  -2.00700 13.80100 29.32100
C  -1.04600 13.38600 30.40900
O  0.16700 13.29700 30.36600
O  -1.78300 13.10800 31.45600
C  -1.19500 12.43700 32.60900
H  -1.59700 20.74900 28.97800
H  -0.82900 20.20600 22.62100
H  -1.41500 13.85200 22.96500
H  -2.27300 16.38300 30.90900
H  -1.28400 19.04100 30.91300
H  -3.46700 19.15300 31.62700
H  -3.93200 17.67100 30.85700
H  -3.93100 19.04400 29.85600
H  0.42900 17.58800 31.35500
H  0.52400 16.12700 30.39900
H  0.24400 14.80200 32.19800
H  -1.01100 15.97300 32.87700
H  -2.53200 23.37800 26.57800
H  -0.83800 23.61200 27.03100
H  -2.05400 22.74700 28.11800
H  -1.64800 24.47800 24.87400
H  -0.49300 24.74000 23.52500
H  0.08000 24.09600 24.95300
H  -0.72500 18.30800 20.87200
H  -2.08800 15.68300 21.34000
H  -3.18700 18.70400 21.78800
H  -3.44400 17.43800 20.51600
H  -2.57300 18.98600 20.16600
H  -0.08000 16.08100 19.81400
H  0.13900 14.68300 20.83700
H  1.80900 16.88200 20.37200
H  2.12900 15.74300 21.80600
H  1.16700 17.16200 21.98900
H  -1.06100 11.12600 25.32200
H  -1.74400 11.83800 23.78700
H  -2.75500 11.33100 25.07100
H  -3.02800 13.76700 29.70100
H  -1.03300 11.42300 32.24200
H  -1.88400 12.57800 33.44200
H  -0.26800 12.92100 32.91600
Mg 16.96100 -2.81800 28.77100
C  16.06400 -0.79100 31.44600
C  18.48300 -4.96600 31.10400
C  18.01700 -4.70500 26.20100
C  15.75200 -0.38600 26.63300
N  17.19700 -2.92600 30.96700
C  16.72800 -1.99900 31.82200
C  16.97100 -2.38300 33.32000
C  18.02500 -3.51800 33.16500
C  17.92500 -3.88500 31.68500
C  19.50100 -3.23500 33.63200
C  15.64900 -2.61500 34.18900
C  15.63700 -2.10600 35.65900
H  16.98600 -2.11200 36.47900
N  18.01000 -4.59200 28.68100
C  18.48300 -5.30600 29.74900
C  19.23400 -6.49100 29.22800
C  18.98900 -6.52900 27.79400
C  18.26300 -5.29700 27.47300
C  19.84000 -7.54600 30.07900
C  19.43100 -7.51300 26.76100
O  19.07100 -7.49100 25.62600
C  20.22900 -8.74200 27.12100
N  17.01100 -2.45300 26.66900
C  17.50600 -3.43400 25.86900
C  17.44400 -2.90700 24.40700
C  16.71100 -1.50100 24.47300
C  16.33700 -1.48300 25.98500
C  18.80300 -2.71800 23.69400
C  15.59500 -1.43600 23.43200
C  14.15300 -1.88200 23.82600
N  15.99700 -0.96600 28.96600
C  15.50900 -0.14400 28.00200
C  14.86000 0.97900 28.60700
C  15.04400 0.76200 29.97100
C  15.77600 -0.43200 30.12900
C  14.15400 2.07100 28.04200
C  14.77500 1.28500 31.35300
O  14.17000 2.22500 31.73100
C  15.39100 0.30500 32.34800
C  16.41300 1.03400 33.07300
O  17.41600 1.57400 32.69600
O  15.91000 1.25900 34.34900
C  16.79600 1.97000 35.33100
H  19.07100 -5.56000 31.80700
H  18.43200 -5.26300 25.36000
H  15.16700 0.29100 26.00700
H  17.54600 -1.58800 33.79600
H  17.71200 -4.34300 33.80500
H  19.81200 -3.96500 34.38100
H  19.60300 -2.24800 34.08200
H  20.14700 -3.29500 32.75600
H  15.56700 -3.69300 34.33000
H  14.78200 -2.31300 33.60200
H  14.93800 -2.72200 36.22500
H  15.29200 -1.07600 35.56300
H  19.50300 -8.54000 29.78700
H  19.54100 -7.27600 31.09100
H  20.92600 -7.53800 29.98400
H  21.07200 -8.54300 27.78200
H  20.60400 -9.19600 26.20300
H  19.58100 -9.50000 27.56200
H  16.99700 -3.62400 23.71900
H  17.34400 -0.62600 24.32700
H  19.54700 -2.74700 24.48900
H  18.81000 -1.75400 23.18600
H  19.10900 -3.47800 22.97500
H  15.78300 -2.13700 22.61900
H  15.54100 -0.42200 23.03500
H  13.56400 -1.15100 24.38000
H  14.23100 -2.70100 24.54100
H  13.73600 -2.39700 22.96100
H  13.88100 2.79000 28.81500
H  13.25000 1.79400 27.50100
H  14.75300 2.55300 27.27000
H  14.57300 -0.02900 32.98700
H  17.86200 1.85600 35.13500
H  16.56300 1.80700 36.38400
H  16.67700 3.03900 35.15500

