158

Mg 26.77500 50.59900 26.65900
C  24.75200 51.58400 29.19500
C  29.17200 49.81000 28.93600
C  28.80900 49.98600 24.11500
C  24.33500 51.58300 24.38000
N  27.00800 50.72300 28.90500
C  25.94200 51.03600 29.66100
C  26.37600 50.68000 31.19300
C  27.87100 50.25100 31.07900
C  28.01300 50.22700 29.57600
C  28.87500 51.19800 31.89200
C  25.40900 49.59500 31.81600
C  24.78200 49.99900 33.18600
H  24.99900 49.28900 34.49500
N  28.65100 49.89300 26.56300
C  29.50700 49.68200 27.57100
C  30.89500 49.46500 27.12300
C  30.82100 49.53100 25.68300
C  29.36600 49.85300 25.39800
C  32.15300 49.02100 27.90500
C  31.88500 49.37500 24.62100
O  31.53000 49.46500 23.49900
C  33.31000 49.08000 24.98100
N  26.64100 50.82200 24.50300
C  27.56000 50.28200 23.68400
C  27.03500 50.11200 22.23000
C  25.53600 50.48500 22.36400
C  25.45900 51.00900 23.82600
C  27.78200 51.14100 21.18900
C  24.58300 49.25100 22.08900
C  23.28100 49.54300 21.31600
N  25.06100 51.48700 26.73300
C  24.23600 51.91500 25.71300
C  23.02800 52.57300 26.25100
C  23.28700 52.48500 27.60400
C  24.47300 51.83200 27.83900
C  21.84700 53.03000 25.47400
C  22.63000 52.71000 28.89900
O  21.55300 53.17800 29.21100
C  23.61600 52.17300 30.01400
C  24.04300 53.24300 30.95000
O  24.80900 54.12200 30.62900
O  23.46900 53.16300 32.16600
C  23.76100 54.25300 33.17400
H  30.00000 49.61200 29.62000
H  29.36400 49.52900 23.29200
H  23.53300 51.80000 23.67100
H  26.17400 51.59700 31.74900
H  27.90800 49.20300 31.37800
H  28.33200 51.78500 32.63200
H  29.47200 51.70900 31.13600
H  29.48700 50.52500 32.49300
H  25.99900 48.68500 31.92700
H  24.61700 49.31800 31.12100
H  23.72900 49.88500 32.93000
H  24.83700 51.07300 33.36200
H  32.41600 48.01100 27.59300
H  32.02400 48.99900 28.98700
H  32.99000 49.63500 27.57300
H  33.28000 48.17300 25.58500
H  33.74000 49.94500 25.48600
H  33.84300 48.77600 24.08000
H  27.14200 49.04900 22.01100
H  25.34400 51.28500 21.64900
H  28.41400 51.70900 21.87200
H  27.14700 51.80800 20.60500
H  28.40700 50.45500 20.61700
H  24.28300 48.83400 23.05000
H  25.18200 48.65300 21.40200
H  23.06400 48.94900 20.42800
H  23.34400 50.61600 21.13500
H  22.44100 49.34200 21.98000
H  21.60600 52.31400 24.68900
H  22.08800 54.02200 25.09300
H  20.97100 53.12300 26.11600
H  23.03500 51.44100 30.57500
H  24.26300 53.70500 33.97200
H  22.78600 54.57300 33.54300
H  24.39100 55.05200 32.78500
Mg -5.50700 25.64000 26.00500
C  -3.89400 27.14600 28.75900
C  -7.16800 23.69700 28.18500
C  -6.96700 24.13500 23.31400
C  -3.80800 27.76100 23.86000
N  -5.52800 25.48300 28.27400
C  -4.86600 26.15600 29.18100
C  -5.27000 25.81500 30.60700
C  -6.15800 24.56300 30.36900
C  -6.31500 24.59000 28.86000
C  -5.48400 23.21900 30.77600
C  -5.98300 27.04300 31.17400
C  -5.64800 27.43100 32.59400
H  -4.95900 26.31900 33.51400
N  -6.74400 24.07800 25.79600
C  -7.40000 23.41300 26.83900
C  -8.29300 22.46300 26.30800
C  -8.28000 22.50900 24.91600
C  -7.24300 23.55600 24.59600
C  -9.13900 21.58500 27.28800
C  -9.10000 21.79100 23.89900
O  -9.00200 22.04200 22.70000
C  -10.08500 20.78400 24.29500
N  -5.38800 25.94200 23.79900
C  -6.09200 25.16700 22.94700
C  -5.90800 25.67900 21.48800
C  -4.87800 26.79900 21.69000
C  -4.64700 26.84800 23.16600
C  -5.30500 24.67700 20.52800
C  -5.20200 28.18800 21.17000
C  -4.12900 28.86000 20.23300
N  -4.11000 27.09200 26.17900
C  -3.48600 27.90900 25.22700
C  -2.60500 28.87600 25.88500
C  -2.65600 28.49300 27.21700
C  -3.57500 27.44900 27.39200
C  -1.72400 29.91000 25.28700
C  -2.18000 28.85400 28.53300
O  -1.35100 29.62500 28.90000
C  -3.00500 28.01500 29.51300
C  -2.01800 27.15100 30.21100
O  -1.20100 26.48200 29.67100
O  -2.09300 27.28000 31.52300
C  -1.06800 26.58100 32.32700
H  -7.71200 23.10200 28.92200
H  -7.53300 23.75900 22.45900
H  -3.30500 28.50400 23.23700
H  -4.29700 25.63500 31.06200
H  -7.13000 24.68300 30.84600
H  -4.66400 23.42200 31.46600
H  -5.11600 22.63800 29.93000
H  -6.12400 22.56600 31.37000
H  -7.06500 26.94200 31.08000
H  -5.71800 27.95300 30.63600
H  -6.57600 27.75300 33.06500
H  -4.90900 28.23100 32.64500
H  -9.84300 22.16900 27.88000
H  -8.45200 21.07500 27.96400
H  -9.65800 20.79300 26.74700
H  -10.40600 20.43300 23.31500
H  -10.94200 21.03500 24.92100
H  -9.61700 19.86500 24.64600
H  -6.82500 26.21600 21.24500
H  -3.90800 26.58700 21.24100
H  -4.86800 23.72700 20.83500
H  -4.69700 25.16700 19.76900
H  -6.12400 24.34600 19.88900
H  -5.32600 28.95300 21.93700
H  -6.03800 28.04200 20.48500
H  -4.64900 29.05900 19.29500
H  -3.37800 28.13600 19.91500
H  -3.61100 29.72900 20.63800
H  -1.73400 29.71000 24.21500
H  -0.70400 30.03600 25.65100
H  -2.21000 30.87300 25.44700
H  -3.54400 28.72600 30.13800
H  -0.76500 25.55800 32.10100
H  -1.52500 26.47600 33.31100
H  -0.18200 27.19100 32.50100

