158

Mg 43.85100 4.21000 47.57900
C  41.52400 6.93100 47.25200
C  41.26200 2.08000 47.26800
C  45.94700 1.64600 47.55100
C  46.44500 6.53900 47.49900
N  41.60800 4.46800 47.36100
C  40.91400 5.64900 47.16800
C  39.45800 5.34000 47.21300
C  39.36900 3.82800 47.51300
C  40.86500 3.39800 47.50700
C  38.67600 3.49200 48.90000
C  38.51900 5.94700 46.04000
C  38.68900 5.34600 44.64500
H  39.51300 6.15600 43.63400
N  43.55400 2.07700 47.20500
C  42.46900 1.37800 47.14000
C  42.68000 -0.04300 46.85900
C  44.15600 -0.13900 46.83200
C  44.64600 1.24800 47.12200
C  41.77900 -1.06800 46.54300
C  44.91700 -1.39400 46.61000
O  44.29800 -2.38600 46.38200
C  46.39000 -1.55900 46.57000
N  45.92200 4.11200 47.36000
C  46.56800 2.93200 47.66600
C  48.05800 3.16400 47.93600
C  48.18400 4.69900 47.82700
C  46.78300 5.15700 47.42800
C  48.58200 2.48400 49.25600
C  49.34100 5.24800 46.86200
C  50.68300 5.63900 47.57300
N  43.97800 6.34100 47.36300
C  45.15500 7.11400 47.46000
C  44.67700 8.50500 47.55100
C  43.23900 8.44600 47.56700
C  42.87600 7.16300 47.34600
C  45.50900 9.73300 47.57900
C  42.07600 9.31200 47.63300
O  41.92500 10.49000 47.81300
C  40.88300 8.26200 47.35800
C  39.96700 8.41200 48.56100
O  40.07600 7.77700 49.56000
O  38.99900 9.40200 48.27500
C  37.87800 9.51600 49.20300
H  40.33300 1.51300 47.35300
H  46.58300 0.80400 47.83400
H  47.26200 7.23400 47.70600
H  39.09300 5.75500 48.15300
H  38.85600 3.27700 46.72500
H  39.47600 3.22500 49.59100
H  38.07900 2.60700 48.68100
H  38.00300 4.25000 49.29900
H  38.80900 6.99700 46.07800
H  37.47800 5.90200 46.36100
H  37.68600 5.25800 44.22700
H  39.12700 4.35100 44.73300
H  41.79400 -1.07500 45.45300
H  40.77900 -0.78400 46.87000
H  42.01400 -2.02400 47.00900
H  46.85100 -1.13900 47.46300
H  46.72900 -1.04500 45.67100
H  46.72600 -2.59600 46.57900
H  48.63600 2.71600 47.12700
H  48.35800 5.16800 48.79600
H  49.57600 2.08100 49.06000
H  47.80700 1.89100 49.74300
H  48.92100 3.23600 49.96800
H  48.89500 6.09100 46.33500
H  49.45000 4.44700 46.13200
H  50.52400 6.61000 48.04300
H  51.45800 5.73300 46.81200
H  50.97100 4.86700 48.28600
H  46.50600 9.50200 47.20300
H  45.68700 10.12600 48.58000
H  44.98900 10.52800 47.04400
H  40.30200 8.50400 46.46800
H  37.18300 10.30800 48.92600
H  38.21100 9.78600 50.20500
H  37.22400 8.65000 49.09900
Mg 17.61800 51.64100 25.90900
C  19.29100 50.49900 28.93200
C  15.15600 52.93800 27.90000
C  15.94500 52.70000 23.11500
C  19.80300 49.78300 24.12500
N  17.27800 51.60300 28.30600
C  18.09000 51.15500 29.28000
C  17.61500 51.60700 30.65100
C  16.12100 52.11600 30.26200
C  16.13300 52.24000 28.74100
C  14.84500 51.37800 30.75500
C  18.52500 52.67200 31.31500
C  18.80800 52.47000 32.86600
H  17.79700 51.69700 33.64800
N  15.79500 52.68800 25.58200
C  14.94000 53.14200 26.53300
C  13.87600 53.87700 25.95500
C  14.07800 53.85300 24.53500
C  15.31500 53.05300 24.34500
C  12.68200 54.45900 26.68300
C  13.20400 54.28100 23.37000
O  13.41900 53.88200 22.20200
C  11.90900 55.12900 23.56600
N  17.73400 51.12300 23.90900
C  17.02400 51.79300 22.95200
C  17.50500 51.41300 21.51800
C  18.83400 50.63100 21.87000
C  18.80500 50.46300 23.40400
C  16.37700 50.80000 20.67200
C  20.17800 51.36400 21.40200
C  20.26100 52.86600 21.77500
N  19.32900 50.51200 26.35300
C  20.09700 49.81200 25.49300
C  21.26600 49.26300 26.17500
C  20.96700 49.50600 27.55400
C  19.74200 50.19500 27.61200
C  22.47800 48.55800 25.55500
C  21.44300 49.28800 28.89700
O  22.45400 48.74200 29.31700
C  20.44900 49.95900 29.88800
C  20.11600 48.90800 30.91500
O  19.32100 47.98200 30.77300
O  20.87900 49.08200 32.06600
C  20.71300 48.03400 33.16200
H  14.41300 53.39800 28.55500
H  15.57100 53.04200 22.14800
H  20.60600 49.32000 23.54800
H  17.67200 50.70800 31.26600
H  16.04500 53.11700 30.68600
H  15.10500 50.43900 31.24300
H  14.24100 51.14300 29.87800
H  14.34500 52.08000 31.42300
H  18.10600 53.65700 31.10800
H  19.50500 52.63500 30.83900
H  18.90600 53.47000 33.28900
H  19.83100 52.14200 33.05300
H  12.62200 55.54200 26.57700
H  12.68100 54.17600 27.73600
H  11.83200 53.93900 26.24200
H  11.98200 55.79300 24.42600
H  10.98800 54.54600 23.53800
H  11.87000 55.88300 22.78000
H  17.74600 52.27600 20.89600
H  18.95200 49.63600 21.44000
H  15.54600 51.49300 20.53600
H  15.97400 49.87000 21.07200
H  16.72000 50.73400 19.63900
H  20.26300 51.24800 20.32200
H  21.06000 50.86400 21.80400
H  20.68700 53.23200 20.84100
H  20.97600 53.15900 22.54400
H  19.35700 53.44000 21.98300
H  22.74600 49.12900 24.66600
H  22.15200 47.54900 25.30300
H  23.30500 48.50800 26.26200
H  21.06400 50.79100 30.23100
H  20.30900 48.49200 34.06400
H  21.69600 47.64500 33.42700
H  20.03600 47.23700 32.85300

