158

Mg 47.86700 34.26100 25.47200
C  46.23200 32.75100 28.26200
C  48.24200 37.13000 27.21000
C  49.39000 35.45000 22.77600
C  47.21200 31.18600 23.73600
N  47.26900 34.84300 27.57000
C  46.71900 34.08200 28.50700
C  46.86400 34.81000 29.89700
C  47.28400 36.29500 29.51000
C  47.60600 36.12300 27.95600
C  46.35100 37.45300 29.93400
C  48.11500 34.19400 30.75200
C  47.81900 34.15800 32.30700
H  47.01700 35.29900 32.94800
N  48.69700 36.05100 25.04200
C  48.71200 37.14400 25.87300
C  49.45700 38.20600 25.20700
C  49.78100 37.79000 23.92900
C  49.30800 36.35700 23.85700
C  49.69800 39.59400 25.78200
C  50.50900 38.47300 22.87600
O  50.72400 37.93500 21.77400
C  50.78300 39.96100 22.87200
N  48.32600 33.36200 23.52300
C  48.98500 34.12400 22.64500
C  49.17100 33.31600 21.33100
C  48.59900 31.93300 21.69700
C  47.97800 32.11800 23.04600
C  48.54000 33.88500 20.06000
C  49.61200 30.74400 21.49800
C  50.59800 30.57200 22.68900
N  46.88600 32.41500 25.86900
C  46.66300 31.21900 25.06500
C  45.89800 30.24700 25.79700
C  45.66500 30.82400 27.05500
C  46.34700 32.09800 27.00700
C  45.47700 28.93600 25.35900
C  45.18300 30.57600 28.40700
O  44.72000 29.63600 29.01400
C  45.40000 31.92300 29.10900
C  45.79000 31.65500 30.54000
O  46.87500 31.30600 30.98800
O  44.65300 31.92800 31.29800
C  44.70100 31.78300 32.73700
H  48.29600 38.02200 27.83700
H  50.05500 35.72500 21.95500
H  46.84300 30.30600 23.20400
H  45.92300 34.90100 30.43900
H  48.22000 36.59300 29.98200
H  46.92400 38.28500 30.34200
H  45.54700 37.11500 30.58800
H  45.76300 37.82600 29.09500
H  49.04300 34.74100 30.58700
H  48.17700 33.14000 30.47900
H  48.84000 34.16200 32.69000
H  47.32800 33.20600 32.50800
H  49.43900 39.53600 26.83900
H  48.94900 40.29100 25.40600
H  50.71100 39.99300 25.83300
H  51.29100 40.17900 21.93200
H  51.45000 40.19900 23.70000
H  49.80900 40.43900 22.97400
H  50.25000 33.29000 21.18200
H  47.75900 31.61000 21.08200
H  47.96700 34.79000 20.26000
H  47.84400 33.16800 19.62400
H  49.34600 34.18200 19.39000
H  50.25800 30.93100 20.64100
H  48.98400 29.86900 21.32600
H  50.69600 29.51200 22.92600
H  50.33800 31.12600 23.59100
H  51.58600 30.92500 22.39300
H  46.16600 28.51700 24.62600
H  44.44000 28.94900 25.02500
H  45.52100 28.25300 26.20700
H  44.41200 32.37600 29.18400
H  45.28500 30.90500 33.01200
H  43.69700 31.65600 33.14300
H  45.05300 32.71400 33.18000
Mg -5.04200 26.71400 25.63000
C  -4.25300 28.13800 28.57700
C  -6.92500 24.32800 27.08400
C  -5.40500 25.19700 22.59400
C  -3.03400 29.08400 23.97100
N  -5.42200 26.22300 27.56700
C  -5.12800 27.03900 28.61900
C  -5.73500 26.45500 29.88700
C  -6.43400 25.17000 29.46600
C  -6.34300 25.26900 27.94500
C  -5.81800 23.82000 30.07600
C  -6.64800 27.50600 30.63400
C  -6.49300 27.57200 32.19400
H  -6.42900 26.27100 32.98200
N  -5.98700 24.93900 24.98500
C  -6.82000 24.17400 25.69100
C  -7.35100 23.11200 24.86800
C  -6.70900 23.27700 23.61300
C  -5.93200 24.47800 23.67500
C  -8.23200 22.03100 25.44800
C  -6.84200 22.47600 22.34100
O  -6.14300 22.79500 21.34400
C  -7.87200 21.37100 22.21000
N  -4.28100 27.05200 23.56600
C  -4.66700 26.32500 22.52300
C  -4.21300 26.91400 21.20200
C  -3.64600 28.32000 21.73000
C  -3.64300 28.15000 23.21000
C  -3.09600 25.96000 20.56000
C  -4.52700 29.60300 21.28800
C  -4.03500 30.48700 20.19000
N  -3.86100 28.34200 26.10600
C  -3.11900 29.22500 25.39300
C  -2.52500 30.19500 26.23800
C  -2.97000 29.80600 27.55700
C  -3.72900 28.67100 27.38000
C  -1.60200 31.27300 25.98800
C  -2.86100 30.05600 28.93000
O  -2.20900 30.88300 29.58200
C  -3.68200 28.98000 29.73300
C  -2.66300 28.26300 30.59800
O  -1.71600 27.63000 30.21500
O  -2.99000 28.40900 31.96300
C  -1.96900 27.69700 32.81300
H  -7.49400 23.50200 27.51600
H  -5.65200 24.96500 21.55600
H  -2.72500 30.01600 23.49300
H  -4.86300 26.13200 30.45500
H  -7.51900 25.17700 29.56200
H  -4.93900 23.95800 30.70600
H  -5.39200 23.27000 29.23700
H  -6.61000 23.23100 30.53800
H  -7.69800 27.32200 30.40800
H  -6.36500 28.49300 30.26900
H  -7.33200 28.11700 32.62800
H  -5.60000 28.16300 32.39300
H  -8.58200 21.32300 24.69600
H  -8.98500 22.39900 26.14400
H  -7.56200 21.39800 26.03100
H  -7.73300 20.57100 22.93700
H  -7.79600 21.00100 21.18700
H  -8.87700 21.79300 22.22400
H  -5.07100 27.04800 20.54300
H  -2.62200 28.25100 21.36300
H  -2.86700 25.00900 21.04100
H  -2.22800 26.57700 20.32700
H  -3.46800 25.52200 19.63400
H  -5.00600 30.17600 22.08300
H  -5.41800 29.22000 20.79100
H  -4.51700 30.24600 19.24200
H  -2.97200 30.24700 20.14800
H  -4.11900 31.53700 20.47000
H  -1.51200 31.54800 24.93600
H  -0.63200 30.94000 26.35700
H  -1.86300 32.18700 26.52100
H  -4.38700 29.53000 30.35700
H  -2.08300 26.63300 32.60700
H  -2.21100 28.07500 33.80700
H  -0.93500 27.82700 32.49500

