158

Mg 0.62800 7.92000 27.54900
C  1.23900 10.10800 30.21100
C  0.68300 5.25000 29.70500
C  0.69000 5.76200 24.92700
C  0.92100 10.58700 25.33700
N  1.04500 7.74900 29.69400
C  1.17600 8.75200 30.62900
C  0.77200 8.27100 31.95900
C  1.02400 6.67900 31.87500
C  0.81800 6.54900 30.32400
C  2.44800 6.22600 32.36500
C  -0.75300 8.61800 32.31800
C  -0.89900 9.24400 33.75400
H  0.09600 8.98000 34.92200
N  0.72300 5.75800 27.37900
C  0.71500 4.86700 28.34800
C  0.66500 3.48100 27.81000
C  0.67000 3.62100 26.37000
C  0.66600 5.08400 26.13400
C  0.70400 2.12200 28.68200
C  0.60000 2.58300 25.26900
O  0.54400 2.81100 24.07600
C  0.56800 1.20800 25.68200
N  0.82500 8.13100 25.44400
C  0.78000 7.12300 24.55000
C  0.70000 7.59900 23.07600
C  0.57300 9.16400 23.29900
C  0.75200 9.33100 24.80300
C  1.82600 7.16500 22.12400
C  -0.85100 9.61500 22.90200
C  -0.92400 10.03700 21.51200
N  0.90500 9.97100 27.67600
C  1.00800 10.93000 26.72300
C  1.19500 12.17400 27.32600
C  1.24100 11.94400 28.68800
C  1.19700 10.54400 28.82900
C  1.35800 13.42900 26.60000
C  1.41800 12.59200 29.97800
O  1.54200 13.78100 30.30600
C  1.33300 11.44200 31.06000
C  2.57100 11.45300 31.90000
O  3.68300 11.00600 31.61400
O  2.25400 12.02700 33.14700
C  3.21700 11.93600 34.22100
H  0.64200 4.40700 30.39900
H  0.57500 5.17200 24.01600
H  0.97700 11.41800 24.63100
H  1.47800 8.75800 32.63200
H  0.27300 6.07900 32.38800
H  3.04600 7.01900 32.81400
H  3.00900 5.83500 31.51600
H  2.41200 5.50700 33.18400
H  -1.33800 7.70000 32.27200
H  -1.17100 9.29800 31.57500
H  -1.83400 8.83400 34.13500
H  -1.13700 10.30100 33.64100
H  1.10000 2.38000 29.66500
H  1.32400 1.28900 28.35400
H  -0.32400 1.81600 28.87600
H  1.45700 0.95800 26.26200
H  0.48000 0.63100 24.76200
H  -0.36400 0.97200 26.19600
H  -0.21200 7.08100 22.78100
H  1.36900 9.70700 22.78900
H  2.66200 6.81900 22.73200
H  2.25800 7.92500 21.47300
H  1.51900 6.28100 21.56500
H  -1.24000 10.38200 23.57300
H  -1.47600 8.73400 23.04200
H  -0.01000 10.43800 21.07200
H  -1.55500 10.92500 21.55300
H  -1.33000 9.31200 20.80700
H  2.15300 13.39600 25.85400
H  1.58200 14.22400 27.31100
H  0.40500 13.67000 26.13000
H  0.54900 11.60100 31.80000
H  4.23000 11.69600 33.90000
H  2.91600 11.21900 34.98500
H  3.40500 12.94800 34.57700
Mg 16.77500 51.84300 25.77800
C  18.72600 50.55600 28.36000
C  14.36500 52.47000 28.04600
C  14.97300 53.00800 23.14900
C  19.23400 50.64300 23.45300
N  16.47200 51.42200 27.93300
C  17.50600 51.11900 28.75300
C  17.07000 51.29400 30.21000
C  15.54100 51.56100 30.13200
C  15.42200 51.78700 28.63500
C  14.53200 50.50400 30.53200
C  17.94600 52.35600 30.92300
C  18.27500 52.22900 32.37500
H  17.24800 51.43600 33.22400
N  14.99800 52.76000 25.64400
C  14.09800 52.86700 26.67700
C  12.87500 53.60000 26.13100
C  13.04900 53.79200 24.66700
C  14.40600 53.20200 24.41700
C  11.70500 53.95700 26.96400
C  12.17900 54.45900 23.68700
O  12.50100 54.68500 22.52000
C  10.86900 55.11600 24.10000
N  17.05100 51.76900 23.65500
C  16.15100 52.36100 22.75500
C  16.61400 52.30200 21.31000
C  18.02900 51.69100 21.49800
C  18.15000 51.36300 22.94500
C  15.75300 51.28200 20.41300
C  19.12100 52.51900 20.79500
C  19.86800 51.90000 19.57600
N  18.61100 50.72300 25.86800
C  19.42600 50.29500 24.86900
C  20.57800 49.67300 25.49300
C  20.32400 49.61000 26.86100
C  19.10500 50.40400 27.01600
C  21.94500 49.31000 24.78100
C  20.78500 49.17600 28.19000
O  21.74000 48.51700 28.51600
C  19.81200 49.78700 29.18500
C  19.26300 48.75800 30.02900
O  18.34200 48.02100 29.76600
O  19.96800 48.71800 31.20700
C  19.31800 47.85800 32.18000
H  13.61600 52.88800 28.72200
H  14.49300 53.42600 22.26100
H  19.88500 50.32500 22.63700
H  17.33200 50.35600 30.69800
H  15.35100 52.53400 30.58400
H  13.82200 51.06200 31.14300
H  14.97300 49.79300 31.23100
H  14.06400 50.01500 29.67700
H  17.59400 53.38800 30.91600
H  18.89200 52.34500 30.38200
H  18.40600 53.19800 32.85700
H  19.20500 51.66100 32.40200
H  10.89200 53.27100 26.72600
H  11.48100 55.00300 26.75800
H  11.94300 53.95200 28.02800
H  10.98000 56.05000 24.65000
H  10.12800 54.43800 24.52200
H  10.37800 55.33800 23.15300
H  16.59900 53.34400 20.99000
H  18.15800 50.76100 20.94400
H  14.84800 50.87200 20.86300
H  16.35000 50.40300 20.17200
H  15.54500 51.86200 19.51400
H  19.66000 52.95800 21.63400
H  18.68600 53.40600 20.33500
H  19.24000 51.14700 19.10000
H  20.81500 51.43300 19.84600
H  20.15200 52.67400 18.86300
H  22.12700 49.72200 23.78800
H  22.11200 48.24200 24.91700
H  22.66700 49.88600 25.36000
H  20.38300 50.50000 29.78000
H  19.28200 46.79700 31.92900
H  18.28900 48.11700 32.43000
H  19.90400 47.80900 33.09800

