158

Mg 24.54000 -5.48200 45.86600
C  27.00500 -3.71300 44.30300
C  22.18600 -4.20900 43.66700
C  22.50500 -8.01700 46.80600
C  27.06800 -6.83100 48.01400
N  24.58000 -4.03700 44.27300
C  25.73700 -3.52800 43.72800
C  25.51600 -2.61400 42.50100
C  23.91800 -2.60800 42.43400
C  23.51800 -3.73800 43.50400
C  23.26300 -1.20700 42.77900
C  26.14400 -3.00800 41.16500
C  26.87600 -1.93800 40.43700
H  27.27200 -2.06200 38.92300
N  22.58900 -5.98800 45.40600
C  21.76300 -5.24900 44.49100
C  20.47900 -5.95500 44.49700
C  20.41500 -6.95800 45.49700
C  21.89100 -7.02500 45.97800
C  19.50800 -5.51800 43.47800
C  19.30800 -7.65300 45.98600
O  18.20100 -7.52500 45.48700
C  19.27100 -8.53100 47.30500
N  24.86700 -7.28100 47.02300
C  23.77100 -8.11800 47.36500
C  24.15500 -9.14000 48.39800
C  25.55000 -8.60600 48.97900
C  25.86400 -7.45700 48.00700
C  23.05900 -9.42000 49.49400
C  26.74500 -9.64900 49.06500
C  27.20000 -10.01600 50.48800
N  26.59200 -5.23500 46.18300
C  27.48700 -5.87900 47.03500
C  28.75300 -5.25700 46.97100
C  28.68100 -4.38200 45.87900
C  27.35500 -4.48600 45.41300
C  30.02900 -5.67200 47.70400
C  29.42100 -3.46400 44.97000
O  30.57000 -3.15100 44.89100
C  28.26900 -2.82500 44.09200
C  28.18000 -1.39500 44.49300
O  28.18700 -0.95100 45.62700
O  28.43800 -0.70500 43.35200
C  28.90500 0.65100 43.46800
H  21.48000 -3.63600 43.06200
H  21.84900 -8.83400 47.11600
H  27.76700 -7.04800 48.82400
H  25.76400 -1.61300 42.85400
H  23.54200 -3.04500 41.51000
H  22.46500 -1.13200 42.04100
H  23.79000 -0.25500 42.70600
H  22.72100 -1.23600 43.72400
H  25.38600 -3.31300 40.44300
H  26.83300 -3.82500 41.37600
H  27.83000 -1.81100 40.94700
H  26.33500 -1.00100 40.57500
H  20.00900 -5.37600 42.52000
H  19.16000 -4.53300 43.79000
H  18.64000 -6.15800 43.32300
H  18.25000 -8.63800 47.67400
H  19.98200 -8.18300 48.05400
H  19.65700 -9.52300 47.07100
H  24.39900 -10.04300 47.83800
H  25.29700 -8.04600 49.87900
H  22.60900 -10.41200 49.48000
H  22.25900 -8.68100 49.44300
H  23.42800 -9.26600 50.50800
H  27.64400 -9.27200 48.57600
H  26.42200 -10.51100 48.48200
H  27.01300 -11.08900 50.53700
H  26.64600 -9.44300 51.23100
H  28.20800 -9.69200 50.74400
H  30.65300 -6.31100 47.07900
H  29.73500 -6.17700 48.62400
H  30.60200 -4.74700 47.77400
H  28.58100 -2.91300 43.05100
H  29.69100 0.66500 44.22300
H  28.18100 1.43000 43.71100
H  29.33700 0.83500 42.48400
Mg -10.77000 17.74700 41.47000
C  -7.36400 17.06100 41.44100
C  -10.03600 21.03200 40.66500
C  -14.01200 18.31400 41.13900
C  -11.27300 14.35100 41.37100
N  -8.85400 18.91000 41.19700
C  -7.60500 18.44600 41.21100
C  -6.57300 19.59400 40.87100
C  -7.50600 20.87900 41.12000
C  -8.90000 20.26500 41.01500
C  -7.28900 21.70300 42.42800
C  -6.16400 19.35800 39.40800
C  -4.68500 18.94900 39.17400
H  -4.41100 17.91000 38.12000
N  -11.92000 19.45300 40.99600
C  -11.40300 20.69200 40.68900
C  -12.52100 21.59600 40.49600
C  -13.70000 20.86900 40.76400
C  -13.24000 19.49500 41.04300
C  -12.33500 23.07800 40.01200
C  -15.14000 21.43900 40.60900
O  -15.34200 22.59700 40.40700
C  -16.38200 20.52500 40.76100
N  -12.41800 16.53100 40.93200
C  -13.66000 16.97100 41.08500
C  -14.70900 15.84100 41.17300
C  -13.79500 14.53800 41.04100
C  -12.37700 15.19400 41.19900
C  -15.59700 15.90100 42.48000
C  -13.85800 13.73100 39.74900
C  -13.80100 12.19700 39.80100
N  -9.64000 16.01300 41.45600
C  -9.94300 14.70800 41.38600
C  -8.79400 13.92100 41.51000
C  -7.74300 14.74500 41.50800
C  -8.31000 16.03300 41.50700
C  -8.68100 12.39100 41.60800
C  -6.31100 14.80900 41.53500
O  -5.45400 13.91500 41.50200
C  -6.02700 16.37400 41.47100
C  -5.28900 16.75900 42.74700
O  -4.11300 16.58900 42.91600
O  -6.15000 17.04400 43.80000
C  -5.53600 16.88700 45.12700
H  -9.78300 22.05900 40.39300
H  -15.09100 18.45000 41.04200
H  -11.47000 13.27700 41.38900
H  -5.80100 19.47800 41.63200
H  -7.30800 21.59400 40.32200
H  -6.26400 21.72600 42.79900
H  -7.97000 21.27600 43.16500
H  -7.67100 22.70200 42.21600
H  -6.27400 20.23400 38.76900
H  -6.89000 18.64400 39.01900
H  -4.30300 18.77600 40.18000
H  -4.23200 19.83700 38.73200
H  -12.59900 23.70100 40.86600
H  -13.02000 23.38400 39.22100
H  -11.30500 23.27100 39.71300
H  -16.15900 19.71100 40.07200
H  -17.33900 20.95300 40.46000
H  -16.48400 20.15400 41.78000
H  -15.39300 15.91100 40.32700
H  -14.00300 13.89600 41.89700
H  -15.68200 14.89500 42.89000
H  -16.61900 16.17900 42.22200
H  -15.10500 16.70200 43.03200
H  -13.13000 14.06300 39.00900
H  -14.82800 13.81600 39.25900
H  -14.81500 11.79800 39.81000
H  -13.19600 11.90500 40.65900
H  -13.40300 11.87500 38.83800
H  -9.63100 11.86800 41.49500
H  -8.08200 12.02500 42.44200
H  -8.14500 12.18300 40.68200
H  -5.44300 16.76900 40.64000
H  -6.19800 17.37500 45.84200
H  -4.62700 17.47200 45.26900
H  -5.34700 15.83900 45.36100

