158

Mg 35.67800 48.28300 26.76100
C  36.23900 46.25200 29.60200
C  34.65200 50.80100 28.86000
C  35.03100 50.13100 24.09000
C  36.89700 45.71600 24.72600
N  35.29900 48.36800 28.97900
C  35.75500 47.49100 29.91000
C  35.63700 48.05700 31.33100
C  34.86200 49.42900 31.03900
C  34.96100 49.58900 29.56200
C  33.51200 49.48600 31.75800
C  37.03000 48.34100 32.02600
C  37.13800 48.04600 33.51900
H  35.94400 48.43300 34.45700
N  35.01300 50.22600 26.52800
C  34.69400 51.14900 27.50000
C  34.34100 52.42400 26.95900
C  34.26400 52.20900 25.53200
C  34.80900 50.83600 25.30600
C  34.01900 53.60500 27.75000
C  33.79400 53.14600 24.36800
O  33.81900 52.77200 23.20700
C  33.18700 54.50300 24.66900
N  36.03000 48.02900 24.69700
C  35.65300 48.90900 23.81800
C  35.72300 48.30500 22.42800
C  36.58400 47.07300 22.67000
C  36.50000 46.92100 24.13400
C  34.38400 47.97700 21.71100
C  38.06900 47.16300 22.29400
C  38.85600 45.96100 21.80500
N  36.22700 46.32300 27.02300
C  36.69100 45.38000 26.06000
C  37.08400 44.11000 26.68400
C  36.88500 44.46000 28.12200
C  36.42600 45.76700 28.21700
C  37.50700 42.84300 26.05400
C  37.02700 43.93200 29.44500
O  37.36600 42.83700 29.86500
C  36.72200 45.08300 30.41300
C  35.54800 44.55500 31.34600
O  34.42700 44.15700 31.03500
O  35.95600 44.63400 32.68400
C  34.98300 44.32100 33.77200
H  34.37600 51.56000 29.59500
H  34.84900 50.53100 23.09000
H  37.25900 45.08400 23.91300
H  35.03500 47.36900 31.92400
H  35.43300 50.21200 31.53800
H  32.87900 50.07000 31.09000
H  33.63300 50.02600 32.69700
H  33.22600 48.45900 31.98700
H  37.28400 49.39900 31.95900
H  37.75200 47.81500 31.40100
H  37.97100 48.57500 33.98200
H  37.31500 46.97800 33.64400
H  34.96600 54.13900 27.82700
H  33.70100 53.24800 28.73000
H  33.18100 54.24200 27.46800
H  33.49800 55.01800 25.57800
H  32.10700 54.36000 24.64600
H  33.43400 55.13700 23.81800
H  36.12500 49.05400 21.74500
H  36.24500 46.13300 22.23500
H  34.00400 47.00300 22.02000
H  34.58700 47.96300 20.64000
H  33.66400 48.76600 21.93000
H  38.55700 47.55000 23.18800
H  38.14900 47.99100 21.59100
H  39.27800 46.15200 20.81800
H  38.25400 45.05700 21.88900
H  39.65300 45.83600 22.53900
H  38.25200 42.39200 26.71000
H  38.04100 43.05000 25.12700
H  36.68000 42.16400 25.84700
H  37.58200 45.28100 31.05300
H  35.17200 44.98900 34.61200
H  35.19900 43.30900 34.11300
H  33.94400 44.48900 33.48800
Mg 10.05400 48.53400 25.81000
C  8.14700 49.03700 28.65500
C  12.72400 50.01600 27.44200
C  11.86900 47.98600 23.09800
C  7.16000 47.87300 23.98100
N  10.44300 49.25200 27.91100
C  9.50000 49.34000 28.91300
C  10.05900 49.93300 30.15500
C  11.34400 50.71100 29.55800
C  11.50600 50.02300 28.17800
C  11.44800 52.26100 29.51200
C  10.26100 48.89000 31.27900
C  9.51900 49.19900 32.57600
H  9.33300 48.09500 33.58000
N  12.05700 48.83400 25.38600
C  12.97800 49.43200 26.19800
C  14.23200 49.15800 25.58800
C  14.05600 48.51000 24.28600
C  12.62200 48.39900 24.18100
C  15.49500 49.40700 26.29500
C  15.10800 48.04600 23.31800
O  14.85500 47.53200 22.29100
C  16.56200 48.17500 23.62100
N  9.50600 48.10200 23.78300
C  10.46600 47.83300 22.88600
C  9.89600 47.23400 21.55300
C  8.35500 47.17500 21.83900
C  8.29900 47.75700 23.24800
C  10.33800 48.07500 20.25200
C  7.80400 45.76100 21.67100
C  7.94300 44.80600 22.88500
N  8.11500 48.33600 26.18200
C  7.02200 48.13900 25.33200
C  5.81300 48.29800 26.06100
C  6.20900 48.64800 27.36100
C  7.64400 48.64400 27.36900
C  4.44900 48.35200 25.54200
C  5.70700 48.87600 28.78300
O  4.53400 48.85000 29.18800
C  6.97000 49.06800 29.68100
C  7.01900 47.96000 30.54900
O  7.72100 46.93400 30.44100
O  6.18900 48.05700 31.62000
C  6.07100 46.94900 32.60500
H  13.49500 50.54900 28.00300
H  12.56000 47.82400 22.26800
H  6.24500 47.68300 23.41600
H  9.45400 50.74200 30.56400
H  12.18900 50.30300 30.11200
H  10.47900 52.72600 29.69100
H  11.68500 52.77100 28.57900
H  12.15700 52.71200 30.20700
H  11.32000 48.92200 31.53500
H  9.99700 47.93200 30.83100
H  8.48800 49.49900 32.38900
H  10.00300 50.02900 33.09100
H  15.36000 49.38900 27.37700
H  15.97600 50.35700 26.06300
H  16.29000 48.67000 26.17800
H  16.88100 49.20100 23.80700
H  17.09500 47.84700 22.72800
H  16.65500 47.51900 24.48600
H  10.28500 46.22100 21.44500
H  7.76800 47.84300 21.20900
H  10.98800 48.79300 20.75100
H  9.46500 48.61900 19.89100
H  10.85500 47.57800 19.43000
H  8.36100 45.28000 20.86800
H  6.73800 45.74700 21.44200
H  8.64100 45.18300 23.63300
H  8.23600 43.82600 22.50800
H  6.96200 44.83700 23.35900
H  4.03100 47.36000 25.37200
H  4.35300 48.93200 24.62500
H  3.82200 48.77500 26.32800
H  6.94900 49.99800 30.24800
H  5.04500 46.59000 32.52500
H  6.25000 47.33900 33.60600
H  6.70100 46.10000 32.34000

