158

Mg 34.71200 3.56800 29.74500
C  32.33400 4.16500 32.36800
C  37.08500 3.57000 32.28500
C  36.79700 3.17600 27.37300
C  32.10500 3.92900 27.51300
N  34.67200 3.81500 32.09800
C  33.59100 4.02600 32.86800
C  33.99200 3.90100 34.37400
C  35.56500 4.22900 34.33000
C  35.84600 3.88400 32.76200
C  36.01200 5.72500 34.64200
C  33.60600 2.55300 35.07700
C  33.06500 2.76800 36.48600
H  33.69800 3.90900 37.36000
N  36.72600 3.43400 29.84300
C  37.50200 3.35600 30.94400
C  38.90100 3.08300 30.50300
C  38.84900 3.02600 29.04900
C  37.47000 3.24600 28.65100
C  40.07700 2.78100 31.43900
C  39.91900 2.68700 28.08300
O  39.70200 2.64300 26.92400
C  41.29800 2.38600 28.70500
N  34.47800 3.65400 27.73300
C  35.50800 3.48400 26.94900
C  35.18400 3.56700 25.40100
C  33.66000 3.61400 25.49500
C  33.35100 3.76200 27.02000
C  35.77000 4.67500 24.58400
C  32.97900 2.28000 24.87100
C  32.63900 1.15100 25.76600
N  32.69400 3.93000 29.92100
C  31.75300 4.02800 28.86700
C  30.43200 4.25100 29.43800
C  30.66400 4.32400 30.85100
C  32.04900 4.15100 31.04900
C  29.16200 4.20500 28.65900
C  29.97800 4.44600 32.07700
O  28.85000 4.78500 32.34500
C  31.11500 4.30200 33.13900
C  31.13700 5.58400 33.93800
O  31.42900 6.73500 33.54800
O  30.67400 5.34100 35.16300
C  30.45700 6.58600 35.98600
H  37.80300 3.55800 33.10800
H  37.50100 3.00800 26.55500
H  31.42900 4.08100 26.66900
H  33.61700 4.68100 35.03800
H  36.04300 3.53200 35.01800
H  36.78600 6.06900 33.95600
H  36.30000 5.83100 35.68800
H  35.16800 6.39200 34.46300
H  34.45100 1.86500 35.06200
H  32.77300 2.19500 34.47200
H  33.25300 1.90000 37.11700
H  32.03000 3.10900 36.51400
H  39.72300 2.84400 32.46800
H  40.91900 3.44800 31.25100
H  40.42200 1.75700 31.29800
H  41.58000 3.27900 29.26400
H  42.05100 2.27000 27.92500
H  41.26600 1.45100 29.26300
H  35.64000 2.69500 24.93200
H  33.32800 4.50900 24.96900
H  35.03400 5.25500 24.02700
H  36.44800 4.22500 23.85900
H  36.30300 5.39700 25.20200
H  33.77500 1.85700 24.25900
H  32.13400 2.64700 24.28900
H  31.58100 1.11900 26.02700
H  33.15200 1.19300 26.72700
H  32.95800 0.16400 25.43100
H  28.62700 5.15400 28.65100
H  28.58400 3.42000 29.14700
H  29.35500 3.83700 27.65200
H  30.90700 3.40700 33.72600
H  29.74800 7.32400 35.61200
H  31.36100 7.11400 36.28700
H  30.14100 5.99000 36.84300
Mg 39.62800 10.31400 29.95500
C  41.52500 11.35800 32.67600
C  37.40300 8.89400 32.30600
C  37.72300 8.90600 27.43300
C  42.12700 11.14600 27.75900
N  39.58100 10.06400 32.18400
C  40.33200 10.73100 33.08300
C  39.87900 10.69700 34.52500
C  38.71700 9.66400 34.33600
C  38.53200 9.58200 32.84500
C  38.88500 8.21800 35.00000
C  39.50900 12.11100 35.09800
C  40.31700 12.74100 36.27500
H  39.55200 13.19900 37.47900
N  37.82700 9.03800 29.90600
C  37.00300 8.67400 30.96100
C  35.74900 7.98300 30.41300
C  35.83500 7.99100 29.01200
C  37.17700 8.63100 28.73700
C  34.78100 7.34500 31.42300
C  34.82100 7.43300 27.99800
O  34.99400 7.46900 26.80500
C  33.51000 6.88800 28.56900
N  39.91400 9.98500 27.94100
C  38.99100 9.45900 27.03800
C  39.54900 9.61800 25.55100
C  40.78300 10.61400 25.72900
C  40.96900 10.57900 27.24900
C  39.84000 8.29700 24.76200
C  40.47200 12.11700 25.39500
C  41.75000 12.80800 24.73600
N  41.45600 11.06100 30.08800
C  42.35300 11.42200 29.14900
C  43.47200 11.97700 29.75300
C  43.17700 12.10700 31.12700
C  41.96800 11.41700 31.29700
C  44.68400 12.42000 29.00300
C  43.62200 12.65900 32.42200
O  44.65500 13.26600 32.65600
C  42.63700 12.13900 33.47200
C  43.33500 11.20600 34.46400
O  43.76000 10.09800 34.20800
O  43.49400 11.89100 35.68500
C  43.99800 11.10800 36.83000
H  36.70900 8.67300 33.12000
H  37.17800 8.57800 26.54500
H  42.92300 11.38200 27.05000
H  40.73000 10.18900 34.97900
H  37.84300 10.13300 34.78800
H  38.00700 7.88800 35.55600
H  39.73500 8.43800 35.64500
H  39.29600 7.48900 34.30200
H  38.45700 12.01300 35.36800
H  39.59500 12.84500 34.29700
H  40.86400 13.63200 35.96800
H  41.05600 11.97400 36.50400
H  34.36700 6.43700 30.98400
H  33.92000 8.00900 31.50300
H  35.33300 7.12900 32.33700
H  33.23400 7.68700 29.25800
H  33.80000 6.01100 29.14800
H  32.71800 6.60700 27.87500
H  38.82100 10.07500 24.88100
H  41.64200 10.30800 25.13200
H  40.92600 8.25500 24.67900
H  39.35800 7.96400 23.84300
H  39.57000 7.46800 25.41800
H  40.10200 12.70500 26.23500
H  39.65400 12.20700 24.68000
H  41.42900 12.98100 23.70900
H  42.60300 12.13500 24.81900
H  41.94600 13.77400 25.20100
H  44.58800 12.02200 27.99200
H  45.65300 12.10400 29.38600
H  44.86000 13.49500 28.96200
H  42.27200 13.02900 33.98400
H  43.49200 11.27900 37.78000
H  45.07800 11.24400 36.88700
H  43.74100 10.05400 36.72300

