158

Mg 53.82000 25.19800 43.85700
C  51.17800 27.37500 43.50800
C  51.59700 22.56000 43.21700
C  56.51200 23.08700 43.35300
C  56.04700 27.84300 43.87400
N  51.65000 25.00500 43.58000
C  50.79700 26.05400 43.36600
C  49.40800 25.53400 42.87600
C  49.47500 24.02900 43.41800
C  51.00000 23.80500 43.43300
C  48.81300 23.84300 44.82100
C  49.31400 25.60000 41.35700
C  47.94300 25.45600 40.79600
H  47.79500 25.48000 39.24300
N  54.00800 23.04500 43.43800
C  52.95600 22.19400 43.21700
C  53.56200 20.95200 42.96400
C  54.97600 21.07100 43.04300
C  55.22700 22.42100 43.28200
C  52.75500 19.70500 42.72100
C  55.90800 19.91900 42.80800
O  55.41100 18.74600 42.62800
C  57.43500 19.89600 42.89200
N  55.97400 25.45300 43.49000
C  56.82800 24.38700 43.43300
C  58.32500 24.98500 43.51300
C  58.09900 26.52100 43.43000
C  56.60200 26.60300 43.67700
C  59.21600 24.53200 44.69400
C  58.42800 27.22500 42.03300
C  59.42300 28.41100 42.04100
N  53.73800 27.26900 43.92800
C  54.67100 28.19900 44.06400
C  53.98900 29.44500 44.27400
C  52.60300 29.23600 44.01800
C  52.53200 27.85400 43.74900
C  54.59700 30.71100 44.70100
C  51.27900 29.82700 43.81500
O  50.94800 30.99200 43.97500
C  50.34500 28.67100 43.32500
C  50.10000 28.96800 41.92400
O  51.02200 29.19100 41.13000
O  48.74900 29.09100 41.76400
C  48.30400 29.84600 40.59000
H  50.89300 21.74700 43.02600
H  57.46300 22.55200 43.30100
H  56.70600 28.71100 43.94100
H  48.60400 26.07900 43.37100
H  49.01300 23.26900 42.78800
H  48.53100 24.85000 45.12800
H  49.55200 23.46800 45.52800
H  47.99100 23.13200 44.91100
H  49.94300 24.85300 40.87300
H  49.74600 26.53700 41.00800
H  47.32900 26.19000 41.31800
H  47.59700 24.46900 41.10100
H  52.70100 19.42600 41.66800
H  51.74500 19.89700 43.08200
H  53.01200 18.85600 43.35500
H  57.93500 20.59700 42.22300
H  57.81300 18.91200 42.61600
H  57.72300 20.06300 43.93000
H  58.88000 24.66900 42.63000
H  58.60200 27.07900 44.22000
H  59.24700 25.43000 45.31000
H  60.24700 24.22800 44.51100
H  58.68500 23.78800 45.28900
H  57.49200 27.57100 41.59500
H  58.79500 26.51500 41.29100
H  60.20400 28.23400 41.30100
H  59.89100 28.64000 42.99800
H  58.79900 29.27000 41.79500
H  54.31500 31.49200 43.99400
H  55.67000 30.57700 44.56200
H  54.50900 30.99600 45.74900
H  49.43700 28.69900 43.92600
H  47.40600 29.36800 40.19700
H  49.01700 30.14900 39.82300
H  47.86800 30.79200 40.90900
Mg 1.97800 41.61800 25.18500
C  2.52500 42.15600 28.52500
C  -0.95000 40.01000 25.92700
C  1.46100 41.30000 21.88400
C  5.19600 42.73400 24.56900
N  0.75100 41.30200 27.05300
C  1.26300 41.56000 28.26200
C  0.26000 41.17400 29.32700
C  -0.74000 40.17200 28.58000
C  -0.36600 40.54000 27.11300
C  -0.72100 38.68900 28.98200
C  -0.49100 42.32400 29.97500
C  -0.32600 42.64700 31.46400
H  -0.86800 41.64500 32.47400
N  0.34700 40.84100 24.08400
C  -0.72300 40.18600 24.54400
C  -1.57200 39.79800 23.42900
C  -0.94200 40.26300 22.20000
C  0.32300 40.86600 22.65100
C  -2.95000 39.27600 23.69100
C  -1.57200 40.33500 20.83300
O  -1.01100 40.81400 19.83900
C  -2.88900 39.72500 20.62300
N  3.25100 41.72700 23.50300
C  2.72200 41.73100 22.28000
C  3.77200 42.17300 21.24300
C  4.92400 42.78300 22.09600
C  4.40800 42.44600 23.45800
C  4.14500 41.05800 20.28200
C  5.04400 44.34100 21.73000
C  3.72600 45.24900 21.89900
N  3.63300 42.19500 26.29600
C  4.85600 42.67000 25.86600
C  5.68400 43.00600 27.09100
C  4.73300 42.88100 28.10600
C  3.50700 42.47400 27.58500
C  7.10300 43.52900 27.08800
C  4.57900 43.09400 29.53200
O  5.32100 43.56500 30.38900
C  3.13100 42.56700 29.86000
C  3.34900 41.27500 30.61000
O  4.05400 40.39300 30.27400
O  2.66500 41.29900 31.82000
C  2.83500 40.13000 32.71400
H  -1.87200 39.47400 26.16100
H  1.27200 41.29800 20.80800
H  6.14200 43.21200 24.30400
H  0.76700 40.61900 30.11600
H  -1.75200 40.56900 28.66500
H  0.00900 38.52200 29.77400
H  -0.46800 38.02700 28.15400
H  -1.67700 38.27200 29.29900
H  -1.56600 42.25800 29.80700
H  -0.24400 43.18400 29.35300
H  -0.77800 43.62600 31.62700
H  0.74500 42.64100 31.66300
H  -3.68100 40.03500 23.40900
H  -3.10300 38.98300 24.72900
H  -3.09200 38.40900 23.04600
H  -3.64100 40.08500 21.32500
H  -2.70600 38.65300 20.69900
H  -3.17000 39.88000 19.58200
H  3.27500 42.96900 20.68800
H  5.87600 42.32000 21.83500
H  5.08500 41.08800 19.73100
H  3.35000 40.91300 19.55000
H  4.22900 40.12900 20.84500
H  5.57100 44.50300 20.79000
H  5.77200 44.70200 22.45600
H  3.88000 45.98200 22.69100
H  2.85800 44.60700 22.05000
H  3.58000 45.83100 20.98900
H  7.82800 42.71600 27.12800
H  7.10400 44.16800 27.97100
H  7.30300 44.13400 26.20400
H  2.68700 43.33400 30.49500
H  2.88000 39.14800 32.24200
H  1.95000 40.06000 33.34700
H  3.70400 40.24100 33.36300

