158

Mg 1.43900 -1.92400 43.33900
C  4.87000 -1.35000 42.67000
C  0.61400 0.94000 41.71500
C  -1.80500 -3.11900 43.08200
C  2.38900 -5.32500 44.23600
N  2.61000 -0.61000 42.12500
C  3.93600 -0.52000 42.12300
C  4.33100 0.63900 41.14400
C  3.07900 1.52500 41.29400
C  1.97800 0.52200 41.64900
C  3.21800 2.77700 42.23700
C  4.64500 0.08800 39.73300
C  6.02400 0.55100 39.25000
H  6.14000 1.19600 37.88800
N  -0.32500 -1.11300 42.73200
C  -0.47700 0.11200 42.10000
C  -1.89600 0.33400 41.85500
C  -2.57500 -0.80100 42.42500
C  -1.55200 -1.79500 42.73600
C  -2.47200 1.69500 41.39600
C  -4.08500 -0.85200 42.58500
O  -4.81400 0.08200 42.35900
C  -4.77600 -2.05400 43.26200
N  0.46900 -4.06700 43.45900
C  -0.91000 -4.18700 43.39500
C  -1.29800 -5.64400 43.62600
C  0.08000 -6.37800 43.75300
C  1.06900 -5.21600 43.81000
C  -2.29900 -5.92400 44.74500
C  0.29700 -7.39300 42.60300
C  0.69200 -8.78400 43.06700
N  3.23600 -3.10600 43.54700
C  3.39700 -4.38200 44.03700
C  4.85200 -4.58400 44.16400
C  5.48500 -3.41500 43.69400
C  4.44900 -2.55600 43.33100
C  5.43700 -5.86100 44.70100
C  6.71300 -2.70100 43.48600
O  7.87600 -3.00500 43.74000
C  6.37300 -1.43700 42.58500
C  7.06000 -0.28300 43.05200
O  7.99600 0.26900 42.58600
O  6.51600 0.17200 44.28300
C  7.13700 1.26700 44.94400
H  0.53000 1.99400 41.44500
H  -2.82300 -3.51300 43.04300
H  2.75500 -6.31100 44.52900
H  5.23900 1.13600 41.48600
H  2.93100 1.96400 40.30800
H  2.48000 2.68700 43.03400
H  3.12300 3.77500 41.80900
H  4.15300 2.64700 42.78200
H  3.90400 0.54600 39.07800
H  4.47300 -0.98500 39.64600
H  6.71200 -0.29300 39.21600
H  6.52600 1.17700 39.98800
H  -3.28900 1.60900 40.67900
H  -1.64400 2.25400 40.96000
H  -2.85800 2.26800 42.23800
H  -5.78900 -1.70400 43.46000
H  -4.38800 -2.25900 44.26000
H  -4.78200 -2.94800 42.63700
H  -1.91000 -5.95700 42.78000
H  0.22200 -6.92000 44.68700
H  -3.16800 -6.52100 44.46800
H  -2.80300 -5.04800 45.15400
H  -1.86200 -6.45800 45.58900
H  1.12600 -7.04100 41.99100
H  -0.55100 -7.41000 41.91900
H  -0.17700 -9.43300 42.96000
H  1.03400 -8.78100 44.10200
H  1.48500 -9.30300 42.52900
H  4.80300 -6.11400 45.55000
H  6.33600 -5.73500 45.30400
H  5.55600 -6.66500 43.97600
H  6.81100 -1.50300 41.58900
H  8.05400 0.89000 45.39600
H  6.37200 1.65600 45.61600
H  7.44600 2.02800 44.22700
Mg 0.58700 8.02000 27.22000
C  1.70000 10.14500 29.83900
C  0.74400 5.50400 29.45600
C  -0.09000 6.03300 24.65300
C  0.95700 10.66800 24.96400
N  1.06200 7.90700 29.43800
C  1.34700 8.92600 30.35800
C  1.12400 8.41600 31.82200
C  1.23700 6.87800 31.61000
C  1.04900 6.70800 30.07500
C  2.57400 6.22100 32.14500
C  -0.23800 8.87100 32.35500
C  -0.33400 8.82400 33.91000
H  0.90400 8.36200 34.78300
N  0.39700 5.93700 27.05700
C  0.46800 5.08000 28.10000
C  0.23500 3.73300 27.54600
C  0.00300 3.89600 26.14100
C  0.14300 5.36800 25.87500
C  0.14600 2.43300 28.36500
C  -0.24400 2.84800 25.04500
O  -0.56200 3.18700 23.90700
C  -0.30700 1.35000 25.34300
N  0.62600 8.27300 25.06900
C  0.08600 7.37000 24.30500
C  -0.27500 7.83200 22.90300
C  -0.13300 9.34400 23.01800
C  0.50400 9.48100 24.39900
C  0.49800 7.20800 21.75100
C  -1.42800 10.09900 22.86300
C  -1.32700 11.50000 22.27800
N  1.15400 10.02600 27.31200
C  1.36900 10.97200 26.34300
C  1.63200 12.27900 26.94000
C  1.76800 11.96500 28.30400
C  1.59800 10.53800 28.45100
C  1.96200 13.61000 26.27900
C  2.19400 12.56100 29.53000
O  2.47200 13.76100 29.77300
C  1.95500 11.45500 30.59500
C  2.97100 11.37700 31.65500
O  4.09100 10.93800 31.53100
O  2.41600 11.99700 32.85600
C  3.31600 12.09700 33.98200
H  0.78100 4.68400 30.17700
H  -0.36500 5.44400 23.77600
H  0.97000 11.56000 24.33400
H  1.93900 8.69900 32.48800
H  0.43200 6.53100 32.25800
H  3.24700 5.92500 31.34100
H  2.27200 5.35600 32.73500
H  3.12700 6.91800 32.77500
H  -1.06800 8.29600 31.94400
H  -0.23400 9.91800 32.05000
H  -1.14900 8.11300 34.04700
H  -0.71000 9.78800 34.25400
H  1.03300 1.82200 28.19700
H  -0.72600 1.82600 28.12100
H  0.16700 2.53500 29.45000
H  -0.09300 0.79700 24.42800
H  -1.31100 1.17700 25.73000
H  0.39300 1.09600 26.13800
H  -1.32700 7.59500 22.74800
H  0.54500 9.70000 22.24200
H  -0.14800 6.82500 20.96100
H  1.16500 6.38900 22.02100
H  1.16600 7.97400 21.35700
H  -1.83900 10.16000 23.87100
H  -2.02200 9.45500 22.21400
H  -1.05400 12.16200 23.10000
H  -2.17400 11.77000 21.64800
H  -0.51300 11.49200 21.55400
H  1.23400 13.90100 25.52200
H  2.89200 13.32100 25.79100
H  2.11000 14.38100 27.03600
H  0.95600 11.72300 30.94000
H  4.29100 12.43800 33.63500
H  3.45800 11.10300 34.40700
H  2.74600 12.68700 34.70000

