158

Mg 8.69200 3.03500 27.57100
C  9.87600 1.38700 30.47700
C  7.08900 5.24000 29.58400
C  7.51900 4.47200 24.84400
C  10.08400 0.40900 25.58800
N  8.33800 3.08000 29.93800
C  9.03700 2.38400 30.89200
C  8.82500 3.02600 32.24600
C  7.87500 4.31500 31.93200
C  7.76200 4.24500 30.38300
C  6.43300 4.40800 32.52300
C  10.09800 3.34200 33.06000
C  9.89400 3.75900 34.47800
H  11.03500 3.51600 35.47800
N  7.37500 4.57300 27.25900
C  6.90500 5.41500 28.17300
C  6.00000 6.39400 27.54600
C  6.27100 6.26800 26.16200
C  7.06700 5.03600 26.00500
C  5.02400 7.34500 28.32900
C  5.69200 7.03600 25.01100
O  5.63500 6.63500 23.85800
C  5.03500 8.27700 25.26400
N  8.90700 2.42100 25.49100
C  8.20600 3.26000 24.60700
C  8.19700 2.62500 23.20100
C  9.22000 1.48300 23.39400
C  9.32300 1.35000 24.90200
C  6.81000 2.08900 22.86800
C  10.58700 1.77500 22.68300
C  11.51400 0.56600 22.35300
N  9.93800 1.40700 27.82300
C  10.39700 0.46600 26.94000
C  11.18100 -0.54200 27.62500
C  10.95300 -0.25000 29.04900
C  10.22500 0.95600 29.12100
C  12.06100 -1.55900 27.00700
C  11.23900 -0.67700 30.38600
O  11.91200 -1.62500 30.82700
C  10.60600 0.38200 31.34800
C  9.78000 -0.30100 32.43900
O  8.60400 -0.58700 32.33900
O  10.50000 -0.48000 33.60100
C  9.80200 -0.88300 34.83300
H  6.80200 6.03100 30.27900
H  7.19600 5.05200 23.97700
H  10.57600 -0.36900 25.00000
H  8.20000 2.41400 32.89600
H  8.38100 5.24400 32.19500
H  6.21800 5.34200 33.04300
H  6.29200 3.63800 33.28000
H  5.68400 4.36700 31.73200
H  10.65200 4.21200 32.70900
H  10.79300 2.50400 33.12100
H  8.97800 3.24100 34.76400
H  9.64500 4.81700 34.39200
H  4.92700 7.24200 29.40900
H  3.99600 7.21200 27.99400
H  5.29800 8.39600 28.23200
H  5.63900 8.84600 25.97100
H  4.02000 8.17300 25.64800
H  4.99200 8.92300 24.38700
H  8.38800 3.31000 22.37600
H  8.91500 0.49400 23.05000
H  6.85600 1.03000 23.12400
H  6.62300 2.25600 21.80700
H  5.97500 2.63200 23.31200
H  11.17400 2.38500 23.37000
H  10.33800 2.35400 21.79400
H  11.79900 0.55200 21.30200
H  11.02000 -0.39200 22.51300
H  12.34600 0.68300 23.04800
H  11.42100 -2.32500 26.57100
H  12.67200 -2.03900 27.77200
H  12.74800 -1.09300 26.30000
H  11.47600 0.77700 31.87300
H  8.83900 -1.30900 34.54900
H  9.54100 -0.02700 35.45700
H  10.29300 -1.58000 35.51200
Mg -10.54000 39.49000 41.68400
C  -10.14800 36.11500 41.12400
C  -7.34900 40.04800 40.45600
C  -11.22300 42.78900 41.80200
C  -13.70300 38.75700 43.06400
N  -8.97500 38.18200 40.76100
C  -8.98100 36.86500 40.71300
C  -7.73500 36.26600 40.06300
C  -6.74400 37.55300 40.25300
C  -7.73000 38.65900 40.58400
C  -5.69900 37.43200 41.36500
C  -8.05100 35.91600 38.60000
C  -7.38400 34.63400 38.10400
H  -6.34500 34.89300 37.02400
N  -9.50400 41.19500 41.04700
C  -8.19200 41.21800 40.57400
C  -7.80800 42.55000 40.44300
C  -8.88700 43.41900 40.79100
C  -9.96700 42.44800 41.28600
C  -6.42500 42.90500 39.96800
C  -8.85200 44.97300 40.75000
O  -7.85600 45.56600 40.35400
C  -10.13200 45.74900 41.16800
N  -12.30500 40.60400 42.19700
C  -12.28200 41.99900 42.22700
C  -13.64500 42.59700 42.71800
C  -14.42200 41.27700 43.22300
C  -13.43200 40.09800 42.84000
C  -13.52800 43.77900 43.73300
C  -15.89000 41.03200 42.68700
C  -17.04700 40.85900 43.72300
N  -11.82600 37.83000 41.95800
C  -13.01100 37.64800 42.62200
C  -13.31400 36.20900 42.79400
C  -12.19700 35.60400 42.23200
C  -11.32600 36.63300 41.77600
C  -14.49000 35.58000 43.45900
C  -11.63900 34.38300 41.89400
O  -12.00600 33.25600 42.11000
C  -10.28500 34.61800 41.06500
C  -9.12900 33.72700 41.60600
O  -8.62100 33.80200 42.73700
O  -8.64700 32.83700 40.68200
C  -7.43900 32.09300 41.07300
H  -6.28100 40.15600 40.25800
H  -11.39100 43.84500 42.02600
H  -14.61800 38.48700 43.59500
H  -7.30600 35.43800 40.62600
H  -6.26800 37.88600 39.33100
H  -4.81900 37.95100 40.98600
H  -5.53600 36.38200 41.60500
H  -6.10900 37.96000 42.22600
H  -7.60200 36.71800 38.01500
H  -9.13700 35.82700 38.54900
H  -8.18700 33.99500 37.73600
H  -6.89400 34.10000 38.91700
H  -6.35700 42.86500 38.88100
H  -5.68500 42.22000 40.38300
H  -6.00200 43.88300 40.19900
H  -10.20600 45.77700 42.25600
H  -11.03900 45.39300 40.68100
H  -9.93800 46.77100 40.84300
H  -14.19600 42.93400 41.84000
H  -14.53100 41.22500 44.30600
H  -12.49400 44.08100 43.89700
H  -14.02600 43.53200 44.67100
H  -14.05700 44.65900 43.36800
H  -15.90400 40.06800 42.17800
H  -16.20700 41.66800 41.86100
H  -17.37900 39.82100 43.72500
H  -17.88100 41.48900 43.41100
H  -16.72700 41.20000 44.70800
H  -14.37400 34.51100 43.64200
H  -15.35300 35.81000 42.83400
H  -14.52500 36.02300 44.45400
H  -10.49700 34.44600 40.01000
H  -6.74100 32.64700 41.70100
H  -6.81600 31.87900 40.20400
H  -7.76400 31.14600 41.50300

