158

Mg 7.30700 3.15300 27.66500
C  8.56500 1.99700 30.74500
C  5.18300 5.14900 29.42300
C  5.98900 4.12600 24.77500
C  8.95300 0.51300 26.02900
N  7.05100 3.55700 29.89700
C  7.68900 3.03100 30.97700
C  7.23300 3.70500 32.32400
C  5.99200 4.49200 31.84900
C  6.08500 4.49900 30.26800
C  4.60100 3.86900 32.35300
C  8.35300 4.57600 33.06100
C  8.67300 4.12100 34.48600
H  9.69200 4.89700 35.34500
N  5.75000 4.40900 27.16200
C  5.00500 5.17100 27.99700
C  4.07700 5.90700 27.26600
C  4.32200 5.73700 25.84100
C  5.41100 4.77100 25.86300
C  2.95900 6.52000 28.01000
C  3.65200 6.35300 24.66300
O  4.02400 6.02800 23.50600
C  2.61000 7.38000 24.91900
N  7.41400 2.43700 25.69200
C  7.03200 3.22700 24.66100
C  7.42900 2.63100 23.30600
C  8.30600 1.37100 23.71900
C  8.26500 1.43100 25.25700
C  6.27500 2.28100 22.30400
C  9.68600 1.30900 23.11700
C  10.06400 0.04700 22.32600
N  8.57500 1.59700 28.17300
C  9.16400 0.61000 27.39000
C  10.04800 -0.13500 28.23400
C  9.86200 0.38800 29.51000
C  8.94100 1.39700 29.48200
C  10.97400 -1.30900 27.83200
C  10.32600 0.28700 30.89600
O  11.13300 -0.50000 31.36100
C  9.58600 1.37100 31.70700
C  9.02300 0.60300 32.82800
O  7.89800 0.08700 32.99500
O  10.00900 0.68100 33.87300
C  9.45500 0.42500 35.23000
H  4.51700 5.79600 29.99800
H  5.89000 4.61700 23.80500
H  9.51400 -0.25100 25.48700
H  6.98600 2.85800 32.96500
H  6.00900 5.55100 32.10600
H  3.97400 3.51100 31.53600
H  4.01500 4.57300 32.94500
H  4.86800 3.07600 33.05100
H  8.17600 5.64700 32.96200
H  9.27500 4.40500 32.50500
H  9.10300 3.13000 34.33700
H  7.79100 3.90300 35.08800
H  3.31200 7.52800 28.23000
H  2.80000 6.08900 28.99900
H  2.04100 6.42600 27.43000
H  1.69600 6.93600 25.31400
H  2.37000 7.88800 23.98600
H  3.05700 8.08500 25.62000
H  8.11500 3.36600 22.88500
H  7.75000 0.47200 23.45300
H  5.45700 2.36900 23.01900
H  6.25300 1.25200 21.94600
H  6.15300 2.98500 21.48100
H  10.38800 1.29700 23.95000
H  9.99800 2.11800 22.45700
H  9.25600 -0.66400 22.15500
H  10.97600 -0.32500 22.79400
H  10.55300 0.14100 21.35600
H  10.42900 -2.25200 27.88900
H  11.84800 -1.21700 28.47700
H  11.16400 -1.15800 26.76900
H  10.27500 2.12000 32.09700
H  8.71100 1.19000 35.45200
H  10.25000 0.38200 35.97600
H  8.94500 -0.52100 35.41000
Mg 5.97700 53.19300 39.64500
C  5.35500 49.71200 39.59300
C  9.24000 52.55500 39.21400
C  6.41400 56.54900 39.14100
C  2.47800 53.71800 39.76600
N  7.15200 51.30400 39.12700
C  6.71800 50.05800 39.38400
C  7.93900 49.08100 39.35200
C  9.12300 50.02600 39.59400
C  8.51000 51.36500 39.26400
C  9.71800 49.92500 41.03100
C  7.98900 48.19600 38.00700
C  7.95800 49.02700 36.70400
H  6.61700 48.91800 35.88600
N  7.56000 54.29100 39.21000
C  8.86800 53.88900 39.14800
C  9.75500 54.94900 38.79500
C  8.99400 56.11000 38.89200
C  7.55400 55.70700 39.10400
C  11.16400 54.75900 38.53700
C  9.53600 57.55900 38.75300
O  10.74500 57.83900 38.48500
C  8.75600 58.72500 39.27300
N  4.58000 54.94900 39.30400
C  5.03400 56.18900 39.30300
C  3.94400 57.19000 39.64500
C  2.63800 56.33300 39.61200
C  3.24700 54.88500 39.53100
C  4.20900 57.92700 41.00900
C  1.74500 56.65800 38.34300
C  0.39400 57.23400 38.72600
N  4.28000 52.05000 39.74800
C  2.90200 52.42000 39.97600
C  2.16100 51.27600 40.41700
C  3.06500 50.18600 40.27200
C  4.30800 50.70800 39.84100
C  0.70900 51.22100 40.86600
C  3.27700 48.74400 40.37700
O  2.44300 47.90600 40.70800
C  4.72300 48.35400 39.87800
C  4.47300 47.61100 38.60800
O  3.82200 48.06400 37.70700
O  5.04900 46.38400 38.64900
C  4.33700 45.41100 37.78900
H  10.32600 52.46700 39.27900
H  6.42000 57.64000 39.19600
H  1.41000 53.91200 39.88600
H  7.86100 48.34600 40.15200
H  9.91900 49.69200 38.92800
H  9.28100 49.11900 41.62000
H  9.59800 50.86200 41.57600
H  10.72200 49.51100 40.94200
H  7.15100 47.50000 37.95900
H  8.90600 47.61100 38.08400
H  8.81500 48.63200 36.15900
H  8.25400 50.05100 36.93000
H  11.38700 55.47300 37.74400
H  11.29500 53.77200 38.09300
H  11.79300 54.75200 39.42700
H  9.38900 59.60200 39.40800
H  8.14000 58.54200 40.15300
H  8.09000 59.21100 38.56100
H  4.04400 57.97700 38.89700
H  2.11800 56.39000 40.56800
H  3.83500 57.39000 41.88000
H  3.89600 58.97100 40.97800
H  5.26200 57.86000 41.28300
H  1.53200 55.82600 37.67200
H  2.20100 57.35000 37.63500
H  0.48500 58.13300 39.33600
H  -0.14600 56.43300 39.23200
H  -0.14200 57.46600 37.80600
H  0.60200 50.60400 41.75900
H  0.13100 50.70100 40.10200
H  0.23900 52.15100 41.18700
H  5.10700 47.66200 40.62800
H  3.26400 45.46900 37.97700
H  4.74700 44.42500 38.00900
H  4.53600 45.72200 36.76400

