158

Mg 47.60200 25.38500 28.98800
C  48.40200 27.46900 31.72800
C  46.15700 23.12600 31.38700
C  47.34900 23.08300 26.61500
C  49.36400 27.45100 26.93500
N  47.55800 25.21800 31.29600
C  47.71000 26.32200 32.15200
C  47.09700 26.11200 33.51600
C  46.55400 24.60800 33.50200
C  46.75800 24.25000 31.93700
C  47.41400 23.66500 34.43400
C  45.94300 27.13100 33.91700
C  45.92300 27.72700 35.38200
H  46.87900 27.20500 36.48400
N  46.84300 23.39200 28.96300
C  46.26000 22.71100 30.01000
C  45.67100 21.48400 29.51900
C  45.99600 21.41500 28.11900
C  46.70300 22.66900 27.78400
C  45.02400 20.47600 30.26900
C  45.74100 20.30000 27.14400
O  46.15700 20.34100 25.95400
C  44.82400 19.09700 27.45100
N  48.41400 25.21500 27.09900
C  48.11800 24.23400 26.25100
C  48.65700 24.46000 24.89300
C  49.08100 25.92000 24.95600
C  48.99400 26.23800 26.42700
C  49.71900 23.40900 24.39100
C  48.24300 26.83700 24.05900
C  48.97100 27.72100 22.98100
N  48.71500 27.11800 29.24600
C  49.30100 27.89700 28.30700
C  49.85800 29.17900 28.88400
C  49.59100 29.00800 30.28700
C  48.85800 27.78200 30.36600
C  50.59900 30.14100 28.07500
C  49.63100 29.61100 31.61100
O  50.05200 30.71100 31.89300
C  48.92600 28.58800 32.53700
C  49.85500 28.19400 33.62100
O  50.49400 27.15500 33.78100
O  49.94900 29.28000 34.45200
C  50.77100 29.18200 35.67900
H  45.57800 22.48300 32.05300
H  47.27500 22.31800 25.83900
H  49.77600 28.10600 26.16400
H  47.83700 26.14100 34.31500
H  45.50300 24.50100 33.76900
H  46.80600 23.38700 35.29600
H  48.38400 24.04100 34.75900
H  47.58000 22.75500 33.85800
H  44.95700 26.70400 33.73100
H  46.04600 27.98800 33.25100
H  44.91300 27.81400 35.78000
H  46.22400 28.75300 35.17000
H  44.73700 20.63400 31.30900
H  45.47400 19.48800 30.36800
H  44.06600 20.31400 29.77600
H  45.25600 18.52700 28.27400
H  44.65100 18.54000 26.53000
H  43.91000 19.50200 27.88400
H  47.84200 24.38800 24.17200
H  50.11100 26.11100 24.65500
H  49.42700 22.81400 23.52600
H  49.91800 22.70800 25.20300
H  50.65900 23.87700 24.09900
H  47.64000 27.50000 24.67900
H  47.54300 26.31400 23.40800
H  48.57200 27.45300 22.00300
H  50.03500 27.56400 23.16000
H  48.81400 28.75200 23.29600
H  50.84900 29.73600 27.09400
H  51.45700 30.42100 28.68600
H  50.11700 31.11900 28.08600
H  48.10100 29.12000 33.00900
H  51.76500 28.78200 35.48000
H  50.24500 28.57800 36.42000
H  50.95700 30.16900 36.10100
Mg -11.58700 38.02400 42.85700
C  -8.99600 35.58000 42.17000
C  -9.29600 40.43400 41.89300
C  -14.18100 40.10200 42.68400
C  -13.72900 35.28800 43.70300
N  -9.40600 37.93900 41.99900
C  -8.50600 36.91800 41.88800
C  -7.05100 37.37100 41.47100
C  -7.20100 38.93600 41.77300
C  -8.72400 39.10500 41.90900
C  -6.54000 39.57900 42.99400
C  -6.72300 36.93700 39.99600
C  -5.63500 35.88400 39.74300
H  -6.07300 34.82600 38.81000
N  -11.69200 40.04500 42.37000
C  -10.64200 40.84900 42.01200
C  -11.06900 42.22500 42.04000
C  -12.50800 42.20300 42.26600
C  -12.89400 40.75400 42.49900
C  -10.26600 43.42300 41.88000
C  -13.46200 43.35300 42.20700
O  -13.17300 44.50300 41.87600
C  -14.81400 43.17500 42.68700
N  -13.67700 37.69500 43.08200
C  -14.51800 38.77700 43.07700
C  -15.87700 38.34800 43.58500
C  -15.75900 36.82100 43.72300
C  -14.28300 36.57500 43.57800
C  -16.16400 39.11200 44.95000
C  -16.71900 36.12900 42.72600
C  -16.07000 35.81400 41.36500
N  -11.42300 35.85600 43.02600
C  -12.34600 34.87600 43.47400
C  -11.69000 33.58700 43.50600
C  -10.42900 33.81600 43.02100
C  -10.29000 35.22700 42.69400
C  -12.18800 32.26600 43.99300
C  -9.20500 33.21700 42.78600
O  -8.76300 32.07200 43.04200
C  -8.17800 34.33200 42.25000
C  -7.15300 34.32500 43.27600
O  -7.05900 34.90300 44.34200
O  -6.18500 33.49300 42.79600
C  -4.95500 33.36300 43.60000
H  -8.58000 41.23900 41.71400
H  -15.07200 40.73200 42.64100
H  -14.44600 34.55400 44.07700
H  -6.30300 36.88800 42.09900
H  -7.02300 39.52700 40.87500
H  -6.01400 38.79200 43.53400
H  -7.26900 39.94200 43.71900
H  -5.74000 40.23500 42.65200
H  -6.31200 37.88400 39.64700
H  -7.59700 36.78600 39.36300
H  -5.38300 35.37600 40.67400
H  -4.71700 36.34400 39.37700
H  -9.95800 43.66400 40.86200
H  -9.34300 43.14800 42.39100
H  -10.63300 44.26000 42.47300
H  -15.39800 42.72400 41.88400
H  -15.22100 44.14200 42.98300
H  -14.83100 42.44600 43.49600
H  -16.58700 38.61700 42.80300
H  -16.14300 36.47100 44.68100
H  -15.95700 38.41500 45.76200
H  -17.14500 39.58200 45.00900
H  -15.53400 39.99300 45.07400
H  -17.61000 36.74700 42.61800
H  -17.17100 35.25900 43.20300
H  -16.79900 36.03200 40.58400
H  -15.79000 34.76400 41.44100
H  -15.19500 36.44300 41.20500
H  -12.45200 32.31500 45.04900
H  -11.47300 31.45700 43.84700
H  -13.03500 31.94500 43.38700
H  -7.67400 34.09900 41.31200
H  -4.37700 34.25700 43.36500
H  -4.43700 32.42100 43.42000
H  -5.19900 33.42300 44.66100

