158

Mg 54.96200 23.91500 44.64700
C  52.35000 26.10300 43.32000
C  53.51800 21.40000 42.84200
C  57.63900 22.15400 45.36300
C  56.47000 26.81600 46.01500
N  53.19000 23.86700 43.10700
C  52.27500 24.81000 42.76500
C  51.24000 24.32400 41.74500
C  51.53900 22.75300 41.80800
C  52.80400 22.62500 42.65200
C  50.33200 21.91200 42.34800
C  51.45400 24.92000 40.31900
C  50.24600 25.15400 39.37200
H  50.53800 25.85300 38.05700
N  55.47200 21.99300 44.24400
C  54.70200 21.10100 43.53300
C  55.43300 19.87800 43.47400
C  56.58600 19.99300 44.28000
C  56.61500 21.42400 44.74100
C  54.94800 18.60000 42.74200
C  57.57300 18.85800 44.65000
O  57.51900 17.85800 43.97900
C  58.75500 19.01900 45.69400
N  56.78200 24.47600 45.43800
C  57.75100 23.46900 45.68700
C  59.01400 24.13200 46.37100
C  58.67800 25.67900 46.38800
C  57.25700 25.70600 45.87500
C  59.19000 23.66500 47.83200
C  59.57300 26.58500 45.47600
C  61.11600 26.37800 45.50800
N  54.44300 26.00700 44.79200
C  55.10400 27.01000 45.51100
C  54.28800 28.19700 45.64000
C  53.16900 27.90500 44.76900
C  53.33700 26.55300 44.22000
C  54.61600 29.42600 46.48600
C  51.93900 28.42600 44.25000
O  51.45000 29.51900 44.46600
C  51.32000 27.27300 43.34000
C  50.99300 27.84900 42.02400
O  51.69900 28.63900 41.38000
O  49.67900 27.61800 41.80500
C  48.83600 28.45300 40.94700
H  53.06600 20.51200 42.39600
H  58.50700 21.58500 45.70200
H  57.03400 27.62300 46.48800
H  50.21400 24.57400 42.01400
H  51.77600 22.32400 40.83400
H  49.98900 21.32000 41.49900
H  49.43600 22.43500 42.68100
H  50.68900 21.35900 43.21700
H  52.16000 24.30700 39.75900
H  51.89200 25.91800 40.32500
H  49.47300 25.62000 39.98300
H  49.85700 24.15000 39.20000
H  55.64700 17.87300 42.32900
H  54.34700 18.94200 41.89900
H  54.17100 18.15000 43.36100
H  58.52900 19.43100 46.67800
H  59.52800 19.58600 45.17700
H  58.92900 17.94600 45.77600
H  59.84400 23.93100 45.69400
H  58.69100 26.17600 47.35800
H  60.06200 23.01400 47.89700
H  58.29900 23.14500 48.18300
H  59.39700 24.47400 48.53200
H  59.34600 27.61800 45.74000
H  59.19800 26.44800 44.46200
H  61.66800 27.20600 45.95300
H  61.55700 26.15500 44.53600
H  61.34400 25.55200 46.18200
H  55.00800 29.15400 47.46600
H  53.69300 29.95600 46.72100
H  55.25200 30.08600 45.89600
H  50.46100 26.77500 43.79000
H  49.16200 29.48000 41.11300
H  47.79200 28.29500 41.22000
H  48.86700 28.23200 39.88000
Mg 36.03000 48.80100 24.71900
C  36.39400 47.06500 27.67000
C  34.91200 51.53200 26.56000
C  35.50400 50.60600 21.85100
C  37.20300 46.07100 22.93400
N  35.82000 49.26200 26.93800
C  35.83500 48.30400 27.92900
C  35.49900 48.91100 29.27400
C  34.78500 50.28200 28.89800
C  35.13300 50.36600 27.34400
C  33.31000 50.36200 29.25700
C  36.82800 49.15800 30.03200
C  36.75300 48.78200 31.50200
H  35.37500 48.81900 32.18400
N  35.29500 50.74500 24.28400
C  34.97800 51.72600 25.20300
C  34.55300 52.89000 24.45900
C  34.74400 52.69200 23.05500
C  35.21300 51.27400 22.98400
C  33.97700 54.14600 25.15400
C  34.38600 53.56100 21.83100
O  34.42000 53.16800 20.65400
C  33.93700 54.97200 22.06800
N  36.11300 48.36300 22.73000
C  35.86700 49.18600 21.69500
C  36.26300 48.55400 20.33900
C  37.01000 47.28200 20.78800
C  36.79100 47.26700 22.28600
C  34.99200 48.35000 19.45700
C  38.46300 47.14800 20.33200
C  39.46900 47.94000 21.20500
N  36.62200 46.90000 25.12600
C  37.10400 45.90200 24.32600
C  37.49500 44.82200 25.18900
C  37.31700 45.18000 26.52600
C  36.76900 46.51600 26.44900
C  38.13100 43.53200 24.78000
C  37.43400 44.78700 27.89400
O  37.77600 43.74300 28.45300
C  36.88500 46.03900 28.66100
C  35.84300 45.52800 29.50800
O  34.72200 45.16700 29.03000
O  36.25700 45.30500 30.77100
C  35.27300 44.59700 31.55700
H  34.55200 52.37800 27.15000
H  35.42500 51.03700 20.85000
H  37.60400 45.20800 22.39900
H  34.77000 48.24700 29.73900
H  35.37200 51.09800 29.32000
H  33.08700 51.28800 29.78700
H  32.86600 49.60100 29.89800
H  32.72800 50.30700 28.33700
H  37.27400 50.14100 29.88700
H  37.54900 48.49200 29.55700
H  37.18000 49.64500 32.01300
H  37.20100 47.83300 31.79600
H  33.38000 53.84300 26.01400
H  33.34000 54.69600 24.46200
H  34.75800 54.79900 25.54200
H  32.93300 55.02300 22.48900
H  33.87000 55.51900 21.12800
H  34.63600 55.48800 22.72600
H  36.95800 49.25500 19.87700
H  36.39400 46.53400 20.28800
H  34.39900 47.49700 19.78700
H  35.16200 48.20500 18.39000
H  34.40200 49.26100 19.55800
H  38.62600 47.57300 19.34200
H  38.61900 46.07000 20.32900
H  40.44000 47.46000 21.32800
H  39.05000 48.07600 22.20200
H  39.61000 48.88700 20.68400
H  37.22300 42.93700 24.68100
H  38.84000 43.12700 25.50200
H  38.67000 43.69700 23.84600
H  37.76900 46.34800 29.21800
H  35.72400 43.98100 32.33600
H  34.71600 43.89400 30.93900
H  34.61400 45.35200 31.98700

