158

Mg 24.64500 -4.99500 45.86000
C  26.63000 -2.72500 44.21200
C  21.97300 -4.02400 43.96400
C  22.88500 -7.86700 46.75200
C  27.28900 -6.09100 47.72100
N  24.36800 -3.55400 44.16000
C  25.33700 -2.67800 43.71900
C  24.71500 -1.76000 42.60400
C  23.16300 -1.93100 42.81000
C  23.16500 -3.22300 43.68900
C  22.41800 -0.65700 43.40700
C  25.12400 -2.06400 41.13700
C  25.48000 -0.88000 40.20700
H  26.46000 -1.11100 39.07700
N  22.71200 -5.82500 45.41100
C  21.70500 -5.22900 44.64600
C  20.48200 -6.05500 44.70300
C  20.74100 -7.22800 45.50500
C  22.16900 -7.01700 45.93700
C  19.21900 -5.60700 44.01800
C  19.70300 -8.16700 45.91700
O  18.57600 -8.03100 45.50100
C  19.97800 -9.26300 46.74300
N  24.99700 -6.79000 47.06700
C  24.17700 -7.80100 47.30800
C  24.82400 -8.82900 48.32500
C  26.09600 -8.07500 48.74000
C  26.15600 -6.88400 47.80400
C  23.92100 -9.26300 49.58000
C  27.35800 -9.05000 48.56700
C  28.44700 -8.97500 49.68400
N  26.57700 -4.51300 46.00500
C  27.55400 -5.07400 46.78100
C  28.76300 -4.37600 46.52500
C  28.49300 -3.45500 45.54100
C  27.11600 -3.57100 45.24100
C  30.05900 -4.81100 47.13800
C  29.04700 -2.42900 44.69700
O  30.20400 -2.05700 44.47300
C  27.83200 -1.94200 43.86600
C  27.64700 -0.52700 44.12600
O  26.74300 -0.03100 44.82100
O  28.40700 0.29000 43.32700
C  28.30200 1.79600 43.38200
H  21.09500 -3.68900 43.40800
H  22.56100 -8.88300 46.98500
H  28.15700 -6.30400 48.34900
H  24.97900 -0.72600 42.82500
H  22.47800 -2.23700 42.01900
H  21.69900 -0.34200 42.65100
H  23.07400 0.20900 43.49600
H  21.89600 -0.75800 44.35800
H  24.38100 -2.69600 40.65100
H  26.04900 -2.63800 41.07100
H  25.74900 -0.09600 40.91500
H  24.59900 -0.48300 39.70100
H  19.04300 -6.09300 43.05800
H  19.04000 -4.53200 44.00500
H  18.32100 -5.96500 44.52300
H  19.11000 -9.58200 47.32100
H  20.71100 -8.94100 47.48200
H  20.43300 -10.07700 46.18000
H  25.02800 -9.76400 47.80400
H  26.10500 -7.79100 49.79300
H  24.46800 -9.17500 50.51900
H  23.41000 -10.21200 49.41600
H  23.13400 -8.51500 49.66600
H  27.77400 -8.79800 47.59100
H  27.06200 -10.09600 48.49200
H  29.43300 -9.19700 49.27700
H  28.25300 -9.52600 50.60400
H  28.56600 -7.95500 50.05100
H  30.87200 -4.18500 46.77100
H  30.22100 -5.84800 46.84500
H  30.10000 -4.70100 48.22200
H  28.17400 -2.05300 42.83700
H  29.34600 2.09300 43.27700
H  27.78100 2.23300 44.23400
H  27.81000 2.15300 42.47800
Mg 40.50600 9.09800 29.33500
C  42.36400 10.25900 32.15900
C  38.19300 7.75400 31.62100
C  38.87200 7.74600 26.71900
C  43.29000 9.98800 27.30300
N  40.34500 9.01500 31.65500
C  41.19100 9.59900 32.58900
C  40.74800 9.29100 34.06600
C  39.41700 8.49800 33.87400
C  39.26400 8.39600 32.28900
C  39.32900 7.08300 34.53600
C  40.50800 10.61100 34.91400
C  41.37000 10.78500 36.17600
H  40.84000 11.83600 37.16800
N  38.79100 7.89500 29.19500
C  37.97500 7.44300 30.23300
C  36.85500 6.64800 29.72900
C  36.97800 6.65200 28.24700
C  38.18500 7.49800 27.95800
C  35.66700 6.20000 30.55700
C  36.07200 5.93800 27.24900
O  36.35300 5.93700 26.04300
C  34.86100 5.17200 27.79600
N  41.12800 8.70100 27.32400
C  40.17500 8.21700 26.40900
C  40.45400 8.65700 24.96200
C  41.80200 9.47200 25.15700
C  42.18900 9.33000 26.65900
C  40.56700 7.54200 23.87300
C  41.54500 11.04700 24.77300
C  42.71500 11.74600 24.03200
N  42.41400 10.08100 29.60900
C  43.44100 10.25600 28.69800
C  44.46700 11.02400 29.34300
C  44.11400 11.00800 30.68500
C  42.83100 10.40600 30.80800
C  45.62200 11.67100 28.69600
C  44.56500 11.44500 32.03300
O  45.65100 11.98600 32.29400
C  43.45900 10.92800 33.02200
C  44.04900 9.99400 33.98500
O  44.22600 8.77000 33.77300
O  44.50100 10.67300 35.03300
C  45.07500 9.85700 36.10400
H  37.43800 7.34200 32.29400
H  38.32800 7.54700 25.79300
H  44.11900 10.41200 26.73300
H  41.48000 8.62200 34.51800
H  38.49700 8.96600 34.22200
H  38.70300 6.41600 33.94300
H  38.88800 7.23300 35.52200
H  40.31800 6.62500 34.57700
H  39.46900 10.79400 35.18800
H  40.62500 11.45700 34.23600
H  42.35700 11.13700 35.87700
H  41.35200 9.83700 36.71400
H  34.76600 6.77500 30.34200
H  35.84200 6.42800 31.60900
H  35.44700 5.14900 30.36900
H  35.20600 4.40400 28.48800
H  34.26100 4.86200 26.94000
H  34.12400 5.81700 28.27500
H  39.66700 9.38000 24.75100
H  42.69300 9.02000 24.72100
H  41.44800 7.57200 23.23100
H  39.75800 7.61900 23.14700
H  40.47900 6.58400 24.38500
H  41.28800 11.50000 25.73100
H  40.68600 11.17600 24.11400
H  42.25500 12.31400 23.22300
H  43.35200 10.92400 23.70400
H  43.31200 12.33200 24.73000
H  46.24200 10.93100 28.19100
H  46.12500 12.44000 29.28200
H  45.05000 12.28200 27.99600
H  43.00000 11.80300 33.48300
H  44.20300 9.40300 36.57400
H  45.65500 10.41900 36.83600
H  45.57000 9.01600 35.61800

