158

Mg 41.26300 8.01000 30.01900
C  42.94800 9.56000 32.84600
C  38.96500 6.91200 32.25400
C  39.87400 6.55900 27.35100
C  43.96500 8.91600 28.15300
N  40.96800 8.33600 32.27700
C  41.71500 9.05500 33.17600
C  41.05100 9.10900 34.58700
C  39.90000 8.06900 34.44300
C  39.89000 7.73100 32.87400
C  40.03100 6.79800 35.25000
C  40.61400 10.46600 35.20000
C  40.35000 10.39800 36.70600
H  41.10900 11.40500 37.57600
N  39.66800 6.79600 29.82100
C  38.79400 6.53000 30.90100
C  37.65100 5.82700 30.29000
C  37.93800 5.64800 28.88400
C  39.19300 6.27600 28.57900
C  36.42100 5.50200 31.16900
C  37.08000 5.16400 27.79700
O  37.52800 4.89800 26.72000
C  35.59200 5.15100 28.03000
N  41.80300 7.82200 27.96000
C  41.04300 7.21800 27.04100
C  41.56500 7.35800 25.63500
C  42.92600 8.16200 25.91000
C  42.90600 8.32600 27.39700
C  41.80200 6.01700 24.88500
C  43.00000 9.57700 25.11600
C  41.93300 10.67900 25.44600
N  43.19500 8.96800 30.39100
C  44.24000 9.22600 29.50000
C  45.29500 9.81400 30.13100
C  44.85300 10.01800 31.46600
C  43.57200 9.47200 31.55300
C  46.66200 10.06300 29.58400
C  45.21200 10.55700 32.73100
O  46.21700 11.15600 33.08100
C  43.98700 10.28200 33.70400
C  44.36900 9.34200 34.79700
O  44.65800 8.17500 34.60300
O  44.22800 9.97100 35.96200
C  44.32700 9.14200 37.09800
H  38.20800 6.66400 33.00000
H  39.35300 6.23100 26.44900
H  44.75900 9.15700 27.44300
H  41.81100 8.62600 35.20100
H  38.96600 8.51800 34.78000
H  40.20200 6.04200 34.48400
H  39.09000 6.45900 35.68300
H  40.83300 6.69700 35.98200
H  39.79900 10.98400 34.69500
H  41.48900 11.05800 34.93100
H  40.61100 9.39100 37.03100
H  39.28800 10.63900 36.76600
H  36.82700 5.40500 32.17600
H  35.90400 4.59800 30.84900
H  35.64600 6.24700 31.35500
H  35.03400 5.10200 27.09500
H  35.31800 6.08900 28.51300
H  35.20700 4.35100 28.66300
H  40.87500 8.02300 25.11500
H  43.76600 7.50200 25.69400
H  41.59600 6.12100 23.81900
H  41.07000 5.29500 25.24600
H  42.82300 5.67200 25.04600
H  42.89200 9.22700 24.09000
H  43.99200 10.00100 25.27100
H  42.38800 11.29000 26.22600
H  41.00100 10.22000 25.77500
H  41.72000 11.34500 24.61000
H  47.44400 9.63400 30.21100
H  46.83000 11.12500 29.40600
H  46.69300 9.59500 28.60000
H  43.62400 11.19100 34.18400
H  45.28800 8.75900 37.44100
H  43.68500 8.27600 36.93000
H  43.75800 9.66600 37.86600
Mg 16.50300 51.97300 24.33600
C  18.37200 50.78900 27.35600
C  14.01100 52.82900 26.72000
C  14.74000 52.74000 21.85100
C  19.00900 50.58300 22.47700
N  16.20500 51.57600 26.83800
C  17.15000 51.35600 27.76400
C  16.64600 51.55200 29.17500
C  15.16900 52.09900 28.91800
C  15.12900 52.18300 27.39100
C  14.08700 51.08500 29.44200
C  17.53500 52.52200 29.94700
C  17.82300 52.26700 31.41400
H  16.91200 51.35300 32.25700
N  14.69200 52.77500 24.23800
C  13.73200 53.02600 25.29600
C  12.57400 53.61800 24.74700
C  12.73100 53.53400 23.30700
C  14.09700 52.98000 23.10500
C  11.46800 54.21400 25.58600
C  11.77600 54.01600 22.20800
O  11.97900 53.90900 20.99400
C  10.42200 54.57100 22.64900
N  16.67300 51.47100 22.41200
C  15.92200 52.02900 21.51300
C  16.36300 51.74700 20.01700
C  17.79600 51.17600 20.26700
C  17.90000 51.21300 21.79700
C  15.32600 50.84800 19.25500
C  18.95900 51.94100 19.57300
C  19.04100 51.81900 18.09100
N  18.35300 50.95900 24.79600
C  19.18400 50.40200 23.83400
C  20.41900 49.96400 24.50600
C  20.08200 50.01700 25.88100
C  18.79900 50.59400 25.99100
C  21.69700 49.45200 23.94100
C  20.58000 49.70100 27.21400
O  21.62400 49.25100 27.58200
C  19.44200 50.12700 28.21000
C  18.97700 48.96100 29.02300
O  18.21600 48.09200 28.69300
O  19.71400 48.99600 30.23800
C  19.33000 47.94200 31.15700
H  13.28600 53.16300 27.46500
H  14.18800 53.06800 20.96800
H  19.72000 50.13100 21.78300
H  16.67000 50.58100 29.67000
H  15.01800 53.10900 29.29900
H  13.54400 50.58400 28.64100
H  13.40400 51.67000 30.05800
H  14.51300 50.30500 30.07300
H  17.15200 53.54200 29.90500
H  18.49900 52.59000 29.44400
H  18.04300 53.23600 31.86200
H  18.77700 51.74500 31.48000
H  11.57100 53.99400 26.64900
H  10.46200 53.96600 25.24800
H  11.63400 55.27600 25.40700
H  10.59200 55.35200 23.39000
H  9.83300 53.75000 23.05600
H  10.10400 54.98100 21.69100
H  16.37400 52.67500 19.44500
H  17.75100 50.11300 20.03000
H  15.01700 51.24200 18.28700
H  14.41600 50.82000 19.85400
H  15.80300 49.88100 19.10100
H  19.82700 51.47000 20.03300
H  19.07500 52.97200 19.90700
H  18.00100 51.65100 17.80800
H  19.67400 50.97100 17.83000
H  19.43800 52.72700 17.63800
H  21.47100 49.26200 22.89100
H  21.91200 48.46500 24.35000
H  22.57200 50.09500 24.03700
H  19.74000 50.94400 28.86700
H  19.94800 48.03700 32.05000
H  19.55700 46.93800 30.79800
H  18.33900 48.13900 31.56600

