158

Mg 1.98200 -0.97000 44.17000
C  5.36000 -0.20100 43.53600
C  1.13200 1.90300 42.47400
C  -1.16300 -2.27900 43.98400
C  3.20700 -4.17000 45.36800
N  3.10600 0.54300 43.01000
C  4.47900 0.68600 43.01100
C  4.89400 2.04200 42.29800
C  3.52800 2.84700 42.39500
C  2.50300 1.72000 42.66600
C  3.52900 3.93300 43.42200
C  5.33700 1.75000 40.85600
C  6.35000 2.79700 40.34200
H  5.82800 3.68000 39.18400
N  0.23500 -0.29400 43.40700
C  0.08600 0.93900 42.77300
C  -1.34300 1.09400 42.47200
C  -2.04600 -0.05200 42.98500
C  -0.96400 -0.95600 43.45900
C  -1.96600 2.31400 41.70300
C  -3.57600 -0.27700 43.07100
O  -4.35200 0.56000 42.57500
C  -4.23900 -1.39700 43.80800
N  1.16200 -2.92600 44.62900
C  -0.24200 -3.15600 44.58100
C  -0.55200 -4.61300 45.09400
C  0.83700 -5.17400 45.51000
C  1.81500 -4.03900 45.10900
C  -1.68200 -4.75700 46.11300
C  1.25900 -6.54000 44.87300
C  2.26800 -7.37000 45.55800
N  3.84400 -1.98500 44.57900
C  4.14800 -3.25600 45.00400
C  5.55600 -3.34900 45.19000
C  6.06500 -2.23300 44.55700
C  5.01000 -1.42500 44.18600
C  6.28300 -4.45200 45.71600
C  7.29400 -1.59400 44.16800
O  8.49900 -1.97900 44.30400
C  6.92500 -0.21300 43.49400
C  7.68200 0.83600 44.23000
O  7.74100 0.94600 45.45500
O  8.25700 1.81100 43.39600
C  8.96600 2.91800 44.03200
H  0.77900 2.83700 42.03200
H  -2.15900 -2.72600 44.02300
H  3.54300 -5.12200 45.78400
H  5.69600 2.49100 42.88400
H  3.34700 3.37200 41.45700
H  4.25900 3.94100 44.23200
H  2.58300 3.91900 43.96300
H  3.64800 4.83000 42.81500
H  4.53900 1.58100 40.13200
H  5.83300 0.78300 40.77400
H  7.29400 2.30800 40.10100
H  6.59000 3.48400 41.15300
H  -1.20300 2.60700 40.98200
H  -1.98900 3.11100 42.44600
H  -2.92700 2.26000 41.19100
H  -5.25600 -1.10400 44.07000
H  -3.66600 -1.70000 44.68400
H  -4.10400 -2.30100 43.21500
H  -0.94500 -5.19700 44.26200
H  0.79500 -5.19200 46.59900
H  -2.15300 -5.71000 45.87100
H  -2.40800 -3.95700 45.96900
H  -1.23300 -4.78100 47.10600
H  1.78400 -6.15400 43.99900
H  0.43700 -7.07300 44.39500
H  2.05800 -8.43600 45.47000
H  2.30100 -7.13300 46.62100
H  3.22300 -7.13700 45.08700
H  5.60100 -4.99700 46.36900
H  7.20800 -4.19400 46.23100
H  6.64500 -5.19600 45.00500
H  7.28100 -0.20000 42.46400
H  10.01800 2.75200 43.80400
H  8.77900 3.06400 45.09600
H  8.70600 3.83300 43.50000
Mg 0.08000 43.63700 25.60800
C  2.00900 43.92600 28.33500
C  -2.78500 43.43000 27.54000
C  -1.66200 42.78000 22.83400
C  3.03100 43.98100 23.65600
N  -0.38700 43.79800 27.68800
C  0.58800 43.88300 28.65800
C  0.01800 43.94700 30.07800
C  -1.48800 43.62000 29.79700
C  -1.59200 43.66400 28.23700
C  -2.12000 42.39200 30.44200
C  0.28400 45.34500 30.76300
C  0.84000 45.31400 32.20300
H  0.44000 44.15600 33.17600
N  -1.94400 43.18600 25.21100
C  -2.99900 43.14100 26.16400
C  -4.23100 42.64900 25.52100
C  -3.88600 42.48900 24.14100
C  -2.44100 42.70300 24.01600
C  -5.49100 42.46600 26.35100
C  -4.83300 42.02500 22.96100
O  -4.43600 41.88700 21.76400
C  -6.21000 41.84200 23.15700
N  0.62100 43.43300 23.52800
C  -0.29900 43.18200 22.58500
C  0.41500 43.11000 21.20000
C  1.68900 44.00200 21.40300
C  1.80500 43.83000 22.92600
C  0.56500 41.67900 20.71600
C  1.60400 45.47600 20.80300
C  1.47000 46.77700 21.69700
N  2.11300 43.93800 25.88000
C  3.15300 44.01000 25.01800
C  4.43300 44.12600 25.77300
C  4.03600 44.08500 27.13200
C  2.63800 44.03500 27.07800
C  5.87700 44.18200 25.28400
C  4.46900 44.04000 28.51800
O  5.55600 43.99300 29.07200
C  3.11100 43.93600 29.40700
C  3.11000 42.65300 30.29300
O  3.12900 41.45100 29.96500
O  3.50500 43.11400 31.52400
C  3.83800 42.12800 32.50600
H  -3.70200 43.37700 28.13100
H  -2.16500 42.52900 21.89800
H  3.95300 44.16100 23.09800
H  0.42100 43.09300 30.62400
H  -2.02600 44.48700 30.18100
H  -2.19900 41.67700 29.62300
H  -3.10500 42.76300 30.72400
H  -1.56700 41.90500 31.24400
H  -0.59000 45.98700 30.66000
H  0.90500 45.96600 30.11800
H  0.60200 46.26500 32.68000
H  1.90900 45.17400 32.04300
H  -5.36200 41.54500 26.92100
H  -6.39000 42.41800 25.73600
H  -5.70300 43.14800 27.17400
H  -6.68300 41.56900 22.21300
H  -6.65800 42.78600 23.46700
H  -6.29800 41.00300 23.84700
H  -0.20100 43.56700 20.42500
H  2.55200 43.48100 20.98800
H  0.26700 40.93500 21.45500
H  1.54700 41.41300 20.32500
H  -0.19700 41.47400 19.96400
H  0.80200 45.49600 20.06600
H  2.54300 45.55500 20.25500
H  1.80900 46.55700 22.70900
H  0.42500 47.08300 21.74600
H  2.16300 47.49000 21.25200
H  6.06500 43.27300 24.71300
H  6.60300 44.34200 26.08100
H  6.11000 45.01400 24.61900
H  3.04100 44.82300 30.03600
H  3.44000 41.12400 32.35600
H  3.54100 42.57000 33.45700
H  4.92400 42.17400 32.57600

