158

Mg 47.90600 16.31800 28.54700
C  45.79200 16.85100 31.49900
C  50.23600 18.26300 30.14200
C  49.30500 16.71100 25.65200
C  44.97700 15.07200 27.01500
N  48.03700 17.41600 30.64800
C  47.06600 17.37800 31.69100
C  47.63800 18.04000 32.94100
C  48.98800 18.66900 32.41600
C  49.13600 18.08300 30.98500
C  49.06800 20.20600 32.53900
C  47.89900 16.96900 34.05700
C  47.64800 17.27200 35.57800
H  47.50200 18.77800 36.02200
N  49.68600 17.20300 28.01300
C  50.55300 17.93600 28.81000
C  51.72100 18.35000 28.03300
C  51.49700 17.85600 26.74700
C  50.16200 17.16400 26.76500
C  52.90900 19.18100 28.71300
C  52.39300 17.95500 25.50200
O  51.99400 17.53400 24.40800
C  53.75400 18.66300 25.60600
N  47.11700 16.10000 26.57600
C  47.97200 16.25200 25.53200
C  47.36900 15.82500 24.18800
C  46.14700 15.00400 24.66000
C  46.06900 15.35500 26.18100
C  47.11700 16.98800 23.13600
C  46.25500 13.48300 24.44800
C  45.50200 12.90500 23.21900
N  45.83500 15.87900 29.14500
C  44.80900 15.42000 28.38500
C  43.56600 15.27400 29.15600
C  43.87900 15.88300 30.34200
C  45.27500 16.27100 30.35600
C  42.25300 14.68400 28.68500
C  43.36500 16.30200 31.63700
O  42.18800 16.17000 32.04700
C  44.60700 16.78200 32.49800
C  44.22800 18.06600 33.19500
O  44.04900 19.20600 32.70500
O  43.92500 17.69500 34.47200
C  43.24400 18.63700 35.35500
H  51.09000 18.70900 30.65500
H  49.73400 16.75900 24.64900
H  44.10000 14.56700 26.60400
H  46.87100 18.74800 33.25500
H  49.74800 18.21700 33.05300
H  48.11500 20.71000 32.70100
H  49.53400 20.77100 31.73200
H  49.65500 20.39200 33.43700
H  48.93100 16.62000 34.04200
H  47.27400 16.17100 33.65700
H  48.48100 16.83600 36.13000
H  46.76200 16.75500 35.94700
H  52.89000 20.19600 28.31600
H  53.88500 18.74400 28.49800
H  52.75200 19.26000 29.78900
H  54.24000 18.73700 24.63300
H  54.27900 18.02200 26.31500
H  53.68800 19.67800 25.99800
H  48.06400 15.07600 23.80700
H  45.23800 15.45600 24.26100
H  47.31300 17.93900 23.63000
H  46.05800 16.96900 22.88100
H  47.72700 16.87100 22.23900
H  45.92700 13.06000 25.39700
H  47.31500 13.26300 24.31900
H  45.00800 13.76400 22.76200
H  44.75200 12.24300 23.65200
H  46.09400 12.23200 22.59900
H  41.60000 14.46600 29.53000
H  42.30300 13.77800 28.08100
H  41.90900 15.54200 28.10700
H  44.84000 15.95900 33.17300
H  42.26100 18.83900 34.92900
H  43.76300 19.58300 35.20600
H  43.18400 18.38200 36.41400
Mg 6.89000 54.47500 41.18300
C  4.59200 51.83800 41.01100
C  9.15900 52.54600 39.82500
C  8.64600 57.26100 40.90000
C  4.02500 56.56200 41.94400
N  6.71100 52.49000 40.25100
C  5.75100 51.50500 40.35200
C  6.22700 50.19500 39.72200
C  7.75300 50.42000 39.58800
C  7.91000 51.93500 39.91200
C  8.61100 49.52500 40.52000
C  5.54700 49.92200 38.34000
C  5.23400 48.47600 38.03200
H  5.71900 47.80800 36.66300
N  8.74400 54.83600 40.53100
C  9.51900 53.89000 40.02000
C  10.81200 54.41400 39.85000
C  10.69200 55.84000 40.04500
C  9.30500 56.08100 40.51100
C  12.05700 53.70600 39.45600
C  11.77100 56.86700 39.72300
O  12.83700 56.46400 39.27000
C  11.50400 58.31900 39.70400
N  6.34000 56.64400 41.36900
C  7.35800 57.56500 41.26900
C  6.87600 59.04300 41.43000
C  5.33900 58.78900 41.49600
C  5.17400 57.21100 41.60200
C  7.53800 59.81500 42.67400
C  4.55400 59.27300 40.26300
C  3.48000 60.39200 40.36500
N  4.75600 54.25000 41.54000
C  3.80000 55.20800 41.86400
C  2.50200 54.53800 42.04800
C  2.82000 53.16500 41.84300
C  4.15700 53.03700 41.45900
C  1.21900 55.10900 42.53300
C  2.26000 51.80500 41.89100
O  1.13400 51.40000 42.19200
C  3.42400 50.90200 41.40500
C  2.84900 49.96100 40.32900
O  2.32600 50.19800 39.26400
O  2.89300 48.68700 40.93900
C  2.44100 47.53400 40.06100
H  9.93200 51.85500 39.48200
H  9.21100 58.19200 40.81800
H  3.21200 57.27800 42.07700
H  6.03700 49.42000 40.46400
H  8.06800 50.22900 38.56200
H  9.34900 48.98700 39.92500
H  7.96100 48.83000 41.05200
H  9.14000 50.17400 41.21800
H  6.18800 50.36500 37.57700
H  4.62300 50.49800 38.39300
H  4.15100 48.58700 37.97900
H  5.50900 47.84200 38.87500
H  12.26300 53.70600 38.38600
H  12.03400 52.68500 39.83900
H  12.89200 54.12700 40.01700
H  10.57900 58.53900 39.17100
H  12.30600 58.80100 39.14500
H  11.54400 58.62700 40.74900
H  7.14100 59.59500 40.52800
H  4.98700 59.23300 42.42700
H  6.79200 60.27400 43.32300
H  8.08700 60.60700 42.16600
H  8.24600 59.18000 43.20700
H  4.15000 58.41100 39.73200
H  5.29700 59.67000 39.57200
H  3.78300 61.25400 39.77100
H  3.30800 60.61800 41.41700
H  2.60200 59.93700 39.90500
H  0.35000 54.71800 42.00200
H  1.34900 56.18700 42.44300
H  1.08200 54.88800 43.59100
H  3.69800 50.28100 42.25800
H  3.26800 46.82900 39.97300
H  2.07700 47.87900 39.09300
H  1.56900 47.14000 40.58400

