158

Mg 8.60900 3.11500 28.07800
C  10.12600 1.76700 30.88200
C  7.16300 5.49200 30.13800
C  7.22100 4.49900 25.34000
C  10.00600 0.56900 26.23800
N  8.30000 3.28300 30.41100
C  9.18200 2.76500 31.27000
C  9.00100 3.47900 32.65600
C  7.90600 4.54600 32.39200
C  7.77400 4.46500 30.81300
C  6.59000 4.31700 33.11800
C  10.38300 4.19700 32.96200
C  10.90900 4.03200 34.33800
H  10.02100 3.66800 35.47500
N  7.26400 4.73600 27.83700
C  6.84200 5.65100 28.77200
C  6.13300 6.75600 28.14400
C  6.18400 6.57400 26.67300
C  6.84300 5.20000 26.57500
C  5.44300 7.81400 28.92800
C  5.72100 7.46200 25.60200
O  5.68400 7.06500 24.44700
C  5.19600 8.89100 25.92400
N  8.38800 2.48700 26.13800
C  7.83400 3.22600 25.16300
C  8.24900 2.77200 23.81000
C  9.07500 1.41200 24.07200
C  9.16800 1.50800 25.59700
C  7.10800 2.52800 22.82200
C  10.41400 1.19000 23.26700
C  10.34300 0.93600 21.74200
N  9.68200 1.43000 28.43200
C  10.38800 0.55800 27.52800
C  11.26200 -0.33900 28.21300
C  11.29100 0.16800 29.51800
C  10.31500 1.18100 29.56500
C  12.09800 -1.44400 27.59300
C  11.95500 0.09800 30.83700
O  12.89600 -0.56500 31.23200
C  11.15700 1.00800 31.77000
C  10.37700 0.15300 32.83000
O  9.22400 -0.27400 32.74400
O  11.17600 -0.02300 33.91300
C  10.61300 -0.85600 35.03900
H  6.98200 6.37300 30.75800
H  7.06400 5.00700 24.38600
H  10.40900 -0.28000 25.68400
H  8.67700 2.72500 33.37300
H  8.28900 5.54500 32.60000
H  5.81300 4.79800 32.52400
H  6.71600 4.92800 34.01200
H  6.33100 3.28400 33.35300
H  10.34600 5.28500 32.90100
H  11.11600 3.89600 32.21300
H  11.50400 4.93500 34.47300
H  11.75700 3.34800 34.33200
H  5.86200 8.80300 28.74300
H  5.35500 7.70100 30.00800
H  4.46500 7.95400 28.46700
H  4.21000 8.70200 26.34800
H  5.19700 9.41400 24.96800
H  5.77800 9.53800 26.58000
H  8.86700 3.50400 23.29000
H  8.51500 0.48900 23.91800
H  7.38800 1.68000 22.19800
H  6.80500 3.39300 22.23200
H  6.25200 2.10500 23.34800
H  10.84500 0.33300 23.78500
H  11.07100 2.03300 23.48300
H  11.12800 1.52000 21.26200
H  9.40100 1.35700 21.39000
H  10.30300 -0.10500 21.42100
H  13.02200 -1.51100 28.16800
H  12.18400 -1.21700 26.53000
H  11.58700 -2.40100 27.69900
H  11.75700 1.70600 32.35400
H  11.50500 -1.39700 35.35600
H  9.85000 -1.57300 34.73600
H  10.17800 -0.20500 35.79700
Mg 6.97500 56.80900 41.76800
C  5.62400 53.59700 41.04500
C  9.93200 55.79500 40.85900
C  7.83100 60.18600 41.62700
C  3.68100 57.87600 42.39700
N  7.60100 54.91500 40.91300
C  6.95000 53.67700 40.71800
C  8.00000 52.58200 40.32600
C  9.39300 53.31100 40.57900
C  8.93400 54.75300 40.96000
C  10.17300 52.57800 41.69000
C  7.64600 52.21500 38.82800
C  7.61800 50.73300 38.41000
H  7.41500 50.35000 36.84900
N  8.57800 57.87600 41.22300
C  9.74700 57.25900 40.88000
C  10.76900 58.21700 40.62200
C  10.18400 59.51000 40.72200
C  8.76600 59.24700 41.18200
C  12.16700 57.83600 40.26100
C  10.81700 60.81900 40.45400
O  12.00300 60.96700 40.14300
C  10.16400 62.13800 40.57700
N  5.81700 58.82300 41.91400
C  6.50200 60.02100 41.96200
C  5.51700 61.20300 42.29300
C  4.18800 60.36000 42.54800
C  4.54300 58.93800 42.25000
C  6.04600 62.04700 43.46800
C  2.88100 60.86300 41.81600
C  1.70300 61.47200 42.61300
N  5.04200 56.00300 41.76200
C  3.83700 56.50200 42.19000
C  2.84300 55.53200 42.30500
C  3.56500 54.32100 41.92100
C  4.85200 54.66400 41.55400
C  1.42100 55.58300 42.84100
C  3.47300 52.88300 41.79700
O  2.63700 52.09600 42.16800
C  4.69000 52.37700 41.23000
C  4.33300 51.74500 39.90300
O  4.14000 52.32200 38.84100
O  4.22300 50.41200 40.02300
C  3.64400 49.62600 38.88800
H  10.93500 55.54300 40.50700
H  8.24500 61.19400 41.69700
H  2.66000 58.22400 42.56700
H  7.69100 51.79200 41.01000
H  10.08900 53.22700 39.74400
H  11.17100 53.01100 41.75100
H  10.17800 51.50000 41.53200
H  9.60300 52.91100 42.55700
H  8.33500 52.62100 38.08700
H  6.72100 52.69600 38.51000
H  6.86900 50.29500 39.06900
H  8.58000 50.32200 38.71700
H  12.43700 58.35100 39.33900
H  12.42200 56.79800 40.04600
H  12.85700 58.16400 41.03800
H  10.39800 62.47000 41.58800
H  9.11400 62.22400 40.29900
H  10.62200 62.85700 39.89800
H  5.49000 61.70200 41.32400
H  4.00100 60.31100 43.62000
H  5.36600 61.97300 44.31700
H  6.10800 63.08800 43.15100
H  7.07100 61.81200 43.75400
H  2.38200 60.09900 41.22000
H  3.25800 61.62300 41.13100
H  1.98600 61.23900 43.64000
H  0.79800 60.95700 42.29200
H  1.59800 62.49600 42.25400
H  0.75100 55.22000 42.06100
H  1.12500 56.61300 43.03600
H  1.33400 55.05400 43.79000
H  5.23800 51.64200 41.82000
H  3.29300 48.77700 39.47400
H  4.38300 49.45000 38.10700
H  2.85900 50.21900 38.41800

