158

Mg 1.19700 8.58100 27.50100
C  2.16600 10.84700 30.01400
C  1.62200 6.12800 29.64400
C  0.76500 6.65300 24.92500
C  1.54400 11.32500 25.27100
N  1.81300 8.50300 29.63500
C  1.96500 9.51400 30.50100
C  1.88100 9.09100 31.93300
C  2.14400 7.55000 31.69800
C  1.80000 7.32300 30.23300
C  3.64000 7.09700 32.06500
C  0.50700 9.49200 32.48300
C  0.29200 9.58000 33.99800
H  1.49600 9.17500 34.87500
N  1.15500 6.55800 27.32400
C  1.42400 5.70100 28.31400
C  1.33000 4.30700 27.82700
C  1.02200 4.39000 26.43400
C  0.98600 5.91700 26.13500
C  1.61200 3.09800 28.68900
C  0.86100 3.34100 25.36400
O  0.33900 3.55700 24.23400
C  1.12800 1.89200 25.71700
N  1.33200 8.92600 25.43900
C  0.94500 7.94200 24.63400
C  0.99500 8.35400 23.13500
C  0.97000 9.92600 23.22800
C  1.32800 10.08100 24.71000
C  2.22200 7.77400 22.42400
C  -0.37300 10.58500 22.99400
C  -0.39300 11.85300 22.10500
N  1.71400 10.69100 27.57500
C  1.80700 11.65200 26.62200
C  2.18200 12.94900 27.15300
C  2.36200 12.64700 28.49400
C  2.03100 11.29400 28.73700
C  2.20500 14.19300 26.38400
C  2.78000 13.16300 29.78600
O  3.25000 14.22900 30.17300
C  2.56700 12.08600 30.84200
C  3.74700 11.87300 31.76200
O  4.77800 11.20500 31.58800
O  3.42900 12.46700 32.95000
C  4.62500 12.61800 33.84900
H  1.68300 5.22000 30.24700
H  0.61200 5.98000 24.07800
H  1.48800 12.22800 24.66000
H  2.63400 9.51800 32.59500
H  1.48900 6.93300 32.31300
H  3.65700 6.71700 33.08700
H  4.20000 8.03200 32.03200
H  4.08400 6.34400 31.41400
H  -0.24800 8.80800 32.09200
H  0.20200 10.48000 32.13900
H  -0.57200 9.01100 34.34300
H  0.14000 10.61700 34.29800
H  1.04700 2.24300 28.31700
H  1.21500 3.26000 29.69100
H  2.68300 2.90200 28.73300
H  2.06200 1.73600 26.25700
H  1.22300 1.36800 24.76600
H  0.24600 1.59300 26.28300
H  0.08100 7.98700 22.66700
H  1.66400 10.34400 22.49900
H  2.57000 8.38000 21.58700
H  1.74600 6.90800 21.96300
H  2.99000 7.54000 23.16100
H  -0.83700 10.82400 23.95100
H  -1.14300 9.95900 22.54400
H  -0.25400 11.40300 21.12200
H  0.51500 12.44800 22.21100
H  -1.30600 12.36400 22.40900
H  1.24600 14.70900 26.42300
H  2.46300 14.08400 25.33100
H  2.89600 14.91000 26.82800
H  1.76200 12.38400 31.51300
H  5.31500 13.33400 33.40200
H  5.15500 11.73600 34.20900
H  4.29400 13.08800 34.77500
Mg -9.91100 17.54000 40.52300
C  -6.44300 17.20500 41.00100
C  -9.40100 20.96000 40.19300
C  -13.12000 17.91500 39.45700
C  -10.21800 14.12100 40.44300
N  -8.16800 18.88800 40.53700
C  -6.82100 18.54800 40.75800
C  -5.95000 19.84800 40.67600
C  -6.99000 20.87900 41.05300
C  -8.28700 20.24100 40.56800
C  -7.08300 21.24800 42.58500
C  -5.38700 20.04500 39.20500
C  -3.91800 19.45200 39.03900
H  -3.55800 18.54100 37.83500
N  -11.12500 19.23600 39.88900
C  -10.62300 20.52600 39.71900
C  -11.73700 21.38000 39.33200
C  -12.88500 20.55700 39.25500
C  -12.43200 19.17200 39.54200
C  -11.56300 22.85600 39.04500
C  -14.24000 20.95900 38.84800
O  -14.39900 22.13000 38.60400
C  -15.44500 20.09200 38.98400
N  -11.39100 16.21800 39.82300
C  -12.68200 16.55600 39.70300
C  -13.61000 15.39100 39.84500
C  -12.64000 14.21600 39.66500
C  -11.30200 14.89200 39.95900
C  -14.50500 15.29500 41.13700
C  -12.68000 13.51700 38.26400
C  -13.10700 12.08700 38.20900
N  -8.64000 15.96700 40.67800
C  -8.93300 14.61900 40.67600
C  -7.78200 13.88900 41.08000
C  -6.77900 14.85500 41.25000
C  -7.33100 16.13900 40.94800
C  -7.67900 12.35000 41.32300
C  -5.39700 15.00000 41.62600
O  -4.59800 14.20500 42.11900
C  -5.10100 16.52700 41.31400
C  -4.29900 16.98400 42.47100
O  -3.20700 17.49900 42.38200
O  -4.90000 16.81500 43.72300
C  -3.96400 16.47100 44.83300
H  -9.34400 22.04800 40.25600
H  -14.15100 17.80400 39.11600
H  -10.39800 13.04500 40.50100
H  -5.08800 19.83900 41.34200
H  -6.76000 21.73800 40.42300
H  -6.79000 22.29000 42.71000
H  -6.49000 20.54900 43.17400
H  -8.07200 21.10300 43.01900
H  -5.35300 21.09600 38.91900
H  -6.05400 19.42500 38.60500
H  -3.60800 18.94100 39.95100
H  -3.24400 20.30700 39.00000
H  -12.13200 23.11600 38.15300
H  -10.53400 23.16300 38.85600
H  -11.89600 23.50500 39.85500
H  -15.32900 19.23400 38.32200
H  -16.35400 20.68200 38.86900
H  -15.41800 19.66900 39.98800
H  -14.28800 15.41200 38.99200
H  -12.97200 13.49600 40.41200
H  -14.02700 15.68400 42.03600
H  -14.85500 14.27100 41.26200
H  -15.34300 15.94800 40.89300
H  -11.69000 13.64400 37.82600
H  -13.20200 14.05300 37.47200
H  -14.12500 11.87300 37.88200
H  -13.06100 11.66400 39.21300
H  -12.42500 11.49900 37.59500
H  -6.73200 12.14200 41.82100
H  -7.59400 11.92300 40.32300
H  -8.50400 11.89300 41.87000
H  -4.52500 16.52900 40.38900
H  -4.14200 15.44400 45.15200
H  -4.21100 17.04700 45.72500
H  -2.90400 16.52800 44.58700

