158

Mg 47.52100 24.76900 27.97500
C  48.41100 27.05900 30.60400
C  47.03900 22.36000 30.50500
C  46.91300 22.49300 25.56400
C  48.66100 26.96900 25.81700
N  47.64500 24.77200 30.28900
C  47.81200 25.89100 31.11200
C  47.82700 25.53400 32.64700
C  47.54800 23.97800 32.52300
C  47.36400 23.65500 31.01400
C  48.68400 23.16900 33.25500
C  46.76900 26.27400 33.51200
C  47.06700 26.25700 34.99900
H  45.89500 26.41800 35.96700
N  46.94500 22.76700 28.07900
C  46.85600 21.92300 29.15200
C  46.32900 20.61400 28.76700
C  46.34000 20.62800 27.27900
C  46.72800 22.03000 26.91600
C  45.99700 19.53400 29.69900
C  46.10600 19.55200 26.27500
O  46.39600 19.66600 25.09200
C  45.65400 18.20300 26.79100
N  48.04400 24.57800 25.91500
C  47.49300 23.66700 25.07200
C  47.45100 24.12400 23.60700
C  48.01400 25.59900 23.71900
C  48.18900 25.76100 25.26100
C  48.27200 23.17500 22.67400
C  47.15100 26.74700 23.13800
C  47.75800 27.55300 21.96200
N  48.29600 26.73600 28.15100
C  48.72200 27.45200 27.09600
C  49.20800 28.68300 27.50000
C  49.15100 28.61800 28.94600
C  48.58100 27.34200 29.26700
C  49.94000 29.70900 26.70600
C  49.46300 29.27000 30.21400
O  50.11600 30.31300 30.49100
C  48.79000 28.40200 31.23300
C  49.61800 28.38200 32.52100
O  50.72300 27.81900 32.61100
O  48.99000 29.01100 33.52100
C  49.60000 29.16500 34.85700
H  46.81300 21.62000 31.27500
H  46.48500 21.89300 24.75900
H  48.91800 27.66800 25.01800
H  48.79200 25.75300 33.10600
H  46.58600 23.68400 32.94300
H  49.26600 23.81400 33.91400
H  49.45200 22.76900 32.59300
H  48.24900 22.37500 33.86200
H  45.84800 25.69500 33.44100
H  46.68400 27.26000 33.05400
H  47.79800 27.04700 35.16800
H  47.39200 25.23300 35.18400
H  45.00600 19.09000 29.60900
H  46.12800 19.76400 30.75600
H  46.80900 18.82500 29.53500
H  46.46600 17.79900 27.39600
H  45.54100 17.48400 25.97900
H  44.67300 18.27900 27.26000
H  46.45300 24.23900 23.18500
H  49.01900 25.62900 23.29700
H  48.57200 22.23400 23.13500
H  49.18000 23.75000 22.49300
H  47.79800 23.06100 21.69900
H  47.03700 27.51400 23.90400
H  46.16700 26.38200 22.84300
H  48.67500 27.10500 21.57700
H  47.82400 28.63700 22.05000
H  46.96200 27.59600 21.21800
H  49.78900 29.57200 25.63500
H  51.02600 29.70400 26.80600
H  49.50800 30.67700 26.95900
H  47.83700 28.88800 31.44200
H  50.53100 28.60200 34.92900
H  48.98100 28.76300 35.65900
H  49.72800 30.21200 35.13000
Mg 0.38400 44.37500 24.24500
C  2.34700 43.87100 27.24300
C  -2.44700 43.89500 26.28300
C  -1.31000 44.21800 21.54700
C  3.44900 44.13700 22.46900
N  0.02300 43.57700 26.40900
C  0.95900 43.72100 27.47000
C  0.21300 43.66100 28.83100
C  -1.25800 43.34000 28.41300
C  -1.26100 43.62500 26.91700
C  -1.75800 41.92900 28.81900
C  0.34000 44.97100 29.64000
C  0.76000 44.90100 31.12700
H  0.43100 43.55400 31.81300
N  -1.65800 44.28100 23.94100
C  -2.61500 44.22900 24.91900
C  -3.87300 44.39500 24.19300
C  -3.57000 44.54400 22.78200
C  -2.16200 44.35500 22.68300
C  -5.18900 44.34800 25.02900
C  -4.52200 44.70500 21.64000
O  -4.20200 44.54800 20.44800
C  -5.97300 45.03100 21.93200
N  1.07200 44.18300 22.32500
C  0.15700 44.14500 21.35000
C  0.72400 43.82500 19.93200
C  2.17400 44.37900 20.23400
C  2.24000 44.22800 21.75400
C  0.61000 42.27000 19.68300
C  2.49700 45.83800 19.73000
C  3.80500 45.97300 19.00300
N  2.48800 44.13300 24.73200
C  3.61300 44.08400 23.92600
C  4.79200 44.04100 24.72100
C  4.38100 43.99800 25.99800
C  2.95000 44.01700 25.97700
C  6.17200 43.97400 24.27900
C  4.79100 43.90300 27.36500
O  5.93000 43.74200 27.80500
C  3.53500 43.94500 28.25200
C  3.56100 42.77700 29.22000
O  3.11900 41.64900 29.01100
O  4.21600 43.21100 30.37700
C  4.52600 42.26800 31.43000
H  -3.36300 43.84900 26.87700
H  -1.83700 44.32300 20.59700
H  4.35500 44.10400 21.86100
H  0.71100 42.81600 29.30800
H  -2.03800 43.93700 28.88400
H  -0.92400 41.46100 29.34300
H  -2.00300 41.32300 27.94700
H  -2.49700 42.10800 29.60100
H  -0.54900 45.59700 29.56600
H  1.07200 45.57000 29.09700
H  0.17500 45.67000 31.63200
H  1.82400 45.13500 31.15900
H  -6.09100 44.69200 24.52300
H  -5.18100 44.98900 25.91100
H  -5.37100 43.34200 25.40800
H  -6.48700 44.13100 22.26900
H  -6.41600 45.45100 21.02900
H  -5.94800 45.79000 22.71400
H  0.15700 44.43300 19.22700
H  2.84400 43.62100 19.82700
H  0.56000 41.82000 20.67400
H  1.48100 41.79500 19.23200
H  -0.26400 42.07800 19.05900
H  2.46300 46.54700 20.55700
H  1.66900 46.03200 19.04800
H  4.37300 45.07000 19.22600
H  4.18200 46.89200 19.45400
H  3.67900 46.05000 17.92400
H  6.48600 43.05800 23.77700
H  6.82100 44.07600 25.14900
H  6.35200 44.82400 23.62100
H  3.48800 44.84400 28.86700
H  4.14700 41.26900 31.21500
H  4.01900 42.68300 32.30200
H  5.61400 42.28400 31.49300

