158

Mg 1.96600 -1.18400 45.33500
C  5.23600 0.05400 44.83000
C  0.79100 1.21400 43.24500
C  -0.89300 -2.74600 45.19500
C  3.52600 -4.13900 46.70300
N  2.91600 0.48700 44.12400
C  4.25400 0.79800 44.13700
C  4.44600 2.09300 43.28600
C  2.98800 2.48000 42.90600
C  2.15100 1.37400 43.54000
C  2.56300 3.80000 43.58100
C  5.34500 1.95200 42.05400
C  6.49200 2.94500 41.83100
H  7.41200 2.50000 40.69000
N  0.09000 -0.70300 44.59700
C  -0.18100 0.34200 43.69900
C  -1.55800 0.34400 43.35400
C  -2.07500 -0.87300 44.01400
C  -0.94700 -1.50000 44.63600
C  -2.31100 1.31000 42.36800
C  -3.52300 -1.35100 43.95600
O  -4.40500 -0.81100 43.26100
C  -4.02500 -2.51200 44.68000
N  1.47200 -3.21700 45.59800
C  0.12900 -3.53400 45.65800
C  -0.09000 -4.90700 46.30400
C  1.33400 -5.37800 46.74200
C  2.17800 -4.15800 46.34500
C  -1.00600 -4.86900 47.54300
C  1.80700 -6.78100 46.20700
C  1.86100 -8.00900 47.19700
N  3.91500 -1.96900 45.66000
C  4.40000 -3.12400 46.28500
C  5.87800 -3.02900 46.44800
C  6.13400 -1.77400 45.96700
C  4.96400 -1.18700 45.50700
C  6.71700 -4.10000 47.09200
C  7.26400 -0.86700 45.74600
O  8.38000 -0.98400 46.01700
C  6.66600 0.37800 44.96300
C  6.81900 1.56200 45.84600
O  6.41700 1.69200 47.03400
O  7.46300 2.58200 45.17400
C  7.79600 3.78800 45.93800
H  0.38800 1.87600 42.47600
H  -1.85500 -3.24400 45.33000
H  3.91700 -5.06500 47.13000
H  4.95800 2.83300 43.90200
H  2.81800 2.59300 41.83500
H  1.94900 3.57100 44.45200
H  2.01000 4.40000 42.85800
H  3.45800 4.36300 43.84500
H  4.75100 2.18000 41.16900
H  5.71200 0.94400 41.85900
H  7.08500 2.99000 42.74500
H  6.05100 3.93300 41.69700
H  -1.73300 2.21400 42.17400
H  -3.34000 1.43600 42.70500
H  -2.32600 0.71500 41.45500
H  -3.69400 -2.39200 45.71200
H  -3.59800 -3.44200 44.30300
H  -5.11100 -2.42100 44.64800
H  -0.40500 -5.61300 45.53500
H  1.47500 -5.44400 47.82000
H  -1.70200 -5.69000 47.36900
H  -1.61500 -3.96600 47.58700
H  -0.44900 -4.98900 48.47200
H  2.82200 -6.64200 45.83500
H  1.17900 -7.17500 45.40800
H  1.56500 -8.94200 46.71600
H  1.14500 -7.81200 47.99500
H  2.88100 -8.05100 47.57800
H  6.18400 -5.03400 47.26800
H  7.05400 -3.82500 48.09200
H  7.60400 -4.27400 46.48400
H  7.18100 0.40500 44.00300
H  8.49300 4.34400 45.31200
H  8.43800 3.57700 46.79300
H  6.89800 4.35300 46.18800
Mg 47.23600 25.59600 27.63400
C  48.41600 27.61400 30.34300
C  46.39300 23.13200 30.12900
C  46.81900 23.32100 25.15900
C  48.76500 27.70000 25.56600
N  47.36900 25.41700 30.03800
C  47.79100 26.46500 30.87100
C  47.51200 26.09900 32.30200
C  46.92700 24.61000 32.23900
C  46.88600 24.35700 30.75900
C  47.77400 23.60500 32.96700
C  46.57700 27.17200 32.95700
C  47.16500 27.92000 34.17800
H  46.23500 28.07500 35.30200
N  46.58000 23.50100 27.66000
C  46.26100 22.68600 28.77400
C  45.72600 21.42700 28.22100
C  45.81500 21.56900 26.78500
C  46.40400 22.85100 26.48100
C  45.12000 20.34100 29.02900
C  45.33700 20.46000 25.75300
O  45.33300 20.65300 24.54600
C  44.91500 19.06700 26.14400
N  47.87800 25.46200 25.69100
C  47.50100 24.44300 24.84200
C  47.90300 24.73700 23.39700
C  48.24000 26.27800 23.56500
C  48.23400 26.50800 25.00900
C  49.22600 23.85400 23.04300
C  47.19500 27.18600 22.83400
C  45.83300 27.24100 23.60400
N  48.37700 27.31000 27.81900
C  48.83800 28.12900 26.87900
C  49.49500 29.31700 27.46100
C  49.32700 29.12700 28.80100
C  48.68000 27.89300 28.99200
C  50.27200 30.49100 26.74900
C  49.66200 29.66500 30.11500
O  50.27700 30.67400 30.42000
C  49.06900 28.64100 31.16900
C  50.17300 28.16400 32.01000
O  50.98600 27.32700 31.66400
O  50.33100 28.92800 33.12800
C  51.61700 28.73200 33.85700
H  45.98800 22.41000 30.84100
H  46.62800 22.61600 24.34800
H  49.04700 28.50600 24.88500
H  48.44700 26.03600 32.85800
H  45.94300 24.71000 32.69600
H  47.15100 22.76000 33.25900
H  48.36800 24.06200 33.75800
H  48.44300 23.14900 32.23700
H  45.56800 26.82000 33.17300
H  46.31400 27.93300 32.22100
H  47.40300 28.93400 33.85600
H  48.12700 27.51600 34.49100
H  45.21400 20.47400 30.10600
H  45.69400 19.44700 28.78700
H  44.06300 20.35200 28.76200
H  45.80200 18.59000 26.56000
H  44.83800 18.40300 25.28300
H  44.05400 19.06600 26.81300
H  47.09900 24.45500 22.71800
H  49.25400 26.40800 23.18500
H  50.11100 24.45700 22.84200
H  48.92700 23.19600 22.22700
H  49.44100 23.38700 24.00500
H  46.89500 26.76500 21.87500
H  47.63900 28.17100 22.69100
H  45.82200 27.97600 24.40900
H  45.65300 26.28700 24.09900
H  45.02300 27.30100 22.87700
H  50.92000 30.09600 25.96600
H  50.87400 30.98900 27.50900
H  49.52300 31.10000 26.24200
H  48.41400 29.20400 31.83400
H  51.52100 28.13600 34.76400
H  51.91800 29.70600 34.24400
H  52.51800 28.47800 33.29800

