158

Mg 24.35700 -5.77800 45.52500
C  26.55700 -3.36700 44.27400
C  21.89300 -4.54300 43.44200
C  22.64000 -8.75800 45.97800
C  27.04600 -7.22200 47.22900
N  24.30900 -4.13700 44.06600
C  25.29600 -3.21200 43.72500
C  24.80700 -2.23700 42.66900
C  23.27500 -2.54600 42.68000
C  23.14500 -3.87300 43.40600
C  22.29500 -1.49200 43.23900
C  25.48000 -2.51700 41.29600
C  25.55800 -1.36200 40.34400
H  26.28300 -1.56100 38.97800
N  22.47400 -6.49100 44.94000
C  21.58700 -5.76600 44.18500
C  20.35000 -6.42800 44.19300
C  20.48100 -7.69700 44.84800
C  21.94000 -7.73100 45.31700
C  19.07000 -5.95100 43.42400
C  19.29000 -8.64500 45.06300
O  18.14100 -8.38400 44.71300
C  19.49600 -9.93000 45.86700
N  24.81500 -7.76100 46.29800
C  23.96500 -8.81100 46.39800
C  24.58300 -10.02800 47.07400
C  25.97800 -9.47500 47.52900
C  25.91900 -8.05100 47.03600
C  23.82700 -10.64400 48.27500
C  27.18000 -10.26900 46.94500
C  27.50600 -11.54700 47.69500
N  26.31600 -5.38900 45.90600
C  27.27400 -5.96700 46.67900
C  28.48300 -5.14400 46.71600
C  28.21900 -4.09600 45.78600
C  26.90500 -4.30700 45.29400
C  29.77500 -5.38500 47.49800
C  28.88000 -2.98700 45.13900
O  29.99100 -2.49500 45.14900
C  27.73400 -2.48400 44.14400
C  27.60600 -1.02100 44.28800
O  28.03700 -0.23600 43.49900
O  26.91700 -0.72900 45.48700
C  26.39500 0.62700 45.68500
H  20.95000 -4.14700 43.05800
H  21.99300 -9.63600 46.04000
H  27.71800 -7.60700 47.99900
H  25.00200 -1.19200 42.91000
H  22.91300 -2.57700 41.65200
H  21.49900 -1.93900 43.83400
H  21.82000 -0.91800 42.44300
H  22.88900 -0.89800 43.93300
H  24.99000 -3.34600 40.78500
H  26.49600 -2.86000 41.49400
H  25.82100 -0.43500 40.85300
H  24.50000 -1.16900 40.17000
H  19.28400 -5.18500 42.67900
H  18.49500 -5.32100 44.10300
H  18.62100 -6.71500 42.78900
H  19.90100 -10.69100 45.20000
H  18.56500 -10.28800 46.30600
H  20.08600 -9.61600 46.72800
H  24.73900 -10.86200 46.39000
H  26.01600 -9.39700 48.61600
H  24.46400 -10.70500 49.15700
H  23.49500 -11.67200 48.13300
H  22.91000 -10.09500 48.48900
H  28.07800 -9.65700 46.85200
H  26.88900 -10.68800 45.98200
H  28.55000 -11.57200 48.00700
H  27.30100 -12.30500 46.94000
H  26.89800 -11.82500 48.55600
H  30.19700 -4.38200 47.56700
H  30.33300 -6.15200 46.96000
H  29.55400 -5.70400 48.51600
H  28.27900 -2.60200 43.20800
H  26.36700 0.82200 46.75700
H  25.35900 0.61900 45.34300
H  26.96300 1.42700 45.21000
Mg 17.03600 52.81600 27.10400
C  18.86500 50.85800 29.46000
C  14.63800 53.34900 29.58900
C  14.85800 53.74100 24.70100
C  19.19800 51.49100 24.64000
N  16.70200 52.04200 29.20200
C  17.68900 51.45300 29.96100
C  17.48700 51.68600 31.46300
C  15.93900 52.18700 31.51800
C  15.65200 52.51100 29.99400
C  14.88100 51.16600 31.92900
C  18.53200 52.81700 31.98000
C  19.33000 52.38200 33.22600
H  18.51900 51.56200 34.23500
N  15.12400 53.66600 27.16900
C  14.29200 53.75900 28.30100
C  13.06600 54.46900 27.87500
C  13.11500 54.61700 26.45900
C  14.38400 53.93400 26.06400
C  11.95100 54.78100 28.85900
C  12.07600 55.26600 25.53700
O  12.20800 55.14700 24.32800
C  10.97500 55.99000 26.10700
N  16.94400 52.44300 24.97700
C  15.97600 53.10000 24.18200
C  16.33400 53.15700 22.71400
C  17.81700 52.61200 22.73900
C  18.07900 52.25200 24.21900
C  15.16100 52.30400 22.05000
C  18.82800 53.68300 22.32100
C  19.66300 53.34200 21.11900
N  18.78000 51.54900 27.05300
C  19.50600 51.09600 25.97900
C  20.56300 50.26600 26.36400
C  20.45500 50.20800 27.73900
C  19.25800 50.92300 28.06900
C  21.68400 49.56000 25.61400
C  21.04200 49.64800 28.98900
O  22.01300 48.92600 29.18800
C  20.10400 50.22300 30.12100
C  19.79900 49.10800 31.09300
O  18.86300 48.30600 31.00300
O  20.71400 49.21400 32.11900
C  20.56600 48.22500 33.20600
H  13.87100 53.51700 30.34800
H  14.30600 54.09700 23.82900
H  19.92700 51.01900 23.97700
H  17.72300 50.78700 32.03200
H  15.86100 53.07500 32.14500
H  14.30300 51.42900 32.81500
H  15.20900 50.14200 32.10800
H  14.08800 51.01700 31.19600
H  18.04700 53.76200 32.22500
H  19.22300 52.84700 31.13700
H  19.77200 53.12200 33.89300
H  20.13000 51.71700 32.90200
H  11.78700 55.83000 28.61100
H  12.17000 54.68000 29.92200
H  10.97800 54.32600 28.67300
H  10.42300 55.41000 26.84700
H  10.28100 56.19100 25.29200
H  11.40700 56.86200 26.59800
H  16.18900 54.20100 22.43400
H  17.97700 51.67700 22.20300
H  14.79000 51.56100 22.75600
H  15.48400 51.81800 21.13000
H  14.27900 52.91700 21.86400
H  19.66300 53.77600 23.01600
H  18.40800 54.67300 22.14700
H  20.71400 53.25100 21.39200
H  19.65800 54.02300 20.26700
H  19.33700 52.40800 20.66000
H  21.48800 49.41300 24.55200
H  22.03300 48.75600 26.26100
H  22.46400 50.31400 25.72100
H  20.68800 51.00600 30.60500
H  19.55900 48.28100 33.61800
H  21.30700 48.50100 33.95600
H  20.60600 47.19200 32.86000

