158

Mg 41.83000 40.72500 26.40200
C  41.02500 43.13800 28.80700
C  42.77400 38.56200 28.73800
C  42.63700 38.76800 23.92800
C  41.26200 43.35300 24.02100
N  42.00100 40.90200 28.52600
C  41.56900 41.94700 29.33600
C  41.56800 41.50100 30.79500
C  42.23200 40.05800 30.74400
C  42.27300 39.81300 29.24700
C  43.59100 39.83200 31.38700
C  40.14600 41.68900 31.46100
C  39.74000 40.80100 32.67500
H  39.03000 41.40500 33.83900
N  42.46100 38.87900 26.38500
C  42.84300 38.08100 27.43800
C  43.18100 36.77500 26.93900
C  43.08600 36.79900 25.46200
C  42.75300 38.17000 25.18000
C  43.52500 35.62000 27.88400
C  43.32900 35.71000 24.48700
O  43.05900 35.73600 23.31400
C  43.67900 34.35100 24.98400
N  42.10900 41.08000 24.20900
C  42.30200 40.00300 23.44400
C  42.16800 40.35700 21.92000
C  41.41900 41.77100 21.96400
C  41.53000 42.11000 23.53900
C  43.58500 40.44700 21.27400
C  40.01200 41.73100 21.32500
C  39.09500 40.73000 22.07000
N  41.25100 42.77000 26.33600
C  41.07900 43.63700 25.34700
C  40.66000 44.98700 25.84200
C  40.64800 44.80300 27.24000
C  40.93800 43.43900 27.47900
C  40.50700 46.21000 25.00400
C  40.27900 45.43700 28.54500
O  39.74000 46.50800 28.84300
C  40.52400 44.33700 29.65200
C  41.38000 44.77600 30.77000
O  42.58500 44.81100 30.67000
O  40.53000 45.10000 31.85200
C  41.37200 45.60700 32.89100
H  42.95300 37.92500 29.60700
H  42.75200 37.98500 23.17500
H  40.93800 44.13200 23.32800
H  42.22200 42.27300 31.20100
H  41.55000 39.34300 31.20600
H  43.85100 40.84800 31.68400
H  44.28400 39.32900 30.71200
H  43.44300 39.10900 32.19000
H  39.32600 41.58300 30.75000
H  40.15000 42.68000 31.91500
H  40.65400 40.32700 33.03200
H  39.16300 39.95000 32.31200
H  44.54500 35.23900 27.85100
H  42.91000 34.77500 27.57400
H  43.25000 35.80400 28.92300
H  44.46300 34.44400 25.73600
H  44.12000 33.82000 24.14100
H  42.92100 33.83700 25.57600
H  41.50600 39.61900 21.46700
H  42.11400 42.47500 21.50700
H  44.21400 39.70800 21.77100
H  44.03100 41.43600 21.37600
H  43.42400 40.16600 20.23300
H  40.06400 41.33700 20.31000
H  39.51500 42.69900 21.26300
H  39.57200 40.19100 22.88900
H  38.57700 40.04600 21.39900
H  38.28200 41.30600 22.51200
H  41.16600 46.24300 24.13600
H  40.80600 47.01000 25.68100
H  39.51500 46.42300 24.60400
H  39.56100 44.12100 30.11500
H  42.17300 46.24700 32.52100
H  41.84000 44.78800 33.43800
H  40.80000 46.28500 33.52400
Mg 26.53900 49.95500 26.67300
C  24.51400 51.28100 29.27000
C  28.89800 49.05100 29.02600
C  28.42500 48.82600 24.16500
C  24.19000 51.03000 24.45800
N  26.65700 50.09200 28.91200
C  25.77100 50.69500 29.75600
C  26.12300 50.42900 31.23600
C  27.64500 49.86500 31.08100
C  27.76500 49.62900 29.57200
C  28.80100 50.74600 31.71600
C  25.21000 49.31100 31.76000
C  24.69900 49.36500 33.23000
H  25.44600 49.97100 34.47900
N  28.53900 49.21300 26.59500
C  29.26900 48.81900 27.64500
C  30.41100 48.11100 27.21500
C  30.36100 48.13700 25.78400
C  29.05800 48.70000 25.41700
C  31.49500 47.63400 28.06100
C  31.44200 47.70600 24.78700
O  31.16600 47.85000 23.58700
C  32.82500 47.15000 25.34700
N  26.29500 49.85300 24.60400
C  27.21900 49.29300 23.79200
C  26.74100 49.32100 22.30700
C  25.40500 50.09100 22.49200
C  25.24500 50.30000 23.97800
C  27.76800 50.00400 21.24500
C  24.18700 49.43000 21.80000
C  23.67000 48.14200 22.47700
N  24.69400 50.89800 26.86500
C  23.89200 51.34300 25.82800
C  22.77700 51.97800 26.30400
C  22.91300 51.99300 27.72200
C  24.12200 51.32400 27.92800
C  21.61000 52.51800 25.46000
C  22.29000 52.35600 28.96500
O  21.21800 52.81600 29.20900
C  23.36000 51.93300 30.03500
C  23.77900 53.09100 30.99000
O  24.89100 53.62900 30.93100
O  22.83500 53.30600 31.96400
C  23.28700 54.15600 33.08400
H  29.70600 48.76100 29.70200
H  28.93100 48.41800 23.28700
H  23.46200 51.34300 23.70700
H  26.11100 51.32200 31.86100
H  27.78000 48.94500 31.65000
H  29.47800 51.12200 30.94900
H  29.34900 49.97800 32.26100
H  28.40600 51.58800 32.28400
H  25.51200 48.27600 31.60400
H  24.29800 49.38500 31.16900
H  24.59700 48.33300 33.56800
H  23.71100 49.81700 33.15400
H  31.25800 47.89300 29.09300
H  32.42400 48.13600 27.79300
H  31.51300 46.54700 28.13600
H  33.27200 48.06300 25.73900
H  33.52900 46.73700 24.62500
H  32.77700 46.33500 26.06900
H  26.49400 48.31100 21.98200
H  25.44900 51.07700 22.03000
H  28.76600 50.05700 21.68000
H  27.33900 50.92200 20.84300
H  27.83700 49.23500 20.47500
H  24.49600 49.17000 20.78800
H  23.34100 50.10900 21.69100
H  24.11900 47.95100 23.45200
H  23.80500 47.27400 21.83200
H  22.59600 48.21100 22.65200
H  21.48500 52.21300 24.42100
H  21.78400 53.59400 25.44800
H  20.66600 52.28300 25.95000
H  22.90600 51.16000 30.65500
H  23.93600 53.58900 33.75100
H  22.52900 54.47700 33.79800
H  23.76300 55.06200 32.70900

