158

Mg 44.36200 3.62100 47.25300
C  42.28200 6.40500 46.93500
C  41.54100 1.65800 46.66300
C  46.40800 0.88700 46.99600
C  47.11600 5.75500 47.23100
N  42.12400 3.98800 46.78200
C  41.52800 5.23700 46.77100
C  40.04000 5.09800 46.80300
C  39.76100 3.48400 46.79900
C  41.18600 2.95700 46.74300
C  38.95300 2.88300 47.99600
C  39.17700 5.81100 45.73200
C  39.47900 5.49700 44.24400
H  39.74200 6.75300 43.36400
N  44.01800 1.59500 46.88900
C  42.84600 0.97000 46.67900
C  42.93800 -0.46500 46.68600
C  44.31700 -0.66600 46.48300
C  45.02500 0.61200 46.76600
C  41.76000 -1.40600 46.65400
C  44.98200 -1.94700 45.98900
O  44.27600 -2.92700 45.79000
C  46.37100 -2.00400 45.51500
N  46.38300 3.30900 47.11400
C  47.02000 2.11800 47.24600
C  48.56200 2.32000 47.41600
C  48.73600 3.85800 47.34800
C  47.31200 4.33700 47.21700
C  49.12900 1.64600 48.67400
C  49.69300 4.42300 46.23800
C  51.24000 4.06600 46.45300
N  44.64100 5.67700 47.12300
C  45.85700 6.40700 47.21500
C  45.49200 7.85400 47.29700
C  44.13900 7.87900 47.25900
C  43.62300 6.55700 47.04000
C  46.55500 8.94200 47.46100
C  43.04300 8.71400 47.40200
O  42.94800 9.88600 47.79900
C  41.78800 7.83100 47.03200
C  40.82700 8.06600 48.15800
O  40.80700 7.55000 49.26200
O  39.90800 8.95300 47.79700
C  38.91800 9.46800 48.78000
H  40.67200 1.00200 46.58100
H  47.06200 0.01900 47.09900
H  47.96700 6.41800 47.40200
H  39.68300 5.42500 47.78000
H  39.22600 3.05100 45.95300
H  38.60400 3.70200 48.62400
H  39.60000 2.36100 48.70200
H  38.19100 2.14800 47.73700
H  39.14700 6.87500 45.96800
H  38.15900 5.49900 45.96800
H  38.59800 5.04900 43.78300
H  40.24000 4.71900 44.19400
H  42.00300 -2.27400 47.26800
H  41.41300 -1.60900 45.64100
H  40.82900 -1.00100 47.04900
H  46.48300 -1.05400 44.99300
H  46.40100 -2.75300 44.72300
H  47.05700 -2.07600 46.35900
H  48.95400 1.85900 46.51000
H  49.00100 4.17600 48.35600
H  48.47400 1.01200 49.27100
H  49.46200 2.41100 49.37600
H  50.04900 1.19200 48.30600
H  49.57600 5.50500 46.17900
H  49.45200 4.02600 45.25200
H  51.85500 4.96200 46.53300
H  51.51100 3.41600 45.62100
H  51.42500 3.51700 47.37600
H  47.10900 8.78700 48.38600
H  46.10900 9.93400 47.38200
H  47.28000 8.93700 46.64700
H  41.36600 8.13400 46.07400
H  38.96200 9.10200 49.80600
H  37.97800 9.07900 48.38800
H  38.91600 10.53200 49.01500
Mg -10.31700 17.67600 42.73100
C  -6.85300 17.77000 43.06800
C  -10.26600 21.11300 42.31100
C  -13.62200 17.52300 41.62200
C  -10.20300 14.14300 42.44300
N  -8.77100 19.17200 42.72800
C  -7.38300 18.99800 42.81400
C  -6.66300 20.29400 42.49800
C  -7.82100 21.30600 42.74400
C  -9.07700 20.51700 42.66700
C  -7.69200 21.95000 44.18500
C  -5.85500 20.25600 41.12800
C  -6.71100 19.63000 39.96600
H  -5.98200 19.46600 38.61700
N  -11.87100 19.15400 42.25300
C  -11.55600 20.46500 42.13800
C  -12.75300 21.18400 41.70900
C  -13.75200 20.21500 41.37000
C  -13.12900 18.87300 41.76800
C  -12.74600 22.73900 41.69800
C  -15.08000 20.39300 40.80200
O  -15.59500 21.49600 40.75900
C  -15.97800 19.30900 40.35100
N  -11.58700 16.10600 41.93200
C  -12.93300 16.31500 41.75100
C  -13.64100 15.02700 41.35000
C  -12.67400 13.92600 41.91100
C  -11.39400 14.76300 42.14800
C  -15.12800 14.78900 41.76000
C  -12.43200 12.68200 40.97100
C  -12.22800 11.32700 41.67900
N  -8.88900 16.26700 42.73800
C  -8.99700 14.86900 42.70500
C  -7.68900 14.28900 43.05000
C  -6.79100 15.42300 43.11700
C  -7.61500 16.56200 42.99100
C  -7.31500 12.86100 43.37000
C  -5.39500 15.80900 43.24500
O  -4.38500 15.11900 43.49500
C  -5.39100 17.35600 43.14800
C  -4.76500 17.79800 44.33000
O  -3.76800 18.54100 44.28900
O  -5.22900 17.19900 45.49400
C  -4.29100 17.33100 46.61000
H  -10.17400 22.19800 42.22700
H  -14.64300 17.35700 41.27100
H  -10.06300 13.06100 42.40800
H  -5.93300 20.33200 43.30600
H  -7.81900 22.13200 42.03300
H  -6.84900 21.57500 44.76500
H  -8.57500 21.66300 44.75600
H  -7.57900 23.01700 43.99100
H  -5.00000 19.66000 41.44600
H  -5.50200 21.25900 40.88500
H  -7.67500 20.12700 39.84900
H  -6.79700 18.58100 40.25000
H  -12.14800 23.13900 40.87900
H  -12.56900 23.23400 42.65300
H  -13.68700 23.27100 41.55900
H  -15.48300 18.52700 39.77400
H  -16.76100 19.78100 39.75700
H  -16.48200 18.88000 41.21700
H  -13.56600 14.88100 40.27200
H  -13.01000 13.65900 42.91300
H  -15.74000 15.08600 40.90800
H  -15.42300 15.44100 42.58200
H  -15.34100 13.74700 41.99800
H  -11.59700 12.83000 40.28600
H  -13.27700 12.50400 40.30500
H  -13.14100 10.80300 41.39500
H  -12.15300 11.47300 42.75600
H  -11.36800 10.76900 41.30900
H  -8.16600 12.20100 43.20400
H  -7.03900 12.70200 44.41300
H  -6.48800 12.53900 42.73700
H  -4.74000 17.61800 42.31400
H  -4.65300 16.76600 47.46800
H  -4.19800 18.32600 47.04600
H  -3.32300 16.91300 46.33100

