158

Mg 15.62600 52.24400 26.00800
C  17.66700 51.22400 28.58500
C  13.01700 52.64100 28.02700
C  13.73200 52.72300 23.28900
C  18.34300 51.13400 23.79200
N  15.35600 51.90400 28.04500
C  16.33400 51.70500 28.95100
C  15.80400 51.96000 30.38300
C  14.26100 52.10200 30.15900
C  14.16700 52.25400 28.69200
C  13.47500 50.91400 30.58800
C  16.42700 53.20100 30.99300
C  16.65200 53.13900 32.60700
H  16.03200 52.07700 33.40600
N  13.67200 52.76300 25.74800
C  12.71900 52.88900 26.67700
C  11.49500 53.41400 26.14000
C  11.59100 53.36100 24.74300
C  13.08800 52.94700 24.48900
C  10.27300 53.69600 27.01300
C  10.46100 53.50900 23.66700
O  10.58500 53.26300 22.50400
C  9.05600 53.93200 24.07500
N  15.99900 52.02900 23.81700
C  15.02300 52.36200 22.95700
C  15.52800 52.26100 21.51500
C  17.04400 51.86600 21.66400
C  17.16400 51.72700 23.21000
C  14.73400 51.30700 20.54100
C  18.05500 52.89300 21.05700
C  19.26100 52.27700 20.22400
N  17.55300 51.25500 26.09900
C  18.59400 51.01700 25.16400
C  19.75800 50.49300 25.82300
C  19.43500 50.53200 27.19300
C  18.08700 51.00100 27.29300
C  21.03500 50.10400 25.07900
C  19.91000 50.27400 28.52100
O  21.06800 49.98200 28.87200
C  18.77100 50.72600 29.47800
C  18.41100 49.49800 30.24200
O  17.90900 48.49200 29.72500
O  18.66500 49.66300 31.56400
C  18.20300 48.63800 32.48600
H  12.22800 53.00100 28.69100
H  13.13200 52.91900 22.39800
H  19.20100 51.04600 23.12300
H  15.99900 51.10700 31.03300
H  13.89300 53.03100 30.59600
H  12.72200 51.16900 31.33400
H  14.09600 50.09100 30.94200
H  12.89700 50.48300 29.77000
H  15.88300 54.11800 30.76600
H  17.43300 53.18500 30.57500
H  16.31800 54.10700 32.98100
H  17.73100 53.06100 32.74000
H  10.41300 53.68500 28.09400
H  9.50000 52.93300 26.92000
H  9.87500 54.66100 26.70000
H  9.05500 54.99900 24.29400
H  8.61400 53.38900 24.91000
H  8.52400 53.70200 23.15100
H  15.46900 53.29400 21.17100
H  17.20800 50.94300 21.10800
H  13.80500 51.02800 21.03900
H  15.36600 50.45900 20.27600
H  14.49300 51.86700 19.63800
H  18.43900 53.56100 21.82700
H  17.54100 53.44600 20.27100
H  19.35900 51.19700 20.32800
H  20.12600 52.69200 20.74100
H  19.34100 52.63000 19.19600
H  21.16700 50.63700 24.13800
H  21.02000 49.02500 24.92500
H  21.84800 50.30500 25.77600
H  19.22000 51.36300 30.24000
H  18.81000 47.73300 32.50500
H  17.23400 48.30200 32.11600
H  17.96400 49.01000 33.48200
Mg -8.75300 40.26200 43.09000
C  -7.72600 37.11900 41.89900
C  -5.90000 41.67000 41.57400
C  -10.22200 43.33600 43.20000
C  -11.78800 38.80400 44.09900
N  -7.02100 39.46800 41.69400
C  -6.82600 38.17200 41.45000
C  -5.64000 37.98900 40.49900
C  -4.87400 39.35000 40.63600
C  -5.94600 40.26700 41.31100
C  -3.57300 39.25800 41.53700
C  -6.07400 37.47800 39.03100
C  -5.19400 36.33000 38.52400
H  -4.22200 36.65400 37.39700
N  -8.18300 42.20000 42.48600
C  -6.96500 42.55400 42.00000
C  -6.85400 44.01900 41.98200
C  -8.03700 44.52800 42.61200
C  -8.87900 43.35100 42.74600
C  -5.82100 44.78900 41.27000
C  -8.24500 45.95800 42.80700
O  -7.30100 46.76000 42.74000
C  -9.63700 46.54200 43.14700
N  -10.68500 40.92800 43.52700
C  -11.05200 42.23600 43.53400
C  -12.49800 42.44900 43.86300
C  -12.99600 41.00600 44.28700
C  -11.77300 40.16800 43.97600
C  -12.77100 43.49600 45.02500
C  -14.37200 40.52500 43.70100
C  -14.35900 40.34800 42.13100
N  -9.51300 38.26800 43.22100
C  -10.73900 37.88700 43.70200
C  -10.74000 36.43700 43.64900
C  -9.55200 36.07400 42.91500
C  -8.88800 37.22300 42.69100
C  -11.78600 35.48700 44.16400
C  -8.84100 34.95500 42.31100
O  -9.04400 33.71100 42.28300
C  -7.58300 35.65700 41.56700
C  -6.39000 34.97100 42.10700
O  -5.97100 34.94000 43.24500
O  -5.82700 34.13100 41.19000
C  -4.68700 33.27400 41.63000
H  -4.99700 42.20400 41.27100
H  -10.72900 44.28900 43.36600
H  -12.69200 38.30000 44.44900
H  -5.09500 37.13100 40.89300
H  -4.53600 39.74700 39.67800
H  -3.54700 38.18900 41.74900
H  -3.71700 39.83400 42.45200
H  -2.63500 39.49300 41.03400
H  -6.06700 38.40900 38.46400
H  -7.13200 37.23500 39.13400
H  -5.87400 35.55200 38.17900
H  -4.50500 35.89300 39.24600
H  -6.16500 45.42700 40.45600
H  -5.03200 44.27200 40.72300
H  -5.22300 45.37300 41.96900
H  -9.63700 47.62400 43.28100
H  -9.89900 46.09900 44.10800
H  -10.39600 46.31700 42.39800
H  -13.02100 42.75000 42.95500
H  -13.01700 40.89200 45.37100
H  -13.67700 43.19800 45.55200
H  -12.88700 44.54000 44.73200
H  -11.93800 43.50300 45.72800
H  -15.03600 41.35000 43.95600
H  -14.70900 39.57200 44.10900
H  -13.37400 40.60300 41.73900
H  -15.04600 41.05600 41.66800
H  -14.72000 39.33800 41.93800
H  -11.33600 34.50300 44.03200
H  -12.55200 35.69600 43.41700
H  -12.24800 35.70800 45.12600
H  -7.63300 35.50700 40.48800
H  -3.84000 33.96000 41.59600
H  -4.51200 32.64400 40.75900
H  -4.65400 32.65400 42.52600

