158

Mg 17.61000 -1.03700 28.25500
C  16.02000 1.03100 30.65400
C  19.27900 -2.55700 30.90100
C  19.52400 -2.42500 26.08500
C  16.13400 1.06000 25.75900
N  17.89300 -0.54400 30.44600
C  16.95500 0.14400 31.22200
C  17.22400 -0.05900 32.77900
C  18.37400 -1.12400 32.69000
C  18.55800 -1.43500 31.27300
C  19.62100 -0.75200 33.51600
C  16.04300 -0.58800 33.57200
C  15.63800 0.03500 34.90100
H  16.75600 0.17800 35.92900
N  19.06500 -2.42400 28.46000
C  19.56200 -3.03400 29.61500
C  20.53200 -4.12700 29.22800
C  20.60800 -4.04500 27.79600
C  19.74700 -2.83200 27.40700
C  21.18400 -5.05700 30.28900
C  21.55400 -4.85200 26.83200
O  21.61100 -4.65200 25.62900
C  22.56100 -5.76800 27.38800
N  17.76800 -0.76200 26.20300
C  18.75900 -1.38500 25.51500
C  18.78500 -1.01000 24.01700
C  17.68000 0.06900 23.94200
C  17.13000 0.13100 25.36200
C  20.09700 -0.51300 23.44100
C  16.64700 -0.12500 22.74700
C  16.77100 0.81000 21.50900
N  16.30000 0.71100 28.11800
C  15.70900 1.37700 27.03700
C  14.87900 2.52100 27.48400
C  14.93700 2.36500 28.90500
C  15.73600 1.24600 29.24800
C  14.14100 3.44200 26.54500
C  14.35700 2.88900 30.20200
O  13.47500 3.63900 30.48600
C  15.14600 2.05200 31.34000
C  16.03100 3.00700 32.07400
O  17.15200 3.33200 31.78100
O  15.29900 3.48700 33.13100
C  15.93800 4.18800 34.23400
H  19.62000 -3.12300 31.77000
H  20.17800 -2.83100 25.31100
H  15.72100 1.56400 24.88300
H  17.60100 0.87600 33.19400
H  18.12500 -2.10100 33.10300
H  19.38600 0.05200 34.21300
H  20.34800 -0.56500 32.72600
H  19.90200 -1.61700 34.11500
H  16.12400 -1.65600 33.77200
H  15.22600 -0.39200 32.87700
H  14.83400 -0.55900 35.33600
H  15.14000 0.98500 34.70600
H  22.22100 -4.79200 30.49800
H  21.17700 -6.09800 29.96700
H  20.79800 -4.88000 31.29300
H  22.18300 -6.33700 28.23700
H  23.44100 -5.20400 27.69900
H  22.73100 -6.40600 26.52100
H  18.52900 -1.94700 23.52200
H  18.19300 1.02900 23.87600
H  20.05700 0.54500 23.18200
H  20.37600 -1.05400 22.53700
H  20.84000 -0.57200 24.23600
H  15.61200 -0.01000 23.07100
H  16.81600 -1.13200 22.36700
H  17.66300 1.43600 21.49500
H  15.86500 1.40600 21.39900
H  16.79800 0.14000 20.64900
H  13.34000 2.79600 26.18900
H  14.94600 3.64300 25.83800
H  13.62700 4.29300 26.99300
H  14.43800 1.74000 32.10700
H  16.94200 4.53700 33.99000
H  15.89500 3.43900 35.02500
H  15.29600 4.93300 34.70400
Mg -5.47300 25.33400 25.79300
C  -4.38000 26.47000 28.98300
C  -7.54400 23.03100 27.43200
C  -5.88100 23.82800 22.81100
C  -2.91000 27.34900 24.36400
N  -5.73200 24.78000 27.94300
C  -5.30600 25.42800 29.05100
C  -5.81500 24.83700 30.36200
C  -6.71400 23.64700 29.82200
C  -6.70800 23.85700 28.27000
C  -6.03100 22.25600 30.34400
C  -6.60300 25.89900 31.18500
C  -6.16900 26.17100 32.63100
H  -5.54000 25.03200 33.31200
N  -6.63700 23.72400 25.18900
C  -7.49100 22.92600 25.97000
C  -8.26800 22.10800 25.06000
C  -7.78300 22.29600 23.76600
C  -6.73800 23.36900 23.86600
C  -9.41600 21.28300 25.57400
C  -8.26100 21.60700 22.46700
O  -7.89800 22.01000 21.33400
C  -9.17000 20.46800 22.48000
N  -4.54400 25.57700 23.81200
C  -4.88400 24.83900 22.72300
C  -4.13400 25.23300 21.45400
C  -3.37000 26.50300 21.93500
C  -3.54400 26.48200 23.47200
C  -3.41700 24.21200 20.64100
C  -3.87700 27.84800 21.30700
C  -5.19800 28.39600 21.86700
N  -4.01300 26.71200 26.47100
C  -3.11300 27.51400 25.74200
C  -2.46800 28.39300 26.65500
C  -2.97500 28.10800 27.96100
C  -3.81600 26.98500 27.77600
C  -1.54100 29.56800 26.29600
C  -2.90800 28.54500 29.37900
O  -2.36200 29.48500 29.96300
C  -3.79900 27.46300 30.11300
C  -2.69700 26.66300 30.87400
O  -1.93500 25.74200 30.48600
O  -2.58800 27.29700 32.08500
C  -1.40400 27.02000 32.81100
H  -8.18000 22.41500 28.07100
H  -6.14100 23.22100 21.94100
H  -2.12500 27.91300 23.85700
H  -4.95300 24.49300 30.93500
H  -7.76100 23.63800 30.12500
H  -5.66200 21.75400 29.44900
H  -6.63700 21.51700 30.86900
H  -5.23000 22.51000 31.03900
H  -7.62500 25.52300 31.23700
H  -6.67200 26.86500 30.68500
H  -7.02400 26.48800 33.22800
H  -5.45800 26.99500 32.57900
H  -9.21200 20.21200 25.59900
H  -10.28800 21.54600 24.97400
H  -9.66700 21.58600 26.59000
H  -8.72000 19.52400 22.78600
H  -9.65400 20.31300 21.51500
H  -10.06000 20.72400 23.05500
H  -4.83300 25.68000 20.74700
H  -2.32300 26.36700 21.66500
H  -2.34400 24.36800 20.53500
H  -3.96900 24.19100 19.70200
H  -3.50400 23.26700 21.17600
H  -3.98300 27.72400 20.22900
H  -3.05700 28.56500 21.34200
H  -5.87000 28.69600 21.06200
H  -5.08300 29.28600 22.48500
H  -5.67900 27.63300 22.47900
H  -1.31900 30.28200 27.08900
H  -2.22300 30.06600 25.60800
H  -0.66900 29.10900 25.83000
H  -4.59400 27.91400 30.70700
H  -0.56900 27.06700 32.11100
H  -1.46200 26.00200 33.19500
H  -1.33400 27.68300 33.67300

