158

Mg 47.80800 16.03600 28.44300
C  45.84600 15.90200 31.33900
C  50.14000 17.74000 30.12300
C  49.49700 16.58300 25.45500
C  45.14800 14.76800 26.60700
N  47.93200 16.74900 30.54100
C  47.03300 16.59600 31.58000
C  47.59800 17.24400 32.85000
C  48.81400 18.08700 32.25000
C  48.97400 17.47600 30.88700
C  48.58200 19.55300 32.27300
C  47.91200 16.14200 33.96800
C  48.58700 16.52800 35.26800
H  48.59900 17.95800 35.86900
N  49.59000 16.89400 27.88000
C  50.42500 17.49900 28.81600
C  51.63800 17.88800 28.13900
C  51.50900 17.45700 26.72400
C  50.14400 16.96600 26.63300
C  52.90200 18.46300 28.97800
C  52.61300 17.56700 25.61500
O  52.34500 17.24400 24.48100
C  54.01900 18.10900 25.91700
N  47.35400 15.75900 26.38000
C  48.19900 16.02300 25.33800
C  47.58700 15.84900 23.99100
C  46.32600 15.04100 24.34200
C  46.26100 15.17800 25.88100
C  47.22800 17.23600 23.30600
C  46.49900 13.53000 23.97400
C  45.84900 13.09900 22.58700
N  45.84700 15.41800 28.78400
C  44.91400 14.84100 28.01300
C  43.71700 14.52600 28.79800
C  44.10800 14.86400 30.10200
C  45.37200 15.45700 30.07600
C  42.45800 13.86700 28.25400
C  43.64400 14.83600 31.47200
O  42.64200 14.36200 31.93800
C  44.78400 15.56400 32.36900
C  44.19200 16.77900 32.99600
O  44.25000 17.91400 32.63200
O  43.53400 16.41800 34.16400
C  42.87100 17.44000 34.91400
H  50.75300 18.50600 30.60300
H  50.08300 16.62600 24.53500
H  44.32500 14.46600 25.95600
H  46.87700 17.79900 33.44900
H  49.73600 17.87800 32.79200
H  48.10900 19.81800 31.32800
H  49.53500 20.08100 32.28500
H  47.91900 19.93300 33.05000
H  48.55900 15.39000 33.51700
H  46.95500 15.71300 34.26600
H  49.63700 16.24100 35.22100
H  48.18000 15.83400 36.00300
H  53.19900 19.30300 28.34900
H  53.68300 17.76300 29.27200
H  52.53100 18.88400 29.91200
H  54.01600 19.19100 25.78700
H  54.64200 17.70400 25.12000
H  54.32500 17.74000 26.89600
H  48.34500 15.17800 23.58900
H  45.43900 15.44800 23.85700
H  47.39900 18.06900 23.98800
H  46.23800 17.18100 22.85300
H  47.79900 17.57700 22.44300
H  46.08800 12.85700 24.72600
H  47.56400 13.30000 23.93900
H  44.87900 12.62200 22.72700
H  46.54900 12.35000 22.21800
H  45.78800 13.91000 21.86100
H  41.59500 14.08600 28.88300
H  42.69700 12.80500 28.20700
H  42.21000 14.20900 27.24900
H  45.22900 14.89400 33.10400
H  41.92000 17.50600 34.38600
H  43.24800 18.46000 34.99400
H  42.56800 17.08800 35.90000
Mg 1.43800 43.05200 25.18100
C  2.91200 43.12800 28.40500
C  -1.47100 42.03000 26.55100
C  0.09100 42.70500 22.01000
C  4.52600 43.87700 23.83600
N  0.83500 42.69800 27.28000
C  1.53600 42.78900 28.44600
C  0.58600 42.40900 29.67400
C  -0.75100 41.87600 28.95000
C  -0.45400 42.17800 27.50900
C  -1.09700 40.36700 29.07500
C  0.44500 43.66500 30.57100
C  0.88500 43.54600 31.98100
H  0.29000 42.28600 32.71100
N  -0.38800 42.52000 24.42100
C  -1.46100 42.09100 25.17200
C  -2.55800 41.80700 24.30500
C  -2.12100 42.00900 22.98400
C  -0.78300 42.42600 23.10700
C  -3.95500 41.43100 24.79500
C  -2.84500 41.89300 21.60900
O  -2.34900 42.08900 20.50100
C  -4.36500 41.47300 21.57700
N  2.19200 43.49700 23.23900
C  1.45700 43.15500 22.10300
C  2.33800 43.18400 20.84200
C  3.56800 43.85100 21.45200
C  3.43600 43.83200 22.94800
C  2.76000 41.76000 20.35500
C  3.89400 45.22600 20.80700
C  2.72600 46.23800 20.81000
N  3.38300 43.46800 25.91300
C  4.56900 43.74500 25.21500
C  5.65100 43.70900 26.21500
C  5.04700 43.53400 27.46800
C  3.67200 43.42200 27.26000
C  7.03700 44.23700 26.05400
C  5.28200 43.46200 28.90700
O  6.30800 43.48600 29.51100
C  3.92000 43.25000 29.57600
C  4.12800 42.04100 30.35600
O  4.17900 40.92600 29.87500
O  4.01800 42.33000 31.68800
C  4.11100 41.06700 32.59400
H  -2.40500 41.72600 27.02700
H  -0.18400 42.49700 20.97300
H  5.42500 44.12200 23.26600
H  1.01100 41.62800 30.30400
H  -1.58900 42.51500 29.22800
H  -0.56700 39.79200 29.83400
H  -0.93300 39.97400 28.07200
H  -2.16700 40.24900 29.25100
H  -0.50200 44.19800 30.48300
H  1.15300 44.40400 30.19800
H  0.51800 44.38500 32.57300
H  1.96800 43.46600 32.06700
H  -4.60500 42.29300 24.94100
H  -3.87000 40.95400 25.77200
H  -4.38800 40.69800 24.11400
H  -4.39200 40.47500 22.01300
H  -4.74000 41.39400 20.55600
H  -4.87800 42.24000 22.15700
H  1.83100 43.79500 20.09500
H  4.48100 43.33200 21.16100
H  1.83500 41.24200 20.10300
H  3.21500 41.18900 21.16500
H  3.38200 42.00500 19.49400
H  4.16100 44.93300 19.79200
H  4.77300 45.63000 21.30900
H  2.34600 46.46600 19.81400
H  2.90200 47.16400 21.35600
H  1.86000 45.79300 21.29900
H  7.73100 43.44700 25.76900
H  7.32000 44.70900 26.99500
H  6.84500 45.03800 25.34000
H  3.67300 44.13800 30.15900
H  3.40700 40.32900 32.21000
H  3.98800 41.24200 33.66300
H  5.04500 40.52900 32.43300

