158

Mg 9.03400 3.68300 27.15000
C  10.52000 2.19700 30.13100
C  7.00600 5.44000 29.16800
C  7.63500 4.83300 24.36800
C  10.75300 1.21600 25.25900
N  8.68200 3.65900 29.40900
C  9.47400 3.11600 30.42000
C  9.06800 3.61800 31.78600
C  7.86800 4.55400 31.42600
C  7.80300 4.53200 29.88000
C  6.47200 4.25500 32.09900
C  10.19500 4.42000 32.44800
C  9.92000 4.69000 33.90500
H  10.98000 4.30100 35.00500
N  7.56400 4.97500 26.78300
C  6.78100 5.61300 27.82000
C  5.95800 6.57900 27.10600
C  6.13400 6.48000 25.73700
C  7.11600 5.35900 25.56800
C  4.93700 7.45200 27.88900
C  5.51800 7.28800 24.66300
O  5.77600 7.14100 23.46300
C  4.48300 8.33500 25.07000
N  9.26900 3.17700 25.05000
C  8.57500 3.82600 24.13300
C  8.96300 3.31600 22.75200
C  10.08400 2.20500 23.02400
C  10.12000 2.20600 24.49000
C  7.66800 2.70800 22.03000
C  11.47500 2.41100 22.37000
C  12.63400 3.02300 23.10500
N  10.29800 2.09800 27.58100
C  10.89900 1.16500 26.67800
C  11.67100 0.19500 27.44600
C  11.58800 0.61600 28.75900
C  10.72900 1.72000 28.79500
C  12.27200 -1.06500 26.83100
C  12.04300 0.36100 30.06100
O  12.84300 -0.51400 30.43600
C  11.34900 1.37500 30.99100
C  10.68700 0.68000 32.11000
O  9.67100 -0.03400 31.97400
O  11.18500 1.14300 33.27300
C  10.68300 0.49600 34.51000
H  6.45400 6.05500 29.88200
H  7.27000 5.07500 23.36800
H  11.29800 0.46200 24.68800
H  8.87100 2.79700 32.47500
H  8.12300 5.56300 31.74800
H  6.70700 3.92700 33.11200
H  5.91700 3.43100 31.65200
H  5.69500 5.02000 32.10600
H  10.31600 5.36700 31.92300
H  11.11300 3.83300 32.46800
H  8.98000 4.18800 34.13400
H  9.68000 5.75300 33.91000
H  5.26200 8.48800 27.79000
H  4.99800 7.18700 28.94500
H  3.90500 7.26400 27.59100
H  3.52800 7.86600 25.30800
H  4.38700 8.99800 24.21000
H  4.96800 8.98500 25.79900
H  9.36300 4.18500 22.22900
H  9.68600 1.28600 22.59400
H  6.86400 2.77600 22.76300
H  7.68800 1.63400 21.84400
H  7.43800 3.19200 21.08100
H  11.37600 3.18000 21.60400
H  11.80600 1.45600 21.96200
H  13.59100 2.78500 22.64000
H  12.62200 2.57200 24.09700
H  12.47600 4.10100 23.13000
H  13.33600 -0.92800 26.63600
H  11.72200 -1.50200 25.99700
H  12.18500 -1.86400 27.56800
H  12.16300 1.93800 31.44800
H  9.84300 -0.19100 34.40200
H  10.65900 1.30700 35.23700
H  11.49800 -0.15300 34.83000
Mg -4.78900 25.90000 26.62600
C  -3.55800 27.27900 29.54600
C  -6.49300 23.56000 28.50200
C  -5.68200 24.44200 23.81200
C  -2.74500 28.12500 24.82200
N  -4.89300 25.43300 28.76600
C  -4.51500 26.28300 29.73100
C  -5.10100 25.84800 31.09200
C  -5.79100 24.47700 30.81800
C  -5.66900 24.40600 29.25600
C  -5.32700 23.27700 31.72600
C  -6.01700 26.90400 31.64700
C  -5.75800 27.32900 33.13200
H  -5.32100 26.27300 34.14400
N  -6.04000 24.32200 26.22300
C  -6.65700 23.45100 27.07100
C  -7.48600 22.47900 26.33800
C  -7.45000 22.92700 25.01100
C  -6.28600 23.89200 24.95100
C  -8.32600 21.61700 27.10300
C  -8.31900 22.49500 23.87000
O  -8.15900 22.88200 22.75700
C  -9.52300 21.59200 24.08800
N  -4.17000 26.22500 24.56900
C  -4.69700 25.41300 23.60800
C  -4.15800 25.78900 22.18200
C  -3.23400 27.01500 22.52500
C  -3.41400 27.17300 24.05800
C  -3.35900 24.61600 21.61700
C  -3.45800 28.31700 21.75100
C  -2.57900 28.52200 20.47200
N  -3.41100 27.32000 26.98300
C  -2.71500 28.13500 26.19000
C  -1.88600 29.04200 27.05300
C  -2.17700 28.74500 28.34600
C  -3.10200 27.69800 28.25900
C  -0.93900 30.13800 26.45500
C  -1.93000 29.12700 29.76600
O  -1.25500 29.96500 30.34600
C  -2.85800 28.11900 30.55700
C  -1.93500 27.43200 31.41200
O  -0.94600 26.84600 31.02100
O  -2.22500 27.64300 32.69100
C  -1.14500 27.38100 33.67800
H  -7.02700 22.85500 29.14300
H  -6.02300 23.96500 22.89100
H  -2.18500 28.85800 24.23600
H  -4.13600 25.74300 31.58800
H  -6.86300 24.57400 30.99000
H  -4.42000 23.54900 32.26600
H  -5.03100 22.33600 31.26100
H  -6.03200 23.01500 32.51400
H  -7.03600 26.59200 31.41600
H  -5.86100 27.83200 31.09700
H  -6.71900 27.73700 33.44300
H  -5.14800 28.23200 33.11100
H  -7.87000 21.40500 28.07000
H  -8.40400 20.62500 26.65900
H  -9.31000 22.06600 27.24500
H  -9.18000 20.59500 23.81100
H  -10.22700 21.85800 23.30000
H  -9.90400 21.97600 25.03400
H  -4.96700 25.95400 21.47000
H  -2.19200 26.72200 22.39000
H  -2.58700 25.03600 20.97400
H  -4.01800 23.94700 21.06400
H  -2.82800 24.00300 22.34600
H  -3.43000 29.25100 22.31200
H  -4.44700 28.27900 21.29400
H  -3.19400 28.69200 19.58800
H  -2.11800 27.54500 20.32700
H  -1.70500 29.15000 20.64300
H  -1.35700 30.72500 25.63700
H  -0.08300 29.62400 26.01600
H  -0.80900 30.84800 27.27100
H  -3.47700 28.72400 31.21900
H  -1.21000 26.33000 33.96100
H  -1.30700 27.96200 34.58600
H  -0.14500 27.41800 33.24500

