158

Mg 17.43100 -1.35500 26.48400
C  16.31300 0.63800 29.27200
C  19.11900 -3.25800 28.72500
C  18.78800 -2.88300 23.86900
C  16.00300 1.06500 24.41200
N  17.61800 -1.27200 28.73900
C  17.09600 -0.42600 29.68500
C  17.54800 -0.85300 31.05200
C  18.43000 -2.11300 30.86300
C  18.41500 -2.28800 29.31200
C  19.78800 -1.90400 31.55000
C  16.42100 -0.95300 32.17000
C  16.56500 -0.11600 33.40000
H  17.96000 0.30700 33.89100
N  18.67700 -2.98900 26.30200
C  19.20600 -3.64000 27.39300
C  19.99000 -4.73700 26.83400
C  19.97900 -4.62100 25.37800
C  19.14900 -3.46100 25.15400
C  20.55400 -5.79900 27.67100
C  20.55000 -5.54800 24.39300
O  20.40100 -5.39100 23.19400
C  21.29500 -6.80100 24.84100
N  17.46200 -0.97200 24.41600
C  18.07000 -1.77500 23.52200
C  17.99000 -1.25800 22.11000
C  17.04300 -0.00400 22.28100
C  16.81300 0.08400 23.82000
C  19.37300 -1.00300 21.49000
C  15.65400 0.08500 21.52900
C  14.52800 -0.89300 21.81600
N  16.26400 0.44900 26.71000
C  15.69600 1.30100 25.79800
C  14.93000 2.31800 26.43600
C  15.14900 2.09800 27.81200
C  15.93100 0.95900 27.94200
C  14.02900 3.28200 25.83200
C  14.79500 2.60500 29.14900
O  14.00400 3.44700 29.51800
C  15.57100 1.67200 30.14400
C  16.45500 2.49400 31.04600
O  17.66400 2.54100 31.00500
O  15.55800 3.14000 31.97400
C  16.09000 4.01600 33.08900
H  19.73100 -3.80200 29.44700
H  19.20100 -3.41600 23.01000
H  15.62000 1.78100 23.68200
H  18.19800 -0.03600 31.36500
H  17.85700 -2.90900 31.33700
H  19.71000 -1.77300 32.63000
H  20.40400 -1.04000 31.30500
H  20.46400 -2.74300 31.38400
H  16.54400 -1.99000 32.48000
H  15.42500 -0.77300 31.76400
H  16.09100 -0.67500 34.20700
H  16.03500 0.80300 33.15000
H  20.02700 -6.71800 27.41500
H  20.36400 -5.60900 28.72700
H  21.62900 -5.94400 27.56600
H  22.13300 -6.78900 25.53900
H  21.76900 -7.11200 23.91100
H  20.54400 -7.53700 25.13000
H  17.36200 -1.95800 21.55900
H  17.54500 0.91600 21.98100
H  19.30900 -0.21400 20.74100
H  19.91000 -1.86400 21.09300
H  20.10200 -0.70300 22.24300
H  15.89600 0.00500 20.46900
H  15.21600 1.07100 21.68300
H  14.09800 -1.32200 20.91100
H  13.73800 -0.52500 22.47000
H  14.95900 -1.76000 22.31700
H  13.83400 3.11600 24.77200
H  14.46100 4.24800 26.09300
H  13.05200 3.11700 26.28400
H  14.91500 1.14900 30.84000
H  15.48500 4.00900 33.99600
H  16.22600 5.00000 32.63900
H  17.13000 3.75900 33.29300
Mg 6.32200 54.12400 40.83100
C  6.12300 50.49800 40.72900
C  9.65700 53.83500 40.00800
C  6.30500 57.42600 40.54600
C  2.75700 54.03300 40.83500
N  7.64600 52.35100 40.29200
C  7.42600 50.97800 40.33800
C  8.65700 50.20200 39.97800
C  9.74900 51.23400 40.20100
C  9.01400 52.54900 40.21600
C  10.61200 51.01200 41.48600
C  8.70100 49.41300 38.64700
C  8.80300 50.27800 37.25800
H  7.55000 50.29200 36.38300
N  7.78000 55.39400 40.32100
C  9.13900 55.08600 40.05600
C  9.86000 56.31300 39.84800
C  8.89300 57.37500 40.18300
C  7.60100 56.75500 40.37800
C  11.38800 56.44100 39.56400
C  9.17200 58.84600 40.13700
O  10.32500 59.18100 39.90800
C  8.07600 59.98100 40.31800
N  4.75900 55.50200 40.64400
C  5.03900 56.86700 40.67100
C  3.83000 57.66700 41.07100
C  2.66200 56.53000 40.76900
C  3.46300 55.26900 40.66100
C  3.83600 58.07900 42.60200
C  2.02700 56.82300 39.32100
C  0.55500 57.35200 39.38900
N  4.68100 52.63000 40.97700
C  3.33300 52.77000 40.97800
C  2.69200 51.47500 41.21700
C  3.85600 50.59400 41.14000
C  5.01600 51.34000 40.99800
C  1.22600 51.24000 41.27200
C  4.24100 49.19000 41.23600
O  3.56400 48.19400 41.49300
C  5.70600 49.06600 40.90500
C  5.65300 48.26100 39.69200
O  5.25600 48.70300 38.59700
O  6.06600 47.03900 39.97900
C  5.85900 46.01900 38.93700
H  10.73300 53.65300 39.95600
H  6.17800 58.49600 40.72300
H  1.68500 54.12700 41.02100
H  8.66500 49.51700 40.82600
H  10.47800 51.19300 39.39200
H  11.64600 51.18800 41.19300
H  10.68500 49.99000 41.86000
H  10.30100 51.61300 42.34100
H  7.74800 48.89900 38.52000
H  9.55400 48.73600 38.60900
H  9.65300 49.89900 36.69000
H  8.98300 51.28900 37.62300
H  11.63500 56.90200 38.60800
H  11.87500 55.47500 39.69900
H  11.62900 57.08900 40.40700
H  7.24000 59.90300 39.62300
H  8.70400 60.85100 40.12500
H  7.83100 59.99400 41.38000
H  3.74600 58.55700 40.44800
H  1.90600 56.48300 41.55300
H  3.18900 57.46300 43.22600
H  3.63800 59.15100 42.57700
H  4.88300 57.95400 42.87700
H  2.06200 55.86600 38.80000
H  2.61100 57.50600 38.70500
H  0.38500 58.33100 39.83700
H  -0.11400 56.67400 39.92000
H  0.16800 57.41300 38.37200
H  1.08200 50.60400 40.39900
H  0.70500 52.19600 41.33200
H  0.98900 50.73800 42.20900
H  6.30700 48.59300 41.68200
H  6.60400 45.26600 39.19400
H  6.20400 46.46100 38.00200
H  4.80400 45.75000 38.98600

