158

Mg 41.09000 9.06600 29.54800
C  42.64600 10.28100 32.45600
C  38.74300 7.57400 31.57500
C  39.44500 8.23000 26.85100
C  43.72900 10.22500 27.65800
N  40.79400 8.95300 31.81300
C  41.50600 9.53500 32.78400
C  40.87800 9.38500 34.16400
C  39.75500 8.23400 33.88700
C  39.71300 8.23400 32.36400
C  40.21400 6.85000 34.42400
C  40.23900 10.74100 34.59700
C  40.22100 11.07300 36.11600
H  41.25100 12.07600 36.67700
N  39.30600 8.20500 29.32900
C  38.51100 7.53000 30.17100
C  37.35800 6.94700 29.54600
C  37.50200 7.25700 28.18300
C  38.78300 7.97100 28.04200
C  36.17400 6.29300 30.28200
C  36.48400 6.98400 26.99600
O  36.68700 7.41100 25.83800
C  35.20200 6.16100 27.15700
N  41.51300 9.37100 27.48000
C  40.68100 8.88600 26.57400
C  41.26400 8.87000 25.13000
C  42.60500 9.64900 25.44100
C  42.61000 9.78300 26.93200
C  41.43300 7.35300 24.51500
C  42.84800 11.05100 24.74500
C  41.99800 12.41700 25.10100
N  42.88600 9.96000 29.94200
C  43.92900 10.35100 29.06400
C  45.00900 10.89800 29.91200
C  44.51000 10.96700 31.18300
C  43.23200 10.37100 31.16100
C  46.21100 11.46700 29.41900
C  44.79300 11.42800 32.47700
O  45.80800 11.99800 32.92800
C  43.64000 10.94300 33.36500
C  44.18600 10.14100 34.36200
O  44.64600 9.01400 34.12200
O  44.06400 10.74700 35.60800
C  44.98200 10.13400 36.55200
H  38.01900 6.95000 32.10200
H  38.90300 7.78800 26.01200
H  44.51400 10.62500 27.01300
H  41.54000 9.02600 34.95300
H  38.76200 8.39500 34.30600
H  39.49600 6.59700 35.20400
H  41.22300 6.79500 34.83100
H  40.19400 6.12400 33.61100
H  39.16400 10.64600 34.44000
H  40.63300 11.56100 33.99600
H  40.30600 10.11900 36.63500
H  39.27100 11.51800 36.41100
H  36.32200 6.23400 31.36000
H  36.04600 5.32000 29.80900
H  35.28500 6.91900 30.20000
H  35.55000 5.14800 27.35900
H  34.63400 6.07500 26.23100
H  34.74200 6.48300 28.09200
H  40.71600 9.55500 24.48200
H  43.48700 9.03000 25.27900
H  40.76000 6.68500 25.05200
H  42.38900 6.83200 24.56800
H  41.08200 7.44000 23.48700
H  42.74400 11.06800 23.66000
H  43.88700 11.22200 25.02700
H  41.38900 12.18300 25.97400
H  41.21500 12.61300 24.36900
H  42.59500 13.23700 25.50200
H  46.80200 10.91700 28.68700
H  46.92400 11.52700 30.24200
H  46.10100 12.48500 29.04500
H  43.05200 11.77900 33.74400
H  45.96700 9.81400 36.21300
H  44.46500 9.28800 37.00400
H  45.14300 10.82300 37.38100
Mg 17.18800 51.10500 26.58300
C  19.02200 49.49900 28.98100
C  14.97400 52.14400 29.01600
C  15.19800 52.29500 24.18900
C  19.24600 49.64800 24.11400
N  16.97400 50.76700 28.73500
C  17.89400 50.16100 29.51300
C  17.63900 50.48900 31.00000
C  16.18300 50.97100 30.96300
C  15.98600 51.30300 29.44900
C  15.13500 50.04100 31.50000
C  18.70200 51.49400 31.53900
C  19.16100 51.16600 32.92600
H  18.13600 50.54900 33.97800
N  15.38000 52.10200 26.59300
C  14.74000 52.56600 27.67400
C  13.79300 53.58300 27.30900
C  13.71700 53.60700 25.89900
C  14.71400 52.56500 25.45800
C  13.02300 54.50500 28.35000
C  12.92400 54.35300 24.84900
O  13.00300 54.14100 23.59800
C  11.99000 55.38500 25.40000
N  17.11300 50.76300 24.45500
C  16.35000 51.57200 23.70300
C  16.52300 51.33800 22.19700
C  17.94400 50.63600 22.20700
C  18.13600 50.36900 23.67600
C  15.35300 50.54800 21.53300
C  19.06000 51.50400 21.43500
C  19.84500 50.66700 20.37100
N  18.82200 49.85300 26.54900
C  19.54000 49.34300 25.47500
C  20.63800 48.54600 26.07000
C  20.47600 48.63600 27.41600
C  19.31500 49.37200 27.66600
C  21.82000 47.95400 25.27700
C  21.11200 48.25200 28.70600
O  22.08900 47.57900 29.00600
C  20.19500 48.83300 29.76800
C  19.83400 47.73700 30.73600
O  19.07200 46.84700 30.49500
O  20.45900 47.96800 31.98200
C  19.98300 47.10800 33.05600
H  14.47600 52.66600 29.83700
H  14.62000 52.67400 23.34400
H  19.98000 49.30900 23.38000
H  17.79700 49.52800 31.49000
H  16.14100 51.91700 31.50300
H  14.43300 50.53100 32.17500
H  15.62500 49.32100 32.15500
H  14.60800 49.53200 30.69300
H  18.16100 52.43700 31.62400
H  19.49700 51.77100 30.84700
H  19.56200 52.06000 33.40400
H  20.03900 50.52100 32.92500
H  13.02700 55.51400 27.93600
H  13.51000 54.45500 29.32300
H  11.99000 54.15900 28.39700
H  11.58400 55.97800 24.58000
H  12.65700 56.09300 25.89200
H  11.22700 55.01400 26.08400
H  16.59100 52.24700 21.60000
H  17.84500 49.68900 21.67700
H  15.82900 49.73700 20.98200
H  14.76700 51.14000 20.82900
H  14.81300 50.03800 22.33000
H  19.82000 51.90000 22.10900
H  18.55300 52.33400 20.94200
H  19.86400 49.59100 20.54500
H  20.91000 50.90000 20.36600
H  19.43700 50.91400 19.39100
H  22.28900 48.78700 24.75500
H  21.27700 47.27200 24.62300
H  22.49700 47.40600 25.93300
H  20.69000 49.65900 30.27700
H  20.13900 46.03100 32.99500
H  18.92900 47.38400 33.08700
H  20.46200 47.43700 33.97800

