158

Mg 41.51200 8.28600 28.96600
C  43.27400 9.75700 31.51100
C  39.24700 6.95700 31.11600
C  39.70400 6.87400 26.27200
C  43.92000 9.37100 26.71000
N  41.33000 8.36700 31.04200
C  42.17200 8.95800 31.95600
C  41.65900 8.90500 33.35300
C  40.38000 8.03800 33.17400
C  40.27700 7.80600 31.71400
C  40.44600 6.73000 33.94400
C  41.44700 10.19600 34.29700
C  41.10700 9.95900 35.75500
H  41.50800 11.07800 36.70500
N  39.65400 7.12500 28.71900
C  38.93100 6.69600 29.73900
C  37.86500 5.91600 29.29200
C  37.88800 5.92800 27.88700
C  39.07100 6.67800 27.57100
C  36.72500 5.34800 30.22300
C  36.96100 5.27800 26.96600
O  37.26700 5.12700 25.78700
C  35.56600 4.76500 27.38100
N  41.82300 7.94500 26.80300
C  40.85900 7.50200 25.92400
C  41.35100 7.64900 24.44100
C  42.49200 8.76200 24.64800
C  42.85500 8.57400 26.14700
C  41.89100 6.34300 23.85300
C  42.03400 10.18800 24.34500
C  40.56900 10.57400 24.52800
N  43.32100 9.23500 29.08000
C  44.19800 9.62800 28.10500
C  45.26200 10.41900 28.63800
C  44.92300 10.58800 30.02700
C  43.76400 9.85500 30.19800
C  46.36800 11.06300 27.87200
C  45.31500 11.08900 31.28200
O  46.17000 11.87200 31.55500
C  44.22600 10.50100 32.33000
C  44.82400 9.62500 33.32900
O  45.33000 8.49100 33.19900
O  44.62600 10.17200 34.61200
C  45.05600 9.31000 35.68700
H  38.52400 6.61300 31.85900
H  39.09800 6.58800 25.41000
H  44.53100 9.81800 25.92300
H  42.39500 8.30600 33.89000
H  39.47000 8.53000 33.51700
H  39.46500 6.54600 34.38300
H  41.25400 6.82400 34.67000
H  40.65100 5.94900 33.21100
H  40.54300 10.67600 33.92000
H  42.29000 10.88600 34.27000
H  41.60500 9.02600 36.01900
H  40.01800 9.92600 35.72500
H  35.79100 5.85400 29.97800
H  37.00700 5.35300 31.27600
H  36.70800 4.30000 29.92400
H  34.97100 5.49600 27.92900
H  35.87400 3.93600 28.01900
H  35.06100 4.35000 26.50900
H  40.60800 8.04500 23.74900
H  43.26800 8.51500 23.92300
H  42.97500 6.31600 23.74300
H  41.37800 6.33300 22.89200
H  41.53900 5.63600 24.60500
H  42.28500 10.28900 23.28900
H  42.60100 10.95000 24.88100
H  40.41400 11.56400 24.95600
H  39.97400 9.95600 25.20100
H  40.02500 10.66100 23.58700
H  46.11200 11.27600 26.83400
H  47.18400 10.34600 27.95700
H  46.65300 11.93500 28.46100
H  43.62800 11.28700 32.79100
H  44.77900 9.93900 36.53200
H  46.14300 9.22700 35.72800
H  44.51300 8.37400 35.55900
Mg 26.02900 50.63500 26.37300
C  24.06000 51.48200 29.15200
C  28.46600 49.57800 28.63200
C  28.07100 50.10700 23.79700
C  23.49200 51.77000 24.25600
N  26.17500 50.59000 28.66700
C  25.22900 50.89700 29.59700
C  25.62700 50.55700 31.06000
C  27.20600 50.31000 30.88200
C  27.36200 50.15200 29.32000
C  28.17200 51.39600 31.43100
C  24.66200 49.47900 31.70300
C  24.02300 49.80000 33.10800
H  24.94200 50.23300 34.24800
N  27.92100 49.84000 26.15300
C  28.75500 49.44900 27.22300
C  29.98000 48.90200 26.69900
C  29.95200 49.17700 25.23600
C  28.61700 49.75600 25.01700
C  30.97000 48.15100 27.57100
C  31.07300 48.85600 24.24600
O  31.11300 49.29800 23.10600
C  32.15200 47.98000 24.59900
N  25.87700 50.91500 24.31600
C  26.83800 50.60500 23.45500
C  26.34800 50.76700 22.03900
C  24.81900 50.98400 22.18700
C  24.69400 51.25800 23.69100
C  27.13000 51.82900 21.24100
C  23.87800 49.86500 21.69600
C  22.70600 50.32500 20.90200
N  24.15400 51.52500 26.64000
C  23.23100 51.97600 25.70300
C  22.04400 52.45200 26.41200
C  22.35700 52.33500 27.78000
C  23.61200 51.80200 27.82300
C  20.78600 52.92200 25.77900
C  21.84800 52.62400 29.10700
O  20.79400 53.19000 29.43600
C  22.92100 52.05400 30.07700
C  23.36300 53.14400 30.99100
O  24.43800 53.67800 30.99700
O  22.50000 53.16700 32.06000
C  22.97000 53.92200 33.18200
H  29.23900 49.25900 29.33500
H  28.60700 49.83700 22.88500
H  22.63500 51.97500 23.61200
H  25.46100 51.50300 31.57500
H  27.43400 49.34900 31.34200
H  27.58100 52.28400 31.65700
H  28.85600 51.66800 30.62700
H  28.71600 51.01400 32.29500
H  25.15000 48.51500 31.84100
H  23.76300 49.32000 31.10800
H  23.48700 48.92000 33.46400
H  23.29500 50.58200 32.89100
H  31.98600 48.38800 27.25400
H  30.88600 47.07000 27.46400
H  30.89800 48.37800 28.63400
H  32.71000 47.88300 23.66800
H  31.69800 47.04200 24.91800
H  32.87200 48.44300 25.27400
H  26.63500 49.81900 21.58400
H  24.56400 51.97400 21.80900
H  28.09700 51.78200 21.74200
H  26.59800 52.76600 21.40800
H  27.16500 51.67100 20.16300
H  23.64900 49.30300 22.60200
H  24.39700 49.29300 20.92700
H  22.62900 49.65000 20.04900
H  22.83800 51.29600 20.42400
H  21.73600 50.19800 21.38300
H  19.98300 52.82100 26.50800
H  20.52200 52.30800 24.91700
H  20.79000 53.99200 25.57500
H  22.51900 51.18200 30.59300
H  23.10900 54.93100 32.79100
H  23.91600 53.57400 33.59700
H  22.23300 53.90000 33.98400

