158

Mg 40.37300 9.89800 29.00900
C  42.32700 11.18100 31.68400
C  38.11000 8.67900 31.35000
C  38.67600 8.47700 26.55600
C  43.04600 10.60300 26.86100
N  40.32200 9.72300 31.27800
C  41.15100 10.56400 32.08300
C  40.55100 10.52100 33.56600
C  39.41900 9.52000 33.42300
C  39.17600 9.34300 31.95300
C  39.71300 8.14300 34.19500
C  40.11300 11.96600 34.01700
C  40.44500 12.39600 35.48000
H  40.50100 13.94000 35.76700
N  38.62400 8.71700 28.90900
C  37.83600 8.34500 29.98400
C  36.74600 7.47900 29.47100
C  36.80000 7.58400 28.08400
C  38.03700 8.30000 27.77200
C  35.57400 7.02800 30.25800
C  35.77600 7.18100 26.97500
O  35.95500 7.45300 25.86700
C  34.44900 6.53900 27.42200
N  40.73900 9.72600 27.03500
C  39.89800 9.01800 26.24400
C  40.50800 8.74100 24.85300
C  41.92000 9.38900 24.90000
C  41.93100 9.93600 26.34700
C  40.57600 7.28400 24.33400
C  42.19100 10.53000 23.86700
C  41.82100 11.95200 24.27400
N  42.23600 10.80600 29.18000
C  43.23400 11.06600 28.25300
C  44.41700 11.77600 28.82100
C  44.05600 11.90500 30.12700
C  42.74000 11.23200 30.33200
C  45.68400 12.04600 28.14300
C  44.45500 12.34600 31.41400
O  45.53000 12.85000 31.77900
C  43.34700 12.01600 32.43400
C  43.92700 11.44700 33.63100
O  44.26600 10.30000 33.86100
O  43.88800 12.43100 34.59700
C  44.06200 11.83300 35.92200
H  37.41100 8.53000 32.17700
H  38.31100 7.82300 25.76100
H  43.98100 10.70800 26.30700
H  41.29200 10.14000 34.26800
H  38.55700 10.06400 33.81000
H  40.75400 8.04600 34.50200
H  39.63100 7.50200 33.31700
H  39.02000 7.81100 34.96800
H  39.04700 12.12800 33.86200
H  40.61100 12.66100 33.34000
H  41.46300 12.06600 35.68800
H  39.79000 11.82100 36.13500
H  35.80800 7.19800 31.30900
H  35.41900 5.95000 30.22000
H  34.67000 7.56500 29.96900
H  33.70900 7.20100 27.87000
H  34.56300 5.76600 28.18100
H  33.95200 6.03200 26.59500
H  39.91300 9.28500 24.12000
H  42.76100 8.70000 24.83000
H  40.08200 7.36600 23.36500
H  40.02700 6.65500 25.03400
H  41.57000 6.84200 24.39800
H  41.61400 10.36500 22.95800
H  43.27500 10.47800 23.76400
H  41.24100 12.52700 23.55200
H  42.69800 12.50900 24.60400
H  41.13800 11.89800 25.12200
H  45.87100 13.10400 28.32700
H  45.74700 12.13800 27.05900
H  46.45300 11.45500 28.64000
H  42.93100 13.00900 32.60700
H  45.05500 11.39500 36.02100
H  43.37100 11.00500 36.08000
H  43.99700 12.65800 36.63100
Mg -5.73900 24.91100 25.37500
C  -4.07300 26.13200 28.17600
C  -7.28900 22.57400 27.40900
C  -7.14300 23.43800 22.62700
C  -3.67900 26.90800 23.32200
N  -5.42800 24.31700 27.57600
C  -4.94100 25.09700 28.49600
C  -5.64300 24.80500 29.85600
C  -6.33500 23.44700 29.59300
C  -6.33600 23.45100 28.03600
C  -5.58900 22.17600 30.10300
C  -6.49100 25.95300 30.34500
C  -6.31000 26.36400 31.83500
H  -5.70400 25.40700 32.88400
N  -7.08300 23.21500 25.10200
C  -7.65300 22.50400 26.06200
C  -8.63100 21.61000 25.46700
C  -8.64400 21.86000 24.02200
C  -7.61400 22.89500 23.82500
C  -9.42000 20.64100 26.28900
C  -9.60100 21.32800 22.97600
O  -9.60500 21.72800 21.79400
C  -10.70800 20.33100 23.41700
N  -5.47600 25.15200 23.31200
C  -6.15600 24.39700 22.40800
C  -5.81200 24.83500 20.94600
C  -4.76000 26.02300 21.08800
C  -4.66000 26.08600 22.67200
C  -5.32700 23.65100 19.96800
C  -5.11100 27.37000 20.50600
C  -4.39300 27.78000 19.21700
N  -4.12700 26.18800 25.62300
C  -3.53200 27.01800 24.74500
C  -2.66800 27.93600 25.43900
C  -2.93000 27.70800 26.78200
C  -3.73700 26.58300 26.84600
C  -1.80400 28.95900 24.80800
C  -2.57000 28.07700 28.09900
O  -1.78100 29.00700 28.46700
C  -3.34200 27.13900 29.14100
C  -2.27900 26.60800 30.15000
O  -1.17700 26.15700 29.93400
O  -2.79600 26.95200 31.34600
C  -1.94000 26.90700 32.46100
H  -7.88300 21.90800 28.03700
H  -7.57400 22.94500 21.75300
H  -3.11600 27.59300 22.68400
H  -4.91400 24.60700 30.64200
H  -7.35900 23.43700 29.96500
H  -6.19400 21.32600 30.41800
H  -4.91300 22.41500 30.92500
H  -4.85800 21.79700 29.39000
H  -7.56700 25.78300 30.30500
H  -6.28000 26.77000 29.65500
H  -7.28400 26.69900 32.19200
H  -5.71400 27.27600 31.81100
H  -9.07200 20.41100 27.29600
H  -9.50600 19.64100 25.86300
H  -10.48500 20.83600 26.41600
H  -11.28400 20.82000 24.20200
H  -10.25100 19.43800 23.84200
H  -11.25900 20.01800 22.52900
H  -6.70600 25.23500 20.46800
H  -3.82400 25.57900 20.74800
H  -5.72600 23.88800 18.98300
H  -5.52800 22.62900 20.29200
H  -4.23900 23.63900 20.04100
H  -5.07300 28.14800 21.26800
H  -6.12100 27.33500 20.09900
H  -3.34200 27.49200 19.19700
H  -4.49700 28.86200 19.12800
H  -4.96400 27.31000 18.41700
H  -2.47800 29.59300 24.23300
H  -1.06700 28.51900 24.13600
H  -1.35400 29.55500 25.60300
H  -4.06100 27.89800 29.44700
H  -1.68900 25.91300 32.83200
H  -2.33000 27.42800 33.33500
H  -0.91500 27.26900 32.37600

