158

Mg 43.88000 3.14200 47.88800
C  41.63700 5.65900 47.03600
C  41.29300 0.83400 47.61600
C  46.09200 0.58300 47.90000
C  46.43700 5.45200 47.52500
N  41.82000 3.27500 47.39100
C  41.11000 4.34300 47.07100
C  39.61600 4.11700 46.94100
C  39.46500 2.64200 47.32700
C  40.95600 2.24700 47.55200
C  38.66000 2.44900 48.69800
C  39.11500 4.38000 45.51500
C  37.73900 5.08400 45.35800
H  37.71500 6.19900 44.24000
N  43.65500 0.93600 47.99100
C  42.48800 0.25600 47.86100
C  42.86100 -1.14900 48.02800
C  44.29700 -1.26900 48.18600
C  44.76500 0.09600 48.05100
C  41.87300 -2.26500 47.85100
C  45.07700 -2.52300 48.42200
O  44.53700 -3.66300 48.46400
C  46.56100 -2.52200 48.71600
N  45.99900 2.97700 47.60700
C  46.70700 1.82300 47.77600
C  48.20000 2.08000 47.88200
C  48.27900 3.67100 47.69200
C  46.79300 4.08400 47.63500
C  48.69600 1.77400 49.26300
C  49.09600 4.14400 46.44300
C  48.60600 3.83400 45.05900
N  44.10700 5.16200 47.40400
C  45.16800 5.98300 47.47500
C  44.77200 7.36700 47.38100
C  43.35500 7.29700 47.23700
C  43.04800 5.89200 47.19200
C  45.69900 8.48200 47.49400
C  42.08300 8.05800 47.09800
O  41.76100 9.24300 47.16900
C  40.91000 6.97600 46.87600
C  39.90600 7.27700 47.87700
O  40.06500 7.03000 49.09500
O  38.81100 7.85700 47.31900
C  37.87300 8.41300 48.34400
H  40.43500 0.17500 47.46500
H  46.92600 -0.10400 48.05700
H  47.25400 6.17600 47.56200
H  39.12900 4.79600 47.64100
H  38.95300 2.03900 46.57700
H  39.29200 2.43100 49.58600
H  38.23500 1.44600 48.72000
H  37.83100 3.14100 48.85000
H  38.99300 3.45300 44.95500
H  39.85900 4.87200 44.88800
H  37.38600 5.51600 46.29400
H  37.13000 4.22200 45.08500
H  40.90000 -1.77300 47.86500
H  41.94200 -3.00000 48.65300
H  42.08900 -2.77400 46.91100
H  47.03100 -2.54300 47.73200
H  46.77100 -3.46100 49.22700
H  46.90300 -1.67100 49.30500
H  48.72100 1.51900 47.10600
H  48.58300 4.24600 48.56700
H  49.08200 0.76000 49.35900
H  47.92600 1.91300 50.02200
H  49.53800 2.43800 49.46200
H  50.06800 3.65400 46.49500
H  49.18300 5.22200 46.57300
H  48.36200 4.79500 44.60500
H  47.73000 3.18600 45.06500
H  49.34400 3.29700 44.46300
H  46.42800 8.57400 48.29900
H  45.01300 9.32600 47.43300
H  46.13100 8.68000 46.51300
H  40.42900 7.06300 45.90100
H  38.23000 9.37600 48.70900
H  37.60600 7.69800 49.12200
H  36.90400 8.62500 47.89100
Mg 15.92500 51.21800 25.60700
C  17.57600 50.12500 28.52800
C  13.33400 52.43400 27.53500
C  14.37100 51.89300 22.84100
C  18.63000 49.72700 23.67600
N  15.58600 51.33700 27.83000
C  16.38400 50.83400 28.80200
C  15.80200 51.20700 30.18700
C  14.35400 51.79300 29.82700
C  14.36700 51.81600 28.27600
C  13.24000 50.80500 30.33000
C  16.69600 52.18700 30.92800
C  16.86200 52.05600 32.50800
H  15.98900 51.17900 33.43400
N  14.14500 52.13200 25.26100
C  13.21400 52.63400 26.13400
C  12.13200 53.23800 25.43400
C  12.53500 53.25000 24.03400
C  13.72000 52.35700 24.00700
C  10.93000 53.83200 26.13900
C  11.91000 53.90300 22.85900
O  12.43600 53.77400 21.74200
C  10.85400 54.73800 23.07400
N  16.46800 50.85300 23.56400
C  15.52000 51.11700 22.66400
C  15.93900 50.74900 21.26000
C  17.34400 50.14300 21.45800
C  17.53700 50.28600 22.99200
C  14.89400 49.83900 20.47200
C  18.58300 50.61200 20.64100
C  19.40800 49.50400 19.95200
N  17.67400 50.05500 25.95900
C  18.69500 49.52300 25.06500
C  19.79600 49.05700 25.89100
C  19.38500 49.24500 27.25300
C  18.11200 49.88100 27.25900
C  21.07400 48.42200 25.39500
C  19.74700 48.97100 28.59300
O  20.74100 48.41000 29.05200
C  18.63600 49.60900 29.53100
C  18.13600 48.44300 30.35300
O  17.31400 47.58000 30.05100
O  18.88100 48.42600 31.50800
C  18.52800 47.22800 32.33800
H  12.59400 52.88000 28.20200
H  13.89900 51.98100 21.86000
H  19.48200 49.25300 23.18300
H  15.79200 50.29200 30.77900
H  14.23100 52.80100 30.22300
H  13.54800 50.15100 31.14600
H  12.85000 50.21200 29.50300
H  12.35700 51.37600 30.61900
H  16.43400 53.23300 30.76800
H  17.71700 52.04800 30.57300
H  16.93500 53.06500 32.91300
H  17.90300 51.73900 32.57300
H  10.65200 53.27000 27.03000
H  10.05100 53.85300 25.49500
H  11.21900 54.83300 26.46000
H  10.00500 54.07900 23.25500
H  10.49000 55.31200 22.22200
H  11.14200 55.34300 23.93400
H  16.01400 51.68300 20.70400
H  17.35700 49.05400 21.48000
H  14.90600 48.75000 20.53100
H  14.95300 50.12200 19.42100
H  13.84800 50.01400 20.72500
H  19.28600 51.16500 21.26400
H  18.18300 51.28500 19.88200
H  20.30000 49.41100 20.57000
H  19.61800 49.90000 18.95800
H  18.92600 48.52700 19.91400
H  21.00600 47.33700 25.32300
H  21.82600 48.39900 26.18300
H  21.59200 48.75600 24.49700
H  19.16700 50.38800 30.07900
H  17.49300 47.17500 32.67600
H  19.27600 47.31500 33.12600
H  18.78400 46.30100 31.82500

