158

Mg 42.88800 42.10700 26.39600
C  41.82700 44.45700 28.81400
C  44.29500 40.32700 28.84000
C  43.73700 39.94800 24.07800
C  42.00600 44.44000 23.85900
N  43.01900 42.45400 28.61000
C  42.39100 43.32200 29.37600
C  42.46300 42.92400 30.88500
C  43.49400 41.71200 30.82800
C  43.61500 41.47300 29.33400
C  44.93600 41.95200 31.37600
C  41.05700 42.72100 31.51600
C  40.72400 43.32300 32.94600
H  41.73800 43.11600 34.09900
N  43.77400 40.29400 26.46100
C  44.39700 39.72900 27.52900
C  44.85000 38.40000 27.22100
C  44.61400 38.25300 25.84900
C  43.98800 39.51300 25.41700
C  45.56900 37.40500 28.22900
C  44.91900 37.11300 24.95400
O  44.94200 37.16200 23.70700
C  45.32900 35.82900 25.64000
N  42.95200 42.13800 24.32800
C  43.21300 41.09100 23.61700
C  43.08200 41.42500 22.12700
C  42.37000 42.82100 22.05600
C  42.48100 43.18300 23.52600
C  44.45000 41.52200 21.35000
C  40.95200 42.71600 21.51700
C  39.87200 41.93700 22.26400
N  42.13600 44.07600 26.31800
C  41.75700 44.88800 25.22200
C  41.12500 46.12000 25.71500
C  41.14700 46.00500 27.16200
C  41.71800 44.72600 27.45600
C  40.59900 47.09700 24.80800
C  40.84600 46.62300 28.41200
O  40.33500 47.72500 28.65600
C  41.16900 45.62800 29.53400
C  42.05300 46.33400 30.52700
O  43.25400 46.49300 30.55300
O  41.19200 46.73600 31.49900
C  41.71700 47.57400 32.61800
H  44.63700 39.65200 29.62800
H  43.99800 39.26000 23.27100
H  41.64100 45.08400 23.05600
H  42.94000 43.74300 31.42300
H  43.20600 40.90200 31.49700
H  45.13500 42.96500 31.72500
H  45.70700 41.62800 30.67700
H  44.99900 41.30400 32.24900
H  40.81400 41.65800 31.52200
H  40.25900 43.15100 30.91100
H  39.77000 42.86900 33.21300
H  40.70100 44.41200 32.95300
H  46.56900 37.40300 27.79600
H  45.25700 36.37300 28.38900
H  45.53700 37.91800 29.19000
H  46.28300 35.94700 26.15300
H  45.12100 35.00300 24.96000
H  44.71000 35.50500 26.47700
H  42.46200 40.69200 21.61100
H  43.03200 43.49300 21.50900
H  45.12400 40.81500 21.83500
H  44.99700 42.45900 21.45900
H  44.30000 41.34500 20.28500
H  40.96300 42.20900 20.55200
H  40.65700 43.73000 21.24800
H  40.26000 41.47400 23.17100
H  39.41300 41.10700 21.72700
H  39.11200 42.65600 22.57100
H  40.32900 47.86300 25.53400
H  39.81500 46.45100 24.41400
H  41.47000 47.26700 24.17500
H  40.28700 45.31800 30.09400
H  42.44800 48.31400 32.29100
H  42.15800 46.97100 33.41200
H  40.96900 48.22200 33.07500
Mg -2.23800 34.25500 26.34100
C  -3.94400 32.66500 28.94000
C  -0.75000 36.39000 28.59600
C  -1.06400 36.15300 23.72000
C  -4.16800 32.45400 24.08900
N  -2.37600 34.45500 28.51000
C  -3.10900 33.71900 29.39500
C  -2.77000 34.04800 30.84400
C  -1.81800 35.30600 30.70100
C  -1.72400 35.50400 29.14000
C  -2.33000 36.63300 31.41800
C  -1.93800 32.92700 31.52100
C  -1.66200 33.29900 33.00700
H  -2.32000 32.35500 34.06000
N  -0.93300 35.99700 26.12500
C  -0.35100 36.67000 27.23400
C  0.59600 37.60900 26.68000
C  0.51700 37.56800 25.24500
C  -0.59200 36.55400 24.97700
C  1.64900 38.33000 27.59200
C  1.37200 38.24300 24.21700
O  1.12000 38.09800 23.05700
C  2.61000 39.05500 24.57700
N  -2.58300 34.41300 24.25800
C  -1.94200 35.18200 23.35100
C  -2.40500 34.87500 21.87800
C  -3.34300 33.67600 22.07300
C  -3.34500 33.47000 23.60000
C  -2.96400 36.09700 21.08400
C  -2.90800 32.36000 21.30200
C  -2.05500 31.34400 22.01400
N  -3.76700 32.87900 26.49200
C  -4.39500 32.14200 25.45700
C  -5.23700 31.12000 26.00700
C  -5.14400 31.36900 27.39300
C  -4.20400 32.34900 27.62500
C  -6.12400 30.07600 25.32500
C  -5.60700 30.88500 28.60000
O  -6.38600 29.93700 28.79700
C  -4.86600 31.70400 29.78500
C  -5.76900 32.40100 30.75300
O  -6.29300 33.52500 30.60900
O  -6.08000 31.49600 31.69400
C  -7.09700 31.87300 32.65700
H  -0.24000 36.98000 29.36000
H  -0.65900 36.68000 22.85400
H  -4.65700 32.00600 23.22200
H  -3.68500 34.31000 31.37500
H  -0.85100 35.02300 31.11500
H  -2.52100 37.46500 30.74100
H  -1.71600 36.87100 32.28600
H  -3.31600 36.38000 31.80700
H  -1.04800 32.86900 30.89500
H  -2.44900 31.96500 31.50800
H  -1.98300 34.30200 33.29100
H  -0.58000 33.27000 33.13500
H  1.63200 39.41900 27.56400
H  2.59600 38.02400 27.14700
H  1.70000 38.10500 28.65700
H  2.32700 39.96000 25.11500
H  2.84200 39.44100 23.58400
H  3.42300 38.44900 24.97800
H  -1.45600 34.67100 21.38200
H  -4.36700 33.94400 21.81600
H  -3.77400 35.80300 20.41700
H  -2.23900 36.52500 20.39200
H  -3.29600 36.89000 21.75500
H  -2.33600 32.74200 20.45700
H  -3.82200 31.99700 20.83300
H  -2.63100 30.47100 22.32100
H  -1.63300 31.86700 22.87100
H  -1.24600 30.93800 21.40700
H  -5.55600 29.70900 24.46900
H  -7.01000 30.65400 25.06200
H  -6.35200 29.28400 26.03800
H  -4.24500 30.98300 30.31800
H  -6.64800 32.53700 33.39500
H  -7.55600 30.98700 33.09800
H  -7.89200 32.40100 32.13100

