158

Mg -0.28400 7.85600 26.78000
C  0.60500 10.03100 29.26200
C  -0.75600 5.32500 28.92900
C  -0.63900 5.80300 24.09400
C  0.55600 10.40900 24.48000
N  0.06100 7.56300 28.82600
C  0.21700 8.70500 29.65600
C  -0.01800 8.33900 31.14000
C  -0.34100 6.75500 31.04700
C  -0.42900 6.50100 29.54900
C  0.55000 5.77100 31.79900
C  -1.28400 9.08700 31.73900
C  -1.75000 8.68300 33.16900
H  -0.75300 8.12500 34.13100
N  -0.70900 5.87800 26.51500
C  -0.85700 5.00000 27.58000
C  -1.28900 3.72800 27.02100
C  -1.19100 3.82300 25.62200
C  -0.85200 5.17800 25.35500
C  -1.67800 2.51200 27.87600
C  -1.51300 2.70900 24.52100
O  -1.26600 2.95700 23.31100
C  -2.11800 1.37100 24.90300
N  -0.15700 8.13900 24.49100
C  -0.38500 7.10900 23.68300
C  -0.11400 7.52500 22.20700
C  -0.18700 9.06100 22.32900
C  0.12900 9.23100 23.85500
C  1.25400 6.95200 21.67200
C  -1.58600 9.63600 22.02400
C  -1.63300 10.65100 20.86800
N  0.54500 9.85300 26.78500
C  0.75900 10.79400 25.81600
C  1.12300 12.03100 26.37500
C  1.18700 11.84900 27.74100
C  0.71400 10.53300 27.93000
C  1.42900 13.28500 25.55700
C  1.39900 12.38500 29.04900
O  1.77200 13.49000 29.32000
C  0.92500 11.24500 30.07300
C  2.15800 11.02100 30.89300
O  3.19600 10.59700 30.42600
O  2.01900 11.66500 32.12100
C  3.07800 11.62000 33.10100
H  -0.97900 4.48400 29.58900
H  -0.62700 5.09300 23.26500
H  0.59300 11.23300 23.76500
H  0.93600 8.54100 31.62700
H  -1.38300 6.65700 31.35300
H  0.73000 4.93900 31.11800
H  -0.04100 5.38200 32.62800
H  1.50400 6.15600 32.15900
H  -2.10000 9.08000 31.01700
H  -1.06700 10.15100 31.84100
H  -2.63800 8.05200 33.13800
H  -2.05000 9.61500 33.64800
H  -1.98600 2.81500 28.87700
H  -0.85800 1.79600 27.92700
H  -2.50100 1.96700 27.41300
H  -2.11800 0.69300 24.05000
H  -3.17300 1.61500 25.02800
H  -1.71600 0.85800 25.77600
H  -0.81100 7.17100 21.44700
H  0.60400 9.53200 21.74400
H  1.63100 6.25500 22.42000
H  1.90000 7.77400 21.36200
H  1.06700 6.26700 20.84500
H  -1.89400 10.19200 22.90900
H  -2.30800 8.87000 21.74200
H  -0.80800 10.42100 20.19400
H  -1.56700 11.66200 21.27000
H  -2.51200 10.43300 20.26200
H  0.73500 13.39000 24.72400
H  2.43700 13.15200 25.16200
H  1.28200 14.19700 26.13500
H  0.15400 11.55600 30.77700
H  2.63500 11.79100 34.08200
H  3.89600 12.29300 32.84500
H  3.37400 10.58000 33.23300
Mg 36.37900 49.34900 26.23500
C  36.64800 47.48500 29.34200
C  35.43500 52.06300 28.04500
C  36.06600 50.81900 23.28700
C  37.66000 46.44600 24.59400
N  36.06000 49.68900 28.49600
C  36.31700 48.86200 29.54600
C  36.25900 49.61600 30.87900
C  35.86200 51.08200 30.41100
C  35.84900 50.98200 28.88000
C  34.64800 51.77200 31.09700
C  37.61400 49.59000 31.75200
C  37.70000 49.29700 33.31000
H  36.53200 49.60500 34.21300
N  35.68700 51.22600 25.75400
C  35.41500 52.21600 26.61500
C  35.11200 53.42300 25.89100
C  35.25900 53.09100 24.48100
C  35.68000 51.67900 24.42900
C  34.79400 54.77500 26.55200
C  35.21600 53.99500 23.27200
O  35.17000 53.50200 22.17500
C  35.16300 55.42400 23.51100
N  36.77600 48.63700 24.22200
C  36.64200 49.52600 23.17800
C  37.05600 48.87800 21.91700
C  37.80400 47.52800 22.30400
C  37.43600 47.54100 23.82000
C  36.01200 48.80900 20.77200
C  39.39100 47.47900 22.06500
C  39.94400 46.05800 21.85100
N  36.81800 47.37000 26.75000
C  37.35900 46.35600 25.95900
C  37.44300 45.16600 26.79600
C  37.20900 45.57900 28.07700
C  36.78500 46.92400 28.01500
C  37.94800 43.83000 26.38100
C  37.20600 45.11900 29.45400
O  37.59400 44.05800 29.93700
C  36.89600 46.35500 30.34700
C  35.83300 45.94500 31.27800
O  34.67600 45.43700 31.01500
O  36.16200 46.32400 32.54100
C  35.08100 46.20100 33.55600
H  35.20200 52.97100 28.60400
H  35.94500 51.38800 22.36300
H  38.03400 45.51900 24.15500
H  35.50100 49.11500 31.48200
H  36.75700 51.65700 30.64900
H  34.87700 52.62000 31.74300
H  34.06000 51.05300 31.66800
H  33.90900 52.16800 30.40100
H  38.15800 50.52800 31.64100
H  38.18900 48.77400 31.31300
H  38.57400 49.82400 33.69300
H  37.94300 48.24100 33.43000
H  35.65600 55.41400 26.74000
H  34.35100 54.58300 27.52900
H  34.05500 55.32800 25.97200
H  34.13700 55.72200 23.72400
H  35.54900 55.91300 22.61700
H  35.89600 55.66400 24.28100
H  37.87300 49.49400 21.54200
H  37.26300 46.69600 21.85400
H  35.62600 47.80300 20.61000
H  36.45900 49.03200 19.80300
H  35.15200 49.45800 20.93600
H  39.92200 47.82500 22.95200
H  39.68200 47.99700 21.15200
H  39.11600 45.35000 21.82000
H  40.63300 45.77100 22.64600
H  40.58100 45.83600 20.99500
H  37.71600 43.75800 25.31800
H  37.40700 43.11600 27.00200
H  39.03600 43.80100 26.43800
H  37.81000 46.56700 30.90100
H  34.71100 45.23100 33.88600
H  34.24900 46.79100 33.17200
H  35.35800 46.69500 34.48700

