158

Mg 54.39800 23.89800 44.27900
C  51.68100 26.16500 43.69700
C  52.37200 21.29000 43.34800
C  57.09800 21.94000 43.98600
C  56.43600 26.70500 44.98400
N  52.29800 23.77700 43.51700
C  51.34200 24.78000 43.41300
C  49.99300 24.14300 43.00300
C  50.23000 22.63800 43.31900
C  51.74900 22.50300 43.33900
C  49.59500 22.13800 44.70000
C  49.77900 24.35600 41.44600
C  50.99500 24.30500 40.50900
H  50.78600 24.62700 39.02300
N  54.65500 21.84500 43.76500
C  53.68600 20.93700 43.51600
C  54.26400 19.64800 43.36200
C  55.67900 19.77300 43.47200
C  55.91900 21.20800 43.84400
C  53.63900 18.35300 42.92500
C  56.68000 18.71000 43.21800
O  56.36700 17.66800 42.62500
C  58.13600 18.83500 43.67200
N  56.59600 24.33000 44.13600
C  57.47700 23.27800 44.17700
C  58.95300 23.95100 44.39100
C  58.62900 25.44700 44.64400
C  57.09600 25.46700 44.70700
C  59.61900 23.24600 45.69400
C  59.21300 26.41000 43.53600
C  58.62500 26.27400 42.10800
N  54.20200 25.98100 44.44800
C  55.04200 26.97700 44.81700
C  54.31000 28.16900 45.02700
C  52.98500 27.89400 44.57500
C  52.97000 26.57600 44.14600
C  54.87700 29.46600 45.48500
C  51.72000 28.52400 44.44700
O  51.35800 29.62400 44.76800
C  50.80800 27.40600 43.82700
C  50.35700 27.92700 42.48900
O  50.91200 27.76800 41.46700
O  49.35700 28.78500 42.65900
C  48.82700 29.33500 41.38000
H  51.62000 20.52000 43.16600
H  58.05500 21.42400 43.88600
H  57.03500 27.53900 45.35600
H  49.24900 24.55000 43.68800
H  49.75200 21.94600 42.62600
H  50.35300 21.53200 45.19600
H  48.68800 21.54200 44.59700
H  49.52300 22.92500 45.45100
H  49.44300 25.39000 41.37300
H  49.03500 23.63000 41.11700
H  51.29400 23.29300 40.78500
H  51.81200 24.95600 40.82200
H  54.07600 17.94600 42.01200
H  52.58500 18.44200 42.66100
H  53.71700 17.65500 43.75900
H  58.52200 17.82100 43.77700
H  58.20600 19.36100 44.62400
H  58.68400 19.39500 42.91400
H  59.64400 23.69700 43.58700
H  59.16100 25.70500 45.56000
H  58.90700 22.51600 46.08100
H  59.84800 23.90500 46.53100
H  60.61200 22.85500 45.47300
H  60.30000 26.37500 43.61100
H  59.16400 27.45500 43.84300
H  57.87000 27.02600 41.87800
H  58.34500 25.23200 41.95500
H  59.45700 26.51400 41.44600
H  55.89400 29.69800 45.16800
H  54.75800 29.30700 46.55700
H  54.17700 30.25600 45.21300
H  49.89400 27.15000 44.36400
H  47.87800 29.85400 41.51500
H  48.65400 28.43900 40.78500
H  49.37400 30.15000 40.90500
Mg 30.15100 58.60100 41.67600
C  27.39200 56.68600 40.69600
C  32.20300 56.30800 40.11100
C  32.82900 60.65400 42.08100
C  28.00500 61.10800 42.66600
N  29.85700 56.71800 40.59000
C  28.62500 56.16200 40.24700
C  28.80300 54.96700 39.33800
C  30.34700 54.79700 39.38100
C  30.83600 55.95900 40.12100
C  30.94400 53.39200 39.80900
C  28.16100 55.17900 37.94600
C  27.26700 54.04500 37.41600
H  27.41900 53.68700 35.94200
N  32.21800 58.49400 41.23400
C  32.84600 57.39800 40.71200
C  34.20900 57.63100 40.58600
C  34.50600 58.84100 41.26600
C  33.18600 59.37800 41.54600
C  35.21400 56.57100 40.07300
C  35.82900 59.36200 41.71100
O  36.88300 58.81700 41.41900
C  35.90000 60.49600 42.59200
N  30.45400 60.63200 42.30400
C  31.60200 61.29100 42.34500
C  31.39900 62.65400 42.78700
C  29.95200 62.85600 43.11800
C  29.36800 61.44300 42.63100
C  32.37400 63.21600 43.86900
C  29.28100 64.12300 42.42900
C  28.91000 64.01700 40.99100
N  28.07300 58.88300 41.67000
C  27.36900 59.99300 42.15100
C  25.96300 59.66700 41.90800
C  25.91900 58.39000 41.37600
C  27.22600 57.93200 41.29600
C  24.78300 60.68900 42.09100
C  25.04600 57.39000 40.82900
O  23.81300 57.43300 40.68500
C  25.97700 56.23900 40.32100
C  25.55800 55.06800 40.99800
O  25.66700 54.88800 42.19800
O  24.97800 54.22500 40.12800
C  24.21100 53.20500 40.77600
H  32.88500 55.55600 39.71000
H  33.68700 61.31900 42.20700
H  27.32600 61.90600 42.97300
H  28.27600 54.17100 39.86300
H  30.82100 54.86400 38.40100
H  30.17100 52.64000 39.64700
H  31.25700 53.44400 40.85200
H  31.78800 53.15100 39.16300
H  28.92000 55.47200 37.22000
H  27.62700 56.13000 37.95800
H  26.31900 54.58300 37.46000
H  27.24600 53.13000 38.00700
H  36.09400 57.11300 39.72600
H  34.81400 55.90200 39.31200
H  35.41300 55.86000 40.87500
H  35.93400 61.47300 42.11000
H  36.86200 60.43300 43.10000
H  35.13100 60.33500 43.34700
H  31.65900 63.27000 41.92600
H  29.78900 62.92900 44.19400
H  32.76000 62.34600 44.40000
H  31.73700 63.84200 44.49600
H  33.15700 63.86200 43.47200
H  30.00500 64.93600 42.45700
H  28.43400 64.37400 43.06700
H  27.87300 64.33100 40.86600
H  29.11800 63.04100 40.55200
H  29.49400 64.75000 40.43600
H  24.92800 61.55000 41.43900
H  24.89400 61.24400 43.02300
H  23.82900 60.18100 41.94900
H  25.81900 56.16600 39.24500
H  23.67700 53.72500 41.57200
H  24.90300 52.46300 41.17300
H  23.51500 52.79500 40.04500

