158

Mg 16.87600 -1.19300 27.84200
C  16.11200 0.79100 30.62400
C  19.22500 -2.93200 29.70300
C  17.90100 -2.94200 25.05900
C  14.75900 0.76500 25.86500
N  17.59200 -1.05500 29.86700
C  17.10300 -0.19000 30.84600
C  17.68200 -0.57700 32.20900
C  18.90000 -1.56600 31.90500
C  18.61000 -1.86100 30.38100
C  20.39300 -0.98700 32.12100
C  16.70200 -1.18000 33.25100
C  16.50200 -0.46800 34.53900
H  17.81100 0.25200 35.06400
N  18.17200 -2.86800 27.49300
C  19.11300 -3.39600 28.35100
C  19.79300 -4.59600 27.72800
C  19.32200 -4.58800 26.37600
C  18.38200 -3.44200 26.24100
C  20.81000 -5.50700 28.32600
C  19.72200 -5.52200 25.19300
O  19.33400 -5.43800 24.04900
C  20.59200 -6.75700 25.27400
N  16.34400 -1.21500 25.75200
C  17.10100 -1.81700 24.81900
C  16.74100 -1.37200 23.35900
C  15.60700 -0.27100 23.69300
C  15.52100 -0.18200 25.20200
C  17.95300 -0.77900 22.64200
C  14.20700 -0.65400 23.07800
C  13.65100 0.41100 22.08300
N  15.69500 0.45000 28.17100
C  14.80500 1.05400 27.29400
C  14.06100 2.08700 27.94700
C  14.49000 1.99800 29.31100
C  15.50900 1.05400 29.38300
C  13.09500 2.99900 27.38900
C  14.35600 2.60800 30.57400
O  13.55300 3.43000 30.99700
C  15.39900 1.75900 31.59100
C  16.19100 2.72300 32.31000
O  17.18700 3.22400 31.90400
O  15.66100 3.01400 33.58900
C  16.44400 3.99800 34.38400
H  19.99600 -3.50500 30.22300
H  18.36200 -3.34400 24.15400
H  14.20000 1.51500 25.30100
H  17.99600 0.43700 32.45700
H  18.75200 -2.45500 32.51900
H  20.90800 -1.49800 32.93500
H  20.32300 0.04500 32.46700
H  20.98700 -1.09600 31.21400
H  16.82900 -2.22700 33.52800
H  15.72200 -1.13700 32.77400
H  16.18500 -1.23200 35.24900
H  15.64900 0.18400 34.34700
H  20.65900 -6.56700 28.12000
H  20.97200 -5.24700 29.37200
H  21.75000 -5.32700 27.80500
H  20.41300 -7.29800 26.20300
H  21.60200 -6.35900 25.36000
H  20.51600 -7.39400 24.39200
H  16.45200 -2.20100 22.71400
H  15.90300 0.75300 23.46200
H  17.83700 0.19500 22.16500
H  18.30400 -1.51600 21.92000
H  18.78800 -0.71600 23.34000
H  13.42600 -0.70300 23.83700
H  14.36200 -1.61200 22.58100
H  14.39000 1.18500 21.87400
H  12.87100 0.94600 22.62400
H  13.29700 -0.20400 21.25600
H  13.14000 3.05900 26.30100
H  13.29000 4.01800 27.72500
H  12.10400 2.72900 27.75400
H  14.78600 1.21500 32.30900
H  15.89500 4.89900 34.10900
H  17.48000 4.20800 34.12000
H  16.23100 3.76700 35.42800
Mg -5.25800 25.06500 26.14100
C  -4.03300 26.54500 28.98300
C  -7.27700 23.08900 28.11600
C  -6.20700 23.61100 23.38900
C  -2.88000 27.13900 24.27400
N  -5.64600 24.85000 28.40500
C  -4.98700 25.53200 29.34100
C  -5.57100 25.19300 30.78700
C  -6.47300 23.90600 30.46500
C  -6.51000 23.99100 28.90800
C  -5.98300 22.53700 30.87200
C  -6.37400 26.41700 31.30300
C  -6.00200 26.90700 32.75500
H  -5.69400 25.94100 33.82800
N  -6.54100 23.53800 25.78200
C  -7.34200 22.91800 26.71500
C  -8.27200 22.00600 26.02700
C  -7.98000 22.10300 24.61700
C  -6.82100 23.11500 24.55200
C  -9.35600 21.19100 26.77100
C  -8.57300 21.39200 23.47700
O  -8.11200 21.50300 22.37700
C  -9.71100 20.34800 23.67000
N  -4.56500 25.29300 24.10500
C  -5.18000 24.55300 23.16700
C  -4.71400 24.95200 21.76400
C  -3.60400 26.10500 22.02100
C  -3.63100 26.20900 23.59200
C  -4.13700 23.73000 20.99400
C  -3.91700 27.41900 21.31900
C  -3.09800 27.89900 20.09500
N  -3.71700 26.54900 26.46700
C  -2.89900 27.28600 25.65700
C  -2.10600 28.26500 26.48000
C  -2.58100 27.98000 27.73400
C  -3.57300 27.00200 27.70900
C  -1.08600 29.24400 25.95300
C  -2.25700 28.23100 29.04500
O  -1.29700 28.97400 29.45000
C  -3.25900 27.40200 29.97800
C  -2.49200 26.57200 30.89500
O  -2.26100 25.39900 30.67900
O  -2.18600 27.32400 32.00300
C  -1.10900 26.71500 32.78000
H  -7.97400 22.53500 28.74800
H  -6.56000 23.28000 22.41100
H  -2.23700 27.88700 23.80500
H  -4.83000 24.98300 31.55900
H  -7.49300 24.06400 30.81700
H  -6.71500 22.13900 31.57400
H  -5.01300 22.60000 31.36400
H  -5.93200 21.92300 29.97300
H  -7.40500 26.06100 31.28600
H  -6.36000 27.30700 30.67500
H  -6.91900 27.40300 33.07400
H  -5.30800 27.73600 32.61500
H  -10.14500 21.89300 27.04000
H  -8.89600 20.80900 27.68300
H  -9.82400 20.32100 26.31100
H  -10.68900 20.71800 23.98000
H  -9.19600 19.57600 24.24100
H  -9.90500 20.11200 22.62400
H  -5.53200 25.42100 21.21700
H  -2.62800 25.73000 21.71300
H  -4.30100 23.64300 19.92000
H  -4.48900 22.81500 21.46900
H  -3.08900 23.70300 21.29400
H  -3.77600 28.22300 22.04200
H  -4.98300 27.40800 21.09100
H  -2.90600 28.97100 20.13400
H  -3.69400 27.69700 19.20500
H  -2.18800 27.31900 19.93800
H  -1.26500 30.24200 26.35400
H  -1.07200 29.32500 24.86600
H  -0.09700 28.86400 26.20900
H  -3.92800 28.15700 30.39100
H  -0.25300 26.74600 32.10500
H  -1.28500 25.64300 32.86600
H  -0.81400 27.16800 33.72600

