158

Mg 54.07100 24.76100 44.61600
C  51.14800 26.54200 43.95800
C  52.31600 21.90800 43.84100
C  57.00300 23.35200 44.01100
C  55.66700 27.86100 45.26500
N  51.92600 24.26400 43.76800
C  50.91200 25.17200 43.75900
C  49.63500 24.47800 43.43700
C  49.98100 22.92700 43.69600
C  51.50800 22.97900 43.73200
C  49.25400 22.47000 45.00800
C  49.05600 24.67100 42.01200
C  50.02600 24.87100 40.79300
H  49.40900 25.08100 39.42700
N  54.56600 22.83500 44.00500
C  53.71900 21.75300 43.90300
C  54.43800 20.55200 43.84600
C  55.81600 20.98000 43.87700
C  55.89200 22.43900 43.95800
C  53.90800 19.22300 43.70600
C  56.91000 19.94800 43.89500
O  56.69500 18.76600 43.88100
C  58.34700 20.44900 43.96000
N  55.99500 25.55400 44.55100
C  57.07900 24.72500 44.32000
C  58.44000 25.43700 44.52400
C  57.98500 26.85000 44.93400
C  56.46600 26.81000 44.83300
C  59.43800 24.74400 45.52800
C  58.72300 27.98300 43.98900
C  57.95200 28.34300 42.75100
N  53.55500 26.82700 44.77600
C  54.24100 27.93500 45.14300
C  53.30500 29.02200 45.48200
C  52.09500 28.55100 44.86400
C  52.32400 27.20100 44.36000
C  53.64400 30.29100 46.22000
C  50.72200 28.92400 44.60100
O  50.05500 29.94900 44.72500
C  50.14100 27.62500 43.94700
C  49.60300 27.89400 42.63200
O  50.28400 28.09800 41.59200
O  48.23900 28.11700 42.71700
C  47.57700 28.26200 41.41300
H  51.69600 21.01200 43.90400
H  57.94300 22.80300 44.10300
H  56.20500 28.73100 45.64700
H  48.87600 24.77500 44.16100
H  49.52800 22.32800 42.90600
H  48.80800 23.24500 45.63200
H  50.07100 21.93200 45.48800
H  48.50500 21.68100 44.94000
H  48.32300 25.47400 42.09000
H  48.56400 23.72500 41.78600
H  50.63800 23.97000 40.80600
H  50.72500 25.69000 40.96100
H  54.21100 18.69700 44.61100
H  54.35800 18.64400 42.90000
H  52.84100 19.32500 43.50600
H  58.53000 21.13100 43.13000
H  58.97400 19.58100 43.75600
H  58.64000 20.93500 44.89100
H  58.75700 25.28900 43.49200
H  58.09500 27.00300 46.00800
H  60.35700 24.38800 45.06200
H  58.96300 23.89900 46.02600
H  59.72100 25.46900 46.29000
H  59.64800 27.44900 43.77300
H  58.89700 28.84300 44.63500
H  58.66900 28.26200 41.93300
H  57.70500 29.39300 42.90600
H  57.03900 27.77200 42.58000
H  54.68600 30.33500 46.53500
H  53.08000 30.28700 47.15300
H  53.42300 31.13900 45.57100
H  49.35600 27.25600 44.60700
H  47.80100 29.24400 40.99700
H  46.49600 28.25700 41.55800
H  47.78600 27.45400 40.71200
Mg 41.97600 40.79500 26.45000
C  41.59400 43.37200 28.80600
C  42.88000 38.70600 28.97300
C  42.82000 38.32200 24.06200
C  41.64800 43.05900 23.86600
N  42.25200 41.06200 28.67700
C  41.93800 42.17300 29.40300
C  41.83500 41.86900 30.91100
C  42.35600 40.38700 30.82900
C  42.60700 39.99600 29.40400
C  43.51300 40.09200 31.83500
C  40.37900 42.19100 31.57200
C  39.93600 41.50900 32.90400
H  39.75900 42.45000 34.12600
N  42.72100 38.83000 26.55700
C  43.06800 38.17500 27.68300
C  43.55400 36.89200 27.40600
C  43.40300 36.73200 26.01300
C  42.95500 37.98400 25.45300
C  44.13500 35.92400 28.45200
C  43.74600 35.49300 25.17500
O  43.59100 35.49800 23.92600
C  43.96500 34.12300 25.77000
N  42.36800 40.77500 24.27400
C  42.54800 39.59300 23.58200
C  42.46100 39.85700 22.02600
C  42.08600 41.36100 22.00100
C  42.06800 41.83000 23.42300
C  43.62100 39.47300 21.05700
C  40.72900 41.71400 21.32000
C  39.38800 41.63800 22.06100
N  41.64800 42.77700 26.34000
C  41.53300 43.59800 25.22000
C  41.22600 44.97300 25.65100
C  41.27600 44.94200 27.03700
C  41.49000 43.58700 27.45600
C  41.09500 46.13500 24.78300
C  41.19600 45.81100 28.18900
O  40.86500 46.97800 28.31400
C  41.20200 44.75300 29.45200
C  42.25000 45.16400 30.37700
O  43.40200 44.75100 30.46000
O  41.69400 45.97800 31.35800
C  42.51300 46.36200 32.51700
H  43.15600 38.03100 29.78500
H  42.93100 37.63100 23.22400
H  41.41300 43.75900 23.06100
H  42.57800 42.48700 31.41400
H  41.53100 39.77700 31.19700
H  43.20900 39.33000 32.55300
H  43.74500 40.87000 32.56100
H  44.46900 39.90700 31.34400
H  39.65700 41.82800 30.84000
H  40.28200 43.25000 31.81300
H  40.61700 40.69200 33.14100
H  38.95100 41.08700 32.70400
H  43.58200 34.99500 28.58900
H  44.29800 36.39800 29.42000
H  45.14700 35.70300 28.11200
H  44.94100 34.16300 26.25300
H  44.10000 33.40100 24.96400
H  43.15100 33.86800 26.44800
H  41.61900 39.21800 21.75900
H  42.81700 41.95600 21.45400
H  43.22000 39.04900 20.13700
H  44.18200 38.69800 21.58000
H  44.25200 40.31700 20.78000
H  40.76700 41.22600 20.34700
H  40.87500 42.77900 21.13700
H  39.44800 41.27700 23.08800
H  38.71700 41.04800 21.43700
H  39.00200 42.65600 22.10200
H  40.51500 45.88400 23.89500
H  42.12700 46.41100 24.56200
H  40.67500 47.02100 25.26000
H  40.19100 44.79700 29.85800
H  42.52000 45.66500 33.35500
H  42.05500 47.26300 32.92400
H  43.44700 46.77100 32.13300

