158

Mg 34.41100 2.86400 29.20300
C  32.43100 4.11800 31.72900
C  37.05800 2.46300 31.67600
C  36.59700 2.49400 26.72800
C  31.96500 3.74100 26.86100
N  34.70600 3.20900 31.48300
C  33.70300 3.69100 32.24200
C  34.09500 3.66100 33.74900
C  35.60100 3.40000 33.63400
C  35.83700 3.05900 32.19600
C  36.45500 4.71900 34.00500
C  33.27600 2.67600 34.60000
C  33.07500 3.26500 36.02200
H  34.05800 4.28400 36.58600
N  36.45800 2.30900 29.18000
C  37.30300 2.19200 30.28200
C  38.60400 1.79300 29.78300
C  38.65900 1.99500 28.36700
C  37.20800 2.31400 28.00900
C  39.74800 1.55000 30.67300
C  39.80000 1.86600 27.33800
O  39.56900 1.99900 26.11600
C  41.23300 1.54700 27.63600
N  34.26500 3.13700 27.18700
C  35.26800 2.81600 26.37700
C  34.97700 3.00800 24.90800
C  33.47300 3.08100 24.90800
C  33.17400 3.25400 26.41800
C  35.74300 4.10700 24.28600
C  32.66000 1.84400 24.35400
C  32.32500 0.64500 25.14200
N  32.56900 3.77800 29.21800
C  31.64200 3.93900 28.21900
C  30.36900 4.42500 28.75600
C  30.59100 4.47200 30.14700
C  31.99000 4.15200 30.35300
C  29.18400 4.65900 27.94100
C  30.05100 4.84700 31.41000
O  28.94200 5.27600 31.73000
C  31.21400 4.55200 32.50300
C  31.31300 5.82800 33.21100
O  32.11500 6.69700 32.99500
O  30.37500 5.93200 34.22900
C  30.46200 7.04900 35.18000
H  37.77500 2.30600 32.48500
H  37.22500 2.46600 25.83400
H  31.25400 3.92100 26.05300
H  33.86000 4.66800 34.09600
H  36.00500 2.63100 34.29200
H  36.92100 4.43200 34.94700
H  35.83300 5.56100 34.30800
H  37.08900 4.93700 33.14500
H  33.95800 1.84800 34.79000
H  32.32800 2.38700 34.14500
H  33.09800 2.43400 36.72600
H  32.15100 3.84000 35.97300
H  40.14000 0.56900 30.40500
H  39.53800 1.53100 31.74200
H  40.43200 2.39500 30.59500
H  41.53100 2.12200 28.51200
H  41.93700 1.77400 26.83500
H  41.33200 0.48400 27.85900
H  35.16000 2.06600 24.39100
H  33.07200 4.02500 24.53800
H  36.44000 4.67200 24.90600
H  35.03900 4.74700 23.75400
H  36.35100 3.58600 23.54700
H  33.27600 1.41500 23.56400
H  31.79100 2.29500 23.87400
H  31.23600 0.61600 25.11400
H  32.54700 0.82100 26.19400
H  32.81500 -0.25100 24.76300
H  29.32200 5.42400 27.17700
H  28.26300 4.67700 28.52300
H  29.04700 3.70800 27.42500
H  30.95300 3.84000 33.28600
H  29.55000 7.10200 35.77400
H  30.54600 7.92000 34.53000
H  31.34000 6.97700 35.82200
Mg 36.30200 48.83400 26.34800
C  36.58700 46.75000 29.23100
C  35.00900 51.25600 28.39500
C  35.95700 50.74300 23.70100
C  37.66800 46.20600 24.45600
N  35.78700 49.01200 28.59200
C  36.00100 48.00700 29.56100
C  35.73000 48.58100 30.96400
C  34.96900 49.94300 30.60200
C  35.34300 50.13700 29.14400
C  33.37400 49.91000 30.94800
C  36.98100 48.73300 31.65600
C  36.93900 48.98900 33.19200
H  35.55200 49.14400 33.82200
N  35.67100 50.76700 26.11800
C  35.10700 51.58700 27.05100
C  34.66600 52.78500 26.47600
C  34.97500 52.69500 25.10500
C  35.57400 51.39300 24.87700
C  34.20000 54.05500 27.24400
C  34.72600 53.73500 23.99100
O  35.06800 53.57400 22.79100
C  33.82300 54.89500 24.20100
N  36.79900 48.49600 24.40100
C  36.47100 49.47800 23.43200
C  36.74200 48.95700 21.96900
C  37.40700 47.65100 22.29500
C  37.28100 47.43000 23.76400
C  35.42300 48.84100 21.11000
C  38.95600 47.45100 21.77000
C  39.93900 47.85500 22.90100
N  36.83800 46.76500 26.65300
C  37.42000 45.84600 25.79900
C  37.67500 44.59600 26.52200
C  37.46700 44.92900 27.90900
C  36.86000 46.20400 27.95800
C  38.08500 43.30300 25.87800
C  37.57300 44.42200 29.25500
O  37.97900 43.29400 29.65400
C  37.02700 45.56400 30.21900
C  35.87800 44.97500 30.96800
O  35.00700 44.29900 30.46600
O  35.95000 45.31400 32.28500
C  34.84500 44.93200 33.17200
H  34.76500 52.15900 28.95800
H  35.65000 51.31500 22.82300
H  38.06000 45.49600 23.72500
H  35.19400 47.80500 31.51100
H  35.41700 50.72100 31.22100
H  33.07500 50.65300 31.68700
H  33.12300 48.89000 31.24100
H  32.81600 50.14900 30.04300
H  37.43800 49.56900 31.12600
H  37.60000 47.84000 31.57200
H  37.51200 49.89000 33.40800
H  37.43600 48.19000 33.74200
H  33.32400 54.45000 26.73000
H  35.03600 54.75400 27.22000
H  33.92600 53.82000 28.27300
H  32.81900 54.53800 24.43400
H  33.88800 55.44500 23.26300
H  34.27400 55.58600 24.91400
H  37.40700 49.58000 21.37100
H  36.84900 46.82000 21.86500
H  34.46500 48.73200 21.61800
H  35.59600 47.91200 20.56700
H  35.34600 49.68500 20.42400
H  39.21600 47.84600 20.78800
H  39.00100 46.38500 21.54700
H  40.77500 48.28700 22.35100
H  40.38600 47.03600 23.46500
H  39.56000 48.62900 23.56900
H  39.02100 42.85800 26.21600
H  37.86500 43.24500 24.81200
H  37.39400 42.56000 26.27700
H  37.82100 45.82600 30.91800
H  34.18800 44.16500 32.76200
H  34.29800 45.84400 33.40900
H  35.29500 44.44000 34.03400

