158

Mg 2.36900 -1.81400 44.02000
C  5.63500 -0.80100 43.32500
C  1.27400 1.10500 42.60100
C  -0.64300 -3.23600 43.62000
C  3.61700 -4.84600 45.34600
N  3.37500 -0.12100 42.92500
C  4.67100 0.18600 42.88300
C  4.88200 1.58000 42.36100
C  3.56300 2.26600 42.47000
C  2.65800 1.04600 42.72400
C  3.45600 3.39500 43.63800
C  5.52200 1.51200 40.92700
C  6.49900 2.68100 40.60900
H  6.31200 3.45500 39.25100
N  0.44700 -1.12300 43.35100
C  0.21400 0.13500 42.79600
C  -1.08300 0.25300 42.47200
C  -1.75200 -0.97400 42.88900
C  -0.68600 -1.86800 43.33900
C  -1.61400 1.45400 41.77700
C  -3.29500 -1.21800 42.72300
O  -4.06900 -0.31500 42.32500
C  -3.91300 -2.46800 43.08100
N  1.63400 -3.77500 44.44400
C  0.28800 -4.08300 44.23500
C  -0.00200 -5.50500 44.74100
C  1.29700 -5.92200 45.47100
C  2.26700 -4.80700 45.11700
C  -1.31700 -5.67200 45.52000
C  1.90400 -7.35600 44.95300
C  1.06700 -8.60300 45.25400
N  4.22000 -2.72100 44.24000
C  4.55000 -3.96800 44.84400
C  6.02200 -3.98000 44.86000
C  6.46300 -2.78200 44.31800
C  5.34700 -2.09400 43.94000
C  6.82500 -5.02400 45.53100
C  7.67600 -2.05400 43.95500
O  8.82300 -2.45800 44.08400
C  7.16600 -0.70600 43.31800
C  7.49600 0.38600 44.22400
O  7.24200 0.34100 45.41400
O  8.13300 1.38100 43.56900
C  8.34600 2.57500 44.47700
H  1.05100 2.06000 42.12100
H  -1.60600 -3.74800 43.56400
H  3.91400 -5.76900 45.84800
H  5.52600 2.17500 43.00800
H  3.42000 2.81400 41.53800
H  2.40200 3.29200 43.89900
H  3.66000 4.29500 43.05800
H  4.14900 3.35200 44.47800
H  4.71800 1.55800 40.19200
H  6.02600 0.58600 40.65100
H  7.48800 2.24000 40.73000
H  6.35100 3.31300 41.48500
H  -2.45700 1.19800 41.13400
H  -0.88300 1.82200 41.05800
H  -2.00300 2.21500 42.45300
H  -4.97500 -2.35300 43.29700
H  -3.53700 -2.98400 43.96400
H  -3.80700 -3.10700 42.20400
H  -0.11600 -6.05200 43.80500
H  1.07400 -5.91900 46.53800
H  -1.91000 -4.76100 45.60000
H  -1.09800 -5.95100 46.55100
H  -2.01500 -6.41700 45.13900
H  2.91100 -7.54700 45.32300
H  2.08700 -7.32000 43.87900
H  0.74500 -8.92700 44.26400
H  0.20500 -8.20800 45.79300
H  1.51500 -9.40300 45.84300
H  7.81700 -4.95500 45.08500
H  6.36000 -6.00700 45.46600
H  6.98800 -4.74100 46.57100
H  7.55900 -0.52700 42.31600
H  8.55600 2.44000 45.53800
H  7.45500 3.14200 44.21000
H  9.20100 3.09700 44.04600
Mg 25.98300 1.18000 29.50900
C  28.30400 0.69300 32.31500
C  23.51100 1.27900 31.80100
C  23.96200 1.23300 26.91900
C  28.74600 0.53100 27.34100
N  25.98700 1.04200 31.84400
C  26.98500 0.91800 32.74000
C  26.42700 1.26400 34.20000
C  24.85100 1.23100 33.98700
C  24.77200 1.22000 32.47100
C  24.13600 0.03200 34.63400
C  27.02200 2.50400 34.92600
C  27.94000 2.23100 36.14000
H  27.93900 3.21800 37.34600
N  24.02900 1.26900 29.40800
C  23.12400 1.26400 30.43000
C  21.76500 1.41300 29.89800
C  21.88200 1.30700 28.48200
C  23.32600 1.28200 28.20500
C  20.59600 1.47400 30.79300
C  20.77400 1.29500 27.39500
O  20.91200 1.02400 26.20300
C  19.37900 1.53700 27.75800
N  26.36200 0.95000 27.45700
C  25.33500 1.10100 26.57500
C  25.78100 1.00000 25.13400
C  27.27300 0.73300 25.25200
C  27.51500 0.74500 26.76700
C  25.08000 -0.04900 24.21000
C  28.24100 1.64500 24.37600
C  29.07200 2.67300 25.18200
N  28.05400 0.65800 29.70000
C  29.02400 0.49800 28.74600
C  30.26200 0.23900 29.34600
C  30.06800 0.32900 30.72500
C  28.70100 0.55500 30.92000
C  31.64700 0.11700 28.72600
C  30.68500 0.26900 32.00000
O  31.88300 0.11300 32.35400
C  29.60800 0.49600 33.10400
C  29.52600 -0.67600 34.05300
O  29.04600 -1.76200 33.74900
O  29.82600 -0.30600 35.38500
C  29.36600 -1.19000 36.46000
H  22.68300 1.46000 32.49000
H  23.32200 1.10500 26.04300
H  29.47900 0.30600 26.56400
H  26.57800 0.31600 34.71600
H  24.36000 2.12800 34.36300
H  24.72600 -0.61800 35.28200
H  23.65700 -0.58900 33.87600
H  23.32700 0.41800 35.25400
H  26.18600 3.08800 35.31000
H  27.41300 3.23100 34.21400
H  28.98400 2.19100 35.82700
H  27.68300 1.26000 36.56300
H  19.97100 0.58100 30.77400
H  19.91100 2.24300 30.43500
H  20.77500 1.76500 31.82800
H  19.25400 2.55600 28.12600
H  19.08800 0.87100 28.57000
H  18.73100 1.51800 26.88200
H  25.56700 1.93500 24.61600
H  27.58100 -0.27500 24.97500
H  25.83800 -0.72100 23.80800
H  24.48500 0.31100 23.37000
H  24.33300 -0.61800 24.76400
H  27.72700 2.00700 23.48500
H  29.06000 1.00200 24.05400
H  28.35200 3.10800 25.87500
H  29.37400 3.49800 24.53800
H  29.94600 2.34600 25.74700
H  32.41000 0.66300 29.28000
H  31.66800 0.46400 27.69300
H  31.86000 -0.95000 28.79400
H  29.85900 1.32200 33.77000
H  28.80900 -2.09600 36.22100
H  28.63300 -0.54700 36.94700
H  30.17100 -1.33600 37.18000

