158

Mg 24.46400 0.69500 29.45200
C  26.53200 1.03800 32.08600
C  21.84700 1.19200 31.53400
C  22.30500 0.18800 26.79100
C  27.15200 0.42600 27.26300
N  24.28100 1.22200 31.54800
C  25.31500 1.36400 32.48900
C  24.80700 1.68800 33.88300
C  23.25300 1.51500 33.66200
C  23.11300 1.38600 32.14100
C  22.66000 0.33100 34.38400
C  25.35700 2.97400 34.52800
C  26.14100 2.74900 35.83400
H  25.98700 3.60400 37.11500
N  22.44400 0.53700 29.23500
C  21.54500 0.76100 30.26000
C  20.21600 0.38200 29.81900
C  20.31900 0.11800 28.45300
C  21.71400 0.27900 28.08600
C  19.01200 0.48600 30.77800
C  19.25000 -0.27100 27.49000
O  19.46000 -0.68600 26.38700
C  17.82300 -0.15900 27.91500
N  24.71000 0.36500 27.35400
C  23.65200 0.36700 26.46700
C  24.23300 0.53800 24.97700
C  25.82500 0.56500 25.20600
C  25.90500 0.37800 26.68000
C  23.68700 -0.56000 23.99400
C  26.46500 1.96300 24.75300
C  25.67800 3.30000 25.06300
N  26.41400 0.64100 29.56500
C  27.41300 0.51100 28.65000
C  28.69900 0.42100 29.23400
C  28.42700 0.52600 30.59300
C  27.02600 0.77200 30.77800
C  29.97700 0.09100 28.33800
C  29.08400 0.47100 31.90500
O  30.17400 0.36200 32.29600
C  27.88100 0.78800 32.88300
C  27.70600 -0.29300 33.85300
O  27.11700 -1.35100 33.67700
O  28.26600 0.19500 35.02300
C  28.18000 -0.70600 36.19800
H  21.06600 1.47800 32.24200
H  21.66300 0.23100 25.90800
H  28.00300 0.47600 26.58100
H  25.24700 0.83100 34.39300
H  22.81000 2.40800 34.10400
H  22.07300 -0.23700 33.66200
H  21.89900 0.69600 35.07300
H  23.36000 -0.40300 34.78300
H  24.52000 3.66300 34.63800
H  26.01700 3.41400 33.78000
H  27.17000 2.88300 35.50200
H  26.07700 1.70100 36.12700
H  18.14000 -0.11000 30.50800
H  18.79200 1.55300 30.82700
H  19.31000 0.12700 31.76300
H  17.25400 -0.15800 26.98500
H  17.50500 0.84400 28.19900
H  17.65600 -1.00400 28.58300
H  23.91700 1.47200 24.51300
H  26.45100 -0.17800 24.71200
H  23.05900 -1.30600 24.48000
H  24.51800 -1.09800 23.53700
H  23.22700 0.00200 23.18000
H  26.47800 1.93400 23.66300
H  27.53300 2.04100 24.95600
H  26.45000 4.07000 25.06500
H  25.08500 3.41100 25.97100
H  25.12100 3.54100 24.15800
H  30.83100 0.19000 29.00900
H  30.04400 0.79100 27.50500
H  29.87300 -0.94000 28.00100
H  28.21200 1.68600 33.40500
H  27.33500 -0.29000 36.74800
H  29.06900 -0.79500 36.82400
H  27.95900 -1.70900 35.83400
Mg 48.98000 35.31400 26.99000
C  46.56500 34.43500 29.55500
C  49.56100 38.23700 28.72200
C  50.81000 36.48500 24.29800
C  47.66900 32.86000 25.05500
N  48.20500 36.15600 28.92900
C  47.37900 35.56800 29.91100
C  47.05300 36.53700 31.05500
C  47.85200 37.78600 30.64200
C  48.65700 37.38600 29.39700
C  47.07400 39.09200 30.30600
C  47.48200 36.00800 32.51700
C  46.52700 36.58400 33.56900
H  47.01300 37.67900 34.45300
N  50.20000 36.96400 26.68600
C  50.35900 38.01700 27.55000
C  51.37000 38.85900 27.00900
C  51.85900 38.25900 25.82100
C  50.96000 37.22200 25.50900
C  51.70900 40.27600 27.59900
C  53.05100 38.66400 24.95000
O  53.43300 38.02800 23.97700
C  53.95500 39.83500 25.33900
N  49.06400 34.87800 24.99900
C  49.84100 35.46700 23.99200
C  49.76200 34.63400 22.68900
C  49.08300 33.31600 23.13400
C  48.53700 33.70000 24.50200
C  49.02800 35.47600 21.62700
C  50.04700 32.08900 23.19300
C  50.35400 31.43500 21.89400
N  47.50800 33.91700 27.24300
C  47.08100 32.98600 26.35300
C  45.97100 32.17900 26.87700
C  45.69700 32.74500 28.14100
C  46.71900 33.69700 28.34400
C  45.44000 30.89000 26.29000
C  44.89300 32.72000 29.35200
O  43.86000 32.10700 29.64900
C  45.31400 33.97000 30.18000
C  45.46800 33.44000 31.56100
O  46.34300 32.66900 31.92900
O  44.36600 33.84900 32.23400
C  44.21500 33.34700 33.54500
H  49.73400 39.21800 29.17100
H  51.46600 36.83200 23.49700
H  47.19200 32.04900 24.50100
H  45.98100 36.73100 31.03200
H  48.52000 38.19500 31.40000
H  47.54400 39.91000 30.85200
H  46.08400 39.00100 30.75300
H  46.96700 39.37600 29.25900
H  48.44500 36.34800 32.89800
H  47.53100 34.91900 32.50800
H  46.17700 35.83900 34.28400
H  45.68100 37.07200 33.08600
H  50.74300 40.77800 27.66100
H  52.30200 40.90400 26.93400
H  52.23800 40.18300 28.54800
H  54.85700 39.61900 24.76700
H  54.14600 39.76400 26.41000
H  53.55300 40.83100 25.15000
H  50.75900 34.27400 22.43700
H  48.31800 33.06000 22.40100
H  48.92600 36.51800 21.92700
H  48.02100 35.06200 21.57500
H  49.66700 35.53100 20.74500
H  49.57800 31.41400 23.90900
H  51.00700 32.42700 23.58400
H  49.83400 31.94900 21.08600
H  49.99500 30.42200 22.07400
H  51.40400 31.53200 21.61500
H  46.29800 30.22300 26.20800
H  45.32000 31.04600 25.21800
H  44.52800 30.47100 26.71500
H  44.49000 34.68400 30.19000
H  44.78900 34.00900 34.19300
H  44.54600 32.32300 33.72300
H  43.21600 33.52500 33.94300

