158

Mg 35.65800 48.74300 24.53400
C  35.80200 46.92100 27.60000
C  34.68000 51.54400 26.16700
C  35.01300 50.01100 21.61700
C  36.82000 45.74900 23.07900
N  35.24000 49.18500 26.66400
C  35.41100 48.32200 27.71200
C  35.08200 49.03700 29.03000
C  34.53800 50.45800 28.51000
C  34.84600 50.45800 27.03100
C  33.06000 50.71400 28.85500
C  36.40000 49.05900 29.90900
C  36.27000 48.81300 31.39000
H  34.86200 48.83100 32.03000
N  35.03400 50.53800 23.92800
C  34.66800 51.60900 24.74800
C  34.49400 52.80800 23.84800
C  34.39300 52.33500 22.51600
C  34.84900 50.93800 22.64300
C  34.28200 54.13300 24.42100
C  33.95700 53.02600 21.29100
O  33.99900 52.47100 20.21600
C  33.55900 54.50000 21.29900
N  35.83700 47.98300 22.64800
C  35.58200 48.75100 21.58000
C  35.65400 47.94100 20.30200
C  36.60900 46.78600 20.75700
C  36.36400 46.75600 22.32300
C  34.40000 47.36400 19.64300
C  38.00200 47.04600 20.27500
C  38.80600 45.81800 19.74300
N  36.06600 46.62500 25.11900
C  36.70400 45.61100 24.48900
C  36.89900 44.45000 25.28800
C  36.47500 44.89300 26.54700
C  36.09000 46.27000 26.41000
C  37.46100 43.10900 25.00700
C  36.48200 44.57400 28.00200
O  36.82900 43.55000 28.60200
C  35.99600 45.84400 28.66500
C  34.72400 45.53400 29.37600
O  33.56100 45.36200 28.87800
O  35.09500 45.42800 30.71400
C  33.98800 44.98900 31.51100
H  34.40200 52.43100 26.74000
H  34.87100 50.35200 20.59000
H  37.35300 44.92400 22.60100
H  34.24000 48.54600 29.52000
H  35.11500 51.28600 28.92300
H  32.64300 49.95800 29.52000
H  32.44200 50.79700 27.96100
H  32.84900 51.68600 29.30200
H  36.79300 50.07600 29.88100
H  37.08400 48.28700 29.55800
H  36.82900 49.55600 31.96000
H  36.69300 47.83300 31.61000
H  33.23700 54.39600 24.58700
H  34.70000 54.95000 23.83200
H  34.69200 54.13100 25.43100
H  34.46500 55.00500 21.63600
H  32.72000 54.55200 21.99300
H  33.23100 54.76300 20.29400
H  36.07600 48.58200 19.52800
H  36.18600 45.84700 20.40000
H  34.57400 46.35500 19.27000
H  34.29100 48.03000 18.78700
H  33.46800 47.39700 20.20700
H  38.59000 47.41900 21.11400
H  37.92600 47.73600 19.43400
H  39.04800 45.84700 18.68000
H  38.31900 44.86800 19.96200
H  39.68500 45.83400 20.38800
H  36.76900 42.55200 24.37500
H  37.53000 42.54600 25.93800
H  38.43100 43.13400 24.51000
H  36.88500 46.05300 29.25900
H  33.70700 44.01300 31.11500
H  33.22700 45.73500 31.28100
H  34.20200 45.05700 32.57800
Mg -11.18600 17.30900 42.20200
C  -7.92400 18.30600 42.24800
C  -12.14300 20.64500 41.94500
C  -14.51500 16.36500 41.93300
C  -10.27900 13.95700 41.99300
N  -10.16000 19.21900 42.17300
C  -8.83000 19.37000 42.13900
C  -8.39400 20.86700 42.02800
C  -9.71900 21.61700 42.28600
C  -10.76900 20.43800 42.12100
C  -9.72200 22.43800 43.56800
C  -7.77900 21.15000 40.64700
C  -6.38100 21.84800 40.78300
H  -5.35700 21.14800 39.87800
N  -13.01300 18.36400 41.83300
C  -13.20000 19.72600 41.76400
C  -14.55600 20.06100 41.50100
C  -15.28200 18.80400 41.56900
C  -14.25000 17.75000 41.73600
C  -15.15000 21.48000 41.23300
C  -16.78300 18.73400 41.46900
O  -17.46400 19.76000 41.59100
C  -17.46200 17.45900 41.36200
N  -12.27100 15.52200 41.78600
C  -13.59100 15.33700 42.02100
C  -14.03700 13.93300 42.13800
C  -12.72900 13.15900 42.05300
C  -11.67500 14.28700 41.95500
C  -14.86200 13.64400 43.35400
C  -12.70000 12.23000 40.68600
C  -12.62200 10.68900 40.94100
N  -9.43600 16.28800 42.15700
C  -9.15400 14.92300 42.07000
C  -7.76200 14.73400 42.11800
C  -7.19100 16.06100 42.14500
C  -8.28200 16.93500 42.25600
C  -7.03700 13.47300 42.16500
C  -5.97500 16.77800 42.13800
O  -4.83200 16.28600 42.01800
C  -6.36400 18.30300 42.35400
C  -5.83600 18.82800 43.64400
O  -6.11800 18.41000 44.77800
O  -4.91900 19.76600 43.32500
C  -4.12000 20.36100 44.44000
H  -12.55800 21.63000 41.72400
H  -15.57700 16.11400 41.98000
H  -9.99100 12.90800 41.89600
H  -7.79400 21.24400 42.85700
H  -10.04600 22.28200 41.48700
H  -9.07600 23.28800 43.35200
H  -9.43000 21.84000 44.43200
H  -10.76600 22.73600 43.66400
H  -8.43100 21.80700 40.07100
H  -7.69100 20.29600 39.97500
H  -6.05200 21.84400 41.82200
H  -6.45200 22.91100 40.55200
H  -16.11500 21.51300 40.72800
H  -14.32700 21.93900 40.68500
H  -15.25600 21.93600 42.21700
H  -18.39100 17.64500 40.82400
H  -17.49300 17.00400 42.35200
H  -16.87500 16.79100 40.73100
H  -14.75600 13.76000 41.33700
H  -12.62100 12.57000 42.96400
H  -14.77500 14.50400 44.01800
H  -14.59900 12.77700 43.96000
H  -15.89000 13.50500 43.01900
H  -11.87500 12.53800 40.04400
H  -13.59200 12.30600 40.06500
H  -12.55100 10.58400 42.02300
H  -11.76800 10.31200 40.37800
H  -13.43800 10.11500 40.50300
H  -5.99000 13.60200 42.43900
H  -7.10200 12.96200 41.20400
H  -7.55300 12.84200 42.88800
H  -5.83800 18.72400 41.49700
H  -3.50700 21.12900 43.96900
H  -3.43600 19.65000 44.90500
H  -4.77400 20.78300 45.20300

