158

Mg 17.44600 -0.81700 28.09100
C  16.44600 1.29000 30.83900
C  19.09800 -2.76600 30.10700
C  18.91100 -2.15400 25.24500
C  15.64700 1.48300 25.96700
N  17.85000 -0.63500 30.20600
C  17.29700 0.24300 31.19200
C  17.79600 -0.13900 32.55700
C  18.79400 -1.38600 32.26600
C  18.53800 -1.63700 30.77300
C  20.32000 -1.10200 32.49000
C  16.56700 -0.62700 33.51900
C  16.65700 -0.15800 35.01100
H  17.92600 0.52300 35.58700
N  18.70500 -2.34000 27.75000
C  19.20800 -3.08900 28.71300
C  19.96100 -4.20600 28.19400
C  19.87500 -4.03700 26.76400
C  19.12900 -2.80500 26.50300
C  20.60800 -5.29200 29.00000
C  20.38200 -4.92900 25.63700
O  20.13700 -4.72300 24.48400
C  21.08700 -6.22600 25.82300
N  17.21300 -0.52800 25.93500
C  18.05800 -1.05300 25.02600
C  17.81400 -0.42800 23.60000
C  16.75200 0.59100 23.88300
C  16.45200 0.47600 25.40100
C  19.19300 0.10600 22.90500
C  15.45100 0.47500 23.03900
C  15.18100 1.47200 21.89100
N  16.21600 1.00700 28.27400
C  15.53000 1.78500 27.33700
C  14.86600 2.89400 27.97600
C  15.14800 2.68500 29.42100
C  16.01900 1.58100 29.50900
C  14.16900 4.03300 27.45700
C  14.94400 3.21800 30.74000
O  14.32600 4.19400 31.22800
C  15.75100 2.32000 31.71600
C  16.72800 3.14000 32.48800
O  17.72100 3.61500 32.03700
O  16.17000 3.41600 33.75100
C  16.73900 4.44900 34.61100
H  19.60500 -3.40500 30.83200
H  19.49000 -2.48900 24.38200
H  15.13200 2.09700 25.22600
H  18.36300 0.66300 33.02900
H  18.57900 -2.25400 32.89000
H  20.92900 -1.13000 31.58700
H  20.72500 -1.69700 33.31000
H  20.47800 -0.08900 32.85900
H  16.66000 -1.71100 33.57000
H  15.62100 -0.30800 33.08100
H  16.41000 -1.00500 35.65100
H  15.84700 0.56000 35.14600
H  20.20500 -6.22400 28.60300
H  20.33300 -5.31400 30.05500
H  21.66600 -5.30600 28.74000
H  21.47800 -6.61600 24.88300
H  20.41300 -6.95700 26.27000
H  21.90700 -6.13800 26.53600
H  17.48300 -1.26100 22.97900
H  17.22800 1.55500 23.70300
H  20.08400 -0.03800 23.51700
H  19.04900 1.17900 22.77800
H  19.30600 -0.37600 21.93400
H  14.61100 0.62500 23.71800
H  15.35400 -0.55500 22.69600
H  16.11400 2.03000 21.81900
H  14.36700 2.18200 22.04200
H  15.17200 0.99700 20.91000
H  14.74500 4.48900 26.65200
H  14.08800 4.90500 28.10600
H  13.18300 3.71900 27.11600
H  15.17900 1.75800 32.45500
H  16.12900 4.45400 35.51500
H  16.85900 5.39100 34.07600
H  17.74900 4.14000 34.87700
Mg 7.02500 53.92100 40.30900
C  6.63900 50.37100 39.94600
C  10.38800 53.41700 39.86700
C  7.17800 57.10900 39.53900
C  3.51800 54.06300 40.26400
N  8.32700 52.06300 39.76400
C  7.94500 50.77300 39.70200
C  9.17400 49.87900 39.63000
C  10.34400 50.85900 40.05600
C  9.67500 52.18500 39.95200
C  11.05400 50.57900 41.43800
C  9.41900 49.25300 38.17700
C  9.24700 50.34000 36.95100
H  7.98200 50.21500 36.06100
N  8.61900 55.12600 39.91100
C  9.92000 54.75500 39.84000
C  10.72100 55.89100 39.58600
C  9.83900 57.00400 39.36900
C  8.46700 56.49100 39.60500
C  12.16200 55.86600 39.64700
C  10.20200 58.45500 39.00800
O  11.40400 58.80200 39.04100
C  9.17000 59.49700 38.68500
N  5.57400 55.36000 39.81500
C  5.91700 56.66600 39.73900
C  4.68300 57.52400 39.54200
C  3.45700 56.53300 39.70500
C  4.20100 55.23700 39.93700
C  4.54600 58.77200 40.46800
C  2.39700 56.59200 38.45000
C  0.87500 56.59800 38.85500
N  5.43100 52.55600 40.25600
C  4.10800 52.78900 40.43000
C  3.32600 51.52400 40.61800
C  4.29100 50.54200 40.51900
C  5.57100 51.23700 40.18000
C  1.75500 51.37200 40.78300
C  4.60500 49.11700 40.53500
O  3.91400 48.16800 40.88400
C  6.14400 48.93800 40.16900
C  6.11200 48.16500 38.97600
O  5.77400 48.58200 37.87300
O  6.51200 46.83800 39.24000
C  6.16900 45.88300 38.18000
H  11.47300 53.29700 39.87400
H  7.17400 58.19200 39.39800
H  2.42700 54.09600 40.23000
H  9.11200 48.97900 40.24300
H  11.02800 50.83100 39.20800
H  10.75200 51.21800 42.26900
H  12.13500 50.71500 41.45900
H  10.73500 49.58600 41.75400
H  8.69900 48.50500 37.84400
H  10.44600 48.92400 38.02500
H  10.19900 50.28900 36.42300
H  9.29500 51.34600 37.36900
H  12.59100 56.72600 39.13300
H  12.56800 54.93700 39.24700
H  12.57300 55.81300 40.65500
H  9.72100 60.31900 38.22900
H  8.47700 59.81200 39.46600
H  8.56600 59.05700 37.89200
H  4.74200 57.89000 38.51700
H  2.97700 56.72300 40.66500
H  3.65600 58.77700 41.09700
H  4.44700 59.69300 39.89300
H  5.39200 58.92700 41.13700
H  2.65900 55.77500 37.77700
H  2.53400 57.41200 37.74500
H  0.32800 55.93700 38.18300
H  0.53800 57.63400 38.88600
H  0.74600 56.14800 39.83900
H  1.21300 51.67600 39.88700
H  1.27600 52.01300 41.52400
H  1.46200 50.34200 40.98700
H  6.70600 48.41200 40.94100
H  5.10800 45.84200 37.93700
H  6.36000 44.87000 38.53200
H  6.70500 46.13400 37.26400

