158

Mg 25.26500 1.31100 29.68400
C  27.26100 1.00700 32.54500
C  22.58000 1.62400 31.66200
C  23.47500 1.23200 26.80700
C  28.10600 0.11800 27.84100
N  24.96300 1.40400 31.88500
C  25.91500 1.27400 32.84600
C  25.25800 1.33000 34.30700
C  23.71900 1.28100 33.98600
C  23.72700 1.46600 32.43800
C  23.02500 -0.08100 34.38000
C  25.81600 2.51000 35.17000
C  26.62600 2.18300 36.42900
H  26.45800 3.18400 37.54800
N  23.28200 1.55300 29.30100
C  22.29900 1.71700 30.28200
C  21.01500 1.90600 29.59300
C  21.28500 1.68600 28.15600
C  22.74200 1.54000 28.06500
C  19.69000 1.99100 30.36300
C  20.32300 1.65500 26.93900
O  20.62700 1.40900 25.77500
C  18.89100 1.88400 27.29100
N  25.70900 0.61200 27.69000
C  24.80100 0.86400 26.69900
C  25.45700 0.91800 25.29400
C  26.90100 0.69200 25.60200
C  26.98900 0.49900 27.16300
C  24.97400 -0.19200 24.35600
C  27.85800 1.77300 25.09300
C  27.92100 3.01000 25.93900
N  27.28400 0.68000 30.10100
C  28.27000 0.13900 29.27000
C  29.48300 -0.03600 30.07600
C  29.13900 0.37100 31.36900
C  27.82300 0.71300 31.29300
C  30.75700 -0.61400 29.53700
C  29.66600 0.57900 32.70700
O  30.78200 0.37400 33.19100
C  28.41400 0.94600 33.54100
C  28.26000 -0.11100 34.60300
O  27.64400 -1.14100 34.46300
O  29.00500 0.14600 35.73100
C  28.72100 -0.70600 36.88000
H  21.65500 1.61300 32.24300
H  22.93000 1.29200 25.86300
H  29.01600 -0.14700 27.29800
H  25.38800 0.35800 34.78200
H  23.16000 2.13800 34.36200
H  23.67900 -0.47100 35.16000
H  22.94100 -0.77600 33.54400
H  22.07700 0.17400 34.85400
H  24.90800 2.97500 35.55500
H  26.38000 3.31200 34.69500
H  27.67900 2.19000 36.14800
H  26.34300 1.19300 36.78500
H  19.27200 2.96000 30.08900
H  19.69900 1.73600 31.42300
H  18.98400 1.24400 30.00100
H  18.53900 0.98500 27.79900
H  18.25600 2.02700 26.41700
H  18.87500 2.79900 27.88200
H  25.31900 1.93200 24.91800
H  27.29800 -0.24800 25.21800
H  24.09800 0.26800 23.89900
H  24.73900 -1.17900 24.75300
H  25.67100 -0.41200 23.54800
H  27.52400 2.14100 24.12300
H  28.85000 1.32200 25.07500
H  27.27100 3.00400 26.81400
H  27.51700 3.84000 25.36100
H  28.92900 3.30000 26.23700
H  31.37800 0.24500 29.28200
H  30.63100 -1.26900 28.67500
H  31.14400 -1.29800 30.29200
H  28.81700 1.84800 34.00200
H  28.91100 -1.76600 36.71100
H  27.72100 -0.68600 37.31400
H  29.31700 -0.36100 37.72500
Mg 29.65500 58.02700 40.63300
C  26.91200 56.34500 39.26300
C  31.71600 55.59200 39.21900
C  32.32600 60.16600 40.71800
C  27.51400 60.85200 41.54900
N  29.31200 56.22600 39.27700
C  28.13800 55.70400 38.82300
C  28.32300 54.34600 38.13300
C  29.83600 54.15700 38.25000
C  30.36200 55.37300 38.99900
C  30.38800 52.84900 38.87500
C  27.67700 54.01900 36.68400
C  27.50400 55.23000 35.65700
H  28.02300 55.15700 34.20400
N  31.74400 57.80000 40.32700
C  32.41600 56.68800 39.79000
C  33.77400 56.90100 39.87200
C  34.00500 58.28500 40.17100
C  32.64100 58.84400 40.38600
C  34.90500 55.91200 39.53700
C  35.39700 59.05000 40.09600
O  36.43700 58.44000 39.76200
C  35.52100 60.49300 40.23300
N  29.93000 60.17900 41.27500
C  31.14500 60.77800 41.14600
C  31.06600 62.29400 41.54400
C  29.52000 62.49400 41.77500
C  28.90100 61.05100 41.60400
C  32.05600 62.82600 42.67700
C  28.79600 63.63600 40.98300
C  28.18200 64.80600 41.72200
N  27.64300 58.47300 40.59500
C  26.93800 59.58000 41.10400
C  25.51300 59.32200 40.87900
C  25.46200 58.09000 40.21100
C  26.79100 57.63400 40.01200
C  24.35500 60.20400 41.22800
C  24.63300 57.07200 39.54400
O  23.41900 57.14200 39.36500
C  25.46300 55.94200 38.88100
C  25.10900 54.63400 39.46800
O  25.53500 54.20400 40.53700
O  24.15600 53.96100 38.73900
C  23.35500 52.82900 39.34100
H  32.29400 54.69600 38.98300
H  33.13900 60.87900 40.56400
H  26.86500 61.67300 41.86200
H  27.85400 53.56100 38.72600
H  30.16100 54.26300 37.21500
H  29.52100 52.21300 39.05500
H  30.94000 52.96900 39.80800
H  31.04300 52.44900 38.10200
H  26.67800 53.59500 36.78200
H  28.32400 53.24800 36.26600
H  27.91000 56.10200 36.16900
H  26.43100 55.42300 35.66400
H  35.49600 56.36500 38.74100
H  34.49400 55.01700 39.06900
H  35.45000 55.53100 40.40000
H  36.56700 60.76400 40.37100
H  34.95200 60.77600 41.11900
H  35.08400 61.00800 39.37700
H  31.34700 62.85300 40.65100
H  29.30300 62.75100 42.81200
H  32.53500 61.88800 42.95800
H  31.60200 63.11000 43.62700
H  32.82700 63.53600 42.37800
H  28.10200 63.20700 40.26000
H  29.56900 64.14200 40.40600
H  28.48200 65.83100 41.50400
H  28.45700 64.76100 42.77600
H  27.10300 64.86100 41.57400
H  24.26000 60.59100 42.24300
H  23.40300 59.68200 41.13200
H  24.38600 61.11900 40.63700
H  25.40600 56.02600 37.79500
H  23.73700 52.56600 40.32700
H  23.50900 51.93900 38.73000
H  22.30400 53.09100 39.46400

