158

Mg -1.93400 17.11600 26.80400
C  -2.38200 14.95500 29.57900
C  -2.17300 19.73100 28.96400
C  -1.90900 19.23500 24.13600
C  -2.01300 14.35500 24.63300
N  -2.11200 17.34200 29.03400
C  -2.26200 16.29200 29.93200
C  -2.42800 16.85600 31.28700
C  -2.65900 18.37800 31.07100
C  -2.32100 18.52900 29.59800
C  -3.96500 19.12500 31.58500
C  -1.18200 16.60000 32.22800
C  -1.49800 16.37700 33.72200
H  -0.42900 16.54600 34.76200
N  -1.84700 19.17900 26.60600
C  -1.92500 20.06700 27.66300
C  -1.90100 21.40300 27.10400
C  -1.83200 21.31100 25.65400
C  -1.88900 19.81800 25.40100
C  -1.74200 22.67600 27.91700
C  -1.66800 22.42000 24.58100
O  -1.51100 22.10800 23.37800
C  -1.59100 23.85300 25.08400
N  -2.08800 16.77700 24.65300
C  -1.91100 17.84700 23.77900
C  -1.77600 17.23800 22.35300
C  -1.48000 15.74700 22.55100
C  -1.88400 15.60400 24.02400
C  -2.92500 17.62300 21.39300
C  0.00600 15.34100 22.29000
C  1.03800 15.82000 23.35000
N  -2.23600 15.05200 26.97900
C  -2.17300 14.06000 26.02700
C  -2.29700 12.80500 26.71700
C  -2.35700 13.09600 28.07900
C  -2.32400 14.49200 28.21300
C  -2.30000 11.39400 26.12600
C  -2.52800 12.52100 29.35700
O  -2.60500 11.29000 29.67300
C  -2.40300 13.64700 30.42600
C  -1.19100 13.35900 31.19400
O  -0.03400 13.64500 30.93900
O  -1.57100 12.72500 32.35400
C  -0.54500 12.58000 33.43000
H  -2.28500 20.60000 29.61600
H  -1.97900 19.84100 23.23000
H  -1.82800 13.51700 23.95700
H  -3.26600 16.34800 31.76500
H  -1.97900 18.93800 31.71300
H  -4.24800 19.86500 30.83600
H  -3.72800 19.76500 32.43400
H  -4.73600 18.38400 31.80000
H  -0.49000 17.42500 32.05600
H  -0.60800 15.77700 31.80100
H  -1.81900 15.33700 33.78000
H  -2.31900 17.07000 33.90600
H  -1.78700 22.42100 28.97600
H  -2.52400 23.32700 27.52700
H  -0.74800 23.08700 27.74300
H  -1.46500 24.50800 24.22200
H  -0.65800 23.81600 25.64700
H  -2.50300 24.10300 25.62400
H  -0.86800 17.72100 21.99300
H  -2.19800 15.11900 22.02400
H  -3.82400 17.81800 21.97700
H  -3.13400 16.71700 20.82300
H  -2.66700 18.50400 20.80400
H  0.30500 15.81500 21.35500
H  -0.02200 14.25600 22.19600
H  0.60900 16.40500 24.16300
H  1.73500 16.45400 22.80200
H  1.59400 14.96500 23.73600
H  -1.98700 11.47600 25.08500
H  -3.27900 10.91400 26.13100
H  -1.63000 10.72600 26.66600
H  -3.30900 13.77900 31.01800
H  0.43300 12.99100 33.17900
H  -0.34400 11.54600 33.71100
H  -0.94500 13.03800 34.33500
Mg -4.59700 25.42500 25.52400
C  -3.24900 26.57500 28.48800
C  -6.70600 23.32500 27.45100
C  -5.73800 24.05000 22.66400
C  -2.35700 27.29200 23.76800
N  -4.96500 25.06600 27.78500
C  -4.33900 25.66700 28.77500
C  -4.83200 25.28000 30.18000
C  -5.58300 24.00200 29.81000
C  -5.83100 24.14300 28.22500
C  -4.85500 22.69200 30.23000
C  -5.58900 26.44700 30.90500
C  -5.04300 26.73600 32.28600
H  -5.16700 25.70800 33.37900
N  -6.07500 23.92500 25.10100
C  -6.91600 23.26400 26.04300
C  -7.83500 22.42400 25.30500
C  -7.58300 22.64000 23.89900
C  -6.43000 23.55900 23.80700
C  -8.77200 21.47100 25.99000
C  -8.36700 22.11200 22.68200
O  -7.99800 22.40300 21.54100
C  -9.63700 21.34200 23.00200
N  -4.28600 25.82900 23.59400
C  -4.71900 24.96500 22.56700
C  -3.97400 25.16800 21.22100
C  -3.11800 26.36800 21.51300
C  -3.26600 26.52100 23.03200
C  -3.34400 23.86600 20.77300
C  -3.42100 27.69600 20.68600
C  -2.46000 28.06300 19.58600
N  -2.96800 26.70100 26.01700
C  -2.13100 27.42100 25.15800
C  -1.25000 28.27800 25.97200
C  -1.66100 27.92000 27.30200
C  -2.68900 26.94900 27.25400
C  -0.19000 29.23500 25.58100
C  -1.37400 28.22700 28.65800
O  -0.53100 28.98000 29.09800
C  -2.44100 27.34000 29.50000
C  -1.66700 26.34600 30.33400
O  -1.45900 25.19300 30.13600
O  -1.23500 26.99600 31.47700
C  -0.70800 26.17300 32.63700
H  -7.37500 22.69300 28.03800
H  -5.84800 23.54500 21.70200
H  -1.64700 27.72100 23.05800
H  -3.93100 25.00400 30.72800
H  -6.62100 24.06800 30.13600
H  -3.97200 22.79100 30.86100
H  -4.53300 22.26400 29.28100
H  -5.59400 22.13800 30.81000
H  -6.64500 26.20300 31.01500
H  -5.50900 27.40000 30.38200
H  -5.53800 27.63900 32.64300
H  -4.00600 27.04600 32.15800
H  -9.76300 21.92300 25.94200
H  -8.50600 21.44400 27.04700
H  -8.60900 20.49400 25.53500
H  -10.02000 21.11400 22.00700
H  -10.39300 22.02300 23.39100
H  -9.47300 20.48000 23.64900
H  -4.75900 25.38500 20.49700
H  -2.07800 26.05900 21.41200
H  -3.52300 23.03500 21.45500
H  -2.27000 23.95100 20.60800
H  -3.76400 23.57700 19.80900
H  -3.38500 28.61600 21.27000
H  -4.45400 27.65200 20.34100
H  -2.66300 27.61300 18.61400
H  -1.52400 27.63100 19.93900
H  -2.34500 29.13100 19.40000
H  0.37800 28.84200 24.73800
H  0.39100 29.40300 26.48800
H  -0.63900 30.17000 25.24400
H  -3.04700 28.05200 30.06100
H  -0.92400 25.10900 32.54500
H  -1.08300 26.43200 33.62700
H  0.36000 26.37900 32.56200

