158

Mg 23.25300 -5.32400 45.50000
C  25.34300 -2.99800 44.01400
C  20.71000 -4.28300 43.69300
C  21.65700 -8.25700 46.14300
C  26.31100 -6.79600 47.06200
N  23.15300 -3.97000 43.97400
C  24.06100 -3.04900 43.60700
C  23.47900 -2.06200 42.62900
C  21.96500 -2.12300 42.96500
C  21.90600 -3.59800 43.53600
C  21.47200 -1.02600 43.97900
C  23.80100 -2.32000 41.09600
C  24.80300 -1.26900 40.48800
H  25.88700 -1.79100 39.49200
N  21.41200 -6.07500 45.05700
C  20.45000 -5.45700 44.32000
C  19.28700 -6.32900 44.16600
C  19.51900 -7.50300 44.95000
C  20.92600 -7.32500 45.42200
C  17.99300 -5.79500 43.36700
C  18.51900 -8.67600 45.27900
O  17.36200 -8.57600 44.78100
C  18.79100 -9.89600 46.12300
N  23.91800 -7.19100 46.52200
C  22.96200 -8.16600 46.69900
C  23.57800 -9.35600 47.53200
C  24.97800 -8.71700 48.00900
C  25.09000 -7.55200 47.21100
C  22.62000 -9.87300 48.62500
C  26.17400 -9.72700 47.87500
C  27.21200 -9.66300 48.96200
N  25.43800 -4.95800 45.63400
C  26.48900 -5.58900 46.23800
C  27.71500 -4.78300 46.10900
C  27.31000 -3.77800 45.18200
C  25.94900 -3.93500 44.97400
C  29.09400 -5.08200 46.69300
C  27.77400 -2.64600 44.33300
O  28.93100 -2.26900 44.11900
C  26.53400 -2.22800 43.56800
C  26.37200 -0.79600 43.92300
O  26.67000 0.13900 43.15200
O  25.77300 -0.66400 45.19200
C  25.70900 0.73700 45.58900
H  19.86300 -3.70100 43.32300
H  21.10700 -9.12000 46.52500
H  27.24800 -7.19800 47.45500
H  23.92200 -1.12500 42.96800
H  21.47200 -1.99700 42.00100
H  22.15900 -0.23800 44.28700
H  21.39100 -1.63500 44.87900
H  20.53700 -0.57000 43.65400
H  22.93100 -2.25400 40.44300
H  24.30200 -3.27300 40.92800
H  25.25200 -0.75700 41.34000
H  24.32000 -0.46600 39.93200
H  17.99200 -5.93900 42.28700
H  17.89300 -4.71900 43.51500
H  17.10200 -6.22400 43.82500
H  19.70600 -10.39400 45.80100
H  17.96500 -10.55100 45.84800
H  18.83100 -9.75200 47.20300
H  23.85600 -10.12100 46.80700
H  24.99200 -8.28000 49.00700
H  21.64500 -9.38600 48.66400
H  23.17700 -9.85000 49.56200
H  22.36400 -10.90400 48.38100
H  26.76800 -9.42600 47.01200
H  25.82700 -10.75900 47.81600
H  26.87500 -9.10600 49.83500
H  28.21700 -9.39200 48.64100
H  27.34400 -10.69400 49.29100
H  29.19700 -6.14300 46.91900
H  29.35200 -4.51300 47.58600
H  29.79100 -4.87100 45.88200
H  26.85600 -2.36100 42.53600
H  24.94600 0.89700 46.35100
H  25.41400 1.37600 44.75700
H  26.72200 0.87800 45.96500
Mg -11.66400 38.91700 41.92800
C  -9.65700 36.08200 40.69100
C  -9.34800 40.92400 40.25900
C  -13.83200 41.41100 42.24600
C  -13.88800 36.53000 43.17100
N  -9.79800 38.50500 40.55100
C  -9.16600 37.33100 40.18900
C  -7.96900 37.56800 39.30200
C  -7.84100 39.19500 39.24000
C  -9.01700 39.55800 40.10700
C  -6.43900 39.60800 39.69700
C  -8.09300 36.85600 37.91400
C  -6.83700 35.88300 37.65100
H  -5.76900 36.43100 36.60300
N  -11.55400 40.96800 41.39300
C  -10.50100 41.61200 40.78400
C  -10.77400 42.99400 40.80500
C  -12.14300 43.17500 41.26200
C  -12.58800 41.83600 41.69200
C  -9.86700 44.00900 40.34300
C  -12.95600 44.50900 41.20800
O  -12.41100 45.55100 40.74400
C  -14.36900 44.62400 41.76600
N  -13.68500 38.97500 42.36700
C  -14.29400 40.14200 42.65400
C  -15.56700 39.92100 43.50400
C  -15.47500 38.38100 43.79500
C  -14.28800 37.89900 43.05900
C  -15.61300 40.74300 44.79400
C  -16.79200 37.56800 43.52600
C  -17.99300 37.91800 44.43400
N  -11.72700 36.83700 41.99100
C  -12.62700 35.99800 42.66300
C  -12.21700 34.66600 42.55100
C  -11.02800 34.69700 41.80000
C  -10.80900 36.01300 41.43300
C  -12.90700 33.49800 43.32600
C  -10.02600 33.82700 41.18600
O  -9.92800 32.55500 41.19000
C  -8.92000 34.78200 40.68000
C  -7.92000 34.76700 41.75400
O  -8.01600 35.29500 42.85700
O  -6.89800 33.85700 41.51500
C  -5.96500 33.37300 42.54600
H  -8.69500 41.61000 39.71600
H  -14.49700 42.24500 42.47900
H  -14.47700 35.82300 43.75800
H  -7.13600 37.21100 39.90700
H  -7.97000 39.63700 38.25200
H  -6.38800 39.53900 40.78400
H  -6.18400 40.55800 39.22800
H  -5.71300 38.93900 39.23500
H  -7.99100 37.55300 37.08300
H  -9.01600 36.27900 37.95900
H  -7.22500 34.98400 37.17200
H  -6.24000 35.71900 38.54900
H  -9.76000 44.86100 41.01500
H  -10.32300 44.30800 39.40000
H  -8.88600 43.59000 40.12200
H  -15.04400 43.97900 41.20300
H  -14.66300 45.66700 41.65300
H  -14.48400 44.25000 42.78300
H  -16.36200 40.17400 42.80200
H  -15.08300 38.16000 44.78800
H  -16.41600 41.47700 44.73900
H  -14.70000 41.32300 44.93100
H  -15.55900 40.09700 45.66900
H  -16.66800 36.49800 43.69400
H  -17.12200 37.67700 42.49300
H  -18.91000 37.99700 43.85100
H  -17.89600 38.83600 45.01300
H  -18.02500 37.02700 45.06100
H  -13.75900 33.71200 43.97100
H  -12.12000 33.13800 43.98800
H  -13.20700 32.85700 42.49700
H  -8.51100 34.39300 39.74700
H  -5.71300 32.32400 42.39100
H  -6.38300 33.34800 43.55200
H  -5.07900 34.00800 42.55900

