158

Mg -2.61900 17.27200 27.03300
C  -3.13900 15.26000 29.91700
C  -3.02200 20.13000 29.05000
C  -2.60400 19.22300 24.40600
C  -2.45500 14.39100 25.17700
N  -3.03300 17.62600 29.24200
C  -3.13600 16.65700 30.20300
C  -3.46600 17.32100 31.59300
C  -3.30900 18.87000 31.30000
C  -3.10900 18.87500 29.76900
C  -4.47300 19.71300 31.79500
C  -2.64100 16.74300 32.76900
C  -2.31300 17.66300 33.94300
H  -2.06700 17.03600 35.30800
N  -2.72000 19.42900 26.75300
C  -2.86400 20.38300 27.71300
C  -2.99200 21.64300 27.05300
C  -2.88700 21.45700 25.62500
C  -2.72900 19.97100 25.56700
C  -3.16400 22.97100 27.78600
C  -2.82800 22.46800 24.48600
O  -2.79300 22.14500 23.33700
C  -2.92600 23.89500 24.86100
N  -2.45400 16.82900 25.14600
C  -2.48300 17.82500 24.16300
C  -2.51200 17.25400 22.74800
C  -2.13900 15.70000 23.02900
C  -2.29300 15.63000 24.55500
C  -3.70700 17.45900 21.80400
C  -0.75700 15.21600 22.50700
C  0.48200 15.86800 23.17300
N  -2.71000 15.22100 27.42100
C  -2.64000 14.18600 26.57100
C  -2.76700 12.91100 27.23500
C  -3.01800 13.26800 28.58800
C  -2.92700 14.75300 28.65300
C  -2.65200 11.47600 26.70000
C  -3.25700 12.74600 29.91800
O  -3.33300 11.56600 30.31600
C  -3.39400 14.02900 30.82800
C  -2.14500 13.85900 31.66700
O  -0.97900 14.17300 31.38400
O  -2.42800 13.26200 32.94800
C  -1.37400 13.22900 33.88500
H  -3.08700 20.97400 29.74000
H  -2.67900 19.77900 23.46900
H  -2.49500 13.52000 24.52000
H  -4.49800 17.02300 31.78100
H  -2.40500 19.32700 31.70200
H  -5.06000 19.04100 32.42000
H  -4.99300 20.07300 30.90700
H  -4.29800 20.60400 32.39800
H  -1.69500 16.38600 32.36300
H  -3.13900 15.87700 33.20500
H  -3.19300 18.30200 34.01300
H  -1.33700 18.07800 33.69100
H  -2.28600 23.60000 27.64000
H  -3.42400 23.01500 28.84400
H  -4.01100 23.49500 27.34500
H  -3.88400 24.14200 25.31900
H  -2.96000 24.29300 23.84700
H  -2.17100 24.45100 25.41600
H  -1.57500 17.53200 22.26500
H  -2.97700 15.21800 22.52500
H  -4.40700 16.62400 21.82800
H  -3.30900 17.83100 20.86000
H  -4.31400 18.24500 22.25300
H  -0.73800 15.46300 21.44600
H  -0.80900 14.12900 22.57500
H  0.75900 16.78200 22.64700
H  1.33300 15.22400 22.94900
H  0.49900 15.95100 24.26000
H  -2.08600 11.46000 25.76900
H  -3.65800 11.15500 26.43200
H  -2.14100 10.87200 27.45000
H  -4.28900 14.08400 31.44700
H  -1.62600 13.56500 34.89100
H  -0.46400 13.72500 33.54500
H  -1.00800 12.20300 33.86600
Mg 27.03900 49.32700 26.11900
C  25.01900 50.52300 28.78700
C  29.28800 48.16800 28.41600
C  28.93700 48.44400 23.53600
C  24.78300 50.82600 23.87900
N  27.11000 49.33600 28.41500
C  26.14200 49.77100 29.24400
C  26.52600 49.52500 30.71800
C  27.97300 48.84500 30.57800
C  28.16000 48.74300 29.04300
C  29.14400 49.57300 31.27900
C  25.31400 48.75600 31.49200
C  25.00100 49.03400 33.00200
H  25.96800 49.73000 33.99000
N  28.86300 48.44200 26.01300
C  29.66200 47.99600 27.02300
C  30.88200 47.48300 26.47100
C  30.84700 47.65100 25.07100
C  29.49100 48.19500 24.80200
C  31.98500 46.89700 27.44500
C  31.92400 47.26900 24.07800
O  31.74100 47.41200 22.84800
C  33.31300 46.70800 24.55800
N  27.04200 49.81200 24.00700
C  27.82900 49.18700 23.14200
C  27.41400 49.33100 21.66400
C  26.17400 50.21700 21.75500
C  25.96200 50.24200 23.29700
C  28.52000 49.98500 20.74400
C  25.02200 49.65400 20.86000
C  23.95800 48.81800 21.59600
N  25.26600 50.34800 26.16000
C  24.49100 51.03700 25.21900
C  23.35500 51.74300 25.86700
C  23.64700 51.60200 27.22000
C  24.77000 50.72400 27.36200
C  22.35000 52.44000 25.15200
C  23.14000 52.05500 28.56100
O  22.23500 52.79400 28.83900
C  23.93500 51.19600 29.60100
C  24.26100 52.08900 30.70300
O  25.22800 52.84800 30.64300
O  23.25200 52.15000 31.66700
C  23.43400 53.03500 32.80200
H  29.94900 47.79500 29.20100
H  29.42400 47.93500 22.70100
H  23.97500 51.21200 23.25400
H  26.74200 50.52500 31.09300
H  27.88400 47.83800 30.98600
H  29.91500 49.92400 30.59400
H  29.64700 48.96400 32.03100
H  28.70100 50.40800 31.82200
H  25.38800 47.69200 31.27100
H  24.42400 49.02500 30.92300
H  24.68700 48.10900 33.48600
H  24.13500 49.68800 32.90600
H  31.58500 46.65500 28.43000
H  32.73500 47.68700 27.48700
H  32.32700 45.97400 26.97900
H  33.23800 45.65100 24.81400
H  33.60600 47.30600 25.42100
H  34.02000 46.70300 23.72800
H  27.22600 48.32600 21.28700
H  26.43300 51.22800 21.44200
H  29.34700 50.48200 21.25000
H  28.08700 50.67400 20.01900
H  28.76200 49.13600 20.10500
H  25.37700 49.07600 20.00700
H  24.55400 50.54400 20.44100
H  23.03100 49.37900 21.71900
H  24.17700 48.52400 22.62200
H  23.77500 47.86300 21.10300
H  22.50700 53.47300 25.46300
H  21.34200 52.10900 25.40300
H  22.47300 52.27600 24.08100
H  23.27500 50.43200 30.01000
H  24.40100 53.03500 33.30600
H  22.63900 52.82500 33.51700
H  23.16800 54.07100 32.59300

