158

Mg 6.57900 54.23400 41.41200
C  5.86500 50.73000 40.89400
C  9.70100 53.74100 40.23000
C  6.92700 57.62100 41.15700
C  3.07900 54.65200 41.97400
N  7.57200 52.46400 40.30000
C  7.14400 51.11300 40.40200
C  8.31100 50.23900 39.84500
C  9.57300 51.16200 39.88500
C  8.95300 52.53700 40.22100
C  10.73300 50.70400 40.75800
C  7.97200 49.51000 38.52500
C  6.96400 50.17300 37.51000
H  7.60200 50.64600 36.17600
N  8.11600 55.52200 40.84300
C  9.33300 55.06100 40.49200
C  10.27700 56.17200 40.32000
C  9.51600 57.31100 40.62200
C  8.11000 56.83500 40.87600
C  11.61500 56.01000 39.78400
C  9.97600 58.73400 40.49200
O  11.10000 58.99800 40.02700
C  9.16700 59.97500 40.88100
N  5.23300 55.91500 41.71900
C  5.58100 57.16100 41.41300
C  4.44300 58.22500 41.63700
C  3.25100 57.19200 41.72200
C  3.85700 55.82900 41.77100
C  4.56000 59.14300 43.05300
C  2.09600 57.38100 40.60400
C  2.23100 56.34200 39.47000
N  4.87100 53.03200 41.72300
C  3.56300 53.36900 42.00300
C  2.80400 52.16900 42.13500
C  3.65200 51.15600 41.77000
C  4.89500 51.69200 41.44400
C  1.41000 52.04000 42.66900
C  3.68600 49.71800 41.63600
O  2.80800 48.88300 41.86800
C  5.15100 49.37300 41.01800
C  4.94800 48.51400 39.81400
O  4.25400 48.76300 38.85100
O  5.69900 47.36000 39.99200
C  5.44700 46.33100 38.95700
H  10.77500 53.54500 40.20900
H  7.00000 58.70800 41.07800
H  1.99300 54.74100 42.04300
H  8.43500 49.47200 40.60900
H  9.82500 51.36000 38.84300
H  10.90100 51.55600 41.41600
H  11.56000 50.51500 40.07300
H  10.49200 49.82200 41.35200
H  7.87100 48.43900 38.70100
H  8.90800 49.58100 37.97100
H  6.43600 50.98300 38.01300
H  6.14800 49.49900 37.24900
H  12.18000 55.39500 40.48500
H  12.18500 56.92800 39.64000
H  11.48800 55.44400 38.86100
H  8.41300 60.16800 40.11800
H  9.85300 60.81200 41.00500
H  8.76200 59.75400 41.86800
H  4.46100 58.89600 40.77800
H  2.61900 57.22900 42.60900
H  4.41200 60.16000 42.69100
H  5.56400 58.99400 43.45100
H  3.90900 58.84000 43.87300
H  2.13900 58.39700 40.21000
H  1.17300 57.29800 41.17800
H  3.29000 56.13100 39.32500
H  2.11300 56.73500 38.46000
H  1.66600 55.43600 39.69000
H  1.05600 51.01700 42.79800
H  0.61600 52.55000 42.12300
H  1.39900 52.47700 43.66800
H  5.67200 48.72600 41.72300
H  5.47500 45.38800 39.50200
H  6.19200 46.42700 38.16700
H  4.48100 46.37500 38.45400
Mg -1.21600 35.36800 26.80000
C  -2.98300 33.79200 29.39000
C  -0.09600 37.68800 29.12400
C  0.45500 36.86100 24.45800
C  -2.49500 32.96100 24.58500
N  -1.55900 35.68200 28.95900
C  -2.19000 34.88200 29.83400
C  -2.00900 35.26200 31.29700
C  -1.36200 36.68400 31.15800
C  -0.95100 36.67300 29.62700
C  -2.24100 37.83500 31.59500
C  -1.10100 34.19500 31.99200
C  -0.67100 34.58800 33.41300
H  -0.57800 33.64100 34.63300
N  -0.03800 37.13000 26.78900
C  0.26000 37.94100 27.81600
C  1.10700 38.99200 27.30100
C  1.07900 38.91700 25.88900
C  0.47200 37.62700 25.64600
C  1.71600 39.93300 28.23600
C  1.78600 39.85900 24.90300
O  1.98800 39.44800 23.78700
C  2.39300 41.10100 25.35900
N  -1.16600 35.01000 24.81700
C  -0.15700 35.67900 24.07700
C  -0.18600 35.23600 22.62300
C  -1.01300 33.91800 22.73300
C  -1.64800 33.94400 24.11500
C  -0.81700 36.20400 21.65000
C  -0.07000 32.61900 22.54700
C  0.91200 32.23900 23.68300
N  -2.60200 33.66100 26.87200
C  -3.00600 32.84500 25.88200
C  -4.04500 31.98400 26.44000
C  -3.96500 32.26800 27.84400
C  -3.14300 33.33400 28.04800
C  -4.99800 31.05400 25.75400
C  -4.45300 31.85200 29.13600
O  -5.19500 30.92000 29.43500
C  -3.87200 32.85100 30.21300
C  -5.01600 33.61800 30.78400
O  -5.76100 34.40700 30.19500
O  -5.25000 33.17800 32.10600
C  -6.46300 33.66000 32.77700
H  0.30300 38.20600 29.99900
H  1.11300 37.15100 23.63500
H  -2.84100 32.23200 23.84900
H  -2.98500 35.32300 31.77800
H  -0.42200 36.86500 31.67800
H  -1.87200 38.28700 32.51600
H  -3.26000 37.51500 31.81400
H  -2.43800 38.53900 30.78700
H  -0.32000 33.88700 31.29700
H  -1.74300 33.33100 32.16600
H  -1.22100 35.43100 33.83200
H  0.29600 35.05600 33.22300
H  1.54400 39.78500 29.30300
H  1.69800 40.97200 27.90700
H  2.75400 39.76400 27.94900
H  3.12900 41.50300 24.66200
H  3.07800 40.99500 26.20100
H  1.63600 41.87300 25.49600
H  0.86700 35.07000 22.39300
H  -1.75300 33.86300 21.93400
H  -1.81100 35.93300 21.29500
H  -0.10300 36.44600 20.86300
H  -0.96600 37.12700 22.21100
H  0.60100 32.84500 21.71800
H  -0.80600 31.83800 22.36000
H  0.80600 31.15500 23.73400
H  0.66400 32.67100 24.65300
H  1.93000 32.44100 23.35200
H  -4.71400 30.07800 26.14800
H  -4.85100 30.96900 24.67700
H  -5.98200 31.43200 26.03100
H  -3.34300 32.30500 30.99500
H  -6.83700 32.76800 33.28000
H  -7.31600 33.87500 32.13300
H  -6.31900 34.33800 33.61800

