158

Mg -2.33400 33.97700 27.27300
C  -3.96200 32.05900 29.57000
C  -0.78300 35.68800 29.72200
C  -0.63700 35.72300 24.84900
C  -4.14300 32.42300 24.66800
N  -2.49700 33.97900 29.28000
C  -3.11100 33.03600 30.05400
C  -3.11800 33.26900 31.56600
C  -2.18500 34.55300 31.59900
C  -1.81900 34.81700 30.13000
C  -2.91500 35.75300 32.16200
C  -2.30900 31.98800 32.24000
C  -2.72600 31.46200 33.60500
H  -1.76600 31.89000 34.72100
N  -0.94400 35.54800 27.32700
C  -0.43200 36.13000 28.45800
C  0.64800 37.05800 28.09800
C  0.70200 37.08600 26.67100
C  -0.29800 36.09200 26.19100
C  1.55200 37.74000 29.12100
C  1.54800 37.94000 25.81500
O  1.43000 37.84600 24.61000
C  2.59400 38.92000 26.32100
N  -2.48500 34.12500 25.03200
C  -1.61300 34.92700 24.32200
C  -1.74100 34.71400 22.77800
C  -2.90100 33.62700 22.73700
C  -3.30100 33.44500 24.21300
C  -1.97600 36.01600 21.97700
C  -2.48400 32.27600 22.11000
C  -3.04000 31.92200 20.64000
N  -3.79500 32.58600 27.11100
C  -4.35700 31.98300 26.03400
C  -5.13300 30.84800 26.50100
C  -5.03800 30.77500 27.85500
C  -4.16100 31.86500 28.16600
C  -5.90400 29.79300 25.73800
C  -5.38400 30.06700 29.06400
O  -6.02100 29.04800 29.24200
C  -4.75100 30.91700 30.25700
C  -5.87600 31.44200 31.05500
O  -6.63000 32.35200 30.76000
O  -5.92900 30.64800 32.19200
C  -6.93000 30.98700 33.20900
H  -0.47300 36.32500 30.55300
H  0.04800 36.05200 24.06500
H  -4.69800 31.83800 23.93200
H  -4.13300 33.34100 31.95600
H  -1.26000 34.46900 32.16900
H  -3.99200 35.59600 32.22400
H  -2.82400 36.56700 31.44300
H  -2.48700 36.01300 33.13100
H  -1.26200 32.27600 32.33200
H  -2.40500 31.11800 31.59000
H  -2.70500 30.37300 33.64700
H  -3.74000 31.82700 33.76300
H  1.12500 37.53600 30.10300
H  1.42600 38.81400 28.98600
H  2.62300 37.57500 29.00300
H  3.02800 39.42600 25.45900
H  3.39000 38.32500 26.76900
H  2.24700 39.75400 26.93200
H  -0.84800 34.21700 22.40000
H  -3.75200 34.07100 22.22000
H  -1.79100 36.94000 22.52600
H  -3.00000 35.88700 21.62500
H  -1.19800 35.91300 21.22100
H  -2.93700 31.46000 22.67400
H  -1.40800 32.12300 22.19300
H  -3.56000 32.84500 20.38500
H  -3.58800 30.98100 20.68900
H  -2.20600 31.77100 19.95400
H  -5.35800 29.62700 24.80900
H  -6.86100 30.24000 25.46900
H  -6.00400 28.86900 26.30800
H  -4.16300 30.22800 30.86300
H  -6.60800 31.54000 34.09100
H  -7.22800 30.05700 33.69100
H  -7.79700 31.43900 32.72700
Mg -12.33100 15.52200 41.89500
C  -9.25700 13.91800 41.80000
C  -10.74000 18.26800 40.60700
C  -15.27500 16.90300 41.47900
C  -13.90700 12.38900 42.74400
N  -10.25900 15.94100 41.06100
C  -9.18200 15.12600 41.19600
C  -7.89600 15.76500 40.63500
C  -8.32900 17.24700 40.64500
C  -9.86400 17.24400 40.79300
C  -7.78200 18.09700 41.93700
C  -7.60900 15.15300 39.20400
C  -6.07600 14.88400 38.87000
H  -5.62500 15.76300 37.69600
N  -12.90700 17.39700 41.18900
C  -12.12900 18.42700 40.75000
C  -12.99500 19.55800 40.42700
C  -14.31800 19.21300 40.77400
C  -14.21500 17.76900 41.12700
C  -12.47500 20.87200 39.88700
C  -15.58700 20.02500 40.74300
O  -15.48800 21.14700 40.28900
C  -16.92200 19.59300 41.04500
N  -14.31100 14.65900 41.78800
C  -15.32500 15.51700 41.85500
C  -16.72900 14.87600 42.05700
C  -16.25600 13.36000 42.25800
C  -14.76600 13.46400 42.28900
C  -17.52900 15.36700 43.28300
C  -16.76200 12.39700 41.04100
C  -17.99600 11.53400 41.26900
N  -11.72300 13.58400 42.30800
C  -12.45600 12.48500 42.77100
C  -11.51400 11.46400 43.16900
C  -10.26700 11.93800 42.82600
C  -10.41400 13.18800 42.24300
C  -11.81100 10.12700 43.84500
C  -8.87500 11.64700 42.87700
O  -8.21600 10.69700 43.29200
C  -8.12100 12.96200 42.18000
C  -7.13700 13.63800 43.15900
O  -7.46600 14.38800 44.04500
O  -5.85600 13.49000 42.74900
C  -4.86100 14.31100 43.44400
H  -10.20900 19.21700 40.50400
H  -16.30800 17.25600 41.50300
H  -14.37600 11.42700 42.96100
H  -7.09700 15.56500 41.34900
H  -8.00800 17.76800 39.74300
H  -7.27500 17.42600 42.63100
H  -8.58000 18.70900 42.35700
H  -6.98500 18.70600 41.50900
H  -8.04800 15.80500 38.45000
H  -7.92700 14.11100 39.17700
H  -5.98900 13.84100 38.56500
H  -5.40600 15.06000 39.71100
H  -13.00400 21.28800 39.02900
H  -11.38900 20.89900 39.80700
H  -12.67800 21.56000 40.70800
H  -17.68300 20.37300 41.02100
H  -16.79800 19.30600 42.08900
H  -17.19500 18.73800 40.42700
H  -17.42400 14.88700 41.21800
H  -16.67200 12.95200 43.17900
H  -18.60300 15.44300 43.10900
H  -17.13200 16.32700 43.61200
H  -17.46300 14.72700 44.16300
H  -15.93600 11.84400 40.59500
H  -16.97500 13.11000 40.24400
H  -18.25800 11.40500 42.31900
H  -17.84800 10.49800 40.96400
H  -18.86400 11.96700 40.77300
H  -11.93400 10.22200 44.92400
H  -11.00500 9.45100 43.55900
H  -12.75000 9.65800 43.55200
H  -7.50000 12.66900 41.33300
H  -4.26300 14.79800 42.67400
H  -4.24500 13.62000 44.01900
H  -5.17600 15.10300 44.12300

