158

Mg 16.34900 -1.19400 27.99500
C  15.69300 0.92700 30.62600
C  18.77300 -2.80900 30.06700
C  17.67800 -2.86600 25.33600
C  14.87300 1.09500 25.90100
N  16.95600 -1.11300 30.17300
C  16.48100 -0.19100 31.07900
C  17.16000 -0.33900 32.49500
C  18.28100 -1.44100 32.20700
C  18.02100 -1.77900 30.72900
C  19.77100 -1.00500 32.63300
C  16.09500 -0.67600 33.52700
C  16.23100 -0.03300 34.90100
H  17.59700 0.50400 35.32000
N  17.91400 -2.72500 27.74400
C  18.72500 -3.24100 28.77200
C  19.30000 -4.49100 28.25800
C  18.97400 -4.65000 26.84900
C  18.18600 -3.39800 26.58600
C  20.02900 -5.47600 29.15800
C  19.33100 -5.76100 25.88900
O  19.16300 -5.65200 24.66800
C  19.89000 -7.02600 26.35200
N  16.14500 -1.01600 25.91000
C  16.80200 -1.74500 24.96100
C  16.45900 -1.18800 23.49000
C  15.24700 -0.20700 23.78600
C  15.41900 -0.06000 25.28300
C  17.68300 -0.52900 22.78800
C  13.86000 -0.85200 23.62200
C  12.83600 0.10400 23.00100
N  15.23700 0.53700 28.15600
C  14.72700 1.36700 27.24300
C  14.16100 2.49100 27.88700
C  14.55100 2.46200 29.20800
C  15.22600 1.20800 29.30400
C  13.51900 3.70400 27.25100
C  14.50300 3.17500 30.45000
O  13.83700 4.14600 30.76200
C  15.26300 2.21900 31.43700
C  16.42900 2.94000 31.99500
O  17.57800 2.98800 31.59900
O  15.98600 3.62300 33.07900
C  16.86400 4.56700 33.77700
H  19.55600 -3.21300 30.71200
H  18.07100 -3.34300 24.43600
H  14.30900 1.75900 25.24300
H  17.59700 0.61200 32.79900
H  18.24500 -2.34400 32.81600
H  19.75300 -0.13000 33.28200
H  20.35100 -0.75700 31.74400
H  20.27400 -1.83200 33.13500
H  16.01700 -1.74600 33.72300
H  15.18900 -0.32900 33.03000
H  15.98600 -0.75300 35.68100
H  15.54700 0.81500 34.91100
H  20.84600 -5.96800 28.63000
H  19.34700 -6.22500 29.55900
H  20.63100 -5.01300 29.94000
H  19.36100 -7.32300 27.25800
H  20.96900 -6.87700 26.35100
H  19.80300 -7.85900 25.65400
H  16.20200 -2.14900 23.04500
H  15.37500 0.75200 23.28500
H  17.73800 0.52600 23.05800
H  17.39900 -0.40900 21.74200
H  18.64500 -1.02300 22.92100
H  13.42200 -1.23200 24.54600
H  13.90500 -1.74100 22.99200
H  12.42800 -0.25800 22.05800
H  13.31200 1.07400 22.85700
H  11.98400 0.24400 23.66600
H  14.04500 4.57400 27.64300
H  12.49300 3.56800 27.59400
H  13.65600 3.50500 26.18800
H  14.53200 1.99800 32.21500
H  16.74800 5.54300 33.30700
H  17.90900 4.27400 33.67300
H  16.61600 4.55200 34.83800
Mg 47.86500 16.88500 28.96100
C  45.65900 16.72200 31.64600
C  50.08700 18.45100 31.03100
C  49.92100 16.97800 26.41900
C  45.35200 15.47500 26.87600
N  47.73700 17.83300 30.93500
C  46.80400 17.44900 31.94100
C  47.27000 17.87100 33.34100
C  48.44400 18.80600 32.94400
C  48.82000 18.36400 31.59000
C  48.11700 20.36700 33.05000
C  47.66600 16.58600 34.11400
C  48.31900 16.88200 35.46400
H  48.19700 18.24900 36.21800
N  49.73700 17.50000 28.76200
C  50.54300 18.11500 29.73700
C  51.90100 18.20700 29.25500
C  51.91600 17.71700 27.90100
C  50.48400 17.39400 27.62000
C  53.01000 18.76600 30.11100
C  53.07200 17.56300 26.96500
O  52.99200 17.15200 25.82300
C  54.41800 17.80800 27.55300
N  47.55600 16.43000 26.90500
C  48.59500 16.56500 26.06500
C  48.19400 16.18900 24.58700
C  46.73800 15.62300 24.71300
C  46.53900 15.87100 26.23500
C  48.25500 17.45000 23.81000
C  46.63500 14.10400 24.37300
C  45.65300 13.81500 23.23800
N  45.85600 16.31700 29.14800
C  44.99500 15.75800 28.24100
C  43.68700 15.42700 28.91600
C  43.93500 15.79500 30.24200
C  45.23500 16.28900 30.35800
C  42.43200 14.81600 28.29800
C  43.43800 15.71100 31.53600
O  42.36900 15.28200 31.91200
C  44.47000 16.29100 32.50200
C  43.73700 17.37300 33.14000
O  42.94200 18.07600 32.59900
O  43.99400 17.41200 34.49400
C  43.30200 18.36800 35.40700
H  50.90300 18.81300 31.66100
H  50.66100 16.83700 25.62800
H  44.64500 14.98100 26.20600
H  46.49800 18.36500 33.93000
H  49.37900 18.77100 33.50200
H  47.08600 20.55800 33.34700
H  48.31900 20.76000 32.05300
H  48.69900 20.95700 33.75800
H  48.41700 16.14600 33.45700
H  46.79900 15.92800 34.16300
H  49.36300 16.57900 35.38900
H  47.78500 16.16800 36.09100
H  53.33200 17.92800 30.73000
H  52.68700 19.61200 30.71700
H  53.93500 19.11300 29.65100
H  55.24100 17.43300 26.94500
H  54.50200 17.22300 28.46900
H  54.59700 18.87500 27.68400
H  48.89400 15.40800 24.28800
H  45.99100 16.22200 24.19100
H  48.97600 18.15200 24.22700
H  47.28200 17.93000 23.70300
H  48.45900 17.19300 22.77000
H  46.41300 13.45200 25.21800
H  47.62500 13.75200 24.08700
H  45.00800 12.97700 23.49900
H  46.08100 13.59800 22.25900
H  45.06700 14.71900 23.07400
H  42.38300 13.72800 28.34500
H  42.37900 15.11400 27.25100
H  41.51600 15.17400 28.76900
H  44.73100 15.57400 33.28000
H  43.58500 19.37400 35.09700
H  43.64900 18.42300 36.43900
H  42.22900 18.18900 35.47100

