158

Mg 17.28700 -2.43800 27.49800
C  16.00800 -0.44000 30.10400
C  18.99800 -4.18700 29.92800
C  18.53300 -4.40500 25.06100
C  15.42100 -0.70500 25.21700
N  17.60500 -2.16000 29.71600
C  16.82100 -1.38700 30.56500
C  17.29400 -1.54500 32.10000
C  18.25800 -2.82700 32.07300
C  18.32900 -3.10600 30.46500
C  19.56900 -2.58300 32.85700
C  16.10200 -1.68100 33.08900
C  16.13200 -0.97100 34.43100
H  17.48900 -0.43500 35.03600
N  18.56800 -4.11900 27.49500
C  19.21700 -4.67400 28.61900
C  19.92600 -5.90200 28.19500
C  19.75800 -6.02400 26.82500
C  18.92900 -4.77600 26.37100
C  20.65500 -6.90000 29.14000
C  20.24500 -7.10300 25.81400
O  19.81900 -7.05300 24.64200
C  21.15500 -8.18900 26.30200
N  17.01300 -2.54400 25.39600
C  17.73700 -3.34600 24.65000
C  17.50600 -3.05700 23.19100
C  16.35000 -2.01300 23.19900
C  16.18700 -1.77100 24.70100
C  18.86700 -2.61600 22.45400
C  14.99500 -2.40500 22.50200
C  13.67800 -2.69600 23.32900
N  15.89700 -0.91800 27.57900
C  15.23000 -0.27800 26.56600
C  14.37300 0.76700 27.11400
C  14.72400 0.78200 28.49100
C  15.64800 -0.23600 28.71300
C  13.22300 1.59000 26.46900
C  14.40400 1.42000 29.73400
O  13.57300 2.24700 30.05900
C  15.24700 0.66700 30.85200
C  16.05300 1.61800 31.58800
O  16.90800 2.36000 31.08200
O  15.52000 1.81000 32.80800
C  15.99000 3.07700 33.44200
H  19.46000 -4.81100 30.69600
H  18.74600 -5.11700 24.26100
H  14.79900 -0.21900 24.46200
H  17.86300 -0.62600 32.23700
H  17.84600 -3.70400 32.57300
H  19.88900 -1.54500 32.77700
H  20.36100 -3.22900 32.48000
H  19.31100 -2.94400 33.85300
H  16.16100 -2.71200 33.43800
H  15.21400 -1.51200 32.48000
H  15.72900 -1.59300 35.23100
H  15.39700 -0.17600 34.30700
H  20.32000 -7.92600 28.98200
H  20.37800 -6.62100 30.15700
H  21.72800 -6.92200 28.95000
H  21.95800 -7.83000 26.94500
H  21.61500 -8.79000 25.51700
H  20.64200 -8.86600 26.98600
H  17.02700 -3.92900 22.74700
H  16.73300 -1.10200 22.74000
H  19.67700 -2.93500 23.11000
H  18.96900 -1.53100 22.44500
H  18.97900 -3.27300 21.59200
H  15.21200 -3.28100 21.89000
H  14.75700 -1.63000 21.77400
H  13.06400 -1.80100 23.23200
H  13.89200 -2.88700 24.38000
H  13.12100 -3.50700 22.85800
H  12.49100 1.39400 27.25100
H  12.96100 1.09100 25.53600
H  13.40000 2.63600 26.21600
H  14.50700 0.22400 31.51900
H  15.81000 3.84300 32.68800
H  17.04300 2.92700 33.67800
H  15.46200 3.46900 34.31100
Mg 43.40400 42.10100 26.21700
C  42.55000 44.34500 28.87800
C  44.86600 40.02700 28.47700
C  44.13000 40.14000 23.63400
C  42.27200 44.74200 24.03800
N  43.66400 42.21800 28.35900
C  43.17000 43.13000 29.26000
C  43.43000 42.60100 30.69500
C  44.40700 41.37400 30.55000
C  44.21000 41.13600 29.02500
C  45.88400 41.59800 31.00600
C  42.22000 42.35300 31.56700
C  42.13000 42.99600 32.94100
H  40.74500 43.37600 33.40900
N  44.32400 40.25300 26.10100
C  44.87800 39.56500 27.13400
C  45.41200 38.29400 26.62800
C  45.13200 38.28300 25.20700
C  44.48900 39.60100 24.92600
C  46.07700 37.27700 27.53600
C  45.60700 37.23500 24.15900
O  45.40500 37.36200 22.93500
C  46.21500 35.88500 24.54000
N  43.33400 42.44000 24.16600
C  43.61700 41.38600 23.26200
C  43.33900 41.84100 21.85600
C  42.48800 43.13200 22.01600
C  42.77400 43.50000 23.52000
C  44.53600 42.08700 20.90600
C  40.99700 42.90000 21.79900
C  40.43300 41.71000 22.52600
N  42.69200 44.20000 26.31300
C  42.22700 45.14700 25.37900
C  41.75400 46.30400 25.99100
C  41.85000 46.04600 27.38500
C  42.41700 44.73100 27.53100
C  41.28900 47.45200 25.35700
C  41.55400 46.54900 28.68200
O  41.03400 47.66200 28.96400
C  41.83200 45.41800 29.72600
C  42.79200 46.01600 30.68400
O  43.96300 46.20300 30.47400
O  42.10300 46.37900 31.86700
C  42.99400 47.02300 32.82700
H  45.33100 39.38000 29.22400
H  44.37400 39.55700 22.74400
H  41.78700 45.30500 23.23800
H  44.03900 43.37900 31.15400
H  44.11000 40.55100 31.20000
H  46.04400 42.67500 31.03900
H  46.57300 40.96100 30.45200
H  45.80100 41.15800 31.99900
H  42.06500 41.27600 31.63500
H  41.36400 42.67000 30.97100
H  42.78300 43.86700 32.89400
H  42.69900 42.27200 33.52300
H  45.44500 36.39000 27.51300
H  46.08300 37.60700 28.57500
H  47.10900 37.03000 27.28400
H  46.26100 35.16900 23.72000
H  45.47600 35.49100 25.23800
H  47.19800 35.91900 25.01000
H  42.73000 41.07500 21.37600
H  42.84700 43.86400 21.29200
H  45.44800 41.68500 21.34700
H  44.65800 43.15500 20.73100
H  44.37400 41.58000 19.95500
H  40.81000 42.85600 20.72600
H  40.44300 43.80000 22.06400
H  41.11100 40.91000 22.82300
H  39.49700 41.32900 22.11900
H  40.19200 41.92600 23.56800
H  42.13100 47.96100 24.88800
H  40.75100 48.10100 26.04800
H  40.62900 47.18800 24.53100
H  40.93400 45.11100 30.26100
H  43.73400 46.30900 33.18900
H  42.35100 47.35900 33.64100
H  43.57200 47.81100 32.34500

