158

Mg 48.18300 46.03100 43.48500
C  44.75400 46.07600 42.54900
C  48.25200 42.72300 42.39200
C  51.50500 46.20300 43.12000
C  47.96900 49.58900 43.49000
N  46.58700 44.57600 42.69000
C  45.29800 44.77300 42.40100
C  44.55400 43.46200 42.04800
C  45.72500 42.41000 42.26600
C  46.94900 43.26900 42.53600
C  45.45600 41.39300 43.34900
C  43.94700 43.39700 40.54800
C  44.63700 44.16900 39.40800
H  44.98300 43.32000 38.11600
N  49.66400 44.59700 43.13500
C  49.44900 43.30900 42.81200
C  50.71700 42.63400 42.68700
C  51.75200 43.58100 42.92800
C  50.98900 44.86500 43.16700
C  50.87300 41.25200 42.27100
C  53.20800 43.32600 42.89900
O  53.57500 42.24900 42.51600
C  54.24400 44.35100 43.13600
N  49.53800 47.64900 43.12800
C  50.86700 47.44900 43.16100
C  51.65800 48.83900 43.12600
C  50.49100 49.85100 43.39900
C  49.23100 48.96600 43.31500
C  52.86300 49.07900 44.02700
C  50.58200 51.10500 42.40300
C  50.20200 52.45300 43.06300
N  46.70400 47.57200 43.29800
C  46.77000 48.94500 43.38600
C  45.46300 49.52800 43.24300
C  44.63400 48.45400 42.88200
C  45.44400 47.26400 42.96600
C  45.18700 50.95800 43.33800
C  43.31800 48.13800 42.43700
O  42.35100 48.82700 42.20500
C  43.29500 46.57500 42.23100
C  42.29000 45.95000 43.21100
O  41.67500 44.92600 42.92200
O  42.21600 46.56800 44.44100
C  41.10500 46.20700 45.32200
H  48.18300 41.69300 42.03700
H  52.57800 46.27600 42.92800
H  48.07700 50.67100 43.38900
H  43.70900 43.29800 42.71600
H  46.11000 41.86500 41.40500
H  46.11500 41.44700 44.21500
H  45.57400 40.37000 42.99100
H  44.50300 41.46300 43.87500
H  42.95400 43.84500 40.55300
H  43.77100 42.35600 40.27500
H  45.50700 44.65900 39.84600
H  44.00000 45.00900 39.13100
H  50.01400 40.64600 42.55900
H  51.76000 40.84200 42.75500
H  51.04300 41.15300 41.19900
H  54.42700 44.99700 42.27800
H  55.15500 43.86400 43.48200
H  54.01900 44.86900 44.06800
H  51.96800 49.11300 42.11800
H  50.47700 50.20200 44.43100
H  52.81000 50.02700 44.56200
H  53.73800 49.01800 43.38000
H  52.99800 48.27500 44.75100
H  49.95100 50.88300 41.54300
H  51.60200 51.15900 42.02200
H  49.28100 52.79100 42.58800
H  50.91600 53.17300 42.66300
H  50.19800 52.53900 44.15000
H  44.22000 51.24300 42.92300
H  46.00300 51.59500 42.99600
H  45.21200 51.16000 44.40900
H  43.02300 46.34800 41.20000
H  41.16500 45.15600 45.60400
H  40.13500 46.31600 44.83800
H  41.22500 46.81400 46.21900
Mg 10.23900 46.74400 25.54500
C  7.96800 46.90000 28.18200
C  12.66800 48.08200 27.59200
C  12.28600 46.68500 22.94600
C  7.53300 46.22600 23.40000
N  10.33200 47.45700 27.62400
C  9.28300 47.21200 28.54600
C  9.79400 47.55200 29.95100
C  11.17800 48.24800 29.74400
C  11.46300 47.87200 28.28800
C  11.15600 49.87800 29.84200
C  9.73500 46.28200 30.92500
C  9.35300 46.55500 32.39200
H  9.65900 45.55800 33.42200
N  12.18900 47.21400 25.31200
C  13.00500 47.71800 26.30400
C  14.35800 47.96300 25.75500
C  14.33200 47.43000 24.38400
C  12.87900 47.14500 24.16800
C  15.50700 48.58600 26.57100
C  15.54900 47.20500 23.44100
O  15.45200 46.68700 22.36700
C  16.97100 47.53200 23.84600
N  10.00500 46.49100 23.38100
C  10.98200 46.43500 22.52000
C  10.41900 46.09500 21.06100
C  8.86500 45.79900 21.40200
C  8.81500 46.19700 22.85900
C  10.76700 47.22300 20.05100
C  8.40600 44.31100 20.98100
C  7.50400 44.34400 19.75000
N  8.19000 46.61200 25.64300
C  7.20900 46.47300 24.71400
C  5.89500 46.54100 25.33600
C  6.18100 46.65100 26.72900
C  7.53000 46.70600 26.85900
C  4.64200 46.43600 24.62600
C  5.57000 46.72900 28.04000
O  4.38100 46.77900 28.31800
C  6.73200 46.79400 29.01900
C  6.53600 45.50900 29.80200
O  6.89200 44.38800 29.49200
O  5.89300 45.73800 30.93600
C  5.55000 44.58300 31.77000
H  13.49000 48.43700 28.21700
H  13.04500 46.51200 22.18000
H  6.71700 46.10800 22.68400
H  9.02800 48.24700 30.29500
H  11.99200 47.78800 30.30400
H  11.58700 50.29500 28.93200
H  11.84800 50.15500 30.63700
H  10.15000 50.23900 30.05400
H  10.75700 45.91100 30.83600
H  9.04700 45.56600 30.47600
H  8.26500 46.60500 32.41200
H  9.78200 47.50500 32.71200
H  15.27900 48.91700 27.58400
H  15.81400 49.52900 26.11800
H  16.36200 47.91100 26.62100
H  17.74800 47.58400 23.08300
H  17.11800 46.78100 24.62300
H  16.95600 48.45700 24.42300
H  10.92100 45.17800 20.75300
H  8.17700 46.44400 20.85500
H  11.51700 46.86700 19.34500
H  11.13100 48.20200 20.36000
H  9.86300 47.34900 19.45500
H  7.87400 43.86800 21.82400
H  9.32500 43.72900 20.91100
H  8.13600 43.86100 19.00500
H  7.08700 45.31700 19.48800
H  6.62100 43.76000 20.01100
H  4.45800 45.41100 24.30300
H  4.60300 47.11500 23.77400
H  3.84800 46.76200 25.29700
H  6.69400 47.64200 29.70300
H  6.53200 44.37500 32.19300
H  5.25200 43.65600 31.28100
H  4.84000 44.91200 32.52900

