158

Mg 36.52700 49.68600 25.69300
C  36.23000 47.83800 28.73500
C  34.92000 52.35300 27.39200
C  35.91200 51.11900 22.77100
C  37.62000 46.81900 24.18100
N  35.57600 49.98600 27.80100
C  35.74900 49.13700 28.91300
C  35.21300 49.79700 30.13800
C  34.55100 51.19900 29.60600
C  35.05000 51.21100 28.20500
C  32.98600 51.34200 29.72700
C  36.30000 50.20600 31.17100
C  35.78900 49.97600 32.61200
H  34.32000 50.58700 32.83400
N  35.71200 51.61200 25.15400
C  35.19200 52.56900 25.98600
C  34.91400 53.70100 25.17700
C  34.98600 53.34500 23.79100
C  35.58400 51.97600 23.80700
C  34.42900 55.00900 25.74200
C  34.56400 54.03200 22.51900
O  34.76300 53.55300 21.45000
C  33.89000 55.40900 22.58900
N  36.64800 49.06100 23.70700
C  36.41700 49.82000 22.66900
C  36.73100 49.06300 21.35100
C  37.61500 47.83100 21.86000
C  37.35300 47.87900 23.35500
C  35.52400 48.74100 20.47900
C  39.16700 47.89800 21.43400
C  39.50700 46.73800 20.51800
N  36.94500 47.74200 26.30500
C  37.40700 46.66700 25.56600
C  37.55300 45.48400 26.46300
C  37.10000 45.93800 27.68900
C  36.71200 47.29000 27.54500
C  37.93800 44.09800 25.94000
C  36.97600 45.54000 29.15200
O  37.32100 44.51200 29.75900
C  36.46900 46.82200 29.86900
C  35.26200 46.40400 30.72100
O  34.04600 46.50200 30.37000
O  35.63500 46.12800 32.01200
C  34.67200 45.54500 32.95200
H  34.46400 53.23400 27.84800
H  35.83600 51.61700 21.80200
H  38.10100 46.02900 23.60100
H  34.40900 49.23800 30.61800
H  35.01400 52.04900 30.10800
H  32.45900 50.62000 30.34900
H  32.60500 51.56000 28.72900
H  32.81500 52.30100 30.21600
H  36.69900 51.21100 31.03900
H  37.19900 49.60500 31.03600
H  36.40400 50.52000 33.32900
H  35.83800 48.90000 32.78000
H  34.97000 55.88300 25.38100
H  34.47900 54.97200 26.83000
H  33.38600 55.19000 25.48000
H  34.36500 56.09000 23.29500
H  32.86800 55.11300 22.82500
H  33.86900 55.86100 21.59800
H  37.31600 49.69700 20.68600
H  37.18700 46.97100 21.34500
H  34.61000 49.33100 20.55600
H  35.22400 47.69400 20.50500
H  35.91500 48.96500 19.48700
H  39.75900 47.71600 22.33100
H  39.44400 48.84300 20.96600
H  39.17600 46.79800 19.48200
H  39.09600 45.87600 21.04500
H  40.59700 46.72200 20.51200
H  37.98800 43.42900 26.79900
H  38.92700 44.29000 25.52200
H  37.17700 43.70600 25.26700
H  37.13200 47.21400 30.64000
H  34.09000 46.36700 33.37000
H  35.10200 44.97600 33.77600
H  33.98500 44.86200 32.45300
Mg 10.76500 47.46900 25.58700
C  8.06400 48.04200 27.97800
C  12.91800 48.64700 27.95700
C  12.96200 47.30800 23.31300
C  8.15800 47.12500 23.02100
N  10.44600 48.27600 27.75300
C  9.34500 48.25800 28.51800
C  9.70900 48.34500 29.98600
C  11.14100 49.05400 29.87300
C  11.56900 48.62500 28.44500
C  11.06400 50.59200 29.95200
C  9.78700 46.97800 30.74100
C  10.17300 47.23800 32.24400
H  9.33600 46.44200 33.34400
N  12.70200 47.85600 25.66000
C  13.46300 48.29600 26.70700
C  14.80500 48.44000 26.27200
C  14.89100 48.06700 24.93200
C  13.50200 47.73200 24.54100
C  15.84200 49.02600 27.11400
C  16.01200 47.97600 23.99800
O  15.88900 47.86300 22.79100
C  17.37500 48.01200 24.48600
N  10.50800 47.31700 23.45800
C  11.64900 47.21600 22.81700
C  11.43000 46.60300 21.41400
C  9.93900 46.64500 21.19000
C  9.50400 46.90400 22.67000
C  12.31400 47.26100 20.31700
C  9.29100 45.36100 20.59700
C  9.07500 45.38500 19.05500
N  8.53000 47.50000 25.50900
C  7.66500 47.36700 24.37500
C  6.29600 47.45400 24.91300
C  6.41400 47.69900 26.28000
C  7.76800 47.78300 26.58700
C  5.14500 47.19300 24.08400
C  5.65900 47.87200 27.44000
O  4.48200 48.02000 27.58300
C  6.69300 48.10000 28.61300
C  6.41400 46.98900 29.58100
O  6.75000 45.75100 29.50000
O  5.52600 47.44800 30.51300
C  5.05300 46.59800 31.61200
H  13.66900 48.96900 28.68100
H  13.68800 46.76600 22.70300
H  7.32500 47.15300 22.31600
H  9.01500 49.04600 30.44800
H  11.83700 48.60200 30.57900
H  10.04300 50.94400 30.09900
H  11.38300 51.11600 29.05100
H  11.70100 50.93200 30.76800
H  10.56400 46.35300 30.30000
H  8.80000 46.51900 30.68200
H  10.30400 48.28200 32.52800
H  11.17200 46.83700 32.41900
H  16.63300 48.31800 27.36100
H  15.48700 49.34200 28.09500
H  16.16500 49.94300 26.62200
H  17.56000 47.33900 25.32400
H  17.73700 48.99900 24.77300
H  17.95900 47.69600 23.62200
H  11.73800 45.55800 21.45400
H  9.52200 47.57400 20.80300
H  12.68900 48.20200 20.72000
H  11.62900 47.43500 19.48700
H  13.07600 46.56200 19.97300
H  8.35000 45.16900 21.11300
H  9.95200 44.51200 20.77100
H  9.60600 46.22300 18.60300
H  7.99500 45.50900 18.98200
H  9.34100 44.41200 18.64200
H  5.03100 47.89500 23.25700
H  4.20000 47.25300 24.62200
H  5.26500 46.18600 23.68400
H  6.46500 49.07600 29.04200
H  5.11700 45.53100 31.39700
H  3.99400 46.81400 31.75700
H  5.55100 46.77000 32.56600

