158

Mg 44.16200 4.78000 46.53500
C  42.37600 7.81300 46.46200
C  41.17100 3.24900 45.47900
C  45.89500 2.01100 45.52300
C  47.09100 6.56400 46.64400
N  42.05400 5.46200 46.14500
C  41.61400 6.72800 46.11000
C  40.26300 6.83100 45.42400
C  39.75700 5.35700 45.65400
C  41.06700 4.60600 45.81200
C  38.51700 5.01400 46.68200
C  40.32200 7.47000 43.90800
C  39.39700 6.90300 42.84000
H  39.03700 7.83700 41.62800
N  43.62300 2.87800 45.73500
C  42.35600 2.41600 45.42400
C  42.48500 1.01900 45.02200
C  43.82800 0.66600 45.06200
C  44.54500 1.84300 45.45800
C  41.26500 0.20800 44.59000
C  44.38500 -0.74400 44.76400
O  43.52800 -1.62600 44.50500
C  45.78200 -1.11600 44.60600
N  46.18400 4.33800 46.04500
C  46.67700 3.09100 45.90000
C  48.20500 3.00400 45.80400
C  48.56500 4.48100 46.12000
C  47.23500 5.19500 46.31600
C  48.75200 1.91100 46.71400
C  49.43500 5.14900 45.06600
C  50.89700 5.32400 45.49600
N  44.68200 6.70900 46.82500
C  45.88400 7.29800 46.81700
C  45.67500 8.73300 47.15100
C  44.33000 8.90600 47.05800
C  43.76000 7.69000 46.75100
C  46.68500 9.81100 47.11400
C  43.35500 9.97100 46.94100
O  43.47300 11.21800 47.10800
C  42.03100 9.32200 46.58900
C  41.07700 9.53100 47.76500
O  40.67600 8.62700 48.49600
O  40.68500 10.82900 47.75900
C  39.33300 11.07200 48.28500
H  40.20300 2.81300 45.22400
H  46.56800 1.16500 45.37100
H  48.03000 7.11100 46.75200
H  39.55600 7.38600 46.04200
H  39.38400 4.95400 44.71300
H  37.66000 4.75000 46.06200
H  38.36600 5.95400 47.21300
H  38.69900 4.14000 47.30700
H  41.36300 7.35500 43.60500
H  40.01400 8.51600 43.88100
H  38.54200 6.36700 43.25300
H  39.89800 6.12200 42.26800
H  41.39900 -0.04600 43.53900
H  40.29900 0.70300 44.68600
H  41.21600 -0.66600 45.24000
H  45.73400 -2.14000 44.23500
H  46.30600 -1.09500 45.56200
H  46.15800 -0.43700 43.84100
H  48.50400 2.77200 44.78100
H  49.14300 4.44700 47.04400
H  48.96300 2.26700 47.72200
H  49.58800 1.39200 46.24600
H  47.96300 1.20300 46.96800
H  49.02100 6.13700 44.86700
H  49.40700 4.51500 44.17900
H  51.13600 4.83200 46.43900
H  50.98700 6.40900 45.55300
H  51.64200 5.01900 44.76100
H  47.70500 9.42900 47.09200
H  46.51600 10.55600 47.89100
H  46.56900 10.28300 46.13900
H  41.47300 9.74400 45.75300
H  39.19000 12.09300 48.63700
H  39.17400 10.44600 49.16300
H  38.67900 10.66500 47.51400
Mg 6.85000 53.01500 40.23500
C  6.00800 49.59600 40.07600
C  10.02800 52.18400 39.57300
C  7.43700 56.25700 39.93200
C  3.39200 53.61700 40.64000
N  7.82400 51.11400 39.78800
C  7.37400 49.81500 39.82200
C  8.49300 48.77800 39.69900
C  9.73700 49.67500 39.79100
C  9.18600 51.06800 39.65300
C  10.65100 49.54100 41.02200
C  8.52200 47.99100 38.33900
C  8.41300 48.90800 37.15400
H  7.49800 48.56100 35.98000
N  8.44500 54.05000 39.74800
C  9.73100 53.55700 39.61600
C  10.64700 54.62300 39.30700
C  9.92600 55.84600 39.28900
C  8.58000 55.44200 39.68300
C  12.12100 54.36000 38.97900
C  10.46700 57.24700 38.88500
O  11.64100 57.43000 38.50100
C  9.53600 58.37200 38.62600
N  5.59600 54.70200 40.17300
C  6.08300 55.97300 40.23500
C  5.08700 57.00300 40.43600
C  3.72900 56.19000 40.43000
C  4.26200 54.72200 40.42500
C  5.35500 57.83100 41.74400
C  2.77000 56.30700 39.17200
C  1.42500 56.81800 39.44500
N  5.07100 51.89600 40.44000
C  3.70600 52.28200 40.62200
C  2.89200 51.18400 40.80400
C  3.74500 50.03300 40.59300
C  5.07300 50.59100 40.37200
C  1.40200 51.16600 41.06500
C  3.74500 48.52900 40.44500
O  2.86200 47.63800 40.49900
C  5.24300 48.23100 40.19800
C  5.24700 47.40400 38.94100
O  4.98900 47.75400 37.80200
O  5.54700 46.14100 39.32900
C  5.71400 45.07800 38.32200
H  11.04400 51.91400 39.27700
H  7.57600 57.33900 39.90200
H  2.34000 53.89200 40.74200
H  8.40700 48.12100 40.56500
H  10.33400 49.52200 38.89200
H  10.48400 50.37500 41.70400
H  11.67800 49.60100 40.66100
H  10.37800 48.60400 41.50800
H  7.69000 47.29100 38.26000
H  9.51200 47.53700 38.31000
H  9.40700 49.00800 36.71900
H  8.10800 49.91900 37.42300
H  12.30600 54.16200 37.92300
H  12.32400 53.44200 39.53100
H  12.81400 55.08600 39.40300
H  10.04700 59.27000 38.27900
H  9.10700 58.59300 39.60300
H  8.71000 58.12700 37.95700
H  5.01500 57.70600 39.60600
H  3.17000 56.41800 41.33700
H  6.15800 57.43400 42.36500
H  4.45000 57.98700 42.33100
H  5.78000 58.75900 41.36300
H  2.61200 55.36600 38.64500
H  3.20200 57.01900 38.46800
H  1.33600 57.40600 40.35900
H  0.67800 56.02700 39.36900
H  1.14700 57.39900 38.56500
H  0.90200 51.64700 40.22400
H  1.17000 51.55600 42.05600
H  1.05300 50.13500 41.11300
H  5.69900 47.66700 41.01100
H  4.73300 44.71700 38.01000
H  6.25100 44.19900 38.67800
H  6.27100 45.41400 37.44700

