158

Mg 9.13800 2.81700 26.66900
C  10.52200 1.15500 29.51800
C  7.28900 4.70700 28.75300
C  7.96400 4.04700 24.07300
C  10.74600 0.15200 24.77600
N  9.00700 2.95100 28.90200
C  9.67000 2.23400 29.90500
C  9.23900 2.68400 31.29800
C  8.03600 3.72300 31.01000
C  8.18800 3.88200 29.50200
C  6.61400 3.19600 31.45000
C  10.48300 3.09500 32.23000
C  10.39100 4.14400 33.37500
H  10.96000 3.86700 34.76000
N  7.81900 4.17400 26.43900
C  7.15900 4.94200 27.36500
C  6.34900 5.95500 26.70700
C  6.57700 5.86400 25.27400
C  7.45200 4.61800 25.21300
C  5.72100 7.00900 27.44600
C  6.08600 6.75900 24.13900
O  6.45000 6.56900 22.98900
C  5.07800 7.89300 24.40800
N  9.39800 2.22800 24.69500
C  8.79400 2.93700 23.75300
C  9.15800 2.48600 22.32100
C  10.02200 1.23200 22.57400
C  10.15500 1.25600 24.12400
C  7.97500 2.24800 21.36500
C  11.39300 1.20800 21.84400
C  11.19700 1.07900 20.31600
N  10.39100 1.08800 27.03200
C  10.92800 0.10000 26.15600
C  11.56100 -0.95200 26.90600
C  11.52200 -0.46200 28.24600
C  10.81800 0.71800 28.27000
C  12.11900 -2.16800 26.38300
C  11.92900 -0.83900 29.53900
O  12.56700 -1.79200 29.87300
C  11.23600 0.18900 30.49900
C  10.30800 -0.56600 31.39100
O  9.24000 -1.02800 31.09800
O  10.84200 -0.60400 32.64400
C  10.08800 -1.30100 33.71700
H  6.63700 5.31200 29.38600
H  7.48800 4.44500 23.17400
H  11.21700 -0.61600 24.15900
H  8.73200 1.80600 31.69900
H  8.15900 4.63700 31.59100
H  5.97200 3.06600 30.57900
H  6.19400 3.93100 32.13600
H  6.83000 2.26600 31.97600
H  11.22200 3.64300 31.64500
H  10.92900 2.20500 32.67500
H  9.33100 4.39000 33.44400
H  10.91900 5.02500 33.01200
H  6.22300 7.96500 27.29600
H  5.71900 6.69800 28.49100
H  4.74000 7.12200 26.98400
H  4.16800 7.43300 24.79500
H  4.85000 8.30600 23.42500
H  5.55000 8.58000 25.11000
H  9.80100 3.26700 21.91500
H  9.40300 0.39600 22.24900
H  7.02700 2.64400 21.73000
H  7.93100 1.21000 21.03500
H  8.20400 2.77800 20.44100
H  11.85500 0.25600 22.10800
H  12.00900 2.07700 22.07700
H  10.16800 1.34600 20.07600
H  11.37300 0.05100 19.99900
H  11.85600 1.76300 19.78100
H  11.35000 -2.49900 25.68500
H  12.14500 -2.84400 27.23800
H  13.04200 -1.95700 25.84300
H  11.90800 0.74600 31.15300
H  10.48100 -2.28900 33.95700
H  9.05200 -1.39900 33.39300
H  9.97400 -0.73800 34.64400
Mg 30.00500 59.56100 39.29100
C  27.11200 57.99600 38.11400
C  31.81500 56.74500 38.35800
C  32.78200 61.46600 39.13500
C  27.99900 62.56900 39.87200
N  29.57900 57.75900 38.23200
C  28.33400 57.32400 37.84000
C  28.41700 55.95700 37.05500
C  29.79400 55.47300 37.54100
C  30.47200 56.74000 38.02200
C  29.73600 54.46200 38.72900
C  28.45000 56.09200 35.50800
C  27.17700 55.42600 34.83400
H  26.18100 56.23200 34.02800
N  32.04200 59.08700 39.18200
C  32.54500 57.89600 38.75700
C  33.95500 57.97200 38.76200
C  34.30900 59.35000 39.08200
C  33.01800 60.04400 39.16900
C  34.91900 56.87000 38.45400
C  35.69000 59.82800 39.31600
O  36.65800 59.06300 39.16900
C  35.98600 61.20300 39.77400
N  30.29100 61.71200 39.66200
C  31.55700 62.17700 39.40500
C  31.59900 63.70500 39.54500
C  30.12800 64.06500 40.00800
C  29.41000 62.68500 39.83200
C  32.64600 64.24600 40.47800
C  29.55600 65.28300 39.18300
C  28.41500 66.06100 39.71500
N  27.93500 60.18500 39.23200
C  27.25300 61.35900 39.51200
C  25.83400 61.22600 39.18000
C  25.75100 59.86500 38.72400
C  27.02000 59.28100 38.75800
C  24.81300 62.33100 39.31000
C  24.83700 58.89100 38.23300
O  23.64400 58.92400 38.24400
C  25.65300 57.60800 37.89400
C  25.21900 56.53100 38.81300
O  25.30500 56.48800 40.00600
O  24.57100 55.65600 38.03400
C  23.89400 54.52800 38.77600
H  32.40100 55.90200 37.98500
H  33.62000 62.10900 38.85700
H  27.35600 63.42300 40.09800
H  27.66100 55.24000 37.37400
H  30.40800 54.94700 36.81000
H  30.59300 54.65300 39.37500
H  29.72000 53.41000 38.44500
H  28.85400 54.63100 39.34800
H  29.29400 55.59800 35.02600
H  28.59400 57.15800 35.33500
H  26.61300 54.89100 35.59800
H  27.40100 54.65800 34.09400
H  35.57300 57.14700 37.62700
H  34.55000 55.87400 38.21200
H  35.52700 56.85200 39.35800
H  36.69700 61.20700 40.60100
H  35.13000 61.77700 40.12800
H  36.50900 61.68900 38.95000
H  31.70400 64.09800 38.53300
H  30.09800 64.22700 41.08600
H  33.55900 64.41800 39.90800
H  32.95600 63.60300 41.30200
H  32.28600 65.17700 40.91700
H  29.29800 64.95700 38.17500
H  30.36600 66.01300 39.18100
H  28.80300 67.06100 39.90800
H  27.94400 65.62600 40.59700
H  27.76700 66.15200 38.84400
H  24.00400 61.93300 39.92200
H  24.41100 62.42400 38.30100
H  25.17700 63.30200 39.64700
H  25.34700 57.34700 36.88100
H  23.48400 53.80500 38.07100
H  23.02000 54.87900 39.32400
H  24.61200 54.09400 39.47300

