158

Mg -2.41700 16.94300 26.58700
C  -2.82900 14.90000 29.55900
C  -3.54700 19.59200 28.48900
C  -2.51100 18.63400 23.80900
C  -2.34300 13.78700 24.77600
N  -3.23100 17.19200 28.78300
C  -3.19100 16.26400 29.82000
C  -3.74500 16.92200 31.10400
C  -3.96400 18.43700 30.68900
C  -3.52900 18.43400 29.22500
C  -5.43700 18.93400 30.91700
C  -2.94600 16.63200 32.40200
C  -3.01400 17.52800 33.69000
H  -2.65800 16.92300 35.07000
N  -2.88500 18.91300 26.26100
C  -3.21300 19.90100 27.12400
C  -3.24800 21.11900 26.49200
C  -3.03300 20.87400 25.07600
C  -2.75500 19.47200 24.98900
C  -3.42500 22.40300 27.13200
C  -2.94700 21.88700 23.87000
O  -2.63900 21.54900 22.73800
C  -3.19200 23.31200 24.14400
N  -2.39800 16.30500 24.61000
C  -2.26100 17.24800 23.59500
C  -2.23400 16.56300 22.20800
C  -1.90300 15.06400 22.59600
C  -2.28200 15.01700 24.08000
C  -3.70900 16.74500 21.61300
C  -0.39200 14.74100 22.35100
C  0.72600 15.42100 23.16300
N  -2.45300 14.80600 26.99000
C  -2.37800 13.75700 26.15700
C  -2.34600 12.59800 26.98000
C  -2.58700 12.99700 28.26500
C  -2.67400 14.33200 28.26500
C  -2.31800 11.22300 26.52800
C  -2.71000 12.49500 29.58100
O  -2.65300 11.35000 29.94400
C  -2.97600 13.71600 30.52200
C  -1.99000 13.60700 31.59600
O  -0.92900 14.20200 31.56400
O  -2.49000 12.97000 32.72100
C  -1.62700 12.90900 33.91800
H  -3.88000 20.43800 29.09300
H  -2.37100 19.27700 22.93700
H  -2.29200 12.91700 24.11800
H  -4.67800 16.36900 31.21300
H  -3.31200 19.15500 31.18600
H  -5.88800 18.37300 31.73500
H  -6.04200 18.71000 30.03800
H  -5.42100 20.02300 30.95500
H  -1.90800 16.58400 32.07300
H  -3.28400 15.64300 32.71000
H  -4.05800 17.83900 33.74000
H  -2.32200 18.33900 33.46200
H  -3.63700 22.23800 28.18800
H  -4.15900 23.08600 26.70300
H  -2.49100 22.96400 27.08900
H  -3.18600 23.86600 23.20500
H  -2.44600 23.70900 24.83300
H  -4.15700 23.60200 24.55900
H  -1.42000 16.99500 21.62800
H  -2.52700 14.35300 22.05500
H  -3.51500 17.18200 20.63300
H  -4.44900 17.38900 22.08900
H  -4.23200 15.80200 21.45500
H  -0.18200 14.96800 21.30600
H  -0.21100 13.66800 22.41600
H  1.31000 16.11900 22.56400
H  1.43400 14.66800 23.51000
H  0.20500 15.86300 24.01200
H  -1.67600 11.05100 25.66400
H  -3.31300 10.79300 26.41500
H  -1.82500 10.63100 27.30000
H  -3.97100 13.67300 30.96300
H  -0.66800 12.45800 33.66500
H  -2.08900 12.28800 34.68500
H  -1.38800 13.91700 34.25700
Mg 0.68000 7.43600 26.84500
C  0.84400 9.75600 29.33300
C  0.57500 4.95800 29.22600
C  -0.12800 5.20600 24.39400
C  1.03200 9.83600 24.45200
N  0.73100 7.36200 29.01700
C  0.72800 8.46900 29.83500
C  0.57900 8.05600 31.30400
C  0.80600 6.44500 31.31100
C  0.74900 6.24800 29.73800
C  2.11900 5.96400 31.92600
C  -0.83400 8.39200 31.83900
C  -0.96700 8.48200 33.37500
H  0.29300 7.99500 34.22700
N  0.27300 5.36800 26.82300
C  0.37300 4.49200 27.92200
C  0.04500 3.17700 27.50300
C  -0.32500 3.24400 26.07900
C  -0.12600 4.64700 25.70500
C  0.06900 1.99100 28.46700
C  -0.89500 2.18300 25.11800
O  -1.20700 2.40300 23.97500
C  -1.07200 0.80500 25.59500
N  0.34600 7.62400 24.64900
C  0.02500 6.54600 23.92500
C  0.16000 6.88200 22.46100
C  0.64300 8.40000 22.40400
C  0.73500 8.64200 23.89800
C  0.91800 5.90900 21.57400
C  -0.34200 9.31500 21.64300
C  -1.56500 10.05000 22.30600
N  1.09900 9.31700 26.85500
C  1.17800 10.22100 25.81200
C  1.32700 11.50000 26.30100
C  1.29200 11.42200 27.70200
C  1.09900 10.08600 27.97600
C  1.41300 12.86600 25.48400
C  1.41700 12.12500 28.92700
O  1.59100 13.31400 29.14700
C  1.12900 11.11600 30.07700
C  2.31000 10.98500 30.91400
O  3.28900 10.27100 30.57100
O  2.12500 11.61900 32.16600
C  3.35600 11.54300 33.03000
H  0.53800 4.08300 29.87700
H  -0.45600 4.65200 23.51200
H  1.24900 10.62900 23.73300
H  1.44100 8.45900 31.83600
H  -0.03300 5.99400 31.84200
H  2.34700 6.34700 32.92100
H  2.90500 6.22200 31.21600
H  2.06100 4.87500 31.94800
H  -1.44800 7.59300 31.42300
H  -1.14000 9.31500 31.34600
H  -1.80600 7.86100 33.68700
H  -1.21000 9.50500 33.66500
H  -0.65100 2.16700 29.26600
H  1.05500 1.95400 28.92900
H  -0.16100 1.13100 27.83700
H  -1.78500 0.87600 26.41700
H  -0.09400 0.38100 25.82100
H  -1.40200 0.05600 24.87600
H  -0.83000 6.79000 22.01500
H  1.68100 8.47700 22.08200
H  1.71300 5.39700 22.11700
H  1.37200 6.24100 20.64100
H  0.22900 5.10800 21.30500
H  -0.71300 8.79300 20.76100
H  0.25900 10.09300 21.17200
H  -1.64600 9.57900 23.28500
H  -2.46200 9.84200 21.72400
H  -1.48600 11.13400 22.38500
H  1.20400 13.70600 26.14600
H  0.75400 12.73300 24.62500
H  2.41900 13.02400 25.09400
H  0.22400 11.50500 30.54300
H  3.87700 12.47500 32.81000
H  4.03800 10.74000 32.75200
H  3.27200 11.49100 34.11600

