158

Mg 46.51100 25.44900 28.14200
C  47.38100 27.88100 30.76700
C  45.11300 23.53600 30.66700
C  46.25100 23.08200 25.84800
C  48.21400 27.56700 25.84600
N  46.35100 25.74000 30.40700
C  46.70600 26.75500 31.26600
C  46.13800 26.56700 32.70800
C  45.65400 25.10900 32.69700
C  45.65600 24.74300 31.15700
C  46.49000 24.07700 33.56900
C  45.00900 27.56900 33.10200
C  45.29400 28.54400 34.23400
H  44.14000 28.83000 35.16100
N  45.65100 23.60000 28.23100
C  45.14300 22.95400 29.34300
C  44.60400 21.68600 28.95400
C  44.99400 21.51400 27.57900
C  45.70400 22.75900 27.13800
C  43.90300 20.74300 29.91600
C  44.73100 20.38200 26.67700
O  45.09100 20.47300 25.51000
C  44.11200 19.12100 27.11700
N  47.01800 25.40900 26.11200
C  46.81500 24.29600 25.32600
C  47.32200 24.47600 23.92200
C  47.81500 25.95200 23.91400
C  47.71700 26.29600 25.34900
C  48.40100 23.52100 23.36400
C  47.13800 26.91000 22.92400
C  45.82300 27.65200 23.42900
N  47.52200 27.40900 28.20500
C  48.15500 28.08300 27.15100
C  48.77400 29.24900 27.76200
C  48.39100 29.25000 29.13100
C  47.75800 28.05200 29.38700
C  49.60200 30.18800 26.98900
C  48.53300 30.00100 30.32500
O  48.95600 31.11200 30.57800
C  47.89500 29.06900 31.47400
C  48.86800 28.75200 32.54300
O  49.62500 27.74500 32.61200
O  48.82900 29.76500 33.46800
C  49.16500 29.30000 34.80600
H  44.65600 22.92400 31.44700
H  46.17800 22.44600 24.96400
H  48.88500 28.11600 25.18200
H  46.99300 26.60700 33.38200
H  44.59900 25.02500 32.95500
H  46.83700 23.29100 32.89800
H  45.79800 23.60200 34.26500
H  47.26700 24.36500 34.27800
H  44.16500 26.97300 33.44900
H  44.62700 28.05600 32.20400
H  45.45600 29.49500 33.72800
H  46.21400 28.35000 34.78500
H  43.15300 20.21200 29.33000
H  43.47600 21.22100 30.79700
H  44.78500 20.19000 30.24100
H  44.66400 18.78900 27.99700
H  44.25700 18.37900 26.33200
H  43.07600 19.24600 27.43000
H  46.42600 24.38600 23.30800
H  48.87100 25.95600 23.64400
H  48.77500 22.94600 24.21200
H  49.21600 23.94900 22.78000
H  47.94200 22.88800 22.60400
H  46.83300 26.56100 21.93700
H  47.85300 27.70100 22.69600
H  45.92400 28.72900 23.55900
H  45.60700 27.22400 24.40800
H  45.00700 27.46400 22.73100
H  49.59500 31.13900 27.52100
H  48.97800 30.36300 26.11300
H  50.63400 29.86300 26.85000
H  47.09500 29.68100 31.89000
H  50.17100 28.88200 34.78900
H  48.46400 28.52800 35.12600
H  49.11100 30.21300 35.39900
Mg 31.18500 58.79100 40.67100
C  28.32500 57.21900 39.37300
C  33.03700 56.29600 39.15000
C  33.94300 60.71400 41.01400
C  29.13500 61.52000 41.66700
N  30.70300 57.01300 39.28800
C  29.49400 56.47800 39.09100
C  29.62200 55.05300 38.60200
C  31.16500 54.73400 38.85300
C  31.68000 56.09100 39.12700
C  31.45100 53.75500 39.98000
C  29.28600 54.86400 37.06300
C  27.97400 54.22200 36.61600
H  27.18800 54.81700 35.38700
N  33.20900 58.46300 40.13000
C  33.78800 57.42700 39.57000
C  35.24500 57.59200 39.36000
C  35.54700 58.79100 40.03500
C  34.22200 59.35500 40.49600
C  36.09300 56.56300 38.74800
C  36.87700 59.37500 40.24200
O  37.89200 58.79400 39.86700
C  37.03900 60.74100 40.88000
N  31.49300 60.80300 41.25500
C  32.78200 61.32400 41.30200
C  32.70600 62.76000 41.86900
C  31.18300 63.11900 42.01000
C  30.53500 61.75200 41.68000
C  33.73700 63.03600 43.00800
C  30.71000 64.33800 41.17000
C  29.49800 65.15200 41.67100
N  29.18400 59.27500 40.60100
C  28.53600 60.38400 41.04400
C  27.10700 60.25900 40.85500
C  26.96800 59.02100 40.22400
C  28.24700 58.48700 40.04200
C  26.00700 61.18900 41.35700
C  25.97900 58.00700 39.73600
O  24.72100 58.00200 39.64000
C  26.84500 56.80300 39.18900
C  26.56400 55.63500 40.01800
O  27.14400 55.38600 41.08700
O  25.59500 54.84400 39.41300
C  25.26000 53.65100 40.15700
H  33.55500 55.39800 38.80700
H  34.79900 61.37600 41.16000
H  28.49200 62.32700 42.02600
H  28.95200 54.43400 39.19800
H  31.73600 54.38700 37.99100
H  30.59300 53.73000 40.65200
H  32.32600 53.99200 40.58600
H  31.54800 52.68900 39.77400
H  30.06500 54.32700 36.52300
H  29.20400 55.86900 36.64900
H  27.24900 54.15700 37.42700
H  28.29400 53.19500 36.44100
H  36.64600 57.08100 37.96400
H  35.47800 55.83500 38.21900
H  36.78700 56.12300 39.46400
H  36.55400 61.52300 40.29500
H  38.09100 61.01200 40.96000
H  36.73700 60.77400 41.92700
H  33.10400 63.43400 41.11000
H  31.05800 63.31100 43.07500
H  34.15800 62.15500 43.49300
H  33.34500 63.63000 43.83300
H  34.63500 63.59000 42.73400
H  30.32200 63.86000 40.27100
H  31.65400 64.82500 40.92500
H  29.79100 66.20100 41.72000
H  29.09100 64.66300 42.55600
H  28.71000 65.09600 40.91900
H  26.31800 62.17300 41.00700
H  26.04800 61.14900 42.44600
H  25.03200 60.97800 40.91900
H  26.57900 56.41200 38.20700
H  26.16200 53.08700 40.39500
H  24.61900 52.99200 39.57100
H  24.72300 53.77600 41.09700

