158

Mg 45.18600 4.30100 47.84400
C  43.05600 6.95000 47.11000
C  42.59200 2.11700 47.05700
C  47.38600 1.62300 47.47600
C  47.85300 6.50500 47.93600
N  43.10700 4.53100 47.23200
C  42.48900 5.68100 46.89000
C  41.06200 5.36000 46.44600
C  40.85400 3.82500 46.77600
C  42.24600 3.44300 46.99700
C  39.75800 3.49900 47.88700
C  40.94500 5.78400 44.97100
C  40.02200 6.91000 44.53100
H  40.34800 7.77600 43.29000
N  44.99300 2.10500 47.67000
C  43.80400 1.49300 47.31800
C  44.08100 0.08300 47.12200
C  45.55200 -0.05400 47.33700
C  46.04300 1.28700 47.48300
C  43.04300 -0.99000 46.99500
C  46.29400 -1.41600 47.33300
O  45.66500 -2.44600 47.18000
C  47.75600 -1.55500 47.53500
N  47.32500 4.13900 47.71000
C  47.98800 2.89400 47.65100
C  49.54700 3.05300 47.82700
C  49.63800 4.57400 48.23300
C  48.21900 5.15200 47.96600
C  50.23100 2.12000 48.85700
C  50.83500 5.29000 47.50500
C  51.80800 6.24800 48.32100
N  45.41800 6.29400 47.72200
C  46.58800 7.09100 47.83100
C  46.21300 8.43000 47.75700
C  44.80200 8.44800 47.44400
C  44.38000 7.13900 47.41000
C  47.13100 9.60000 47.92400
C  43.63900 9.27300 47.29200
O  43.48100 10.49500 47.38700
C  42.38300 8.29900 47.07500
C  41.50800 8.43700 48.31500
O  41.66100 7.89800 49.39900
O  40.60000 9.39000 47.99800
C  39.56400 9.68000 49.01900
H  41.70800 1.48000 46.99400
H  48.07000 0.78300 47.33500
H  48.71600 7.17400 47.97100
H  40.31400 6.00300 46.91000
H  40.52700 3.29800 45.88000
H  39.08200 4.32000 48.12300
H  40.08800 3.02500 48.81100
H  39.12600 2.73000 47.44200
H  40.53600 4.86700 44.54700
H  41.94000 5.93300 44.55100
H  39.80000 7.67600 45.27500
H  39.07900 6.41800 44.29400
H  42.97900 -1.77700 47.74500
H  43.15400 -1.47600 46.02500
H  42.04500 -0.55200 46.95600
H  48.05200 -0.91700 48.36700
H  48.30400 -1.42100 46.60200
H  47.87500 -2.60400 47.80800
H  50.04800 2.88700 46.87300
H  49.78200 4.73600 49.30200
H  49.52800 1.53000 49.44500
H  50.79000 2.74200 49.55500
H  50.90400 1.47400 48.29300
H  50.43400 5.99300 46.77600
H  51.53200 4.60300 47.02600
H  52.78000 6.18800 47.83100
H  51.86600 6.06400 49.39400
H  51.45400 7.27600 48.23900
H  47.38900 9.55900 48.98200
H  46.55200 10.46300 47.59600
H  47.95200 9.38200 47.24000
H  41.81000 8.57600 46.19100
H  39.36200 8.69400 49.43800
H  38.65200 10.12100 48.61700
H  40.01800 10.33900 49.75800
Mg 16.20800 52.22500 26.69400
C  18.24100 51.03400 29.31800
C  14.00000 53.37000 28.94100
C  14.49600 53.57700 24.17700
C  18.54200 51.01000 24.36000
N  16.11500 52.09300 28.89800
C  17.03400 51.71500 29.85500
C  16.64900 52.04700 31.29100
C  15.13700 52.52600 31.00500
C  15.06500 52.71000 29.52900
C  13.94100 51.83000 31.64000
C  17.51800 53.06000 31.96800
C  17.71500 52.89900 33.46000
H  16.61200 52.04700 34.20400
N  14.46100 53.18100 26.56800
C  13.70600 53.60800 27.62200
C  12.45000 54.30900 27.12100
C  12.61700 54.33700 25.73900
C  13.87000 53.69100 25.43800
C  11.31800 54.74300 27.95400
C  11.70800 54.89800 24.77200
O  11.93900 54.88100 23.57000
C  10.27800 55.43300 25.17900
N  16.39100 52.09900 24.56200
C  15.59600 52.86900 23.74000
C  16.16400 52.93800 22.26800
C  17.58400 52.24900 22.43200
C  17.49100 51.67200 23.82800
C  15.25700 52.22600 21.23600
C  18.82900 53.08400 22.08300
C  20.01800 52.33400 21.52500
N  17.92700 51.13500 26.81600
C  18.76900 50.67500 25.73500
C  19.79700 49.94400 26.34000
C  19.60900 50.06300 27.69300
C  18.53100 50.83800 27.99500
C  20.96700 49.20900 25.64100
C  20.21500 49.60100 28.90000
O  21.19100 48.94600 29.22300
C  19.32600 50.26000 30.06200
C  18.70200 49.18800 30.93800
O  18.24100 48.16300 30.53000
O  18.96000 49.55300 32.20500
C  18.78900 48.50200 33.25300
H  13.35500 53.75000 29.73600
H  13.98700 54.03300 23.32600
H  19.30700 50.69000 23.65000
H  16.64400 51.08200 31.79700
H  15.09300 53.47000 31.54800
H  13.19500 51.56200 30.89300
H  13.53000 52.45400 32.43400
H  14.23500 50.90000 32.12700
H  17.16400 54.05300 31.68900
H  18.52900 52.97500 31.57100
H  17.68100 53.84400 34.00200
H  18.66300 52.45100 33.75800
H  10.93300 55.70800 27.62700
H  11.45400 54.79300 29.03500
H  10.41400 54.14100 27.86500
H  9.73800 54.82000 25.90100
H  9.54500 55.50300 24.37500
H  10.47300 56.41700 25.60500
H  16.25900 54.00100 22.04600
H  17.56200 51.47700 21.66300
H  15.81500 51.66600 20.48600
H  14.65800 52.99700 20.75200
H  14.54700 51.52500 21.67500
H  19.30200 53.55200 22.94600
H  18.58500 53.92500 21.43300
H  20.81700 52.28000 22.26400
H  20.45200 52.92100 20.71600
H  19.80500 51.29100 21.29100
H  21.00700 48.17200 25.97800
H  21.87500 49.77600 25.84400
H  20.89500 49.18400 24.55400
H  19.85000 51.03700 30.62000
H  19.27900 47.53300 33.15900
H  17.74200 48.26000 33.43300
H  19.18300 48.99400 34.14300

