158

Mg 16.85100 52.74000 26.97100
C  18.98200 51.25000 29.32400
C  14.61300 53.38000 29.65500
C  14.83600 54.24200 24.89200
C  18.98300 51.85200 24.50400
N  16.79300 52.32900 29.22800
C  17.82200 51.76700 29.94500
C  17.57600 51.91800 31.46700
C  16.01700 52.12100 31.43000
C  15.73200 52.63900 30.03800
C  15.11200 50.87900 31.74100
C  18.30100 53.07800 32.08800
C  18.78700 52.81600 33.51200
H  17.74300 52.24900 34.48300
N  15.01900 53.74400 27.23700
C  14.30900 53.93100 28.44300
C  13.19900 54.81400 28.16200
C  13.30200 55.23100 26.79300
C  14.39500 54.37000 26.24000
C  12.22300 55.20600 29.24000
C  12.60400 56.40900 26.00500
O  12.69900 56.66800 24.79400
C  11.59500 57.20000 26.67900
N  16.81600 52.81700 24.90700
C  15.88500 53.52800 24.27500
C  16.03600 53.27500 22.68200
C  17.46900 52.70400 22.58800
C  17.76300 52.34600 24.06900
C  14.86000 52.39900 22.05700
C  18.45500 53.80300 22.04000
C  18.78800 54.99600 22.91500
N  18.68100 51.61800 26.87400
C  19.42600 51.34000 25.78800
C  20.61700 50.66100 26.16600
C  20.52400 50.61500 27.60500
C  19.31700 51.21200 27.95500
C  21.73900 50.07400 25.25700
C  21.12000 50.15100 28.83500
O  22.16700 49.56000 29.09600
C  20.18200 50.64700 29.98300
C  19.84100 49.50400 30.85300
O  19.09900 48.60000 30.62200
O  20.56200 49.63500 32.02700
C  20.48700 48.48800 33.01800
H  13.95600 53.48600 30.52000
H  14.08900 54.69100 24.23400
H  19.56700 51.59200 23.61900
H  17.72700 50.96300 31.97000
H  15.68600 52.91800 32.09600
H  14.55200 50.87200 32.67700
H  15.61000 49.91100 31.79600
H  14.40100 50.69400 30.93600
H  17.59700 53.91000 32.10200
H  19.09700 53.30900 31.38000
H  19.17900 53.67800 34.05100
H  19.57800 52.08400 33.34400
H  11.31100 54.98100 28.68700
H  12.23600 56.25300 29.54300
H  12.30800 54.47900 30.04700
H  10.92400 57.77000 26.03600
H  12.17900 57.84700 27.33400
H  10.99700 56.54800 27.31500
H  16.12200 54.26200 22.22600
H  17.47200 51.78800 21.99800
H  14.42500 52.83500 21.15800
H  14.15700 52.21800 22.87000
H  15.22500 51.43100 21.71400
H  17.97800 54.25200 21.16800
H  19.35900 53.38700 21.59500
H  19.34400 55.69400 22.28900
H  19.47000 54.64700 23.69000
H  17.95600 55.49600 23.41200
H  22.63700 49.82400 25.82300
H  22.03000 50.92200 24.63700
H  21.45200 49.29700 24.54900
H  20.78100 51.29100 30.62600
H  21.34500 48.59300 33.68100
H  20.46000 47.53400 32.49200
H  19.57800 48.49200 33.62000
Mg 10.11900 48.30300 25.77100
C  7.80200 48.32300 28.52900
C  12.38500 49.75900 27.91200
C  12.21500 48.27300 23.19200
C  7.49200 47.37900 23.76900
N  9.96800 49.15300 27.98000
C  9.07400 48.83200 28.95700
C  9.56100 49.16900 30.35100
C  10.97900 49.85600 30.04900
C  11.12300 49.61000 28.54100
C  11.07100 51.35700 30.49000
C  9.55100 48.03900 31.41400
C  10.62300 48.07900 32.51000
H  10.41800 47.23000 33.75600
N  12.05500 48.83100 25.63900
C  12.83900 49.41100 26.62300
C  14.12900 49.50300 26.05700
C  14.16800 48.94300 24.75700
C  12.75600 48.61200 24.44900
C  15.27600 50.01700 26.83500
C  15.36000 48.67800 23.77900
O  15.27500 48.37300 22.61700
C  16.72800 48.90800 24.36600
N  9.88500 47.88100 23.65400
C  10.93100 47.91200 22.74400
C  10.49100 47.48000 21.32900
C  8.99900 47.14800 21.54300
C  8.76000 47.46200 23.11700
C  10.86000 48.67600 20.34100
C  8.49700 45.74300 21.08500
C  8.75400 44.55400 22.11400
N  7.97700 48.03400 26.00900
C  7.08000 47.60000 25.07800
C  5.83000 47.39000 25.70300
C  6.08200 47.54700 27.08300
C  7.37900 48.03500 27.19000
C  4.51000 46.98300 25.06500
C  5.52100 47.44000 28.37700
O  4.45600 46.99600 28.74800
C  6.60200 47.92000 29.38300
C  6.70300 46.78500 30.32100
O  7.16500 45.68900 30.04200
O  6.14100 47.10000 31.55300
C  6.63700 46.14200 32.53600
H  13.09900 50.15400 28.63800
H  12.95500 48.30000 22.39000
H  6.70300 47.03300 23.09800
H  8.88700 49.97300 30.64600
H  11.86600 49.40700 30.49500
H  11.76700 51.21900 31.31800
H  10.16500 51.81700 30.88300
H  11.44100 52.02600 29.71300
H  9.55200 47.10800 30.84800
H  8.61400 48.22800 31.93800
H  10.66800 49.12100 32.82700
H  11.52900 47.77600 31.98500
H  15.14500 50.51400 27.79600
H  15.73400 50.80100 26.23200
H  16.01900 49.23100 26.96800
H  16.93200 48.23800 25.20100
H  16.96000 49.96100 24.52900
H  17.45100 48.62100 23.60200
H  11.13800 46.61400 21.18800
H  8.40400 47.85000 20.95900
H  10.96100 49.64300 20.83300
H  10.11700 48.70700 19.54400
H  11.77800 48.57700 19.76200
H  9.06900 45.60800 20.16700
H  7.44500 45.88400 20.83700
H  9.33100 44.82100 22.99900
H  9.07900 43.65000 21.60000
H  7.76600 44.28000 22.48500
H  4.38600 45.90000 25.06900
H  4.44500 47.21800 24.00300
H  3.78100 47.49600 25.69300
H  6.17100 48.71100 29.99800
H  6.33800 45.11500 32.33000
H  6.13400 46.37800 33.47400
H  7.72400 46.21500 32.57300

