158

Mg 25.93100 1.17800 29.84000
C  27.94600 0.88200 32.83400
C  23.23700 1.38600 31.85000
C  24.08600 1.05000 27.09400
C  28.73400 0.36100 28.00500
N  25.71200 1.24500 32.13500
C  26.62700 1.05100 33.14800
C  25.97100 1.14200 34.57500
C  24.47000 1.23900 34.15600
C  24.38700 1.17200 32.62100
C  23.55300 0.17200 34.84200
C  26.56000 2.31400 35.44800
C  26.74600 1.93500 36.94700
H  26.49700 3.10600 37.84200
N  23.89100 1.32100 29.54800
C  22.93300 1.37600 30.52500
C  21.61300 1.53800 29.93600
C  21.84300 1.37100 28.54200
C  23.33500 1.24600 28.32900
C  20.44900 1.74400 30.83000
C  20.82400 1.29100 27.42600
O  21.26500 1.02300 26.27700
C  19.41600 1.61100 27.66400
N  26.28100 0.65700 27.89900
C  25.37500 0.84600 26.88400
C  25.99700 0.62700 25.48600
C  27.52100 0.55500 25.85200
C  27.50500 0.53900 27.39500
C  25.51400 -0.73200 24.84600
C  28.41200 1.76600 25.39200
C  29.82900 1.32800 25.02700
N  27.92200 0.76200 30.28700
C  28.94400 0.45200 29.41900
C  30.15800 0.18500 30.13000
C  29.77500 0.38000 31.44300
C  28.43000 0.73300 31.51800
C  31.47500 -0.24700 29.67100
C  30.28000 0.30600 32.79500
O  31.43100 -0.04700 33.17500
C  29.08800 0.76400 33.70700
C  28.94700 -0.35000 34.68700
O  28.47200 -1.44800 34.47300
O  29.39000 0.07400 35.94200
C  29.25400 -1.02400 36.94600
H  22.34600 1.32300 32.47900
H  23.52900 0.98500 26.15700
H  29.58900 0.12500 27.36900
H  26.20200 0.21000 35.09100
H  24.06700 2.22900 34.37100
H  22.86500 -0.29300 34.13600
H  22.93100 0.65700 35.59400
H  24.17800 -0.60000 35.28900
H  25.74200 3.03400 35.49100
H  27.37700 2.86900 34.98800
H  27.79500 1.69300 37.11400
H  26.18100 1.02900 37.16900
H  20.64000 2.53300 31.55700
H  20.17500 0.87500 31.42900
H  19.52200 2.00800 30.32100
H  19.02900 0.85500 28.34700
H  18.94400 1.53200 26.68500
H  19.23200 2.61800 28.03900
H  25.86700 1.45800 24.79300
H  27.94700 -0.41800 25.60900
H  24.77200 -1.22300 25.47600
H  26.26800 -1.50700 24.70800
H  25.15400 -0.60600 23.82500
H  28.64400 2.49900 26.16600
H  27.85600 2.35100 24.65900
H  29.97800 1.48200 23.95900
H  30.05500 0.30200 25.31700
H  30.49800 1.98500 25.58500
H  32.07500 -0.18600 30.57900
H  31.90000 0.41100 28.91300
H  31.42500 -1.28900 29.35600
H  29.13400 1.72300 34.22200
H  29.75800 -0.62700 37.82700
H  29.73500 -1.92200 36.55800
H  28.22700 -1.27600 37.21100
Mg 1.08000 42.91700 26.01000
C  3.25300 42.89800 28.86800
C  -1.47400 42.03100 28.17800
C  -0.72200 42.19100 23.38500
C  3.84600 43.46500 24.00200
N  0.93900 42.56300 28.23500
C  1.87400 42.73700 29.22200
C  1.21200 42.74300 30.59000
C  -0.14500 42.06800 30.30000
C  -0.26300 42.30400 28.78600
C  -0.18500 40.52500 30.74500
C  1.09600 44.13600 31.20400
C  1.32600 44.26600 32.70600
H  0.96000 43.12700 33.66000
N  -0.84000 42.35000 25.82800
C  -1.74800 42.03400 26.76200
C  -3.02400 41.84200 26.22000
C  -2.86700 41.91000 24.76800
C  -1.38500 42.05700 24.61900
C  -4.20200 41.62700 27.08100
C  -4.04800 41.84700 23.73500
O  -3.82200 41.93900 22.54600
C  -5.52500 41.77400 24.03800
N  1.49400 42.76600 24.03300
C  0.55100 42.61500 23.12800
C  1.17100 42.70900 21.75900
C  2.51100 43.57100 21.92200
C  2.67600 43.25600 23.38100
C  1.33900 41.34900 21.04600
C  2.50400 45.02500 21.62100
C  1.22000 45.81100 21.72500
N  3.16100 43.20500 26.28100
C  4.13400 43.40600 25.41200
C  5.42300 43.50700 26.05100
C  5.18200 43.26900 27.43600
C  3.71700 43.12300 27.52000
C  6.71000 43.62100 25.21600
C  5.73500 43.08800 28.73100
O  6.90200 42.97600 29.10400
C  4.49100 42.95600 29.72700
C  4.70800 41.77300 30.56200
O  4.72500 40.56700 30.22100
O  4.96000 42.20000 31.79100
C  5.04400 41.29700 32.93500
H  -2.25400 41.76800 28.89500
H  -1.39300 41.97200 22.55200
H  4.64400 43.83900 23.35800
H  1.84500 42.18100 31.27700
H  -0.98800 42.51300 30.82900
H  -0.45800 39.94700 29.86200
H  -1.01400 40.40200 31.44200
H  0.77800 40.13000 31.06800
H  0.11600 44.51000 30.90900
H  1.85100 44.68000 30.63700
H  0.91300 45.20800 33.06700
H  2.38900 44.43400 32.87900
H  -4.54600 42.64800 27.24500
H  -4.02100 41.28900 28.10100
H  -5.02300 40.99800 26.73500
H  -5.76400 42.67200 24.60800
H  -5.58000 40.82100 24.56300
H  -6.14100 41.94200 23.15500
H  0.54300 43.21100 21.02300
H  3.43100 43.12300 21.54700
H  2.32100 41.04600 20.68200
H  0.73400 41.44100 20.14400
H  0.95200 40.51700 21.63400
H  2.75500 45.14400 20.56700
H  3.30700 45.56100 22.12500
H  0.99300 46.01900 20.68000
H  1.36500 46.72500 22.30100
H  0.41900 45.20300 22.14600
H  6.56800 44.25000 24.33700
H  7.06000 42.62600 24.94500
H  7.42600 44.03300 25.92800
H  4.50400 43.82700 30.38200
H  5.68300 41.88000 33.59700
H  5.50500 40.35700 32.63200
H  4.12600 40.91800 33.38400

