158

Mg 42.41200 40.99300 27.10000
C  41.42900 43.35100 29.42300
C  42.68900 38.64400 29.63700
C  43.59300 38.87000 24.77100
C  42.26500 43.46700 24.61900
N  42.22100 40.99500 29.30700
C  41.70000 42.09300 30.00400
C  41.51700 41.75800 31.44400
C  42.20100 40.37400 31.66400
C  42.39900 39.93900 30.10900
C  43.52000 40.28000 32.46500
C  40.00500 41.86900 31.94400
C  39.86200 42.55000 33.27500
H  39.58300 41.59800 34.50300
N  43.05500 39.05000 27.20600
C  43.10100 38.17000 28.28700
C  43.61600 36.90400 27.82700
C  43.86200 37.03100 26.40100
C  43.40800 38.36200 26.03900
C  44.13600 35.86200 28.82100
C  44.59900 35.99600 25.46300
O  45.02400 36.29400 24.36300
C  44.72100 34.53500 25.84600
N  43.11200 41.17700 25.08800
C  43.41500 40.12700 24.28200
C  43.69300 40.44200 22.83200
C  43.16900 41.88900 22.80500
C  42.82300 42.24200 24.29800
C  45.30100 40.29200 22.42900
C  41.98600 42.17600 21.91900
C  40.70800 41.48300 22.30200
N  42.04000 43.06700 27.00700
C  41.99800 43.94200 25.89800
C  41.50600 45.24300 26.29200
C  41.23300 45.04400 27.69300
C  41.61000 43.71600 28.04700
C  41.23600 46.42000 25.40500
C  40.68500 45.62200 28.85200
O  40.29600 46.77500 28.94800
C  40.92500 44.65300 30.05700
C  41.90100 45.08800 31.05400
O  43.11700 45.11400 30.81300
O  41.30100 45.45800 32.17700
C  42.18400 45.89000 33.28700
H  42.58000 37.76300 30.27200
H  43.62600 38.12000 23.97900
H  42.02900 44.25700 23.90300
H  42.17800 42.46100 31.95000
H  41.42800 39.79100 32.16500
H  44.38000 40.46100 31.82000
H  43.73800 39.25900 32.78100
H  43.48600 40.88600 33.37000
H  39.58000 40.86900 32.03800
H  39.34500 42.31500 31.20100
H  39.02500 43.23600 33.14100
H  40.70300 43.19400 33.53200
H  43.35400 35.16900 29.13100
H  44.31000 36.39600 29.75500
H  45.01000 35.24700 28.60700
H  45.75100 34.45500 26.19500
H  44.47100 33.95500 24.95800
H  43.98700 34.28000 26.61100
H  43.15100 39.72700 22.21300
H  43.97200 42.59000 22.57700
H  45.93000 39.86700 23.21100
H  45.69800 41.23600 22.05500
H  45.50900 39.60100 21.61300
H  42.19600 41.80000 20.91800
H  41.77900 43.24300 21.84100
H  40.46100 40.60300 21.70900
H  39.96000 42.24900 22.09800
H  40.73000 41.14900 23.34000
H  42.23100 46.80700 25.18600
H  40.58100 47.17100 25.84600
H  40.80100 46.21700 24.42600
H  39.99000 44.38700 30.55100
H  42.08000 46.92000 33.62800
H  43.22000 45.83600 32.95300
H  42.08100 45.24700 34.16100
Mg 9.61600 47.87300 26.27500
C  7.63300 47.89700 29.20800
C  12.23900 49.05600 28.09600
C  11.36100 47.44100 23.52100
C  6.63000 46.96800 24.46900
N  9.78500 48.48200 28.44000
C  8.95200 48.28300 29.49400
C  9.59900 48.58400 30.80300
C  10.80900 49.38400 30.30900
C  11.03100 48.97500 28.83800
C  10.69900 50.94100 30.42900
C  10.09500 47.33100 31.57800
C  10.82300 47.61300 32.85700
H  10.57900 46.60000 33.99600
N  11.52500 48.35200 25.89500
C  12.52500 48.81400 26.75000
C  13.78700 48.86800 26.00700
C  13.50700 48.45200 24.68500
C  12.11100 47.99400 24.68500
C  15.04200 49.40400 26.56400
C  14.45800 48.42900 23.58700
O  14.02300 47.96100 22.56800
C  15.84800 48.85400 23.67500
N  8.99600 47.32900 24.20900
C  10.01200 47.19200 23.33700
C  9.53800 46.61500 21.99700
C  7.94500 46.43800 22.22100
C  7.82900 46.89300 23.75500
C  9.94000 47.43600 20.76000
C  7.49300 44.93000 21.91100
C  7.62900 43.96900 23.01200
N  7.52700 47.57100 26.64300
C  6.44600 47.27600 25.82200
C  5.23700 47.24400 26.63000
C  5.70500 47.39800 27.96600
C  7.06300 47.66300 27.91500
C  3.79800 46.88800 26.16600
C  5.35200 47.35500 29.35800
O  4.35800 47.05500 29.90900
C  6.55300 47.73500 30.14700
C  6.76200 46.57700 31.07100
O  6.87800 45.42000 30.78600
O  6.68500 47.04600 32.32000
C  6.21900 46.11900 33.34500
H  13.06700 49.28400 28.77200
H  11.92600 47.11600 22.64600
H  5.71400 46.75700 23.91300
H  8.89200 49.13900 31.41900
H  11.76600 49.15000 30.77600
H  9.95000 51.34000 31.11400
H  10.45600 51.41700 29.47900
H  11.70300 51.23400 30.73700
H  10.74900 46.78600 30.89700
H  9.31600 46.58600 31.73900
H  10.27600 48.49400 33.19000
H  11.84300 47.99100 32.79300
H  14.99900 49.58000 27.63900
H  15.44400 50.31500 26.12000
H  15.89300 48.73100 26.45900
H  16.47100 48.35800 24.42000
H  15.99300 49.91800 23.86200
H  16.34900 48.55400 22.75500
H  10.00700 45.64700 21.82000
H  7.36700 47.11400 21.59000
H  9.08400 48.08400 20.57500
H  10.08300 46.76100 19.91500
H  10.75000 48.13300 20.97400
H  8.14300 44.59700 21.10300
H  6.47000 45.01400 21.54400
H  8.34200 44.34800 23.74400
H  8.15700 43.09300 22.63500
H  6.62700 43.76600 23.39200
H  3.74300 47.32900 25.17000
H  3.00300 47.33000 26.76700
H  3.63700 45.81000 26.17800
H  6.41700 48.63500 30.74700
H  5.48600 46.69600 33.90900
H  7.07100 45.99300 34.01300
H  5.88400 45.13600 33.01200

