158

Mg 48.06100 34.92200 27.49500
C  46.10800 33.30300 29.88900
C  48.11100 37.65100 29.61000
C  49.57800 36.76500 25.07700
C  47.60300 32.32000 25.21600
N  47.31000 35.30600 29.43700
C  46.62100 34.48700 30.36300
C  46.75400 35.01300 31.79100
C  46.95600 36.48800 31.58500
C  47.47600 36.47000 30.07100
C  45.65500 37.29100 31.83000
C  47.89300 34.36600 32.73500
C  47.55800 34.08800 34.23800
H  46.62600 35.01200 34.92700
N  48.74400 36.98500 27.33900
C  48.74500 37.92500 28.37300
C  49.36100 39.11300 27.91100
C  49.76600 38.87400 26.60800
C  49.31900 37.51100 26.24100
C  49.51600 40.36800 28.84800
C  50.53800 39.82500 25.64900
O  50.84900 39.53100 24.48600
C  51.03100 41.15100 26.21200
N  48.52800 34.59100 25.42400
C  49.12200 35.50200 24.64000
C  49.33700 34.91700 23.14600
C  48.92100 33.43700 23.30900
C  48.37100 33.44100 24.76500
C  48.56300 35.66000 22.05100
C  50.11300 32.51900 23.24000
C  50.82000 32.33200 21.92600
N  47.09500 33.13600 27.51800
C  47.03100 32.16200 26.53400
C  46.20200 31.05300 27.05400
C  45.78000 31.51500 28.33400
C  46.35100 32.76300 28.61600
C  45.81800 29.77600 26.25900
C  45.00700 31.11600 29.52000
O  44.44600 30.12400 29.86700
C  45.01200 32.34200 30.50500
C  45.14900 31.86000 31.85800
O  46.05800 31.15000 32.20600
O  44.22600 32.44300 32.63500
C  44.15600 31.94300 34.02600
H  48.08800 38.44100 30.36400
H  50.18500 37.31000 24.35100
H  47.60400 31.50700 24.48800
H  45.79900 34.92000 32.30800
H  47.69500 36.92100 32.25900
H  46.03700 38.17000 32.34700
H  45.01600 36.71100 32.49600
H  45.17100 37.64700 30.92000
H  48.70600 35.09000 32.68400
H  48.23000 33.42200 32.30600
H  48.54700 34.25300 34.66600
H  47.22800 33.05100 34.30500
H  49.40800 40.16800 29.91400
H  48.77800 41.13900 28.62600
H  50.50800 40.82000 28.86100
H  50.14700 41.65200 26.60600
H  51.64200 41.62600 25.44400
H  51.62700 41.00800 27.11300
H  50.40300 34.88100 22.92100
H  48.14200 33.17500 22.59300
H  48.26400 36.66700 22.34100
H  47.66300 35.16000 21.69400
H  49.37200 35.72700 21.32300
H  49.63200 31.55600 23.41400
H  50.77300 32.74800 24.07600
H  50.32600 32.95200 21.17700
H  50.74700 31.31400 21.54300
H  51.89700 32.47300 22.02000
H  46.10300 28.88000 26.81000
H  46.24200 29.76900 25.25500
H  44.73800 29.73700 26.11700
H  44.05700 32.86400 30.45900
H  43.49100 31.08900 34.15500
H  43.72700 32.75100 34.61900
H  45.10200 31.63700 34.47400
Mg 6.69300 53.86600 40.22200
C  6.39000 50.45300 39.84800
C  9.94900 53.63100 38.84900
C  6.89700 57.24300 39.91400
C  3.25700 54.02200 40.70600
N  7.93800 52.25600 39.18300
C  7.64400 50.92000 39.34800
C  8.83000 50.00300 39.00800
C  10.03300 51.06300 39.01600
C  9.26100 52.41700 38.94700
C  10.99000 50.93300 40.21600
C  8.74900 49.20300 37.65400
C  8.10400 49.99000 36.42400
H  7.13800 49.47600 35.44500
N  8.26900 55.22400 39.49200
C  9.53200 54.96800 39.04300
C  10.26800 56.13500 38.94200
C  9.40800 57.26700 39.18600
C  8.12400 56.60700 39.60700
C  11.76300 56.17400 38.70900
C  9.70700 58.69900 39.21000
O  10.83500 59.04300 38.89100
C  8.69800 59.73400 39.77000
N  5.24200 55.42100 40.13700
C  5.62000 56.75200 40.20600
C  4.38700 57.64300 40.46000
C  3.22800 56.57200 40.64500
C  3.88400 55.21200 40.41400
C  4.57600 58.59200 41.73700
C  1.96900 56.81600 39.76600
C  1.61000 58.30800 39.30100
N  5.12400 52.55400 40.42200
C  3.80300 52.71800 40.71000
C  3.14700 51.42700 40.95500
C  4.13400 50.54600 40.64600
C  5.26200 51.21900 40.24700
C  1.65900 51.13100 41.21400
C  4.47700 49.10100 40.57300
O  3.72900 48.13500 40.89300
C  5.88000 49.01700 40.15600
C  5.80700 48.21800 38.98400
O  5.23300 48.62800 37.97400
O  6.53400 47.06000 39.06900
C  6.37400 46.09100 37.98600
H  11.01300 53.56100 38.61300
H  6.78200 58.31700 40.07400
H  2.18800 54.16700 40.87600
H  8.93900 49.27900 39.81500
H  10.65500 50.98900 38.12400
H  10.50100 50.34100 40.98900
H  11.24200 51.92000 40.60600
H  11.89400 50.33700 40.09500
H  8.31900 48.20200 37.70600
H  9.73600 49.17700 37.19100
H  8.85900 50.27800 35.69200
H  7.72500 50.91500 36.85700
H  12.02600 56.95900 38.00100
H  12.13200 55.25400 38.25500
H  12.28000 56.33400 39.65500
H  7.86600 59.88100 39.08000
H  9.26900 60.66100 39.81400
H  8.37000 59.51800 40.78700
H  4.20500 58.21000 39.54700
H  2.83000 56.63800 41.65800
H  3.59500 58.76900 42.17800
H  4.93400 59.56600 41.40400
H  5.22700 58.08200 42.44700
H  1.22900 56.54600 40.52000
H  1.97600 56.25700 38.83000
H  2.25700 58.56300 38.46100
H  1.74700 59.01800 40.11600
H  0.55400 58.27300 39.03300
H  1.58100 50.07300 41.46500
H  1.12300 51.29200 40.27900
H  1.21100 51.83300 41.91700
H  6.40300 48.34900 40.84000
H  7.19400 46.02900 37.27100
H  5.47900 46.34600 37.41800
H  6.27800 45.05100 38.29800

