158

Mg 24.29800 1.16900 29.13000
C  26.42300 1.03900 32.09800
C  21.68100 1.59300 31.01000
C  22.53800 0.97800 26.38700
C  27.28300 0.60800 27.23400
N  24.12000 1.16900 31.37300
C  25.05500 1.20200 32.39100
C  24.43800 1.56300 33.74200
C  22.90600 1.70500 33.33500
C  22.87000 1.46800 31.76000
C  21.81900 0.74700 33.98800
C  25.05800 2.88600 34.43200
C  25.70500 2.69200 35.82500
H  25.52800 3.67900 36.98800
N  22.35100 1.32800 28.75400
C  21.40300 1.59100 29.69900
C  20.09300 1.59000 29.06300
C  20.32200 1.27700 27.72500
C  21.78000 1.15300 27.54000
C  18.82700 2.00100 29.76100
C  19.29100 1.15200 26.59800
O  19.65600 0.94300 25.45500
C  17.76100 1.18800 26.90200
N  24.88400 0.85200 27.08100
C  23.90800 0.90800 26.11800
C  24.53000 1.11400 24.75100
C  26.07200 0.96200 25.04300
C  26.09700 0.73900 26.53000
C  24.01400 0.02900 23.71100
C  26.87000 2.25800 24.63100
C  26.28100 3.59900 25.02400
N  26.41100 0.95300 29.51100
C  27.44900 0.60800 28.65400
C  28.69300 0.66500 29.41700
C  28.33800 0.83900 30.81300
C  26.92800 0.97200 30.79800
C  30.02500 0.34200 28.91900
C  28.78400 0.88700 32.15300
O  29.92500 0.72500 32.65000
C  27.59400 1.12200 33.08700
C  27.52300 0.12500 34.12500
O  26.92800 -0.94800 33.99000
O  28.24500 0.53200 35.15700
C  28.32500 -0.36700 36.32100
H  20.76900 1.65300 31.60800
H  21.93700 0.86300 25.48200
H  28.16600 0.55700 26.59300
H  24.66600 0.67300 34.33000
H  22.50900 2.70200 33.52800
H  21.07800 1.40200 34.44500
H  22.30000 0.03100 34.65500
H  21.34100 0.24800 33.14500
H  24.31100 3.67300 34.52800
H  25.74000 3.38900 33.74700
H  26.78200 2.71100 35.66200
H  25.35500 1.72800 36.19500
H  18.25900 1.07100 29.79700
H  18.27800 2.72600 29.15900
H  18.89500 2.31700 30.80200
H  17.46500 2.21200 27.12900
H  17.45600 0.62500 27.78500
H  17.17300 0.70600 26.12100
H  24.24500 2.07100 24.31500
H  26.54700 0.17500 24.45700
H  23.13400 -0.41400 24.17900
H  24.68700 -0.81800 23.58500
H  23.79200 0.38700 22.70600
H  27.06100 2.24700 23.55800
H  27.87400 2.22400 25.05500
H  25.35000 3.52900 25.58600
H  26.13200 4.18900 24.12000
H  26.99300 4.20000 25.58900
H  30.31600 0.72500 27.94100
H  30.20100 -0.73300 28.91900
H  30.71600 0.66200 29.69900
H  27.68400 2.08300 33.59400
H  29.37800 -0.30500 36.59300
H  28.23100 -1.40800 36.01100
H  27.64500 -0.20200 37.15700
Mg 29.07700 57.86500 40.54700
C  26.39400 55.98300 39.59500
C  31.16200 55.75800 38.81200
C  31.45500 60.25300 40.60700
C  26.76300 60.33100 41.79700
N  28.75400 56.30900 39.06600
C  27.56700 55.56000 38.97200
C  27.72500 54.48100 37.91000
C  29.26300 54.20700 38.01800
C  29.83600 55.44100 38.71000
C  29.77300 52.88400 38.74600
C  27.14100 54.84300 36.59400
C  27.76800 56.06000 35.87200
H  27.88900 56.00600 34.33900
N  31.04900 57.90400 39.95200
C  31.72700 56.94800 39.31600
C  33.13300 57.18100 39.31600
C  33.25900 58.46600 39.94400
C  31.89200 58.97900 40.17500
C  34.21200 56.25900 38.78100
C  34.53900 59.11500 40.21100
O  35.56500 58.72500 39.78200
C  34.58200 60.24500 41.13900
N  29.08500 60.02000 41.07400
C  30.18200 60.76300 40.95400
C  30.02500 62.15200 41.53800
C  28.55000 62.10500 42.13700
C  28.07900 60.71800 41.68000
C  31.09600 62.53900 42.66200
C  27.67400 63.38900 41.81000
C  26.73200 63.78300 42.92100
N  27.00800 58.04100 40.83200
C  26.20300 59.08700 41.34200
C  24.88400 58.57900 41.39800
C  24.87500 57.41700 40.68100
C  26.19900 57.15100 40.33400
C  23.71900 59.21900 42.13400
C  24.08300 56.23500 40.21900
O  22.90900 55.97000 40.44000
C  25.09100 55.32300 39.34500
C  25.16100 54.00800 39.99700
O  25.45400 53.84600 41.19500
O  24.80800 53.06300 39.11400
C  24.70400 51.66700 39.61200
H  31.78900 54.93900 38.45300
H  32.32000 60.90700 40.73400
H  26.10000 61.13200 42.12900
H  27.19400 53.63400 38.34500
H  29.59300 54.16800 36.97900
H  30.42400 53.10400 39.59200
H  30.28400 52.22900 38.04000
H  28.99300 52.24100 39.15200
H  26.06900 54.99200 36.71600
H  27.28600 53.89500 36.07700
H  28.78700 56.15900 36.24600
H  27.26100 56.93400 36.27900
H  33.90500 55.21400 38.71900
H  35.12700 56.25900 39.37300
H  34.40900 56.63800 37.77800
H  34.48600 61.17100 40.57100
H  35.61600 60.17100 41.47600
H  33.91500 60.14800 41.99500
H  30.09000 62.79500 40.66000
H  28.65400 61.98800 43.21500
H  30.52700 62.63300 43.58700
H  31.63800 63.46200 42.45600
H  31.81000 61.71800 42.73000
H  27.10700 63.10600 40.92300
H  28.39100 64.16200 41.53400
H  26.88000 64.80400 43.27500
H  26.86300 63.19400 43.82900
H  25.68200 63.77500 42.62900
H  23.03400 58.40800 42.38400
H  23.25700 59.88000 41.40200
H  24.17400 59.75600 42.96600
H  24.73100 55.30400 38.31700
H  25.68200 51.26500 39.87300
H  24.32200 50.91900 38.91800
H  24.21500 51.65800 40.58700

