158

Mg 48.99100 46.59500 42.03800
C  45.94300 47.14700 40.48700
C  49.15600 43.46300 40.35900
C  52.37100 46.48400 42.50000
C  49.07800 50.04400 42.69800
N  47.67200 45.49300 40.60000
C  46.51100 45.94900 40.13800
C  45.99700 44.92400 39.05500
C  46.83900 43.64100 39.29900
C  47.98000 44.18800 40.13200
C  46.26400 42.28400 39.75200
C  46.16700 45.44500 37.60600
C  45.05300 45.12700 36.60200
H  45.28700 44.91700 35.09300
N  50.51900 45.08700 41.72700
C  50.39000 43.93700 41.06200
C  51.55600 43.13800 41.34900
C  52.52000 43.93600 41.87300
C  51.85500 45.24000 42.05800
C  51.66300 41.66100 40.85000
C  53.92300 43.41600 42.33300
O  54.35800 42.25200 42.28700
C  55.00500 44.48300 42.90600
N  50.49200 48.09500 42.42700
C  51.77400 47.76000 42.60000
C  52.59600 48.95800 43.18700
C  51.59800 50.12300 43.06400
C  50.28400 49.40000 42.83500
C  53.04000 48.60600 44.66400
C  51.95400 51.07600 41.87000
C  52.27600 52.52100 42.29300
N  47.68500 48.22400 41.90200
C  47.84400 49.53200 42.22700
C  46.60000 50.25500 42.05800
C  45.87200 49.33900 41.22800
C  46.61200 48.14700 41.19500
C  46.28700 51.64100 42.41700
C  44.62600 49.21500 40.49600
O  43.73900 50.01800 40.23100
C  44.66600 47.65200 39.95900
C  43.40100 46.92500 40.46100
O  43.24300 46.22000 41.45400
O  42.34700 47.31700 39.66600
C  41.15700 46.49200 39.95100
H  49.22400 42.44000 39.98500
H  53.40600 46.48800 42.84600
H  49.01000 51.11000 42.92800
H  44.95700 44.71200 39.30400
H  47.34500 43.48800 38.34600
H  45.17500 42.27100 39.80200
H  46.64100 42.03400 40.74300
H  46.65300 41.52900 39.06800
H  47.13200 45.11300 37.22500
H  46.25000 46.53200 37.58900
H  44.35200 45.95800 36.67100
H  44.51600 44.27600 37.02000
H  52.55200 41.09700 41.13100
H  51.41100 41.54400 39.79600
H  50.87600 41.18000 41.43100
H  55.12700 45.36900 42.28300
H  55.95100 43.95400 43.01900
H  54.59000 44.90300 43.82200
H  53.51900 49.10400 42.62700
H  51.35400 50.60900 44.00900
H  52.56900 47.70400 45.05500
H  52.91000 49.55000 45.19300
H  54.11500 48.42400 44.63200
H  51.16500 51.19000 41.12700
H  52.88000 50.78500 41.37300
H  51.87000 53.19200 41.53600
H  53.34300 52.73000 42.36100
H  51.91500 52.68600 43.30800
H  47.03800 52.31000 41.99600
H  46.12000 51.88700 43.46500
H  45.32000 51.87400 41.97200
H  44.67700 47.75400 38.87300
H  40.96100 46.31800 41.00900
H  41.30000 45.50200 39.51800
H  40.25000 46.89100 39.49600
Mg 9.74900 47.30700 27.00300
C  7.99500 47.23300 29.89200
C  12.48000 48.46900 28.50100
C  11.27700 47.31000 24.02500
C  6.56500 46.51100 25.27500
N  10.16300 47.95500 28.96300
C  9.35600 47.62600 30.01900
C  10.10700 48.00800 31.37500
C  11.41100 48.66700 30.76800
C  11.35900 48.25000 29.33800
C  11.40000 50.22100 30.85800
C  10.34600 46.67400 32.20900
C  10.08600 46.73000 33.65500
H  10.45300 45.58800 34.57000
N  11.61100 47.80700 26.36200
C  12.61500 48.22000 27.15300
C  13.80900 48.31500 26.43800
C  13.50600 48.04200 25.08300
C  12.01600 47.74800 25.10400
C  15.04600 48.98700 26.92800
C  14.38600 47.95200 23.85100
O  13.90800 47.69100 22.79200
C  15.91400 48.10900 23.92500
N  8.92600 47.08700 24.89300
C  9.86200 46.96900 23.94700
C  9.20100 46.68700 22.60600
C  7.75200 46.20000 23.03700
C  7.75100 46.66300 24.48000
C  9.25700 47.86900 21.60700
C  7.64900 44.60600 22.93900
C  8.72900 43.80400 23.68000
N  7.75400 46.89700 27.40900
C  6.54800 46.65900 26.66400
C  5.39600 46.47700 27.56000
C  5.98600 46.62000 28.79600
C  7.35700 46.96000 28.66300
C  3.95200 46.27500 27.17900
C  5.60700 46.71700 30.16800
O  4.53200 46.69100 30.74700
C  6.94400 47.06700 30.92700
C  7.08800 45.91600 31.83700
O  7.52800 44.78500 31.56300
O  6.71600 46.36800 33.05800
C  6.57800 45.31400 34.05500
H  13.37600 48.76000 29.05400
H  11.74700 47.27700 23.04000
H  5.62400 46.36500 24.74100
H  9.56600 48.68700 32.03500
H  12.33300 48.22200 31.14200
H  12.10500 50.53500 31.62700
H  10.39700 50.62100 31.01000
H  11.73900 50.53300 29.87000
H  11.41300 46.45100 32.20000
H  9.86500 45.83800 31.70100
H  9.04800 47.01500 33.82500
H  10.59000 47.65000 33.95200
H  14.88500 49.44000 27.90600
H  15.30500 49.82900 26.28600
H  15.96200 48.39700 26.97100
H  16.28200 47.90300 22.91900
H  16.16000 47.38200 24.69900
H  16.22000 49.13600 24.12200
H  9.70200 45.84100 22.13600
H  6.97400 46.45100 22.31600
H  9.88400 48.69500 21.94400
H  8.29100 48.30300 21.34700
H  9.68800 47.56600 20.65300
H  7.90200 44.45200 21.89000
H  6.65000 44.28800 23.23600
H  8.60900 44.31300 24.63700
H  9.70900 43.96900 23.23100
H  8.45400 42.75100 23.73500
H  3.80500 46.19300 26.10200
H  3.35700 47.07800 27.61300
H  3.64700 45.35000 27.66800
H  6.88600 48.00000 31.48700
H  6.30800 45.77000 35.00800
H  7.58600 45.01200 34.33800
H  5.86000 44.54600 33.76800

