158

Mg -2.05100 17.58600 27.23100
C  -2.62700 15.33200 29.78300
C  -2.45400 20.21100 29.54900
C  -2.01800 19.72900 24.70200
C  -2.28100 14.86300 24.98500
N  -2.53700 17.65200 29.40300
C  -2.68000 16.66500 30.30500
C  -2.80800 17.13900 31.76700
C  -2.85700 18.71200 31.58100
C  -2.52400 18.90400 30.08600
C  -4.09500 19.53000 32.10600
C  -1.72900 16.64600 32.77200
C  -1.27500 17.54000 33.92900
H  -0.85000 16.69100 35.16200
N  -2.15200 19.67600 27.13100
C  -2.33200 20.53800 28.18100
C  -2.22900 21.91400 27.64300
C  -2.02800 21.76000 26.19700
C  -2.03500 20.38900 25.99200
C  -2.22800 23.15300 28.45400
C  -1.85100 22.87700 25.19100
O  -1.56300 22.65100 24.00200
C  -2.06700 24.30700 25.52300
N  -2.11300 17.37500 25.14800
C  -2.10500 18.42400 24.35700
C  -2.12900 18.01900 22.83300
C  -1.94800 16.43000 22.92900
C  -2.10100 16.16200 24.47300
C  -3.41500 18.38700 22.00100
C  -0.60100 15.95500 22.38300
C  0.61300 16.27300 23.29700
N  -2.37000 15.57800 27.32300
C  -2.36000 14.59400 26.34600
C  -2.53800 13.31700 26.88300
C  -2.66900 13.53600 28.21000
C  -2.54800 14.91000 28.47600
C  -2.86200 11.97900 26.25000
C  -2.88000 12.90600 29.50200
O  -3.14800 11.74600 29.78400
C  -2.79000 13.98700 30.58600
C  -1.53200 13.66600 31.33400
O  -0.34100 13.88900 31.03800
O  -1.90000 13.08200 32.48700
C  -0.86600 12.66400 33.43000
H  -2.41500 21.03000 30.27000
H  -2.00100 20.39000 23.83300
H  -2.36900 13.99900 24.32200
H  -3.67300 16.65400 32.21900
H  -1.95400 19.03500 32.10000
H  -4.87300 18.98800 32.64300
H  -4.49100 20.02500 31.21900
H  -3.81100 20.24800 32.87500
H  -0.84700 16.35400 32.20200
H  -2.08700 15.70600 33.19300
H  -1.98500 18.23600 34.37400
H  -0.47700 18.20600 33.60100
H  -1.28700 23.70400 28.44300
H  -2.29200 22.95300 29.52400
H  -2.95500 23.89500 28.12400
H  -2.08800 25.05300 24.72800
H  -1.39300 24.66500 26.30200
H  -3.07900 24.47800 25.88900
H  -1.22300 18.40900 22.36900
H  -2.81400 15.91400 22.51400
H  -4.18800 18.81600 22.63900
H  -3.92700 17.57700 21.48100
H  -3.19600 19.21500 21.32700
H  -0.53300 16.45800 21.41800
H  -0.64000 14.87000 22.28300
H  0.98300 15.29400 23.60100
H  0.51500 16.76600 24.26400
H  1.30400 16.88900 22.72100
H  -1.98600 11.33300 26.30100
H  -3.10700 12.12900 25.19800
H  -3.67100 11.48700 26.78900
H  -3.55900 13.88600 31.35100
H  -1.42800 12.52300 34.35300
H  -0.11500 13.43000 33.62400
H  -0.39800 11.71000 33.19200
Mg 2.02200 -1.44000 44.03700
C  5.36900 -1.04100 43.28900
C  1.36800 1.52700 42.26700
C  -1.33700 -2.06600 44.08800
C  2.64200 -4.63100 45.10500
N  3.19300 -0.07200 42.72800
C  4.56300 -0.03800 42.64200
C  5.12000 1.18200 41.76700
C  3.80100 1.98700 41.54700
C  2.72600 1.09600 42.26500
C  3.97400 3.36900 42.21000
C  5.69400 0.54400 40.51200
C  6.79700 1.32800 39.86700
H  6.51000 2.08100 38.56800
N  0.18500 -0.39600 43.31600
C  0.20000 0.88100 42.74400
C  -1.20400 1.42800 42.67500
C  -2.05300 0.32600 43.11800
C  -1.09500 -0.78400 43.59100
C  -1.55400 2.85300 42.16800
C  -3.60700 0.30000 43.00200
O  -4.23600 1.15900 42.39800
C  -4.34400 -0.75800 43.57100
N  0.84100 -3.10800 44.50000
C  -0.55100 -3.18500 44.43600
C  -1.13900 -4.57200 44.80500
C  0.22000 -5.34800 44.99200
C  1.35400 -4.28600 44.86700
C  -2.18000 -4.48300 45.99000
C  0.44800 -6.64300 44.08900
C  0.39400 -8.02000 44.79100
N  3.69600 -2.58000 44.37500
C  3.79300 -3.90300 44.76100
C  5.22000 -4.22500 44.84600
C  5.87400 -3.09900 44.32100
C  4.88800 -2.16500 43.96000
C  5.71000 -5.51100 45.33900
C  7.12500 -2.46900 44.01500
O  8.27700 -2.88800 44.18200
C  6.91600 -1.12600 43.34400
C  7.66700 0.01400 43.91800
O  8.62900 0.45400 43.33000
O  7.00400 0.70300 44.97800
C  7.41400 2.12100 45.27900
H  1.09900 2.54600 41.98100
H  -2.39400 -2.27200 43.90700
H  2.91500 -5.59800 45.53200
H  5.94400 1.62900 42.32300
H  3.43900 2.04800 40.52100
H  4.72100 3.33900 43.00400
H  3.08300 3.74400 42.71300
H  4.28100 4.11900 41.48000
H  4.87500 0.46100 39.79800
H  5.92500 -0.52000 40.56400
H  7.55500 0.63100 39.51000
H  7.24900 2.05800 40.53800
H  -1.66400 2.82000 41.08400
H  -0.82900 3.54700 42.59300
H  -2.53100 3.08200 42.59200
H  -5.39700 -0.52100 43.72200
H  -3.94600 -0.97200 44.56300
H  -4.17200 -1.61300 42.91600
H  -1.74800 -4.79100 43.92800
H  0.18900 -5.73300 46.01100
H  -1.76400 -5.00400 46.85200
H  -3.10800 -4.98100 45.70700
H  -2.31200 -3.42300 46.20200
H  1.41800 -6.50800 43.61100
H  -0.42900 -6.59500 43.44400
H  0.28500 -8.05200 45.87500
H  1.27900 -8.60400 44.54000
H  -0.54700 -8.47800 44.48400
H  5.29200 -6.26200 44.66900
H  5.43200 -5.70900 46.37500
H  6.79600 -5.54800 45.25700
H  7.25300 -1.26200 42.31600
H  7.83000 2.26100 46.27600
H  6.51300 2.71900 45.14100
H  8.19100 2.56000 44.65300

