158

Mg 17.25100 -1.35700 28.48600
C  16.45200 0.22400 31.35100
C  19.34200 -3.48100 30.16800
C  18.72700 -2.21500 25.57300
C  15.71800 1.42100 26.64400
N  17.96400 -1.53600 30.51700
C  17.39900 -0.77900 31.55300
C  17.77300 -1.29300 32.92500
C  18.95800 -2.30700 32.58700
C  18.73700 -2.48600 31.00600
C  20.39300 -1.86800 33.01800
C  16.61100 -1.85900 33.70600
C  16.33700 -1.45900 35.20800
H  17.39800 -0.71300 36.06400
N  18.62400 -2.80400 27.90700
C  19.33200 -3.62100 28.77300
C  20.19000 -4.57800 28.01400
C  20.02500 -4.22800 26.67000
C  19.11000 -3.01700 26.67000
C  21.11200 -5.52300 28.64600
C  20.58100 -4.77700 25.35900
O  20.27700 -4.34000 24.22500
C  21.39400 -6.05800 25.38900
N  17.14800 -0.54300 26.35000
C  17.92200 -1.12800 25.42200
C  17.80700 -0.38400 24.03900
C  16.74300 0.74800 24.36400
C  16.58900 0.61900 25.90800
C  19.10800 0.19700 23.41500
C  15.32700 0.41700 23.67600
C  15.18200 0.35800 22.17800
N  16.23700 0.38500 28.82800
C  15.62200 1.37800 28.00100
C  14.89400 2.31000 28.84800
C  15.15600 1.90200 30.16400
C  16.03200 0.76700 30.12800
C  14.03100 3.46700 28.37900
C  14.87500 2.20000 31.53400
O  14.25900 3.17400 31.91900
C  15.65200 1.08500 32.42600
C  16.56000 1.91300 33.27900
O  17.66000 2.36000 32.86600
O  15.81300 2.30100 34.41800
C  16.50400 3.16800 35.34700
H  20.07000 -4.13300 30.65400
H  19.18300 -2.37600 24.59400
H  15.15600 2.17100 26.08400
H  18.11600 -0.37200 33.39700
H  18.74800 -3.23100 33.12500
H  20.36700 -0.83100 33.35400
H  20.89100 -1.91600 32.05000
H  20.90100 -2.51800 33.73000
H  16.71300 -2.94400 33.72800
H  15.69100 -1.70600 33.14200
H  16.00800 -2.40900 35.63100
H  15.43600 -0.85400 35.10300
H  22.05500 -5.07900 28.32700
H  20.97300 -6.57700 28.40700
H  21.07700 -5.48200 29.73500
H  22.07300 -6.08900 26.24000
H  22.05800 -6.16500 24.53100
H  20.78500 -6.93000 25.62400
H  17.35000 -1.00700 23.27000
H  16.88900 1.74400 23.94600
H  19.14900 -0.09300 22.36500
H  20.00800 -0.27000 23.81400
H  19.15000 1.28400 23.34300
H  14.84200 1.30200 24.08800
H  14.87900 -0.45900 24.14600
H  14.95700 -0.62900 21.77500
H  16.17200 0.60400 21.79500
H  14.44000 1.05900 21.79700
H  13.92800 4.21400 29.16600
H  13.05800 3.06100 28.10100
H  14.49600 3.96000 27.52400
H  15.03000 0.55200 33.14500
H  16.06700 4.16000 35.23700
H  17.56900 3.36700 35.23100
H  16.32200 2.71600 36.32200
Mg 27.58800 56.39200 40.30500
C  25.41000 53.84900 39.79200
C  30.18900 54.26600 39.56200
C  29.71400 59.09600 40.31400
C  24.94300 58.48700 40.92500
N  27.69400 54.36000 39.57700
C  26.71500 53.44100 39.48000
C  27.15800 52.12400 38.96400
C  28.72500 52.20800 39.16400
C  28.89200 53.72500 39.48100
C  29.16500 51.31000 40.34000
C  26.70300 51.80300 37.46800
C  27.30400 52.60900 36.36100
H  26.40200 53.64100 35.57800
N  29.65700 56.60100 39.84400
C  30.56000 55.61300 39.74300
C  31.88800 56.24300 39.68600
C  31.73300 57.61600 39.83900
C  30.29800 57.85800 40.00900
C  33.14600 55.45200 39.41900
C  32.92200 58.57800 39.78300
O  34.00800 58.24300 39.33500
C  32.66200 59.95400 40.18200
N  27.33200 58.54800 40.35900
C  28.35500 59.46100 40.49400
C  27.73700 60.82300 41.03700
C  26.20800 60.63700 40.87700
C  26.14400 59.11900 40.74500
C  28.19600 61.07400 42.46900
C  25.46300 61.36500 39.77700
C  24.75000 62.60800 40.25000
N  25.58500 56.22400 40.43200
C  24.62900 57.11200 40.79700
C  23.35000 56.47900 40.96400
C  23.56500 55.19100 40.47300
C  24.93400 55.12400 40.13500
C  22.04700 57.03100 41.49100
C  22.94700 53.94100 40.14100
O  21.77900 53.62600 40.19000
C  24.12300 52.99300 39.67400
C  24.14500 51.62900 40.35600
O  23.65400 50.59900 39.88000
O  24.74700 51.69800 41.59400
C  24.70200 50.39500 42.32800
H  30.96500 53.52300 39.36400
H  30.25800 60.03900 40.40300
H  24.11500 59.11100 41.26900
H  26.59600 51.45200 39.61200
H  29.26600 51.88400 38.27500
H  29.48000 50.32500 39.99700
H  28.33000 51.35600 41.04000
H  30.08100 51.73400 40.75200
H  25.61400 51.75600 37.42800
H  26.92100 50.77800 37.17000
H  27.82200 52.05300 35.58100
H  28.14700 53.18200 36.74800
H  33.03900 54.36800 39.46800
H  33.98800 55.54000 40.10500
H  33.58400 55.62000 38.43500
H  32.32700 60.10800 41.20800
H  32.10300 60.33900 39.33000
H  33.56400 60.55100 40.04200
H  28.02400 61.65900 40.39900
H  25.80500 60.72400 41.88600
H  27.59400 61.76000 43.06600
H  29.25200 61.33700 42.40800
H  28.13300 60.09400 42.94200
H  24.80800 60.73300 39.17800
H  26.17600 61.76700 39.05800
H  24.90600 62.80200 41.31100
H  23.68000 62.55800 40.04900
H  25.13100 63.51200 39.77400
H  21.33500 57.27800 40.70400
H  22.18500 57.86000 42.18600
H  21.57200 56.22800 42.05400
H  24.07200 52.64300 38.64300
H  23.77100 50.24800 42.87600
H  25.53800 50.46100 43.02400
H  24.96900 49.56000 41.68100

