158

Mg 28.70500 58.64300 41.58800
C  26.01900 56.49700 40.23900
C  30.88200 56.64400 39.80500
C  30.96000 61.08900 42.00800
C  26.17300 60.90800 42.66100
N  28.44400 56.77400 40.12900
C  27.28100 56.07500 39.82700
C  27.63900 54.98400 38.75200
C  29.19500 54.89900 38.77700
C  29.55600 56.21000 39.61000
C  29.74900 53.55200 39.35700
C  26.99500 55.31700 37.40200
C  26.50000 54.13900 36.51900
H  27.30500 53.86600 35.24900
N  30.70500 58.70000 41.15400
C  31.41200 57.81000 40.35000
C  32.80300 58.33500 40.14600
C  32.81200 59.45800 41.05400
C  31.49300 59.83700 41.43800
C  33.90700 57.66300 39.25500
C  34.11400 60.15200 41.43900
O  35.20600 59.60000 41.22100
C  34.14200 61.47100 42.25100
N  28.58200 60.67900 42.24300
C  29.65800 61.50700 42.29900
C  29.37000 62.90200 42.85500
C  27.83300 62.77600 43.20400
C  27.42700 61.40200 42.60800
C  30.15500 63.26200 44.13100
C  27.05000 64.04900 42.66000
C  26.38600 64.99700 43.72300
N  26.56200 58.70000 41.51600
C  25.73200 59.63900 42.06100
C  24.42400 59.17500 41.96700
C  24.43500 57.95600 41.28700
C  25.78700 57.73100 40.95300
C  23.23000 59.94500 42.44900
C  23.64500 56.80900 40.73200
O  22.43000 56.64000 40.76400
C  24.63900 55.91500 40.01200
C  24.46200 54.55500 40.50400
O  24.57800 54.19700 41.66200
O  24.38400 53.77200 39.42600
C  24.04600 52.36000 39.59500
H  31.49500 56.00500 39.16700
H  31.68300 61.84900 42.31200
H  25.43900 61.63200 43.02000
H  27.21200 54.03600 39.08000
H  29.60600 54.98700 37.77100
H  30.09600 52.84300 38.60500
H  28.98200 52.96700 39.86500
H  30.58400 53.81700 40.00400
H  27.67800 55.84600 36.73700
H  26.17100 56.02100 37.51900
H  25.46100 54.30400 36.23500
H  26.67500 53.22400 37.08400
H  34.41400 56.99400 39.95000
H  34.69700 58.35600 38.96400
H  33.42400 57.08700 38.46600
H  33.82400 62.30400 41.62300
H  35.12700 61.61800 42.69500
H  33.46900 61.36800 43.10100
H  29.76600 63.58800 42.10600
H  27.71600 62.51300 44.25500
H  29.55000 63.63500 44.95800
H  30.75800 64.13500 43.88100
H  30.80200 62.41900 44.37200
H  26.23200 63.81100 41.98100
H  27.63400 64.72000 42.02900
H  26.75100 66.01700 43.60400
H  26.66700 64.71900 44.73900
H  25.30300 64.98100 43.60100
H  22.95900 60.76600 41.78400
H  23.56200 60.54500 43.29600
H  22.42400 59.27400 42.74500
H  24.30000 55.88500 38.97600
H  24.19300 52.07200 40.63600
H  24.57300 51.67300 38.93200
H  22.99700 52.29000 39.30800
Mg -12.84700 16.17000 41.38100
C  -9.88400 14.37800 40.70100
C  -11.45600 18.81800 39.70700
C  -15.79800 17.62700 41.74200
C  -14.17200 13.02600 42.36800
N  -10.96900 16.47000 40.14500
C  -9.94400 15.63800 40.16300
C  -8.66000 16.31400 39.53700
C  -9.09600 17.80900 39.20500
C  -10.57200 17.75300 39.72700
C  -8.31400 18.92000 39.90900
C  -8.10700 15.63500 38.23300
C  -6.55500 15.36900 38.23500
H  -5.62600 16.06200 37.26100
N  -13.55900 17.99000 40.86100
C  -12.78800 18.98800 40.30700
C  -13.55100 20.16100 40.27000
C  -14.82000 19.81900 40.86700
C  -14.76800 18.43100 41.25200
C  -13.10300 21.47800 39.69500
C  -15.95100 20.84500 40.95600
O  -15.83800 21.91400 40.36500
C  -17.24600 20.65200 41.75000
N  -14.75300 15.37600 41.62400
C  -15.81400 16.25200 41.91400
C  -17.03900 15.46400 42.33600
C  -16.43200 14.09100 42.73800
C  -15.01700 14.14800 42.16900
C  -17.73500 16.16600 43.55100
C  -17.33200 12.87700 42.33100
C  -17.61000 11.86800 43.42800
N  -12.18000 14.03200 41.55500
C  -12.79200 12.91200 42.06900
C  -11.86300 11.82200 42.23000
C  -10.71000 12.34300 41.59700
C  -10.96300 13.69000 41.27000
C  -12.12400 10.50600 42.89900
C  -9.32600 12.05400 41.33900
O  -8.68300 11.08300 41.66800
C  -8.66600 13.33700 40.61600
C  -7.44000 13.78700 41.40400
O  -7.42100 14.52200 42.39900
O  -6.35500 12.96800 41.04800
C  -4.98700 13.03300 41.62400
H  -10.99500 19.66200 39.19000
H  -16.75100 18.15900 41.76800
H  -14.60500 12.08800 42.72300
H  -7.86300 16.29000 40.28100
H  -9.10900 18.06900 38.14600
H  -8.81000 19.81700 40.28100
H  -7.52700 19.30200 39.26000
H  -7.79200 18.37700 40.69700
H  -8.16300 16.27300 37.35100
H  -8.53300 14.66400 37.97900
H  -6.42900 14.30100 38.05900
H  -6.17400 15.41400 39.25500
H  -13.53100 21.58900 38.69900
H  -12.02600 21.52500 39.53000
H  -13.34900 22.22800 40.44700
H  -16.87900 20.40700 42.74700
H  -17.91200 19.89100 41.34200
H  -17.68600 21.65000 41.76800
H  -17.69500 15.37300 41.47000
H  -16.29500 14.20000 43.81400
H  -17.97600 15.43500 44.32200
H  -18.67200 16.62200 43.23300
H  -17.09500 17.01300 43.79800
H  -16.78800 12.43700 41.49500
H  -18.23800 13.26400 41.86400
H  -16.97400 10.99600 43.27600
H  -18.60900 11.45000 43.31100
H  -17.67000 12.32300 44.41700
H  -11.26100 10.33200 43.54100
H  -12.26400 9.65300 42.23400
H  -12.97800 10.56500 43.57400
H  -8.45600 13.14400 39.56400
H  -4.67300 12.02000 41.87700
H  -5.01800 13.61800 42.54400
H  -4.28800 13.49400 40.92600

