158

Mg 25.14400 51.73100 25.66000
C  23.50400 52.63200 28.56400
C  28.11400 51.79200 27.65500
C  27.26000 51.60800 22.78200
C  22.72400 52.74200 23.77000
N  25.66700 52.08300 27.92600
C  24.77700 52.34400 28.89500
C  25.42700 52.29100 30.27500
C  26.99900 52.15800 29.97600
C  26.91700 51.98200 28.44400
C  27.95700 53.32600 30.43400
C  24.82400 51.20000 31.21000
C  24.34900 51.64500 32.62300
H  25.32000 52.20500 33.59000
N  27.30500 51.59500 25.32000
C  28.32300 51.68900 26.26800
C  29.63100 51.59600 25.67400
C  29.45700 51.63400 24.27500
C  27.94400 51.58400 24.09000
C  30.96500 51.57700 26.41600
C  30.43000 51.68900 23.15000
O  30.06600 51.95800 22.01000
C  31.90500 51.51000 23.50200
N  25.03500 52.03000 23.55400
C  25.93600 51.75200 22.55700
C  25.24700 51.76100 21.19600
C  23.77600 52.08300 21.50300
C  23.79500 52.27100 23.06600
C  25.82700 52.70900 20.15100
C  22.91000 50.91300 20.89100
C  21.65900 51.30100 20.07600
N  23.46900 52.44200 26.00900
C  22.46700 52.76400 25.13800
C  21.34800 53.19500 25.80000
C  21.62400 53.07200 27.17500
C  22.96200 52.63200 27.26600
C  20.15700 53.72300 25.15600
C  21.10400 53.25600 28.56800
O  19.99400 53.55600 29.02900
C  22.32200 52.89300 29.44100
C  22.43300 54.08500 30.27700
O  23.02300 55.10200 29.99600
O  21.75200 53.90800 31.47400
C  21.91600 54.90300 32.56200
H  28.99800 51.89300 28.28700
H  27.80800 51.66500 21.83900
H  21.79600 52.94500 23.23000
H  25.31500 53.27200 30.73700
H  27.36700 51.25500 30.46400
H  27.48100 53.96400 31.17900
H  28.30800 53.93700 29.60200
H  28.77000 52.92000 31.03600
H  25.55900 50.41400 31.38400
H  23.93100 50.82200 30.71200
H  23.90100 50.74100 33.03500
H  23.56400 52.37400 32.42300
H  30.88500 51.24200 27.45100
H  31.37400 52.58500 26.48200
H  31.78600 50.95200 26.06400
H  32.51600 51.42500 22.60300
H  32.05200 50.49000 23.85800
H  32.25700 52.27700 24.19100
H  25.40900 50.72500 20.89900
H  23.49300 53.04000 21.06600
H  26.67000 53.29500 20.51700
H  25.04300 53.34800 19.74600
H  26.06600 52.05300 19.31400
H  22.48900 50.41600 21.76600
H  23.51900 50.22500 20.30400
H  20.73800 51.02400 20.58900
H  21.68700 50.73700 19.14400
H  21.78700 52.34600 19.79300
H  20.37300 54.65900 24.64100
H  19.33800 54.07900 25.78000
H  19.87200 53.06700 24.33300
H  22.11000 52.00100 30.03100
H  22.28200 55.84800 32.16100
H  22.66100 54.57100 33.28600
H  20.97200 55.09100 33.07300
Mg 0.24600 42.79100 26.06200
C  2.56800 42.20700 28.66000
C  -2.28500 41.88200 28.29200
C  -2.01900 42.42700 23.53500
C  2.77100 43.07900 23.80700
N  0.22400 42.10600 28.21300
C  1.24400 42.08900 29.14800
C  0.73000 41.88200 30.60800
C  -0.82000 41.85300 30.35000
C  -1.02100 42.03600 28.89000
C  -1.45400 40.52400 30.87900
C  1.25800 42.97700 31.54000
C  1.89300 42.50500 32.83900
H  1.28800 41.21400 33.46700
N  -1.84300 42.35400 25.94600
C  -2.69400 42.01700 26.99100
C  -4.04300 41.75700 26.52600
C  -3.95200 41.86800 25.11200
C  -2.54200 42.24200 24.80700
C  -5.24600 41.34700 27.51600
C  -5.10000 41.67700 24.12400
O  -4.96700 42.04700 22.97800
C  -6.56100 41.34700 24.57300
N  0.36800 42.77100 23.93200
C  -0.70000 42.67100 23.12700
C  -0.24000 42.67700 21.62100
C  1.26800 43.09400 21.77800
C  1.49900 43.09300 23.28900
C  -0.47200 41.33000 20.86000
C  1.81900 44.31900 21.06100
C  1.63200 45.71400 21.71000
N  2.27900 42.76100 26.16800
C  3.16500 42.83600 25.09200
C  4.51700 42.67500 25.64600
C  4.35100 42.49000 27.02000
C  2.93800 42.42600 27.32700
C  5.73300 42.71000 24.89700
C  5.04300 42.34700 28.26200
O  6.25300 42.29400 28.49000
C  3.91300 42.25900 29.38600
C  4.13700 40.93600 30.08100
O  3.62400 39.87300 29.80600
O  4.90400 41.18500 31.15300
C  5.13900 40.02900 32.02000
H  -2.97400 41.64500 29.10600
H  -2.71100 42.45000 22.69000
H  3.63800 43.26200 23.16900
H  1.20400 40.94100 30.88900
H  -1.34000 42.71700 30.76500
H  -0.76500 39.94900 31.49700
H  -1.58600 39.77700 30.09600
H  -2.31600 40.74000 31.51100
H  0.45800 43.60800 31.92700
H  1.94400 43.69700 31.09300
H  1.73400 43.22200 33.64500
H  2.92200 42.39800 32.49600
H  -5.46900 40.29000 27.37300
H  -6.11100 41.99400 27.37400
H  -5.01100 41.40200 28.57900
H  -6.62500 40.45700 25.20000
H  -7.23800 41.29300 23.72000
H  -6.87000 42.26700 25.06900
H  -0.85100 43.49600 21.24300
H  1.94600 42.26000 21.59800
H  -1.09000 40.64000 21.43600
H  0.35300 40.67300 20.58700
H  -1.05100 41.58500 19.97200
H  1.49700 44.36300 20.02100
H  2.89300 44.14600 20.99300
H  2.53700 45.99400 22.25000
H  0.81500 45.59600 22.42200
H  1.29700 46.44600 20.97500
H  6.55800 43.14200 25.46300
H  5.56300 43.35900 24.03800
H  5.88700 41.68200 24.56800
H  3.96900 43.13100 30.03700
H  5.85800 40.31200 32.78900
H  5.55600 39.16600 31.50000
H  4.18100 39.76600 32.46900

