158

Mg 54.69100 24.17500 45.69400
C  52.42500 26.78300 44.98600
C  52.58000 21.94100 44.28300
C  57.34400 22.02400 45.69300
C  56.98300 26.76500 46.78700
N  52.74100 24.39800 44.74600
C  51.96700 25.51800 44.52000
C  50.72900 25.17200 43.64200
C  50.69600 23.60500 43.87500
C  52.06600 23.25800 44.39500
C  49.44100 23.12000 44.68100
C  50.81900 25.66000 42.14100
C  52.22300 25.99700 41.57000
H  53.17600 24.79500 41.57400
N  54.97800 22.25500 45.03900
C  53.91300 21.48800 44.53800
C  54.36400 20.11600 44.45200
C  55.78600 20.18900 44.59900
C  56.14100 21.51000 45.21000
C  53.42200 19.05000 44.09200
C  56.64900 19.06700 44.32900
O  56.19500 17.96600 43.95200
C  58.20800 19.22800 44.30200
N  56.93500 24.39800 46.08900
C  57.74100 23.30100 46.19600
C  59.17300 23.76100 46.70300
C  59.02300 25.23400 46.98900
C  57.55300 25.52500 46.52800
C  59.72600 22.92100 47.92200
C  60.13300 26.05600 46.23600
C  59.87600 26.11100 44.68700
N  54.69900 26.32000 45.99400
C  55.69300 27.17700 46.56100
C  55.16100 28.49600 46.47900
C  53.80800 28.39300 46.03500
C  53.63900 27.05000 45.62100
C  55.88800 29.69500 46.88700
C  52.65100 29.11800 45.68300
O  52.38800 30.28600 45.83300
C  51.64800 28.06800 45.03100
C  51.16100 28.62900 43.68800
O  51.85600 29.17100 42.85500
O  49.79800 28.56500 43.75700
C  49.13700 28.94400 42.54900
H  51.92800 21.21300 43.79500
H  58.19700 21.34200 45.71000
H  57.72800 27.52000 47.04900
H  49.86400 25.68900 44.05600
H  50.53900 23.03400 42.96000
H  49.06000 23.95700 45.26700
H  49.67900 22.26600 45.31500
H  48.69000 22.80400 43.95600
H  50.15100 26.52100 42.13000
H  50.23200 24.90300 41.62300
H  52.71800 26.74000 42.19500
H  52.11500 26.37700 40.55400
H  53.92700 18.09400 43.95500
H  52.91700 19.39500 43.19000
H  52.72100 19.00400 44.92600
H  58.71600 18.36800 43.86500
H  58.69300 19.41300 45.26100
H  58.57900 19.90800 43.53500
H  59.88700 23.72900 45.87900
H  59.17300 25.37800 48.05900
H  59.19900 21.97700 48.05900
H  59.73900 23.44500 48.87800
H  60.74500 22.67300 47.62700
H  61.04800 25.49200 46.41800
H  60.19900 27.05900 46.65800
H  60.73000 25.65200 44.19000
H  59.92900 27.15300 44.37100
H  58.95900 25.61800 44.36100
H  56.86700 29.72000 46.40900
H  55.97200 29.85500 47.96200
H  55.29600 30.53500 46.52400
H  50.91200 28.07800 45.83500
H  49.33200 29.88200 42.03000
H  48.07200 28.97800 42.78200
H  49.14400 28.20100 41.75100
Mg 48.60400 35.51500 27.90500
C  46.58200 34.29200 30.49500
C  49.33000 38.19600 30.05700
C  50.11800 37.00000 25.36300
C  47.49800 33.02300 25.82500
N  48.15800 36.03400 30.06600
C  47.39200 35.31400 30.93200
C  47.40900 35.88000 32.41600
C  48.05500 37.30900 32.15600
C  48.58400 37.14900 30.73000
C  47.12100 38.61300 32.23300
C  48.14100 35.01600 33.55300
C  49.52800 35.37600 34.15400
H  49.60600 36.16300 35.49300
N  49.70700 37.30600 27.69400
C  49.77200 38.28000 28.70800
C  50.34400 39.52800 28.08000
C  50.46500 39.28200 26.71500
C  50.04400 37.82400 26.52500
C  50.55100 40.89000 28.84500
C  50.99700 40.14300 25.59200
O  50.97900 39.74200 24.40700
C  51.55200 41.47900 25.92400
N  48.90500 35.02400 25.98500
C  49.63600 35.70400 25.10300
C  49.78300 35.07400 23.72100
C  48.83100 33.85600 23.82100
C  48.28700 33.97500 25.28700
C  49.34300 35.93400 22.64400
C  49.41800 32.42700 23.51200
C  49.16400 32.05200 22.06300
N  47.36900 33.93500 28.06700
C  47.05600 33.00700 27.16000
C  46.05600 32.10700 27.69800
C  45.74300 32.68600 28.99400
C  46.63000 33.70300 29.20900
C  45.37000 31.03500 27.02300
C  44.98400 32.53800 30.19700
O  44.18200 31.71200 30.49500
C  45.48300 33.59900 31.25100
C  45.82600 32.87400 32.47300
O  46.66400 32.05000 32.52300
O  44.93400 33.21300 33.51300
C  45.47000 32.54100 34.77800
H  49.64700 39.06400 30.64000
H  50.53900 37.47200 24.47300
H  47.06100 32.33200 25.10100
H  46.37900 35.94200 32.76800
H  48.98200 37.42400 32.71800
H  47.22500 39.18200 31.30900
H  47.34400 39.17300 33.14100
H  46.06100 38.36100 32.25700
H  48.46800 34.02700 33.23100
H  47.40700 34.75300 34.31400
H  50.18100 35.88300 33.44400
H  50.10500 34.45700 34.26400
H  50.32800 41.68900 28.13800
H  51.62200 40.72700 28.96100
H  49.93700 40.95900 29.74300
H  50.74700 42.14100 26.24400
H  51.88500 41.90000 24.97600
H  52.28500 41.32600 26.71600
H  50.80300 34.73700 23.53900
H  47.91800 33.97800 23.23800
H  48.89900 36.81600 23.10500
H  48.72600 35.47200 21.87300
H  50.23200 36.38000 22.19800
H  48.98600 31.70200 24.20100
H  50.50500 32.44800 23.44000
H  49.03400 32.86900 21.35400
H  48.36700 31.32000 21.93100
H  50.03100 31.58800 21.59200
H  45.16500 30.20900 27.70500
H  45.90500 30.71800 26.12800
H  44.34800 31.31400 26.76400
H  44.68700 34.28900 31.53100
H  45.56600 31.45500 34.77600
H  44.83200 32.90100 35.58500
H  46.47300 32.89700 35.01500

