158

Mg 25.31600 1.78000 30.04100
C  27.59200 1.63700 32.94400
C  22.71200 2.18700 32.36500
C  23.33200 1.36300 27.60300
C  28.13600 1.18000 28.07400
N  25.26100 2.00300 32.31900
C  26.25500 1.91900 33.20300
C  25.73800 2.35900 34.65700
C  24.16000 2.39800 34.57600
C  24.02000 2.22000 32.98600
C  23.41400 1.27100 35.40800
C  26.48400 3.71000 35.06000
C  27.02000 3.71300 36.50500
H  26.40700 4.65400 37.55500
N  23.26200 1.94300 29.98000
C  22.33500 2.10500 31.02800
C  21.05700 2.10100 30.54200
C  21.15400 1.80500 29.11900
C  22.59100 1.66200 28.80400
C  19.85900 2.37000 31.38700
C  20.07700 1.58500 28.09800
O  20.24500 1.28300 26.96500
C  18.69300 1.72100 28.46100
N  25.71600 1.50600 28.11800
C  24.66800 1.35800 27.26300
C  25.12400 1.41500 25.67900
C  26.70000 1.59700 25.90500
C  26.89000 1.49600 27.44500
C  24.71400 0.14100 24.90700
C  27.22500 2.98000 25.43700
C  26.66800 3.51800 24.12800
N  27.40600 1.41800 30.37800
C  28.41300 1.14400 29.47600
C  29.63000 0.87600 30.15500
C  29.38000 1.09100 31.50400
C  28.02000 1.41600 31.60000
C  30.92900 0.64500 29.43000
C  29.96600 1.18500 32.82700
O  31.12300 0.99800 33.21800
C  28.82600 1.64200 33.80400
C  28.73200 0.63900 34.88000
O  28.20200 -0.48000 34.92700
O  29.30500 1.18500 36.03700
C  29.15300 0.35700 37.18000
H  22.03300 2.39900 33.19400
H  22.64100 1.33800 26.75800
H  28.93600 1.08700 27.33700
H  25.99000 1.60100 35.39800
H  23.62200 3.30800 34.83800
H  24.14100 0.90100 36.13200
H  23.15700 0.46700 34.71800
H  22.49800 1.60000 35.89800
H  25.74800 4.51100 34.98100
H  27.25400 3.95200 34.32800
H  28.09500 3.88200 36.56500
H  26.81300 2.76600 37.00400
H  19.90600 2.47700 32.47100
H  19.18100 1.52100 31.30100
H  19.30200 3.24800 31.06100
H  18.54700 2.71400 28.88800
H  18.51800 0.92100 29.18000
H  18.11600 1.65100 27.53900
H  24.61500 2.22300 25.15400
H  27.28700 0.83200 25.39700
H  24.13600 0.28900 23.99500
H  23.97200 -0.32500 25.55500
H  25.50200 -0.60200 24.78300
H  28.29400 2.94300 25.23000
H  26.91800 3.63600 26.25100
H  27.36800 4.21900 23.67300
H  25.82500 4.14900 24.40800
H  26.42000 2.75300 23.39200
H  31.52900 0.00600 30.07800
H  31.47100 1.54200 29.13100
H  30.66100 0.04300 28.56200
H  28.90200 2.64300 34.22900
H  30.06800 0.60000 37.72000
H  29.18900 -0.69500 36.89500
H  28.25800 0.61100 37.74800
Mg -5.30000 25.13300 26.04000
C  -4.03600 26.31000 28.93300
C  -7.35600 23.07400 27.69000
C  -6.34500 23.97500 23.09500
C  -3.00700 27.34800 24.32500
N  -5.71900 24.80800 28.10600
C  -5.10800 25.45600 29.17000
C  -5.63900 24.85600 30.53500
C  -6.49000 23.67200 30.06800
C  -6.55000 23.82800 28.50900
C  -6.13100 22.21400 30.44400
C  -6.46600 26.01100 31.23000
C  -6.31500 26.06000 32.79300
H  -5.72200 24.86900 33.59700
N  -6.66500 23.63300 25.43900
C  -7.46500 23.02100 26.26300
C  -8.41500 22.24700 25.51000
C  -8.13800 22.48100 24.14300
C  -6.97100 23.35600 24.16800
C  -9.39700 21.37800 26.17700
C  -8.85300 22.05400 22.90600
O  -8.48600 22.38300 21.76900
C  -10.08300 21.22500 23.06600
N  -4.74400 25.60500 23.95500
C  -5.32200 24.92600 22.91800
C  -4.60100 25.21200 21.64500
C  -3.72700 26.45000 21.98200
C  -3.77300 26.45000 23.52000
C  -3.81400 23.87400 21.07000
C  -4.24300 27.82000 21.36400
C  -3.11300 28.89500 21.06600
N  -3.78400 26.51200 26.45600
C  -2.93600 27.35700 25.73900
C  -2.05300 28.09000 26.59900
C  -2.48100 27.70600 27.86300
C  -3.50300 26.78300 27.72900
C  -0.98400 29.09200 26.30300
C  -2.20700 28.04800 29.28600
O  -1.40100 28.82200 29.85000
C  -3.29900 27.17700 29.99500
C  -2.55500 26.41700 30.96500
O  -2.04400 25.32300 30.76600
O  -2.61800 27.05400 32.18200
C  -1.85600 26.31400 33.16800
H  -7.94000 22.39500 28.31500
H  -6.62300 23.64000 22.09400
H  -2.45600 28.07000 23.71900
H  -4.88300 24.52800 31.24800
H  -7.53300 23.85600 30.32600
H  -5.51500 21.69000 29.71200
H  -7.10900 21.73400 30.48700
H  -5.73000 22.06600 31.44700
H  -7.52100 26.00500 30.95300
H  -5.99000 26.93100 30.89100
H  -7.29700 26.28100 33.21300
H  -5.59800 26.85200 33.00900
H  -9.73800 20.51400 25.60600
H  -10.19500 22.06900 26.44700
H  -8.99900 21.06200 27.14200
H  -9.69600 20.30800 23.51100
H  -10.45800 20.92800 22.08600
H  -10.69600 21.73600 23.80700
H  -5.28900 25.52100 20.85800
H  -2.68600 26.32300 21.68200
H  -2.96600 23.60500 21.70000
H  -3.36400 24.01600 20.08800
H  -4.39200 22.96300 21.22800
H  -4.96300 28.19500 22.09200
H  -4.86800 27.61700 20.49500
H  -3.48100 29.82300 21.50600
H  -2.98300 29.10800 20.00500
H  -2.14700 28.68600 21.52400
H  -0.57600 29.10100 25.29200
H  -0.11700 29.06000 26.96300
H  -1.49500 30.03400 26.50600
H  -3.90400 27.92000 30.51400
H  -2.34600 25.39200 33.48300
H  -1.71100 26.99400 34.00700
H  -0.84000 26.15300 32.80700

