158

Mg 34.83300 2.14100 29.30400
C  32.62900 3.13100 31.82100
C  37.35900 2.14800 31.56600
C  36.92100 1.77300 26.80900
C  32.18000 2.67100 26.93900
N  34.98200 2.81200 31.40800
C  33.94500 3.05700 32.26400
C  34.45100 3.26100 33.72700
C  36.01600 3.07700 33.59700
C  36.16500 2.60800 32.09100
C  36.84800 4.34300 33.93700
C  33.76300 2.29900 34.76200
C  33.78100 2.68500 36.26800
H  34.49100 3.98600 36.74700
N  36.82500 1.84400 29.21300
C  37.71800 1.84800 30.23100
C  39.06400 1.45900 29.81200
C  38.95200 1.21200 28.42100
C  37.55600 1.59800 28.07100
C  40.17600 1.25400 30.78700
C  39.91000 0.60300 27.47300
O  39.70600 0.55600 26.24900
C  41.17900 0.00000 27.90700
N  34.62200 2.26800 27.20900
C  35.66900 1.93800 26.39100
C  35.22900 1.79000 24.88600
C  33.71400 1.76200 24.96600
C  33.45700 2.27200 26.49500
C  35.92500 2.77600 23.89400
C  32.96300 0.43600 24.82700
C  31.51000 0.60100 24.29400
N  32.76900 2.72200 29.27900
C  31.80200 2.90800 28.28300
C  30.55900 3.21400 28.88100
C  30.82900 3.22000 30.26300
C  32.18400 2.99000 30.43700
C  29.28100 3.55500 28.21400
C  30.15700 3.48400 31.60400
O  28.96800 3.69100 31.86600
C  31.34600 3.40300 32.70700
C  31.46600 4.75600 33.26300
O  32.03000 5.73600 32.75900
O  30.78000 4.85200 34.50400
C  30.94300 6.02800 35.25900
H  38.14900 1.98200 32.30100
H  37.51700 1.57000 25.91700
H  31.35700 2.58800 26.22600
H  34.21400 4.29400 33.98200
H  36.36000 2.27900 34.25400
H  37.80300 4.21600 34.44700
H  36.20800 5.13400 34.32800
H  37.17400 4.77300 32.99100
H  34.29300 1.34700 34.71900
H  32.72300 2.08600 34.51400
H  34.06100 1.83800 36.89400
H  32.74400 2.75700 36.59600
H  41.12200 1.44900 30.28200
H  40.09100 0.30800 31.32100
H  40.09000 1.94300 31.62700
H  41.93700 0.76000 28.09500
H  41.44900 -0.69300 27.11100
H  40.97500 -0.38800 28.90500
H  35.50800 0.78500 24.57100
H  33.36100 2.58100 24.33900
H  36.54700 2.15500 23.24900
H  36.55800 3.42300 24.50000
H  35.20000 3.24000 23.22500
H  32.89700 0.00100 25.82400
H  33.64100 -0.13400 24.19100
H  31.22400 -0.10700 23.51600
H  31.42200 1.60100 23.86900
H  30.88300 0.50600 25.18100
H  29.24100 2.84200 27.39100
H  29.25300 4.51800 27.70500
H  28.37600 3.41800 28.80500
H  31.03500 2.62900 33.40900
H  31.90300 6.52100 35.10400
H  30.71400 5.78800 36.29700
H  30.16800 6.66400 34.83100
Mg 26.52400 50.51900 26.44200
C  24.56000 51.85600 29.07700
C  28.92000 49.85500 28.89500
C  28.64300 49.68500 23.94100
C  24.48700 51.97200 24.17100
N  26.57100 50.66500 28.74300
C  25.62700 51.19400 29.56900
C  26.05600 51.07300 31.09300
C  27.60700 50.62300 30.97400
C  27.72300 50.33900 29.44700
C  28.75200 51.57300 31.51700
C  25.11800 50.09800 31.90000
C  24.75600 50.67300 33.23700
H  25.84900 50.75300 34.30800
N  28.35600 49.74200 26.46600
C  29.20700 49.56600 27.55800
C  30.50500 49.09600 27.02300
C  30.50400 49.14900 25.65900
C  29.10000 49.56400 25.32700
C  31.68900 48.67300 27.97300
C  31.72800 48.87800 24.63500
O  31.58100 48.91300 23.38500
C  33.12800 48.62500 25.12900
N  26.49100 50.65400 24.33400
C  27.51100 50.29900 23.53400
C  27.15700 50.61800 22.09700
C  25.74500 51.14700 22.13500
C  25.52600 51.20500 23.62600
C  28.16400 51.71000 21.54700
C  24.62500 50.41500 21.36800
C  24.20500 51.11800 19.99500
N  24.78700 51.60800 26.57200
C  24.02300 52.15100 25.51100
C  22.87200 52.85100 26.10700
C  23.04700 52.72700 27.44200
C  24.25400 52.06600 27.69300
C  21.85000 53.52100 25.28400
C  22.43600 53.06000 28.66100
O  21.36900 53.57800 28.82500
C  23.43100 52.56700 29.85500
C  23.91000 53.66200 30.69500
O  24.87300 54.40300 30.42100
O  23.22600 53.62900 31.85800
C  23.60700 54.52600 32.92800
H  29.68000 49.71700 29.66700
H  29.31100 49.47400 23.10400
H  23.71900 52.30400 23.46900
H  26.12100 52.08400 31.49600
H  27.67100 49.66600 31.49200
H  28.31600 52.40900 32.06300
H  29.28100 52.00600 30.66700
H  29.49800 51.14100 32.18400
H  25.59000 49.14700 32.14900
H  24.27600 49.91500 31.23200
H  23.90500 50.06100 33.53500
H  24.33700 51.67500 33.14100
H  31.44600 49.12700 28.93300
H  32.63700 49.09200 27.63600
H  31.71400 47.59200 28.10800
H  33.01400 47.87300 25.91100
H  33.63600 49.47800 25.57800
H  33.65700 48.17600 24.28900
H  27.23800 49.69500 21.52300
H  25.82900 52.13800 21.69000
H  28.53100 51.32000 20.59800
H  28.98600 51.86200 22.24700
H  27.83200 52.74200 21.43500
H  23.71800 50.24000 21.94700
H  24.97000 49.38300 21.29300
H  23.88800 50.26100 19.40000
H  24.96400 51.71300 19.48700
H  23.33300 51.71000 20.27500
H  22.21700 53.63500 24.26400
H  21.56900 54.52100 25.61500
H  20.92700 52.94200 25.28800
H  22.84200 51.84900 30.42700
H  23.04000 54.24700 33.81600
H  23.51700 55.53900 32.53700
H  24.67300 54.30600 32.98300

