158

Mg 17.28000 -1.74200 29.52700
C  15.82400 0.75500 31.45500
C  18.83600 -3.05400 32.24900
C  18.66500 -4.13700 27.52900
C  15.71700 -0.19100 26.77300
N  17.28900 -1.21300 31.55600
C  16.60600 -0.19700 32.15100
C  16.77300 -0.25000 33.71700
C  17.96800 -1.22200 33.92100
C  18.08200 -1.88400 32.52900
C  19.28700 -0.45600 34.38100
C  15.46300 -0.83400 34.35700
C  15.32300 -0.62800 35.94000
H  16.49400 0.07300 36.75100
N  18.49300 -3.37800 29.88300
C  19.02300 -3.76100 31.09700
C  19.83400 -4.96000 30.94500
C  19.81000 -5.27200 29.55300
C  19.03500 -4.25900 28.93000
C  20.54400 -5.66000 32.22500
C  20.41400 -6.47900 28.87800
O  20.29300 -6.76500 27.69100
C  21.23100 -7.40400 29.73300
N  17.15600 -2.11100 27.45400
C  17.79500 -3.24700 26.86500
C  17.50100 -3.29200 25.38400
C  16.36100 -2.17100 25.26900
C  16.47800 -1.40200 26.58000
C  18.74000 -3.12700 24.43800
C  14.99600 -2.64400 24.96000
C  14.30800 -1.69700 23.91300
N  16.05300 -0.02900 29.09400
C  15.52900 0.49200 27.97500
C  14.70700 1.62700 28.19400
C  14.82300 1.81600 29.60200
C  15.63000 0.76400 30.07800
C  13.97100 2.48000 27.22400
C  14.37700 2.58300 30.71300
O  13.69500 3.60400 30.80000
C  14.95500 1.82700 31.98800
C  15.75000 2.91000 32.75000
O  16.62900 3.54800 32.25200
O  15.26800 3.07300 34.00100
C  15.90600 4.06300 34.90100
H  19.08800 -3.47500 33.22500
H  19.13200 -4.82000 26.81700
H  15.37800 0.20400 25.81300
H  17.06900 0.73900 34.06800
H  17.60100 -1.95900 34.63600
H  19.12200 0.62200 34.36300
H  20.07400 -0.72600 33.67700
H  19.51900 -0.83100 35.37800
H  15.50000 -1.90700 34.16700
H  14.52600 -0.39500 34.01400
H  15.15500 -1.63000 36.33700
H  14.51100 0.07200 36.13600
H  20.27000 -6.71300 32.28700
H  20.28400 -5.20400 33.18100
H  21.60900 -5.43400 32.17000
H  22.08200 -6.94700 30.23900
H  21.73500 -8.10000 29.06300
H  20.65100 -7.95200 30.47500
H  17.00100 -4.24600 25.21100
H  16.76700 -1.49900 24.51200
H  19.57700 -3.14000 25.13500
H  18.70300 -2.17400 23.91100
H  18.73700 -3.91500 23.68500
H  14.30400 -2.71900 25.79800
H  14.95000 -3.64100 24.52100
H  13.67900 -0.91600 24.34100
H  13.68500 -2.20200 23.17500
H  15.10300 -1.16100 23.39400
H  13.75100 1.92200 26.31400
H  14.63400 3.34300 27.15400
H  13.05400 2.78900 27.72400
H  14.14100 1.40100 32.57400
H  15.47400 5.06300 34.93900
H  16.99200 4.10800 34.83000
H  15.69800 3.70700 35.91000
Mg 9.79400 47.81200 27.87300
C  7.74300 47.10300 30.67800
C  12.36500 48.09900 29.85500
C  11.56400 48.79900 25.15300
C  6.81300 48.23900 26.02000
N  9.97700 47.69800 30.08000
C  9.08100 47.37500 31.06300
C  9.61100 47.53600 32.45800
C  11.06900 47.99400 32.16300
C  11.17600 47.93500 30.57100
C  11.58700 49.44300 32.70500
C  9.40800 46.20100 33.18800
C  10.43000 45.69800 34.28400
H  9.83000 44.98900 35.52700
N  11.69800 48.30400 27.54300
C  12.66900 48.36900 28.48300
C  13.99000 48.51800 27.84300
C  13.79300 48.53700 26.35700
C  12.30900 48.50800 26.28200
C  15.24400 48.40700 28.70000
C  14.75600 48.56200 25.28700
O  14.45000 48.57100 24.10000
C  16.23000 48.39600 25.65300
N  9.18600 48.51600 25.99100
C  10.13500 48.74500 25.03700
C  9.51500 49.13600 23.68300
C  8.06400 48.49100 23.75800
C  7.98400 48.44100 25.34500
C  9.57300 50.68500 23.49000
C  7.95200 47.16400 22.97700
C  6.82700 47.05600 21.88100
N  7.67600 47.65400 28.21100
C  6.64000 47.87700 27.38300
C  5.33300 47.68500 28.09500
C  5.76100 47.27000 29.33400
C  7.19400 47.30400 29.39100
C  4.05300 47.81200 27.51600
C  5.22900 46.89400 30.62200
O  4.10800 46.58000 31.05700
C  6.55100 46.75900 31.58800
C  6.45400 45.35300 32.12400
O  7.13300 44.41000 31.69800
O  5.65500 45.34000 33.20600
C  5.55300 44.18500 34.08200
H  13.20800 48.18800 30.54300
H  12.21200 49.04400 24.30900
H  5.92300 48.34200 25.39600
H  9.09000 48.25400 33.09100
H  11.65600 47.16400 32.55600
H  11.73400 50.03000 31.79900
H  12.51500 49.36000 33.27200
H  10.85100 50.00000 33.28500
H  9.14100 45.40700 32.49100
H  8.46300 46.26100 33.72800
H  10.97600 46.56100 34.66700
H  11.06100 44.92300 33.84800
H  15.88900 47.58600 28.38500
H  15.07400 48.06400 29.72000
H  15.78900 49.35100 28.71000
H  16.39400 49.11300 26.45700
H  16.85600 48.75600 24.83600
H  16.33400 47.34600 25.92500
H  10.08700 48.75300 22.83800
H  7.27800 49.18300 23.45500
H  8.85700 51.10000 22.78100
H  10.55000 50.91300 23.06400
H  9.44500 51.16600 24.45900
H  7.82400 46.40300 23.74700
H  8.88900 46.98300 22.45100
H  5.99900 46.41500 22.18200
H  7.22300 46.69700 20.93100
H  6.37000 48.01800 21.64700
H  3.32800 47.69200 28.32100
H  3.79700 47.00000 26.83700
H  3.98100 48.81700 27.10000
H  6.49100 47.40300 32.46500
H  5.48900 44.62200 35.07900
H  6.29200 43.38400 34.08600
H  4.53900 43.79600 33.99700

