158

Mg 24.80600 -5.23500 46.18800
C  26.71600 -2.81800 44.74500
C  22.20000 -4.44300 44.08200
C  23.24500 -8.13900 47.03600
C  27.75800 -6.38400 47.97900
N  24.55800 -3.85900 44.56700
C  25.43800 -2.92800 44.16400
C  24.82400 -1.96000 43.12700
C  23.33100 -2.44800 43.03500
C  23.35000 -3.67800 43.91500
C  22.24100 -1.31900 43.24500
C  25.75000 -2.27600 41.84200
C  25.89000 -1.13700 40.85000
H  25.35900 -1.30600 39.44700
N  22.83900 -6.08900 45.84000
C  21.90300 -5.50700 44.95400
C  20.73200 -6.22800 45.04700
C  21.04700 -7.46600 45.76900
C  22.42000 -7.29600 46.22700
C  19.34400 -5.84300 44.45100
C  20.06500 -8.62100 45.96200
O  18.97100 -8.73900 45.40200
C  20.53200 -9.76700 46.76600
N  25.41000 -7.06000 47.23700
C  24.56600 -8.06300 47.59400
C  25.21300 -9.10800 48.51100
C  26.67100 -8.56600 48.81400
C  26.61300 -7.21300 47.96800
C  24.47500 -9.53400 49.75900
C  27.74800 -9.64400 48.38400
C  29.00900 -9.89700 49.27100
N  26.80600 -4.70400 46.37800
C  27.81300 -5.18400 47.18200
C  29.00500 -4.39200 47.02300
C  28.63800 -3.46100 46.04600
C  27.25800 -3.72000 45.71600
C  30.33500 -4.42300 47.80400
C  29.05700 -2.23100 45.32800
O  30.12300 -1.65300 45.31700
C  27.89700 -1.79100 44.37100
C  27.65500 -0.38300 44.50700
O  27.27000 0.16600 45.54000
O  27.88900 0.15700 43.30600
C  27.95000 1.67500 43.29600
H  21.46200 -4.07400 43.36700
H  22.86500 -9.15900 47.11500
H  28.55700 -6.67700 48.66200
H  25.01300 -0.94500 43.47500
H  23.26700 -2.79700 42.00500
H  22.81500 -0.50700 43.69000
H  21.50000 -1.68400 43.95600
H  21.81800 -1.06200 42.27400
H  25.14400 -3.01900 41.32300
H  26.67000 -2.77800 42.14100
H  26.93100 -0.88200 40.65200
H  25.43900 -0.25700 41.30900
H  19.37500 -5.14200 43.61700
H  18.77900 -5.28200 45.19500
H  18.66800 -6.63600 44.13100
H  19.76500 -10.54200 46.78000
H  20.80100 -9.57100 47.80400
H  21.32800 -10.33500 46.28500
H  25.27300 -9.98200 47.86300
H  26.70100 -8.29500 49.87000
H  23.43500 -9.22500 49.64500
H  24.93200 -9.10100 50.64800
H  24.48800 -10.61900 49.86200
H  28.01800 -9.42100 47.35200
H  27.35500 -10.66100 48.38400
H  29.05800 -10.89300 49.71000
H  28.96700 -9.20600 50.11300
H  29.91300 -9.62000 48.72900
H  30.98600 -5.16400 47.33900
H  30.16100 -4.82000 48.80400
H  30.71600 -3.40500 47.72700
H  28.32200 -2.04600 43.40000
H  27.58700 2.11700 44.22300
H  27.28700 2.01000 42.49900
H  28.95800 2.04200 43.10100
Mg 17.83600 -1.70500 28.51100
C  16.57000 0.15100 31.16300
C  19.62700 -3.62100 30.66500
C  19.40100 -3.05400 25.85500
C  15.89300 0.23000 26.35800
N  18.04500 -1.73700 30.67900
C  17.45000 -0.83600 31.55100
C  17.95300 -1.06700 32.97100
C  19.03700 -2.17400 32.76100
C  18.94500 -2.54000 31.29600
C  20.50500 -1.80900 33.21200
C  16.75600 -1.53600 33.91400
C  16.60300 -0.74600 35.29200
H  17.84000 -0.55200 36.15800
N  19.06900 -3.39400 28.30500
C  19.71300 -4.05000 29.29400
C  20.59600 -5.01100 28.72800
C  20.64900 -4.85500 27.29900
C  19.69000 -3.70400 27.07900
C  21.25100 -6.03700 29.63800
C  21.43900 -5.59500 26.28500
O  21.17400 -5.40300 25.10600
C  22.48400 -6.64600 26.61300
N  17.62800 -1.47100 26.37000
C  18.37400 -2.10400 25.50100
C  18.15900 -1.57600 24.04800
C  16.90100 -0.73800 24.27000
C  16.80500 -0.62300 25.73700
C  19.41300 -0.83800 23.41600
C  15.68400 -1.49300 23.59900
C  14.54800 -0.69400 22.87600
N  16.52400 -0.03000 28.64400
C  15.81400 0.63900 27.70800
C  14.96600 1.61800 28.33800
C  15.30500 1.48500 29.70900
C  16.21000 0.47300 29.81900
C  14.05200 2.60700 27.63200
C  15.10500 2.11600 31.03900
O  14.47200 3.14700 31.35700
C  15.86500 1.17100 32.04400
C  16.75400 2.12100 32.88900
O  17.89100 2.49800 32.62000
O  16.01100 2.67200 33.81800
C  16.73300 3.72000 34.57700
H  20.22400 -4.33800 31.23100
H  20.03100 -3.30800 25.00000
H  15.36100 0.76300 25.56700
H  18.39900 -0.13700 33.32500
H  18.69800 -3.08400 33.25600
H  20.57700 -0.78600 33.58300
H  21.04100 -1.87100 32.26500
H  20.90200 -2.48300 33.97100
H  16.97700 -2.57200 34.17000
H  15.81100 -1.45900 33.37700
H  15.89000 -1.22600 35.96100
H  16.22800 0.26400 35.12100
H  20.74000 -6.22900 30.58100
H  22.23700 -5.64800 29.89400
H  21.35000 -7.00300 29.14400
H  23.01300 -6.99600 25.72600
H  22.05000 -7.47700 27.16900
H  23.34100 -6.26500 27.16700
H  18.00000 -2.53200 23.54900
H  16.90400 0.26100 23.83400
H  20.10000 -0.73400 24.25500
H  19.11600 0.12500 23.00100
H  19.84000 -1.50200 22.66400
H  15.23000 -2.14000 24.34900
H  16.03500 -2.22900 22.87500
H  14.83700 0.34500 22.71800
H  13.64100 -0.80500 23.47100
H  14.25300 -1.09200 21.90500
H  14.00700 3.56800 28.14300
H  13.01900 2.28300 27.50100
H  14.32400 2.84700 26.60500
H  15.10500 0.81300 32.73800
H  15.90100 4.01000 35.21800
H  16.99800 4.50900 33.87400
H  17.53800 3.22800 35.12300

