158

Mg 17.22000 -0.58600 27.72400
C  15.89800 1.39500 30.39900
C  19.31100 -2.10900 29.90500
C  18.64700 -1.94000 24.98100
C  15.17600 1.55600 25.51100
N  17.67300 -0.25600 29.80500
C  16.88300 0.44000 30.76500
C  17.33500 0.07500 32.15600
C  18.60700 -0.85400 32.04200
C  18.54800 -1.12500 30.48000
C  19.96900 -0.20400 32.37500
C  16.15200 -0.54900 33.04200
C  16.09200 -0.21200 34.58000
H  17.30200 0.58400 35.10200
N  18.74800 -1.76700 27.49600
C  19.43100 -2.38500 28.54400
C  20.33900 -3.31300 28.01900
C  20.21300 -3.28000 26.60700
C  19.15100 -2.26900 26.27200
C  21.22500 -4.07500 28.90000
C  20.96100 -4.04800 25.58000
O  20.80800 -3.93400 24.41900
C  21.91300 -5.07400 26.00300
N  16.91500 -0.19200 25.48300
C  17.62900 -1.02000 24.66800
C  17.11500 -0.75000 23.26800
C  15.95200 0.25200 23.41500
C  15.94600 0.50600 24.88000
C  18.29500 -0.27200 22.29400
C  14.56800 -0.22300 22.89100
C  14.58900 -0.41900 21.35800
N  15.86600 1.18800 27.84900
C  15.11000 1.87000 26.85700
C  14.12900 2.74900 27.54900
C  14.46700 2.62700 28.89500
C  15.54800 1.77300 29.00800
C  13.23100 3.81000 26.75700
C  14.14000 3.07800 30.24200
O  13.32200 3.94600 30.63800
C  15.01600 2.24200 31.25200
C  15.71400 3.22100 32.13000
O  16.82300 3.73900 31.89700
O  14.94500 3.46900 33.20500
C  15.50200 4.39200 34.19500
H  19.82700 -2.64100 30.70700
H  19.07100 -2.42400 24.09800
H  14.38000 1.97600 24.89300
H  17.65300 1.03300 32.56700
H  18.53300 -1.83200 32.51700
H  19.87700 0.81700 32.74700
H  20.62200 -0.18900 31.50200
H  20.37000 -0.78900 33.20300
H  16.21900 -1.63700 33.07700
H  15.20500 -0.36400 32.53600
H  16.10900 -1.16100 35.11600
H  15.21600 0.37400 34.85900
H  22.20800 -4.21700 28.45000
H  20.64500 -4.95700 29.16900
H  21.45000 -3.59300 29.85200
H  21.36100 -5.64300 26.75100
H  22.82100 -4.56700 26.33000
H  22.07400 -5.76800 25.17800
H  16.85700 -1.78500 23.04000
H  16.26600 1.09900 22.80400
H  19.20400 -0.02200 22.84100
H  17.90400 0.56300 21.71400
H  18.54200 -1.06100 21.58400
H  13.80200 0.45800 23.26500
H  14.24000 -1.11600 23.42300
H  13.98000 0.35700 20.89500
H  14.12600 -1.40200 21.27200
H  15.62300 -0.52200 21.02700
H  13.06600 3.52500 25.71800
H  13.57200 4.84300 26.82800
H  12.24200 3.83600 27.21400
H  14.28300 1.69000 31.84000
H  15.75300 5.39600 33.85500
H  16.35100 4.03000 34.77500
H  14.68900 4.59100 34.89300
Mg 26.56000 49.52700 25.83000
C  24.47000 50.79300 28.36000
C  28.74100 48.49200 28.10700
C  28.65800 49.02300 23.23900
C  24.42400 51.01800 23.50000
N  26.51600 49.50300 28.10300
C  25.59200 50.12400 28.97300
C  26.05100 50.03100 30.41700
C  27.49100 49.36700 30.21900
C  27.57100 49.05000 28.72400
C  28.61500 50.27300 30.79100
C  25.06800 49.21900 31.30400
C  24.77500 49.81600 32.68200
H  25.94400 50.40000 33.49100
N  28.42200 48.81200 25.69500
C  29.13300 48.33000 26.77800
C  30.37300 47.91700 26.22400
C  30.44500 48.17000 24.82300
C  29.13300 48.63800 24.47900
C  31.48600 47.36400 27.12100
C  31.58100 48.10900 23.82200
O  31.51000 48.54000 22.71400
C  32.86800 47.59800 24.28400
N  26.58600 50.10900 23.68800
C  27.49800 49.65300 22.85300
C  27.09600 49.89600 21.35700
C  25.61900 50.32700 21.49800
C  25.56900 50.51800 22.94600
C  28.03900 50.87200 20.54900
C  24.46900 49.39600 21.00000
C  23.21000 50.05300 20.30800
N  24.70500 50.56700 25.86800
C  24.00600 51.09000 24.87000
C  22.75600 51.71300 25.33900
C  22.94600 51.69900 26.73000
C  24.11600 50.95500 26.98200
C  21.91100 52.61500 24.60400
C  22.40300 52.19900 27.95000
O  21.45900 52.98200 28.07900
C  23.32700 51.64400 29.12700
C  23.91100 52.86500 29.82600
O  24.94200 53.35300 29.61300
O  23.21700 53.05100 30.99500
C  24.03100 53.79000 32.02700
H  29.39200 48.02900 28.85200
H  29.27900 48.92800 22.34500
H  23.63600 51.29300 22.79500
H  26.14800 51.06000 30.76100
H  27.50900 48.39600 30.71300
H  29.29100 50.75500 30.08400
H  29.26600 49.76200 31.50100
H  28.25000 51.11900 31.37200
H  25.29600 48.15400 31.36500
H  24.13000 49.29700 30.75500
H  24.29400 49.07600 33.32100
H  23.96700 50.49800 32.41400
H  31.85600 46.43400 26.68800
H  31.20000 47.12600 28.14500
H  32.32100 48.06400 27.15500
H  32.69300 46.56300 24.57500
H  33.12200 48.10200 25.21700
H  33.62500 47.52600 23.50200
H  27.10600 48.93200 20.84900
H  25.47500 51.27300 20.97500
H  28.81200 51.23600 21.22600
H  27.47100 51.60700 19.97800
H  28.64100 50.22000 19.91700
H  24.19900 48.68500 21.78100
H  25.02100 48.72800 20.33900
H  23.13400 49.90300 19.23100
H  23.13400 51.07100 20.68700
H  22.36200 49.50600 20.71900
H  22.57500 53.41700 24.28000
H  21.31500 53.14600 25.34600
H  21.41400 52.08800 23.79000
H  22.70900 51.01600 29.76900
H  23.62100 53.65500 33.02800
H  23.97900 54.86800 31.87900
H  25.09400 53.55000 32.00500

