158

Mg 17.77400 -1.90000 26.11200
C  16.81400 -0.08100 29.04200
C  19.50000 -4.00600 28.28500
C  18.72500 -3.47800 23.37700
C  16.31200 0.62400 24.19400
N  18.24600 -1.82500 28.39500
C  17.61800 -1.16700 29.36000
C  17.96500 -1.68000 30.78400
C  19.09100 -2.76300 30.43900
C  18.89000 -2.89900 28.94800
C  20.56100 -2.41300 30.85300
C  16.75700 -2.28500 31.60300
C  16.76100 -1.95500 33.14800
H  18.10400 -1.98200 33.84600
N  18.83900 -3.64000 25.87300
C  19.46900 -4.40200 26.84200
C  20.09300 -5.55800 26.14700
C  19.88000 -5.41000 24.66000
C  19.20300 -4.15300 24.60900
C  20.85100 -6.66600 26.86000
C  20.31100 -6.33900 23.53000
O  19.97000 -6.09600 22.38100
C  21.09900 -7.60900 23.92700
N  17.72500 -1.36700 24.07300
C  18.08800 -2.22400 23.08500
C  18.00500 -1.52700 21.70400
C  17.00200 -0.32400 21.99000
C  17.02300 -0.32800 23.52200
C  19.37100 -1.16800 21.10600
C  15.59400 -0.42300 21.39400
C  15.19300 0.74700 20.43100
N  16.74600 -0.20800 26.48100
C  16.07600 0.63100 25.58900
C  15.29200 1.54700 26.27100
C  15.56700 1.35600 27.63100
C  16.45700 0.22200 27.67900
C  14.38600 2.55700 25.61500
C  15.38200 1.86200 28.99300
O  14.83500 2.90400 29.40100
C  16.12500 0.87700 29.94400
C  17.11500 1.65800 30.73300
O  17.97600 2.40100 30.25700
O  17.06300 1.43900 32.12200
C  17.90200 2.18800 33.03300
H  20.05100 -4.65500 28.96900
H  19.04600 -3.93800 22.44000
H  15.83500 1.40500 23.59800
H  18.46500 -0.87100 31.31600
H  18.89600 -3.72400 30.91400
H  20.61500 -1.36400 31.14700
H  21.26300 -2.39400 30.01900
H  20.94500 -3.04300 31.65500
H  16.81200 -3.37300 31.59800
H  15.76000 -2.04100 31.23700
H  16.19100 -2.76400 33.60600
H  16.36000 -0.97600 33.41300
H  20.99300 -6.62700 27.94000
H  21.84700 -6.62400 26.42000
H  20.48700 -7.64800 26.55900
H  20.51600 -8.18700 24.64400
H  22.05800 -7.25100 24.29900
H  21.18700 -8.19500 23.01100
H  17.46800 -2.25300 21.09300
H  17.40800 0.63600 21.67100
H  19.67900 -0.14000 21.29800
H  19.18700 -1.32300 20.04300
H  20.20900 -1.74300 21.49900
H  14.83200 -0.53400 22.16500
H  15.46500 -1.38700 20.90200
H  14.28600 1.22700 20.79800
H  15.06800 0.31700 19.43700
H  15.97000 1.49100 20.25600
H  13.46600 2.02200 25.38300
H  14.91500 3.04800 24.79800
H  14.09400 3.31300 26.34500
H  15.48200 0.32600 30.63100
H  17.26600 2.90200 33.55800
H  18.69500 2.83200 32.65400
H  18.42200 1.39900 33.57500
Mg 30.39400 59.15800 40.57600
C  27.46100 57.57700 39.61700
C  32.10900 56.38300 39.51700
C  33.35300 60.92400 40.47800
C  28.58900 62.07500 41.06000
N  29.82000 57.23600 39.63200
C  28.57400 56.79200 39.32100
C  28.66200 55.43900 38.57200
C  30.05500 54.91700 38.89800
C  30.73500 56.23500 39.45500
C  29.95900 53.79700 39.95100
C  28.45100 55.69300 37.04900
C  27.40100 54.81700 36.39100
H  26.91100 55.16100 34.99700
N  32.43700 58.71200 40.14800
C  32.88300 57.47500 39.80100
C  34.33300 57.49400 39.54800
C  34.70600 58.84000 39.79200
C  33.46300 59.56000 40.11000
C  35.13500 56.28000 39.14600
C  36.12200 59.33800 39.66000
O  37.02600 58.53100 39.49700
C  36.46500 60.82300 39.86700
N  30.85400 61.17000 40.79000
C  32.12600 61.61000 40.72400
C  32.18800 63.09300 41.06700
C  30.71300 63.55100 41.63500
C  29.98700 62.24500 41.13000
C  33.36000 63.68200 41.97300
C  30.34300 64.98600 41.12500
C  29.98600 66.04800 42.25900
N  28.46200 59.70800 40.51100
C  27.80100 60.93900 40.72300
C  26.35800 60.86100 40.56400
C  26.16700 59.53800 40.07800
C  27.49900 58.91300 40.05300
C  25.34800 62.03300 40.60700
C  25.20500 58.49900 39.65200
O  24.00400 58.52400 39.43100
C  26.00900 57.19100 39.29000
C  25.46400 56.13300 40.15600
O  25.77100 55.82400 41.32500
O  24.47500 55.44400 39.49600
C  23.49900 54.57700 40.24900
H  32.50700 55.41800 39.19700
H  34.15400 61.65300 40.34100
H  27.98700 62.95000 41.31400
H  27.85000 54.80300 38.92400
H  30.48400 54.65400 37.93200
H  30.39300 54.12600 40.89600
H  30.45000 52.89100 39.59800
H  28.91800 53.59300 40.20000
H  29.42000 55.70800 36.55100
H  28.17800 56.73300 36.86600
H  26.53000 54.61800 37.01600
H  27.77000 53.79300 36.34700
H  34.59500 55.38700 39.45800
H  36.01900 56.22500 39.78100
H  35.26000 56.40100 38.07000
H  35.82700 61.46400 39.25900
H  37.49200 60.87500 39.50500
H  36.49200 61.18200 40.89600
H  32.43900 63.59400 40.13300
H  30.76800 63.51800 42.72400
H  32.86600 64.21400 42.78700
H  33.94500 64.40000 41.39900
H  34.10200 62.93500 42.25200
H  29.51000 64.90300 40.42600
H  31.21100 65.39700 40.61000
H  28.92800 66.30000 42.19100
H  30.58300 66.95600 42.16900
H  30.23100 65.67000 43.25100
H  24.31200 61.70200 40.68700
H  25.48300 62.71600 39.76900
H  25.57900 62.56900 41.52800
H  25.97000 56.86700 38.25000
H  22.56900 55.03400 40.58600
H  23.92700 54.13700 41.14900
H  23.27300 53.68200 39.66900

