158

Mg 1.46600 7.99800 24.85300
C  2.10700 9.72300 28.00400
C  1.30500 5.10100 26.76600
C  1.35700 6.32000 21.97300
C  1.81900 10.99900 23.28200
N  2.01700 7.45700 27.13000
C  1.99000 8.29600 28.16000
C  1.84300 7.60000 29.52800
C  1.78100 6.14000 29.07200
C  1.67100 6.19100 27.53600
C  2.89400 5.21100 29.71100
C  0.57600 8.08800 30.42500
C  0.91900 8.43700 31.86200
H  1.97900 7.75300 32.64800
N  1.40700 5.93100 24.39500
C  1.24200 4.95200 25.31500
C  1.01100 3.69400 24.60100
C  0.99500 3.98400 23.22000
C  1.31200 5.44300 23.12700
C  0.69400 2.45900 25.39300
C  0.73200 3.02900 21.99500
O  0.47800 3.56700 20.89300
C  0.46300 1.55700 22.09400
N  1.73100 8.54000 22.94500
C  1.48300 7.65900 21.93100
C  1.38000 8.36600 20.56400
C  1.27400 9.87300 20.99800
C  1.64000 9.82500 22.44200
C  2.67200 8.12400 19.74100
C  -0.09200 10.54300 20.64000
C  -0.22100 11.06500 19.17400
N  1.89300 9.95800 25.45700
C  1.99600 11.06000 24.68800
C  2.11900 12.25200 25.50900
C  2.18300 11.77800 26.82600
C  2.07900 10.34600 26.71300
C  2.15900 13.71500 25.06400
C  2.26700 12.13100 28.18100
O  2.30400 13.25000 28.69900
C  2.09600 10.87700 28.96000
C  3.26500 10.72800 29.89300
O  4.15500 9.89400 29.79900
O  3.13100 11.50700 31.03900
C  4.13900 11.31600 32.04200
H  0.99000 4.25100 27.37500
H  1.43800 5.74500 21.04800
H  1.82000 11.97800 22.79800
H  2.70600 7.80600 30.16100
H  0.88000 5.66000 29.45500
H  2.46200 4.54000 30.45300
H  3.54100 5.94500 30.19200
H  3.53100 4.71300 28.98000
H  -0.15100 7.27600 30.44800
H  0.18600 8.99100 29.95700
H  -0.04800 8.28600 32.34200
H  1.08600 9.51400 31.83200
H  0.15200 1.67300 24.86800
H  0.02300 2.68100 26.22300
H  1.59000 1.89200 25.64600
H  0.52400 1.20300 21.06500
H  -0.53100 1.43900 22.52600
H  1.19300 1.00200 22.68300
H  0.53500 8.00100 19.98100
H  2.04000 10.40900 20.43800
H  2.66000 8.42700 18.69400
H  2.91700 7.06200 19.74500
H  3.53100 8.62400 20.19000
H  -0.33200 11.40500 21.26300
H  -0.82400 9.76700 20.85900
H  0.60600 10.73800 18.54400
H  -0.25000 12.15300 19.12900
H  -1.01400 10.50400 18.67700
H  2.66900 14.32600 25.80800
H  1.13400 13.98700 24.81100
H  2.67500 13.81600 24.11000
H  1.18800 10.91300 29.56200
H  5.15300 11.27100 31.64400
H  3.87800 10.39500 32.56300
H  4.24000 12.01900 32.87000
Mg 41.23700 40.30200 26.89300
C  40.62200 43.14600 29.02300
C  42.02700 38.44800 29.72300
C  42.17500 37.90700 24.83100
C  40.85300 42.52700 24.14600
N  41.40200 40.76100 29.11600
C  41.00400 41.98500 29.78000
C  41.05000 41.74900 31.22200
C  41.51500 40.31100 31.46500
C  41.64900 39.78000 30.01200
C  42.68200 40.02500 32.46300
C  39.84200 42.27500 31.97300
C  39.59400 41.61500 33.36400
H  38.83800 42.51100 34.33500
N  41.84800 38.42700 27.23500
C  42.09200 37.86000 28.46400
C  42.50500 36.50500 28.25400
C  42.49000 36.33500 26.82400
C  42.24800 37.59300 26.20900
C  42.88900 35.55400 29.35600
C  42.87000 34.99200 26.04600
O  42.98400 34.89200 24.81600
C  43.08000 33.73000 26.81700
N  41.27400 40.19700 24.81900
C  41.83000 39.15400 24.19600
C  41.82600 39.35500 22.67600
C  41.08600 40.71500 22.46700
C  41.03100 41.18600 23.92000
C  43.18600 39.24500 22.00000
C  39.59700 40.64400 22.03300
C  38.59800 39.90200 22.95000
N  40.82300 42.41300 26.60400
C  40.75800 43.17200 25.40400
C  40.37300 44.47200 25.76700
C  40.25100 44.51300 27.13800
C  40.60400 43.27600 27.59300
C  40.08300 45.52100 24.84400
C  39.93300 45.39000 28.31500
O  39.42300 46.51300 28.39800
C  40.31100 44.59300 29.53400
C  41.49600 45.14300 30.22100
O  42.69300 44.97700 29.91000
O  41.10100 45.80700 31.33100
C  42.21000 46.26800 32.20400
H  42.15200 37.78000 30.57800
H  42.36200 37.12500 24.09300
H  40.68100 43.14500 23.26300
H  41.81000 42.43500 31.59500
H  40.69100 39.75600 31.91500
H  43.48000 39.69300 31.79900
H  42.32100 39.33100 33.22200
H  42.92400 40.91600 33.04200
H  38.99500 42.04600 31.32600
H  39.87600 43.36100 32.06600
H  40.46300 41.11600 33.79100
H  39.02900 40.77100 32.96700
H  42.44200 34.56400 29.44400
H  42.57800 35.82700 30.36400
H  43.97200 35.55300 29.48000
H  43.91200 33.83100 27.51400
H  43.33800 32.98200 26.06700
H  42.17700 33.46200 27.36600
H  41.28000 38.55900 22.16900
H  41.63700 41.36700 21.78900
H  44.07500 39.23000 22.63100
H  43.38900 40.08100 21.33100
H  43.24300 38.27600 21.50400
H  39.60100 40.09100 21.09400
H  39.13600 41.63100 22.05500
H  39.10000 39.04700 23.40200
H  37.82900 39.45100 22.32300
H  38.06400 40.62800 23.56300
H  40.96500 45.98800 24.40600
H  39.65900 46.37800 25.36600
H  39.43300 45.17500 24.04100
H  39.49800 44.47400 30.25100
H  42.58200 45.45000 32.82000
H  41.87900 47.05400 32.88400
H  42.91700 46.88700 31.65200

