158

Mg 47.57900 24.57000 29.09400
C  48.45400 26.96400 31.53200
C  46.35500 22.60900 31.64100
C  46.77800 22.39800 26.78600
C  48.96000 26.58200 26.71000
N  47.42500 24.84400 31.32300
C  47.74800 25.88400 32.09400
C  47.30900 25.75100 33.59000
C  46.82000 24.20400 33.65500
C  46.89900 23.85000 32.14200
C  47.70100 23.31700 34.62500
C  46.15800 26.73700 33.96700
C  46.66200 27.71300 35.07900
H  47.08000 26.98100 36.41700
N  46.72300 22.69700 29.15200
C  46.25700 22.09700 30.35200
C  45.65100 20.85300 29.93600
C  45.59000 20.90200 28.47600
C  46.34300 22.05500 28.09100
C  45.06900 19.77600 30.91300
C  44.90900 19.89100 27.46300
O  45.10600 19.96000 26.23500
C  43.91600 18.84500 27.88700
N  48.09400 24.38000 27.10800
C  47.62100 23.39300 26.34300
C  48.09500 23.52300 24.87300
C  48.65500 24.98400 24.83500
C  48.57100 25.34600 26.31000
C  49.25800 22.50800 24.63400
C  47.89400 25.93000 23.97500
C  48.79500 27.01500 23.35200
N  48.53500 26.36500 29.03700
C  49.04300 27.11700 27.99600
C  49.48700 28.40700 28.39000
C  49.29800 28.33400 29.76900
C  48.72800 27.08000 30.13400
C  50.23700 29.39800 27.56900
C  49.63500 29.04400 30.97900
O  50.12000 30.15700 31.08700
C  49.04000 28.27700 32.14500
C  50.03000 27.98900 33.19800
O  50.81300 27.08800 33.31700
O  49.86300 28.98900 34.13500
C  50.62200 28.73800 35.42100
H  45.97800 21.92300 32.40200
H  46.39500 21.93600 25.87400
H  49.20600 27.27700 25.90400
H  48.26400 25.89900 34.09400
H  45.75100 24.23900 33.86800
H  48.57700 22.88700 34.13900
H  46.99100 22.58900 35.01700
H  47.98800 23.89500 35.50300
H  45.28000 26.18100 34.29600
H  45.91400 27.34200 33.09300
H  45.89600 28.48300 35.16600
H  47.53900 28.16800 34.61900
H  45.18800 18.77300 30.50200
H  44.01400 19.95600 31.12000
H  45.47200 19.92500 31.91500
H  43.11300 19.28300 28.48000
H  44.50500 18.16900 28.50700
H  43.51600 18.22000 27.08900
H  47.21700 23.20400 24.31100
H  49.72500 25.06600 24.64600
H  50.11000 23.11800 24.33500
H  48.90900 21.87600 23.81700
H  49.41500 21.98600 25.57800
H  47.03900 26.41600 24.44500
H  47.47000 25.36800 23.14300
H  48.37200 28.01900 23.40500
H  48.94700 26.76800 22.30100
H  49.83400 27.05900 23.67600
H  50.34400 30.29000 28.18600
H  49.76100 29.64000 26.61800
H  51.22000 28.99700 27.32300
H  48.11900 28.75000 32.48600
H  50.13100 27.95100 35.99300
H  50.72900 29.58700 36.09600
H  51.65800 28.44600 35.25500
Mg -1.54100 34.59900 25.88700
C  -3.17500 32.61800 28.44800
C  -0.18400 36.52000 28.26900
C  -0.21500 36.20800 23.40500
C  -3.49500 32.77900 23.47200
N  -1.57900 34.58500 28.13100
C  -2.34500 33.72900 28.91000
C  -2.12200 34.04300 30.42200
C  -1.36600 35.38600 30.34600
C  -0.98400 35.53700 28.89800
C  -2.18000 36.55300 30.77600
C  -1.28100 32.92600 31.19400
C  -1.98100 32.13100 32.29300
H  -1.23100 32.14000 33.64000
N  -0.26900 36.07800 25.81100
C  0.18200 36.79500 26.89500
C  1.07300 37.79700 26.42400
C  1.21800 37.61800 25.02100
C  0.18900 36.63700 24.68500
C  1.83700 38.69900 27.38200
C  2.21700 38.11700 23.99200
O  2.21600 37.93300 22.73400
C  3.21200 39.01200 24.56000
N  -1.88900 34.60600 23.79100
C  -1.21500 35.42200 22.96600
C  -1.63100 35.33900 21.52800
C  -2.49000 34.07500 21.54700
C  -2.67100 33.78800 23.05000
C  -2.42900 36.60400 21.03800
C  -1.87400 32.86600 20.83700
C  -0.53900 32.46200 21.40200
N  -3.06600 33.08900 25.92400
C  -3.79300 32.46500 24.83800
C  -4.58800 31.41800 25.39300
C  -4.33000 31.38900 26.77300
C  -3.46200 32.44500 27.02200
C  -5.17600 30.33200 24.61300
C  -4.62800 30.71800 28.07200
O  -5.34000 29.76700 28.21900
C  -3.86100 31.43500 29.17600
C  -4.90700 31.73500 30.21700
O  -5.47800 32.77500 30.25300
O  -4.92400 30.80300 31.18300
C  -5.54400 30.99000 32.49400
H  0.27700 37.13600 29.04400
H  -0.15600 36.91600 22.57600
H  -4.09400 32.26900 22.71500
H  -3.14400 34.16500 30.78000
H  -0.41200 35.39600 30.87200
H  -3.04000 36.61000 30.10900
H  -1.57000 37.45200 30.68800
H  -2.47400 36.32900 31.80100
H  -0.37400 33.36900 31.60400
H  -0.99900 32.23600 30.39800
H  -2.14100 31.12200 31.91300
H  -2.92000 32.62000 32.54900
H  2.92400 38.64800 27.32300
H  1.59600 38.67200 28.44400
H  1.77400 39.76600 27.17200
H  3.68100 38.49000 25.39500
H  2.69900 39.91000 24.90300
H  4.06700 39.19700 23.91000
H  -0.75000 35.31200 20.88600
H  -3.47200 34.23000 21.09900
H  -1.75500 37.42100 20.78000
H  -3.12500 36.97300 21.79100
H  -2.95500 36.33600 20.12100
H  -1.68200 33.17500 19.80900
H  -2.53400 32.00700 20.95400
H  0.18000 32.37700 20.58700
H  -0.64000 31.47500 21.85400
H  -0.15800 33.16300 22.14400
H  -4.66500 30.03700 23.69600
H  -6.16000 30.61800 24.24000
H  -5.45500 29.49300 25.25100
H  -3.04800 30.89000 29.65700
H  -4.90200 31.70700 33.00600
H  -5.72400 30.06100 33.03500
H  -6.53800 31.43500 32.53000

