158

Mg -3.18200 17.47100 26.75100
C  -2.97100 15.53100 29.77600
C  -3.19800 20.21600 28.69100
C  -3.53900 19.14100 23.98500
C  -3.38900 14.40900 24.94600
N  -2.98600 17.84900 28.95900
C  -2.87400 16.94300 29.96700
C  -2.83000 17.59200 31.35100
C  -2.70100 19.11800 30.96100
C  -3.09200 19.09800 29.49300
C  -3.57000 20.17800 31.73300
C  -1.70300 16.97700 32.35500
C  -1.07300 17.94400 33.45500
H  -1.01700 17.46900 34.87200
N  -3.18700 19.46600 26.41200
C  -3.28800 20.48100 27.30300
C  -3.36000 21.79300 26.57800
C  -3.27700 21.48600 25.19700
C  -3.31900 19.93600 25.16800
C  -3.29800 23.17400 27.08400
C  -3.04500 22.29300 23.91600
O  -2.88900 21.81500 22.77900
C  -3.00400 23.77200 24.01800
N  -3.52600 16.84800 24.79300
C  -3.74800 17.72900 23.77500
C  -3.93100 17.10600 22.42100
C  -3.74800 15.59000 22.76700
C  -3.52600 15.57900 24.27200
C  -5.09200 17.61000 21.58200
C  -2.74000 14.74700 21.84000
C  -1.30900 15.18700 22.08400
N  -3.33800 15.34700 27.20000
C  -3.34000 14.23600 26.34600
C  -3.40100 13.04200 27.17600
C  -3.45400 13.50000 28.51400
C  -3.25900 14.93000 28.44600
C  -3.45400 11.62800 26.77500
C  -3.46000 13.04800 29.85600
O  -3.59800 11.91100 30.29600
C  -3.13500 14.29600 30.74600
C  -1.91300 13.95500 31.48100
O  -0.74300 14.02200 31.06900
O  -2.34000 13.45600 32.70300
C  -1.25400 13.12300 33.58300
H  -3.05900 21.19800 29.14700
H  -3.78200 19.79500 23.14600
H  -3.45000 13.56700 24.25300
H  -3.80100 17.50300 31.83900
H  -1.63600 19.28500 31.12100
H  -2.84400 20.79500 32.26300
H  -4.24300 19.67200 32.42500
H  -4.14900 20.84900 31.09800
H  -0.92700 16.63600 31.67000
H  -2.13900 16.13600 32.89300
H  -1.43500 18.97000 33.38400
H  -0.04700 17.97500 33.08800
H  -2.43000 23.54200 26.53700
H  -3.16600 23.29200 28.15900
H  -4.14400 23.74200 26.69800
H  -3.90300 24.16900 24.49000
H  -3.01500 24.26800 23.04800
H  -2.07400 24.00900 24.53400
H  -3.04100 17.50700 21.93700
H  -4.69300 15.06200 22.63900
H  -5.72900 16.78500 21.26400
H  -4.81400 18.24900 20.74400
H  -5.75700 18.19400 22.21900
H  -3.00800 14.82600 20.78600
H  -2.92000 13.69000 22.03400
H  -0.94000 15.61900 21.15400
H  -0.69100 14.34500 22.39600
H  -1.30400 15.99200 22.81800
H  -2.46700 11.22500 26.54500
H  -4.28000 11.73900 26.07300
H  -3.87300 11.10600 27.63500
H  -3.94400 14.48300 31.45200
H  -1.67400 12.18700 33.95100
H  -1.36200 13.83600 34.40100
H  -0.22200 13.12500 33.23300
Mg 16.60800 -1.36300 28.57300
C  15.37500 0.71700 30.97000
C  18.63500 -2.96200 30.99100
C  17.92000 -3.25700 26.09600
C  14.49300 0.16700 26.17900
N  16.84700 -1.27800 30.78700
C  16.22300 -0.28600 31.53700
C  16.59800 -0.40100 33.02000
C  17.79300 -1.32500 32.95900
C  17.78100 -1.91900 31.48600
C  19.18900 -0.81700 33.46100
C  15.38500 -0.93200 33.81000
C  15.21700 -0.32600 35.21500
H  16.41300 0.41900 35.89000
N  18.07100 -2.77200 28.52000
C  18.72000 -3.37700 29.66400
C  19.48400 -4.51700 29.23100
C  19.22100 -4.71200 27.79800
C  18.40100 -3.53600 27.40600
C  20.24300 -5.50700 30.12100
C  19.69500 -5.80800 26.77900
O  19.31100 -5.92600 25.62800
C  20.43400 -7.04300 27.36200
N  16.35000 -1.39200 26.42000
C  16.99800 -2.27300 25.63400
C  16.59400 -2.31000 24.14100
C  15.42400 -1.20600 24.18500
C  15.39000 -0.77800 25.66900
C  17.77800 -1.93200 23.10500
C  14.05300 -1.45700 23.49900
C  13.93200 -1.08400 22.04100
N  15.16700 0.17300 28.51000
C  14.41500 0.66800 27.49200
C  13.64400 1.79600 28.00200
C  13.97400 1.83300 29.34700
C  14.92300 0.84500 29.66900
C  12.86100 2.73600 27.10000
C  13.71300 2.56400 30.60700
O  12.97500 3.46900 30.91400
C  14.63900 1.83500 31.71600
C  15.58800 2.86200 32.28200
O  16.82800 2.84400 32.19900
O  14.86900 3.66900 33.12600
C  15.72100 4.57100 33.95500
H  19.28100 -3.56500 31.63300
H  18.39800 -3.89900 25.35400
H  13.86000 0.70700 25.47100
H  16.87200 0.60800 33.32900
H  17.69700 -2.14600 33.67000
H  19.12000 0.21200 33.81600
H  19.80900 -0.82700 32.56500
H  19.71400 -1.38800 34.22700
H  15.34300 -2.01600 33.91500
H  14.51000 -0.67800 33.21200
H  14.93100 -1.12900 35.89500
H  14.38900 0.37800 35.14100
H  20.60700 -4.90900 30.95700
H  21.18600 -5.71400 29.61600
H  19.58400 -6.33700 30.37600
H  19.84100 -7.36700 28.21700
H  21.47200 -6.76100 27.53800
H  20.39300 -7.88600 26.67200
H  16.21900 -3.29700 23.87000
H  15.73400 -0.27000 23.72000
H  17.54800 -1.07600 22.47000
H  17.98000 -2.84600 22.54600
H  18.65300 -1.78500 23.73800
H  13.30100 -0.94300 24.09800
H  13.82900 -2.51100 23.66100
H  14.84900 -0.78400 21.53300
H  13.19300 -0.29100 21.92700
H  13.57500 -2.01300 21.59600
H  12.25400 2.14600 26.41300
H  13.57600 3.24600 26.45400
H  12.10100 3.36300 27.56800
H  13.94200 1.59200 32.51800
H  16.43100 5.11700 33.33400
H  16.32400 4.03500 34.68900
H  14.97000 5.25100 34.35800

