158

Mg 36.01900 1.70200 29.52100
C  34.23400 2.86500 32.39700
C  38.87000 1.88600 31.40600
C  37.59800 1.31100 26.61000
C  32.87300 1.84300 27.76000
N  36.47000 2.22100 31.77900
C  35.60100 2.68800 32.71500
C  36.46000 2.99100 33.99100
C  37.97400 2.76600 33.62800
C  37.81200 2.15700 32.17400
C  38.55400 4.16000 33.51300
C  36.04700 2.03500 35.21000
C  36.74800 2.35100 36.57500
H  35.84300 2.48700 37.82800
N  37.92000 1.44800 29.09900
C  39.00700 1.48500 30.00900
C  40.22200 1.16500 29.29200
C  39.86600 1.14800 27.87800
C  38.33300 1.21200 27.81800
C  41.59300 1.18000 29.91400
C  40.78600 1.00800 26.69800
O  40.29800 1.05100 25.52600
C  42.31200 0.75200 26.96400
N  35.30300 1.44900 27.52100
C  36.20300 1.45200 26.48700
C  35.56500 1.48000 25.05600
C  34.03400 1.46500 25.59000
C  34.05100 1.60900 27.09500
C  35.88100 2.72700 24.19200
C  33.30500 0.11500 25.21500
C  32.86400 0.05000 23.67900
N  34.03100 2.16200 29.94600
C  32.88900 2.09400 29.15700
C  31.77700 2.59500 29.96700
C  32.23200 2.82800 31.28800
C  33.60900 2.60500 31.19400
C  30.40100 2.81500 29.46200
C  31.88600 3.37100 32.55600
O  30.89100 3.82600 32.98700
C  33.25200 3.41800 33.33400
C  33.47800 4.76400 33.77100
O  34.25700 5.58300 33.32700
O  32.57600 5.06000 34.75800
C  32.65000 6.40900 35.34600
H  39.82400 2.05300 31.91000
H  38.09900 1.33600 25.64000
H  32.00300 1.75700 27.10500
H  36.12400 3.96200 34.35600
H  38.55500 2.12400 34.29000
H  37.86700 4.98900 33.68100
H  38.90700 4.21400 32.48300
H  39.39300 4.23500 34.20500
H  36.26000 0.99400 34.96500
H  34.98000 2.14600 35.39900
H  37.35000 3.25800 36.63200
H  37.35600 1.44900 36.62800
H  42.28100 0.39700 29.59400
H  41.39200 0.99700 30.96900
H  42.01800 2.17400 29.77700
H  42.79600 0.62200 25.99600
H  42.30400 -0.21600 27.46500
H  42.72100 1.59400 27.52100
H  35.73400 0.55000 24.51200
H  33.48900 2.35200 25.26700
H  36.68000 3.32100 24.63600
H  34.94400 3.24300 23.98100
H  36.36100 2.41200 23.26600
H  32.37800 -0.02300 25.77200
H  34.07500 -0.61000 25.48000
H  33.51900 -0.67400 23.19400
H  33.00500 1.01000 23.18200
H  31.80500 -0.19900 23.62100
H  30.34200 2.38600 28.46100
H  30.33200 3.88700 29.27500
H  29.75200 2.34700 30.20200
H  33.03800 2.78600 34.19600
H  31.65400 6.79700 35.56000
H  33.04400 7.21300 34.72500
H  33.27200 6.35700 36.23900
Mg 46.66700 16.19100 27.56500
C  44.92900 15.80800 30.50600
C  48.97600 18.29900 29.13700
C  48.01800 17.14600 24.49400
C  44.15400 14.55700 25.88400
N  46.92900 16.95500 29.65400
C  46.16100 16.50900 30.72100
C  46.77800 17.01300 32.03500
C  47.99300 17.91900 31.55300
C  47.96400 17.75800 30.02000
C  47.92700 19.38600 31.96800
C  47.10300 15.83500 33.00000
C  46.39600 16.00100 34.38700
H  46.05100 17.40700 34.87900
N  48.32100 17.39500 26.92800
C  49.21700 18.00700 27.76600
C  50.27500 18.57600 27.01500
C  49.95500 18.45100 25.62300
C  48.69100 17.65600 25.64300
C  51.38800 19.42600 27.66000
C  50.72800 18.89900 24.36200
O  50.33900 18.57100 23.25300
C  51.93500 19.79800 24.56800
N  46.14200 15.88300 25.49700
C  46.89300 16.32100 24.44500
C  46.38900 15.77500 23.15600
C  45.15900 14.86700 23.53300
C  45.14900 15.00700 25.07300
C  46.12200 16.85800 22.06000
C  45.16000 13.44500 22.94600
C  45.22900 13.31100 21.38100
N  44.98100 15.15800 28.11500
C  44.02700 14.60800 27.29300
C  42.89000 14.10600 28.07500
C  43.30100 14.44700 29.37900
C  44.45300 15.24800 29.30400
C  41.60700 13.51300 27.53600
C  42.86100 14.53200 30.75600
O  41.81800 14.15000 31.29600
C  43.93800 15.35700 31.55500
C  43.12000 16.35600 32.34100
O  42.92400 17.49500 31.92200
O  42.80100 15.90500 33.58300
C  41.97400 16.70800 34.44400
H  49.77600 18.83600 29.64900
H  48.38800 17.37500 23.49200
H  43.32400 13.99900 25.44500
H  45.95200 17.61900 32.40500
H  48.92800 17.50000 31.92300
H  48.82200 19.51700 32.57500
H  46.99900 19.51500 32.52600
H  47.99400 20.07300 31.12400
H  48.17500 15.89700 33.18800
H  46.94300 14.89800 32.46600
H  47.08400 15.53500 35.09300
H  45.51200 15.36900 34.30900
H  51.45800 19.43800 28.74800
H  51.19700 20.48800 27.50400
H  52.32500 19.11500 27.19900
H  52.66900 19.25600 25.16400
H  51.54700 20.64800 25.12900
H  52.33500 20.09900 23.60000
H  47.25000 15.17600 22.85900
H  44.27800 15.33600 23.09400
H  45.19500 16.73600 21.50100
H  46.85200 16.71800 21.26300
H  46.22700 17.92200 22.27500
H  44.33100 12.79000 23.21300
H  45.98400 12.97200 23.48100
H  46.15100 12.75900 21.19500
H  45.21600 14.28000 20.88200
H  44.36000 12.77800 20.99600
H  41.97100 12.83400 26.76500
H  40.87000 14.26200 27.24500
H  41.22500 12.83300 28.29700
H  44.38500 14.79400 32.37400
H  42.45900 16.57800 35.41100
H  41.05100 16.16800 34.65500
H  41.63100 17.69000 34.11700

