158

Mg 41.38000 7.44500 29.89600
C  42.94000 9.05400 32.46700
C  38.88900 6.55400 32.08900
C  39.89100 5.74000 27.36400
C  44.18100 8.10700 27.74200
N  41.03100 7.80000 32.04700
C  41.74800 8.56100 32.87800
C  41.10000 8.64300 34.22100
C  39.93000 7.59100 34.15300
C  39.87800 7.30700 32.67500
C  40.01900 6.26700 35.11000
C  40.57300 10.08000 34.74200
C  39.98100 9.99700 36.18500
H  40.50700 10.93300 37.28600
N  39.54800 6.51800 29.72000
C  38.66500 6.19300 30.77000
C  37.50900 5.55900 30.20100
C  37.72600 5.39200 28.77100
C  39.09600 5.88500 28.54200
C  36.36600 5.24000 31.11100
C  36.76700 4.85700 27.71100
O  37.01500 4.72100 26.53500
C  35.32600 4.49500 28.20600
N  41.94900 7.03400 27.77800
C  41.18100 6.26100 27.00400
C  41.71800 6.10800 25.59600
C  43.13200 6.83700 25.67900
C  43.09200 7.38100 27.13200
C  41.76100 4.65500 25.10000
C  43.35200 8.00300 24.64800
C  42.79800 9.38600 25.13700
N  43.11200 8.39900 30.02000
C  44.12100 8.64000 29.02400
C  45.18100 9.43300 29.61100
C  44.74400 9.64500 30.98700
C  43.52400 8.97200 31.16200
C  46.46600 9.84200 29.02000
C  45.10000 10.25100 32.24300
O  46.04800 10.96900 32.50400
C  43.96600 9.87400 33.27200
C  44.58500 9.19200 34.40500
O  45.22100 8.11600 34.34000
O  44.28900 9.77800 35.58500
C  44.81000 9.16400 36.81100
H  38.22700 6.17900 32.87300
H  39.37600 5.11400 26.63100
H  45.02200 8.41600 27.11800
H  41.75800 8.27900 35.01000
H  38.94700 8.05700 34.20900
H  40.65100 6.49100 35.97000
H  40.36500 5.40900 34.53400
H  39.04200 6.10600 35.56500
H  39.67500 10.39700 34.21200
H  41.32900 10.86300 34.69100
H  40.20700 9.01500 36.60100
H  38.89200 10.04000 36.14400
H  35.81700 6.18000 31.18000
H  36.70300 4.87300 32.08100
H  35.69300 4.50000 30.67800
H  34.82000 5.27600 28.77300
H  35.60400 3.63200 28.81000
H  34.72700 4.10000 27.38500
H  41.12300 6.76500 24.96000
H  43.84900 6.02000 25.61000
H  42.73000 4.20000 24.89500
H  41.10400 4.51900 24.24100
H  41.49000 3.93200 25.86900
H  42.90100 7.78100 23.68100
H  44.42200 8.16500 24.51500
H  42.43000 9.82900 24.21200
H  43.64000 10.04300 25.35300
H  41.99300 9.49300 25.86400
H  46.34200 10.67600 28.33000
H  47.03500 8.98500 28.65900
H  46.99500 10.34700 29.82900
H  43.53300 10.81100 33.62200
H  43.90100 9.01900 37.39500
H  45.52800 9.85500 37.25400
H  45.24100 8.17300 36.67200
Mg 47.27000 24.23300 28.34100
C  48.23200 26.53200 30.69400
C  46.34200 22.08400 30.99000
C  47.11500 21.68900 26.20100
C  48.51600 26.31000 25.83900
N  47.46200 24.18700 30.53500
C  47.67900 25.35100 31.24100
C  47.37800 25.24900 32.71200
C  46.96100 23.70000 32.88100
C  46.81700 23.34900 31.41300
C  47.99700 22.75800 33.59600
C  46.20700 26.20900 33.12500
C  46.36500 26.71600 34.68700
H  45.23200 26.52000 35.66500
N  46.65600 22.25500 28.54500
C  46.26300 21.62400 29.67100
C  45.89300 20.26700 29.29500
C  46.05200 20.12900 27.84200
C  46.63000 21.40500 27.48300
C  45.47300 19.12200 30.38300
C  45.82500 18.85100 27.05100
O  46.00200 18.81500 25.84000
C  45.21000 17.60000 27.77900
N  48.02700 23.96500 26.36200
C  47.77800 22.81300 25.65000
C  47.89400 23.06300 24.13200
C  48.15900 24.59100 23.97400
C  48.34100 25.00000 25.45700
C  48.89900 22.07400 23.51200
C  47.17100 25.32400 23.15100
C  45.88100 25.72200 23.78100
N  48.23400 26.06200 28.24900
C  48.65300 26.81800 27.17600
C  49.04200 28.16000 27.63000
C  48.85300 28.13000 29.04400
C  48.44200 26.81600 29.32800
C  49.67800 29.26400 26.85200
C  48.92600 28.93500 30.27400
O  49.12800 30.17000 30.45800
C  48.64100 27.82700 31.38600
C  49.82700 27.69100 32.23500
O  50.91300 27.29100 31.88100
O  49.45700 27.99500 33.50900
C  50.46000 27.68100 34.53100
H  45.91000 21.53100 31.82700
H  46.93600 20.97200 25.39700
H  48.65400 27.09900 25.09700
H  48.28200 25.49700 33.26800
H  45.94000 23.51600 33.21400
H  48.60200 23.38600 34.25000
H  48.71400 22.23500 32.96400
H  47.49500 21.95600 34.13700
H  45.22500 25.75700 32.99000
H  46.04200 27.10400 32.52500
H  46.45200 27.80200 34.65600
H  47.32000 26.28600 34.99100
H  44.53100 18.81400 29.92900
H  45.16500 19.58100 31.32300
H  46.23300 18.36200 30.56500
H  45.07600 16.79700 27.05500
H  44.23500 17.84200 28.20400
H  45.76800 17.06400 28.54600
H  46.87300 22.87000 23.80300
H  49.20100 24.71500 23.68000
H  49.33500 21.41300 24.26100
H  49.60300 22.64700 22.91000
H  48.51100 21.41300 22.73700
H  46.93900 24.71400 22.27800
H  47.72900 26.23300 22.92500
H  45.22700 25.28600 23.02600
H  45.80500 26.80400 23.89500
H  45.72900 25.33200 24.78800
H  50.18500 28.76700 26.02400
H  50.35300 29.72000 27.57600
H  48.99000 30.02700 26.48800
H  47.79600 28.32700 31.85900
H  49.87600 27.34200 35.38600
H  50.92600 28.62200 34.82200
H  51.19700 26.95800 34.17800

