158

Mg 41.06000 8.92000 29.72000
C  42.93600 10.04900 32.38600
C  38.87500 7.41400 31.95600
C  39.42700 7.68400 27.05800
C  43.69700 9.90600 27.69000
N  41.08500 8.55200 31.98500
C  41.78000 9.32400 32.78700
C  41.18400 9.35600 34.25100
C  40.04600 8.32600 34.08400
C  39.95000 8.10800 32.59100
C  40.17000 7.01300 34.89800
C  40.69100 10.76300 34.70700
C  40.09200 10.78100 36.11700
H  40.73400 11.66500 37.19100
N  39.26700 7.77900 29.57200
C  38.57800 7.21300 30.61400
C  37.49900 6.49100 30.04000
C  37.62800 6.57900 28.64500
C  38.81200 7.37100 28.39000
C  36.45800 5.80300 30.83300
C  36.67700 6.13900 27.55700
O  36.89700 6.28700 26.38200
C  35.25200 5.58400 27.92400
N  41.59600 8.68100 27.82900
C  40.71600 8.25800 26.85800
C  41.41400 8.11500 25.44600
C  42.51400 9.23700 25.61000
C  42.60300 9.27600 27.11800
C  41.83300 6.54900 25.22300
C  42.16200 10.49300 24.80200
C  41.71400 11.65800 25.60200
N  42.95400 9.79100 29.95500
C  43.93300 10.12300 29.05000
C  45.10900 10.64900 29.69600
C  44.72100 10.76800 30.97800
C  43.43700 10.17800 31.07100
C  46.33600 11.16700 29.04000
C  45.05300 11.18600 32.30500
O  46.08500 11.68700 32.78700
C  43.86100 10.84000 33.24900
C  44.36900 10.04600 34.41900
O  44.80400 8.88500 34.45100
O  44.28200 10.74500 35.55300
C  44.93800 10.25800 36.74000
H  38.03800 7.14100 32.60200
H  38.88300 7.38800 26.15800
H  44.52000 10.25700 27.06400
H  42.02900 9.09700 34.88900
H  39.03300 8.67600 34.28600
H  40.80500 6.31400 34.35300
H  39.16500 6.63900 35.09100
H  40.59100 7.20800 35.88400
H  39.96600 11.23100 34.04000
H  41.48800 11.50600 34.73300
H  39.88500 9.77700 36.48500
H  39.15000 11.31100 35.97300
H  36.63000 5.74100 31.90700
H  36.24100 4.79200 30.48900
H  35.57100 6.41700 30.67600
H  34.73200 6.35400 28.49300
H  35.32100 4.71900 28.58400
H  34.67700 5.38700 27.01800
H  40.66700 8.26700 24.66700
H  43.46700 8.82800 25.27500
H  41.19800 5.92600 25.85300
H  42.88000 6.33600 25.43800
H  41.62900 6.22100 24.20400
H  41.31000 10.35100 24.13700
H  43.08600 10.58700 24.23100
H  42.47600 12.36400 25.93100
H  41.23400 11.33500 26.52500
H  40.94300 12.25700 25.11700
H  45.97500 11.78800 28.21900
H  46.92900 10.36200 28.60600
H  46.88800 11.63500 29.85500
H  43.37000 11.75100 33.59000
H  45.79200 10.92300 36.86700
H  45.11100 9.18800 36.85200
H  44.30400 10.49800 37.59300
Mg 35.27700 48.59900 25.19800
C  35.70200 46.73100 28.11000
C  34.62600 51.32600 27.18600
C  34.74200 50.28900 22.45500
C  35.89000 45.62100 23.36900
N  34.85500 48.89800 27.35300
C  35.26200 48.07100 28.35900
C  35.35500 48.72500 29.73500
C  34.55500 50.09200 29.42700
C  34.65700 50.13300 27.91200
C  33.10900 50.20000 30.01300
C  36.80600 48.97000 30.26900
C  37.00600 49.14500 31.76600
H  35.84800 49.03100 32.78300
N  34.78800 50.53600 24.86800
C  34.60500 51.48100 25.79000
C  34.45500 52.77600 25.14400
C  34.46000 52.57900 23.75700
C  34.64300 51.04100 23.61100
C  34.38300 54.18700 25.74500
C  34.22000 53.55200 22.54500
O  34.42200 53.20100 21.36400
C  33.79900 54.92400 22.77400
N  35.21500 48.04600 23.19000
C  35.06800 48.95600 22.26800
C  35.42700 48.43600 20.86700
C  35.71100 46.89200 21.13900
C  35.57800 46.82000 22.65900
C  34.24200 48.52200 19.90000
C  37.15200 46.48500 20.69700
C  38.34400 47.00100 21.53300
N  35.52200 46.53900 25.59700
C  35.90000 45.49100 24.80100
C  36.50000 44.34700 25.59000
C  36.35600 44.83500 26.89400
C  35.76400 46.14200 26.87100
C  37.08900 43.06600 25.07000
C  36.72900 44.43600 28.23600
O  37.27300 43.40500 28.65100
C  36.27300 45.67700 29.08600
C  35.12300 45.24700 30.01500
O  33.91100 45.24600 29.74800
O  35.62900 44.94100 31.18500
C  34.69600 44.77200 32.35300
H  34.48500 52.24000 27.76700
H  34.63100 50.79500 21.49300
H  36.15900 44.81700 22.68200
H  34.67100 48.10600 30.31700
H  35.08200 50.99600 29.73100
H  32.39900 50.56100 29.26900
H  32.97300 50.86500 30.86600
H  32.82300 49.24600 30.45700
H  37.17100 49.95200 29.96700
H  37.46600 48.19300 29.88100
H  37.53100 50.07800 31.97100
H  37.66200 48.37100 32.16400
H  35.32500 54.70100 25.55500
H  34.31400 54.11000 26.83000
H  33.53300 54.83700 25.53900
H  32.79400 54.83000 23.18400
H  33.71000 55.42500 21.80900
H  34.54800 55.49200 23.32600
H  36.32900 48.92200 20.49400
H  34.98000 46.23400 20.67000
H  34.26400 47.65800 19.23600
H  34.36800 49.45900 19.35700
H  33.29200 48.51800 20.43400
H  37.23800 46.80200 19.65800
H  37.14300 45.40300 20.56700
H  39.27500 47.10500 20.97500
H  38.53000 46.26100 22.31100
H  38.11600 47.95300 22.01300
H  37.00000 42.95400 23.98900
H  36.62700 42.21800 25.57600
H  38.15000 43.07500 25.32000
H  37.11200 46.10400 29.63500
H  33.80200 45.38100 32.22400
H  35.31700 45.09900 33.18700
H  34.51700 43.71100 32.53100

