158

Mg 47.35400 24.99100 29.18800
C  48.21100 27.43300 31.41200
C  46.61000 22.90200 31.76800
C  46.70100 22.56300 26.87300
C  49.01700 26.76800 26.68000
N  47.41200 25.19200 31.34200
C  47.59800 26.36300 32.01700
C  47.27800 26.08600 33.51700
C  47.18500 24.54500 33.69000
C  47.01900 24.19100 32.15500
C  48.41300 23.80800 34.27000
C  45.98400 26.86600 34.05500
C  46.06800 27.64800 35.39700
H  46.12900 26.74400 36.63700
N  46.48600 23.16000 29.27000
C  46.22200 22.44000 30.40100
C  45.58600 21.16300 30.04000
C  45.53400 21.09000 28.60400
C  46.24200 22.29200 28.19800
C  45.01500 20.17100 30.96500
C  44.99900 19.98400 27.63100
O  44.85100 20.22300 26.43600
C  44.44200 18.61600 28.07700
N  47.75200 24.68300 27.06500
C  47.39700 23.64900 26.31400
C  47.84400 23.76400 24.84100
C  48.45000 25.19600 24.77700
C  48.49100 25.54600 26.27300
C  48.78300 22.66300 24.30200
C  47.60300 26.16800 23.91500
C  48.33100 27.03700 22.88200
N  48.49700 26.71700 29.01500
C  48.97900 27.45200 27.93600
C  49.51700 28.77000 28.41700
C  49.18600 28.75200 29.78500
C  48.66200 27.47600 30.06800
C  50.15300 29.80100 27.58600
C  49.26000 29.58300 30.97100
O  49.71000 30.70500 31.08400
C  48.78000 28.71700 32.06600
C  49.95000 28.43800 32.90300
O  51.07500 28.06300 32.48400
O  49.65500 28.64500 34.27300
C  50.64300 28.25300 35.31500
H  46.32600 22.22900 32.57900
H  46.45800 21.75600 26.17900
H  49.49200 27.30400 25.85500
H  48.17800 26.51600 33.95700
H  46.29100 24.34300 34.27900
H  48.04000 23.22700 35.11300
H  49.18600 24.47700 34.64900
H  48.79200 23.22400 33.43100
H  45.20700 26.10600 33.97300
H  45.75500 27.52700 33.21900
H  45.21400 28.32200 35.46900
H  46.91400 28.32800 35.29700
H  45.23100 19.16600 30.60200
H  43.93900 20.33800 30.99800
H  45.26500 20.38700 32.00400
H  43.59700 18.82400 28.73300
H  45.25200 18.08100 28.57200
H  44.13000 17.98600 27.24400
H  46.92700 23.76100 24.25100
H  49.45000 25.10700 24.35100
H  48.96600 22.73600 23.23000
H  48.44200 21.64300 24.48000
H  49.63700 22.77400 24.96900
H  47.04400 26.81600 24.59000
H  46.83200 25.78400 23.24700
H  47.70600 27.06500 21.99000
H  49.37800 26.78500 22.71400
H  48.43600 28.03300 23.31400
H  49.44900 30.33800 26.95000
H  50.84300 29.24200 26.95400
H  50.76700 30.46400 28.19600
H  48.10300 29.31900 32.67100
H  50.47200 28.96600 36.12100
H  51.64700 28.37900 34.91000
H  50.52500 27.21300 35.61900
Mg -11.63200 38.07700 42.34900
C  -9.35300 35.48700 41.37500
C  -9.54200 40.28400 40.60000
C  -13.92100 40.40400 42.57000
C  -13.90200 35.58300 43.14700
N  -9.75200 37.83500 41.15900
C  -8.96600 36.71700 40.91000
C  -7.70900 37.04700 40.11100
C  -7.66100 38.60900 40.20700
C  -9.07200 38.93800 40.67100
C  -6.56200 39.19000 41.10300
C  -7.67900 36.39200 38.68000
C  -6.50400 35.49300 38.36300
H  -5.51000 36.00100 37.24900
N  -11.74800 40.10100 41.71500
C  -10.79000 40.85800 41.04000
C  -11.14500 42.24800 41.00800
C  -12.43000 42.26300 41.53200
C  -12.76000 40.91800 41.99600
C  -10.34400 43.31700 40.32200
C  -13.30500 43.55000 41.62900
O  -12.85200 44.56500 41.34400
C  -14.79500 43.46300 41.93600
N  -13.66300 37.91800 42.63500
C  -14.33300 39.08400 42.92000
C  -15.72100 38.73800 43.47300
C  -15.83300 37.20100 43.61400
C  -14.41600 36.85300 43.01800
C  -16.15700 39.57200 44.70400
C  -16.94300 36.61800 42.76100
C  -17.50500 35.27800 43.17100
N  -11.55500 35.98300 42.50600
C  -12.51500 35.09900 42.89000
C  -12.03900 33.69300 42.82100
C  -10.71900 33.84300 42.35900
C  -10.51700 35.23700 42.04700
C  -12.80200 32.50000 43.20400
C  -9.54500 33.16000 42.00300
O  -9.28100 31.94200 42.00300
C  -8.56100 34.21500 41.45800
C  -7.39300 34.17200 42.30300
O  -7.31900 34.63900 43.38900
O  -6.42100 33.47600 41.65500
C  -5.35500 33.19800 42.61800
H  -8.73100 40.91700 40.23200
H  -14.56000 41.23800 42.86700
H  -14.59300 34.82200 43.51500
H  -6.86600 36.67500 40.69400
H  -7.47000 39.07100 39.23800
H  -6.02600 38.38200 41.60100
H  -7.06600 39.90000 41.75800
H  -5.80100 39.83400 40.66200
H  -7.76100 37.25200 38.01500
H  -8.69600 36.01100 38.58700
H  -6.87800 34.53800 37.99300
H  -5.97800 35.30200 39.29800
H  -9.29300 43.02700 40.30700
H  -10.50000 44.22700 40.90300
H  -10.81900 43.45100 39.35100
H  -15.10500 42.60800 41.33500
H  -15.31800 44.37500 41.64600
H  -14.93900 43.27900 43.00000
H  -16.38100 39.13000 42.69900
H  -15.84100 36.89400 44.65900
H  -16.55500 38.99300 45.53700
H  -16.84100 40.37800 44.43900
H  -15.24900 40.07100 45.04400
H  -16.66200 36.44700 41.72100
H  -17.78400 37.31000 42.80500
H  -18.58800 35.38500 43.24200
H  -17.25600 35.01300 44.19900
H  -17.24000 34.55800 42.39800
H  -12.64800 31.74400 42.43300
H  -13.84300 32.62800 43.50000
H  -12.18600 32.10600 44.01200
H  -8.26400 33.84700 40.47500
H  -4.83400 34.11800 42.88400
H  -4.62000 32.49800 42.22100
H  -5.79200 32.79100 43.53000

