158

Mg 49.92300 46.77900 42.14300
C  46.57800 47.45000 40.99700
C  49.67500 43.81400 40.47300
C  53.17000 46.47300 42.67600
C  49.99900 50.21500 43.23400
N  48.31000 45.83800 40.88700
C  47.03700 46.26900 40.49300
C  46.29800 45.24600 39.49800
C  47.39400 44.17100 39.40700
C  48.54500 44.55500 40.33700
C  46.92600 42.70600 39.75100
C  45.78000 45.94300 38.19000
C  44.30700 45.68100 37.82000
H  43.94400 45.12300 36.43400
N  51.19500 45.31100 41.82200
C  50.94400 44.19900 41.10100
C  52.12200 43.36700 41.08600
C  53.12100 44.00800 41.88900
C  52.53300 45.29000 42.19900
C  52.13900 42.01400 40.38200
C  54.55000 43.49500 42.23400
O  54.88500 42.36500 41.84900
C  55.50700 44.23500 43.15500
N  51.37500 48.14500 42.95600
C  52.68800 47.77000 43.04100
C  53.56700 48.97600 43.27600
C  52.56000 50.06600 43.64600
C  51.21400 49.50200 43.26600
C  54.67300 48.77400 44.30400
C  52.87600 51.41000 43.03600
C  52.54700 52.69400 43.88700
N  48.60300 48.42700 42.13200
C  48.76900 49.70600 42.73900
C  47.58300 50.44900 42.56800
C  46.67600 49.58700 42.00600
C  47.33000 48.39700 41.72800
C  47.38800 51.88800 42.94900
C  45.31400 49.52300 41.51900
O  44.39000 50.33700 41.57300
C  45.13800 48.02900 40.98900
C  44.21800 47.24700 41.91800
O  44.11900 47.40300 43.10600
O  43.54000 46.34100 41.25400
C  42.45900 45.63000 41.96600
H  49.74800 42.82300 40.01900
H  54.25100 46.39700 42.80400
H  50.12800 51.25300 43.55000
H  45.47800 44.77700 40.04100
H  47.82900 44.17400 38.40700
H  45.87900 42.40700 39.70000
H  47.11800 42.56600 40.81500
H  47.57200 42.02200 39.20200
H  46.42700 45.59800 37.38500
H  46.04900 46.98200 38.38200
H  43.92000 46.70000 37.83400
H  43.77700 45.09400 38.57000
H  51.30500 41.33900 40.57200
H  53.02100 41.38700 40.51600
H  52.14100 42.20300 39.30900
H  56.22000 44.66900 42.45400
H  56.09100 43.51100 43.72400
H  54.99200 44.93400 43.81400
H  54.03500 49.21100 42.32000
H  52.43200 50.21800 44.71700
H  55.66100 48.73800 43.84600
H  54.64800 47.82100 44.83100
H  54.72300 49.66000 44.93700
H  52.26100 51.49100 42.14000
H  53.88200 51.48000 42.62300
H  53.38800 53.35700 44.09200
H  51.86400 52.38700 44.67900
H  51.98500 53.41100 43.29000
H  46.53600 52.31400 42.42000
H  48.28900 52.37500 42.57600
H  47.49900 51.94800 44.03200
H  44.71300 47.90900 39.99300
H  41.68000 45.49500 41.21600
H  42.11900 46.06400 42.90600
H  42.81600 44.64700 42.27500
Mg -4.74700 25.84100 25.77000
C  -3.97600 27.05100 29.02600
C  -6.93600 23.67500 27.28000
C  -5.07400 24.50700 22.74900
C  -2.59300 28.23100 24.46200
N  -5.38400 25.38600 27.94000
C  -4.96200 26.02500 29.07100
C  -5.63000 25.42200 30.30100
C  -6.39900 24.20700 29.72500
C  -6.21600 24.38600 28.24400
C  -6.06800 22.77700 30.28100
C  -6.51900 26.42200 31.02700
C  -6.68200 26.23800 32.55000
H  -5.83000 25.18000 33.28200
N  -5.84700 24.20900 25.08300
C  -6.77000 23.42900 25.84100
C  -7.29900 22.41500 24.97000
C  -6.79400 22.66800 23.65200
C  -5.82300 23.80900 23.73800
C  -8.21800 21.39300 25.53100
C  -7.05800 21.84700 22.39400
O  -6.46400 21.96300 21.30400
C  -8.07700 20.58800 22.41400
N  -3.98700 26.35300 23.87700
C  -4.24500 25.56300 22.76900
C  -3.55500 26.16200 21.51700
C  -2.87300 27.46800 22.05700
C  -3.20100 27.43700 23.57900
C  -2.63700 25.23000 20.64800
C  -3.32900 28.82700 21.37200
C  -2.42500 29.33100 20.27200
N  -3.56200 27.33700 26.52600
C  -2.72600 28.23900 25.85400
C  -2.02100 29.06400 26.81100
C  -2.42700 28.58800 28.07300
C  -3.41500 27.57600 27.83800
C  -1.07900 30.14300 26.49200
C  -2.36100 28.78200 29.47500
O  -1.82600 29.64800 30.08600
C  -3.24600 27.69000 30.17500
C  -2.43000 26.75500 31.03400
O  -1.72100 25.81700 30.66000
O  -2.39700 27.25400 32.33700
C  -1.32900 26.85600 33.22100
H  -7.69600 23.04700 27.74900
H  -5.16000 24.11800 21.73200
H  -1.85200 28.92500 24.06100
H  -4.78600 25.14400 30.93200
H  -7.46400 24.36100 29.89300
H  -5.36800 22.92400 31.10300
H  -5.63600 22.16900 29.48600
H  -6.95300 22.30500 30.70800
H  -7.55000 26.24200 30.72200
H  -6.39000 27.48000 30.79900
H  -7.70400 26.00800 32.85000
H  -6.45200 27.22900 32.94200
H  -8.86200 20.83800 24.84900
H  -8.84600 21.89600 26.26700
H  -7.72600 20.66500 26.17700
H  -7.66600 19.77400 23.01100
H  -8.26600 20.23300 21.40100
H  -9.00800 21.01900 22.78200
H  -4.31400 26.48800 20.80500
H  -1.78900 27.49500 21.94900
H  -2.54200 24.19800 20.98500
H  -1.60600 25.57300 20.73600
H  -3.01700 25.32200 19.63000
H  -3.43800 29.62900 22.10300
H  -4.27800 28.61700 20.87800
H  -1.78300 28.47200 20.08000
H  -1.77200 30.14800 20.57900
H  -3.07200 29.63100 19.44700
H  -1.58800 31.09300 26.32900
H  -0.59000 29.95800 25.53600
H  -0.27400 30.19500 27.22500
H  -4.03500 28.08400 30.81500
H  -0.40200 26.53500 32.74600
H  -1.76800 26.11800 33.89300
H  -1.04500 27.62200 33.94300

