158

Mg 24.23600 -5.83700 46.16600
C  26.21900 -3.18600 44.86500
C  21.75200 -4.93700 44.12600
C  22.77600 -8.80000 47.00200
C  27.13600 -6.72600 48.05400
N  24.11200 -4.21700 44.68900
C  24.97200 -3.23500 44.39800
C  24.23800 -2.18700 43.47100
C  22.71700 -2.62000 43.53200
C  22.87800 -4.03800 44.11300
C  21.71900 -1.72200 44.30600
C  24.79900 -2.18200 41.96500
C  25.28800 -0.80700 41.41200
H  25.10900 -0.61700 39.94600
N  22.49300 -6.76000 45.52900
C  21.61100 -6.20100 44.75700
C  20.40500 -7.12700 44.60900
C  20.72600 -8.23900 45.44600
C  22.06500 -7.97700 46.07100
C  19.19200 -6.92600 43.76600
C  19.91100 -9.45600 45.83500
O  18.80000 -9.47800 45.30700
C  20.31100 -10.53900 46.86600
N  24.82200 -7.52500 47.36500
C  24.09000 -8.64700 47.52700
C  24.74600 -9.65200 48.49400
C  26.19400 -9.06000 48.75800
C  26.04600 -7.62800 48.08400
C  23.91500 -10.19600 49.67300
C  27.35900 -9.90200 48.10600
C  28.68300 -9.69100 48.89800
N  26.27200 -5.13600 46.42600
C  27.30800 -5.55400 47.24200
C  28.44400 -4.65700 47.12600
C  28.03900 -3.70500 46.21800
C  26.73500 -4.04400 45.82200
C  29.74700 -4.76100 48.04500
C  28.46700 -2.46900 45.59400
O  29.46700 -1.79400 45.70800
C  27.31300 -2.14300 44.67800
C  26.75400 -0.75400 44.91700
O  26.03300 -0.44100 45.83300
O  27.33300 0.09200 44.04400
C  27.18200 1.53400 44.29600
H  20.83900 -4.72700 43.56500
H  22.49200 -9.78300 47.38400
H  27.97200 -7.08900 48.65600
H  24.20900 -1.22800 43.98800
H  22.28700 -2.69400 42.53300
H  20.92000 -1.35200 43.66400
H  22.14600 -0.85100 44.80400
H  21.27300 -2.33600 45.08900
H  24.08700 -2.57900 41.24100
H  25.67700 -2.82600 41.93600
H  26.36000 -0.73900 41.60100
H  24.67200 -0.02400 41.85400
H  18.37300 -6.45800 44.31100
H  18.75800 -7.83300 43.34600
H  19.44600 -6.14000 43.05500
H  19.44800 -11.14500 47.14300
H  20.43300 -9.92700 47.76000
H  21.22700 -11.03500 46.54200
H  24.83400 -10.48600 47.79700
H  26.39500 -8.87400 49.81300
H  22.87700 -9.86300 49.68600
H  24.38600 -9.86500 50.59800
H  23.91200 -11.28400 49.61300
H  27.46000 -9.48500 47.10300
H  27.03900 -10.94000 48.02400
H  29.10900 -10.69300 48.95600
H  28.48000 -9.31800 49.90200
H  29.36300 -9.14500 48.24400
H  30.12700 -3.76800 48.28500
H  30.57900 -5.31900 47.61400
H  29.44800 -5.22100 48.98700
H  27.72500 -2.04400 43.67300
H  26.14000 1.80900 44.13300
H  27.90700 2.01400 43.63900
H  27.41800 1.74200 45.33900
Mg 36.31700 49.79400 25.90800
C  36.83100 47.93800 28.81800
C  35.14600 52.27100 27.73400
C  35.94000 51.41000 23.01400
C  37.19300 46.89600 23.96300
N  35.95100 50.00300 28.04800
C  36.42400 49.22100 29.03700
C  36.19800 49.91900 30.39800
C  35.45200 51.25500 30.05700
C  35.44100 51.21100 28.48300
C  34.00000 51.32300 30.54200
C  37.49100 50.08400 31.21300
C  37.49200 49.61300 32.60600
H  36.22900 49.71400 33.40300
N  35.70500 51.63000 25.39200
C  35.26300 52.53000 26.33500
C  35.00500 53.81800 25.70600
C  35.17200 53.62800 24.30200
C  35.56700 52.20300 24.17700
C  34.55900 54.91100 26.52500
C  35.04700 54.61700 23.19600
O  35.08300 54.32000 21.99100
C  34.83100 56.11000 23.48500
N  36.36600 49.14300 23.90800
C  36.26300 50.05700 22.92700
C  36.40800 49.40600 21.52000
C  36.99800 48.01200 21.80200
C  36.79400 48.00200 23.30300
C  35.05500 49.33700 20.64500
C  38.53200 47.88000 21.38100
C  38.84200 47.08600 20.02300
N  36.75000 47.76000 26.27200
C  37.06400 46.70600 25.39700
C  37.48400 45.54900 26.14800
C  37.40000 45.97900 27.51900
C  36.98800 47.31900 27.55300
C  38.05900 44.29400 25.60500
C  37.62900 45.56900 28.91700
O  37.95500 44.46400 29.33700
C  37.20100 46.82100 29.79800
C  36.08800 46.37000 30.63200
O  34.91600 46.39100 30.38000
O  36.56700 45.99100 31.94200
C  35.57200 45.56300 32.96000
H  34.77900 53.13900 28.28600
H  35.89600 51.98000 22.08300
H  37.36500 46.04400 23.30200
H  35.45200 49.21900 30.77600
H  36.04800 52.09100 30.42300
H  33.37500 51.78300 29.77700
H  34.03300 51.97500 31.41500
H  33.70900 50.31800 30.84800
H  37.78400 51.12800 31.09600
H  38.23800 49.57100 30.60800
H  38.16000 50.22700 33.20900
H  37.85400 48.58900 32.69300
H  35.42500 55.57000 26.59400
H  34.10800 54.75300 27.50400
H  33.82800 55.50600 25.97800
H  35.51100 56.29900 24.31700
H  33.74900 56.18000 23.59600
H  35.12700 56.64100 22.58100
H  37.11100 50.00700 20.94300
H  36.39800 47.18100 21.43000
H  35.28900 49.08500 19.61100
H  34.40300 50.20800 20.71200
H  34.53300 48.47300 21.05500
H  39.02400 47.38800 22.22000
H  38.94900 48.88700 21.37400
H  37.87600 46.63500 19.79500
H  39.64600 46.38000 20.22800
H  39.06700 47.67200 19.13100
H  38.46100 44.45200 24.60400
H  37.22600 43.59600 25.52200
H  38.85400 44.03200 26.30200
H  38.03900 47.19800 30.38400
H  36.08000 45.13700 33.82500
H  35.03400 44.82500 32.36500
H  34.90200 46.39500 33.17900

