158

Mg 30.12800 58.02600 40.53600
C  27.11400 56.28500 39.87300
C  31.89300 55.33000 39.43500
C  32.86800 59.99900 40.09100
C  28.17300 60.87600 41.20900
N  29.47600 56.06500 39.65400
C  28.19500 55.49500 39.56700
C  28.32500 54.02800 39.22400
C  29.87400 53.82100 39.07000
C  30.47100 55.15400 39.48900
C  30.41100 52.56300 39.83400
C  27.40400 53.51600 38.06400
C  27.19500 54.33100 36.81500
H  27.97400 54.07500 35.50900
N  32.13700 57.67700 40.15000
C  32.61300 56.48000 39.68500
C  34.06000 56.53000 39.65900
C  34.36800 57.90500 39.80600
C  33.09800 58.61700 39.97200
C  34.95300 55.43800 39.28100
C  35.73700 58.51300 39.56700
O  36.72000 57.83300 39.35000
C  35.92500 60.03100 39.70200
N  30.47500 60.16200 40.59800
C  31.70800 60.72700 40.45800
C  31.66800 62.26900 40.63100
C  30.16500 62.49700 41.04700
C  29.54100 61.11500 40.92200
C  32.73000 62.79100 41.70600
C  29.36400 63.51700 40.15700
C  28.44700 64.50300 40.99900
N  28.04900 58.54700 40.70800
C  27.45000 59.72400 40.99000
C  26.00300 59.53200 40.97000
C  25.81700 58.24800 40.53300
C  27.09300 57.64900 40.33200
C  25.01600 60.62300 41.33800
C  24.81300 57.24400 40.12100
O  23.61300 57.29500 40.20900
C  25.60700 55.93500 39.79100
C  25.30500 54.81500 40.73600
O  25.95100 54.48200 41.66000
O  24.12300 54.22600 40.23300
C  23.70500 52.98800 40.96200
H  32.53800 54.46900 39.24700
H  33.63200 60.77100 40.20000
H  27.47900 61.65400 41.53500
H  28.01200 53.46800 40.10500
H  30.12000 53.63000 38.02500
H  31.39700 52.21900 39.52300
H  29.70900 51.77800 39.55200
H  30.49300 52.72800 40.90800
H  26.39000 53.44600 38.45800
H  27.68200 52.50500 37.76500
H  27.26700 55.38400 37.08900
H  26.19300 54.17200 36.41600
H  35.64600 55.81500 38.52900
H  34.55400 54.58600 38.73100
H  35.55000 55.21100 40.16400
H  35.57600 60.35800 40.68100
H  35.32300 60.34200 38.84900
H  36.97200 60.33200 39.65100
H  31.79400 62.79300 39.68400
H  30.20700 62.79600 42.09400
H  33.18500 61.94800 42.22700
H  32.29300 63.41000 42.49000
H  33.53200 63.31100 41.18300
H  28.80100 63.00400 39.37700
H  30.08800 64.19900 39.71200
H  28.68400 65.56300 41.09800
H  28.46100 64.30700 42.07100
H  27.39800 64.45000 40.71000
H  25.44800 61.51200 41.79600
H  24.43700 60.11400 42.10900
H  24.43500 60.95700 40.47800
H  25.44200 55.69300 38.74100
H  22.70800 52.66600 40.66400
H  23.79200 53.06100 42.04700
H  24.52600 52.28400 40.82800
Mg 35.98700 49.34400 24.71800
C  36.46900 47.66800 27.85700
C  35.08000 52.11000 26.45900
C  35.44700 50.82500 21.77300
C  37.33900 46.50900 23.11700
N  35.68700 49.76000 26.96700
C  35.91900 48.91100 28.05100
C  35.65400 49.71000 29.40000
C  35.25600 51.16000 28.89000
C  35.33800 51.01500 27.36500
C  33.90500 51.72600 29.41000
C  36.78100 49.75000 30.56000
C  36.58900 49.06100 31.90500
H  35.13700 48.99400 32.48000
N  35.23300 51.19500 24.17300
C  35.03700 52.19100 25.06800
C  34.68800 53.42800 24.28200
C  34.54800 52.99000 22.90200
C  35.06300 51.59000 22.89100
C  34.24800 54.85600 24.97700
C  34.17600 53.70100 21.62700
O  33.95500 53.09000 20.55200
C  33.93100 55.24100 21.65700
N  36.37700 48.74400 22.70300
C  36.02700 49.56700 21.71100
C  36.41400 49.01300 20.33300
C  37.29200 47.72600 20.88600
C  36.92700 47.62700 22.28500
C  35.23800 48.64800 19.43300
C  38.85400 47.81800 20.64300
C  39.52300 49.20000 20.77200
N  36.63400 47.41900 25.29800
C  37.23300 46.39800 24.52900
C  37.64500 45.33900 25.44700
C  37.37300 45.81300 26.72600
C  36.78100 47.05500 26.62100
C  38.30000 44.07900 25.09100
C  37.32400 45.39200 28.12300
O  37.61100 44.26500 28.62800
C  36.88700 46.67000 28.98600
C  35.62900 46.16900 29.76200
O  34.44400 46.42600 29.45600
O  35.97500 45.43600 30.83600
C  34.93400 44.96400 31.69800
H  34.86800 53.09900 26.87200
H  35.11500 51.20500 20.80400
H  37.84200 45.67600 22.62300
H  34.83100 49.29400 29.98100
H  36.04400 51.87600 29.12600
H  33.74300 52.63400 28.82800
H  33.87900 52.04500 30.45200
H  33.03200 51.07700 29.33300
H  36.91400 50.77500 30.90500
H  37.71100 49.36200 30.14400
H  37.17800 49.51500 32.70100
H  37.01600 48.06200 31.81600
H  33.90800 54.72700 26.00500
H  33.41700 55.34200 24.46700
H  35.03600 55.59000 24.81000
H  34.86400 55.72300 21.95000
H  33.10800 55.46100 22.33800
H  33.62900 55.50500 20.64300
H  36.97200 49.80400 19.83200
H  37.07500 46.81800 20.32400
H  35.39000 49.17100 18.48800
H  34.32900 49.07100 19.86000
H  34.99600 47.60200 19.24900
H  39.08200 47.43300 19.64900
H  39.34200 47.11300 21.31700
H  39.02900 49.83700 21.50500
H  39.63100 49.78200 19.85600
H  40.51400 48.94600 21.15000
H  37.47300 43.37100 25.13800
H  39.06200 43.65100 25.74200
H  38.70400 44.06800 24.07800
H  37.71200 46.96600 29.63400
H  34.57700 44.00000 31.33400
H  34.08300 45.63300 31.82900
H  35.36500 44.93100 32.69800

