158

Mg -1.38000 16.93800 26.45300
C  -1.88100 14.67300 29.19600
C  -2.08500 19.47400 28.70000
C  -1.41000 19.06200 23.90600
C  -1.79800 14.19300 24.28000
N  -1.77600 17.04500 28.66700
C  -1.80100 16.05000 29.59100
C  -2.05800 16.57500 31.09400
C  -2.40000 18.08900 30.84300
C  -2.07400 18.18800 29.34700
C  -3.92300 18.34100 31.11000
C  -0.76800 16.34500 31.95000
C  -0.46200 17.38300 33.04200
H  0.10600 16.73800 34.27400
N  -1.54200 18.96500 26.32500
C  -1.78900 19.87200 27.37200
C  -1.69300 21.22000 26.88700
C  -1.25400 21.09900 25.50300
C  -1.30700 19.65700 25.18800
C  -1.98200 22.44500 27.79100
C  -0.96400 22.16300 24.47800
O  -0.42500 21.88200 23.40000
C  -1.20900 23.59600 24.95500
N  -1.46300 16.62000 24.39200
C  -1.45800 17.74600 23.56900
C  -1.67500 17.24800 22.09500
C  -1.43600 15.71900 22.28800
C  -1.56000 15.47100 23.71400
C  -3.15400 17.55300 21.61600
C  -0.02200 15.32500 21.69100
C  0.05300 13.89000 21.09900
N  -1.75600 14.87100 26.57100
C  -1.90500 13.88800 25.65900
C  -2.25200 12.61500 26.30100
C  -2.17800 12.89500 27.64300
C  -1.87500 14.26400 27.82100
C  -2.49900 11.33100 25.60000
C  -2.47300 12.34400 28.96200
O  -2.76600 11.19200 29.26800
C  -2.29500 13.52600 30.05600
C  -1.31000 13.21200 31.03800
O  -0.11300 13.10500 30.87200
O  -1.88700 12.93600 32.28100
C  -0.95200 12.36000 33.27700
H  -2.14400 20.23800 29.47800
H  -1.47300 19.72400 23.03900
H  -1.95400 13.38300 23.56600
H  -2.87000 16.06600 31.61300
H  -1.67200 18.71200 31.36300
H  -4.58500 18.08500 30.28300
H  -4.03000 19.42300 31.19200
H  -4.30800 17.78700 31.96600
H  0.07300 16.23200 31.26600
H  -1.02600 15.39600 32.42100
H  -1.42000 17.82300 33.31900
H  0.23900 18.14100 32.69400
H  -2.30900 22.12800 28.78100
H  -2.68300 23.13200 27.31800
H  -0.98800 22.87400 27.92300
H  -1.44000 24.22100 24.09300
H  -0.27800 23.92600 25.41700
H  -1.99900 23.80300 25.67700
H  -0.89600 17.71700 21.49300
H  -2.20600 15.20900 21.70900
H  -3.63700 16.75100 21.05900
H  -3.03800 18.46600 21.03200
H  -3.86100 17.74500 22.42300
H  0.69200 15.31400 22.51400
H  0.27600 16.03900 20.92200
H  0.28500 13.96000 20.03700
H  -0.79500 13.23000 21.27900
H  0.88300 13.41700 21.62400
H  -2.67000 11.40300 24.52600
H  -3.35400 10.96900 26.16900
H  -1.69800 10.61000 25.76200
H  -3.23300 13.81300 30.53000
H  -0.77800 13.15100 34.00700
H  0.02500 11.95900 33.00600
H  -1.57800 11.63800 33.80200
Mg 25.32700 0.14700 30.24700
C  27.64600 0.39400 32.86300
C  22.86000 0.58600 32.65400
C  23.20300 -0.05400 27.91400
C  27.94600 -0.54500 28.07600
N  25.34100 0.51500 32.48300
C  26.37800 0.61700 33.27300
C  25.99500 0.95300 34.75100
C  24.41400 0.88400 34.67000
C  24.13300 0.61700 33.17200
C  23.76700 -0.06900 35.66000
C  26.46400 2.35400 35.26900
C  27.43500 2.43300 36.42400
H  27.36600 3.51500 37.47000
N  23.29400 0.24800 30.26700
C  22.47300 0.46000 31.29700
C  21.06700 0.64000 30.80800
C  21.12000 0.31600 29.45200
C  22.54200 0.08300 29.17100
C  19.80300 1.09400 31.57000
C  20.01200 0.11700 28.42900
O  20.21300 -0.35000 27.34700
C  18.57500 0.46200 28.72800
N  25.49200 -0.38900 28.23400
C  24.48500 -0.09800 27.44600
C  24.94400 0.10100 25.97500
C  26.49700 -0.24200 26.01700
C  26.68000 -0.41900 27.54400
C  24.12100 -0.65800 24.85600
C  27.48400 0.77100 25.32500
C  26.96000 1.56000 24.14700
N  27.36900 -0.27300 30.40100
C  28.27900 -0.55600 29.43400
C  29.57200 -0.68400 30.04100
C  29.38800 -0.24400 31.35600
C  28.07100 -0.03300 31.57400
C  30.86700 -1.06100 29.41300
C  30.08200 0.06000 32.64100
O  31.32300 0.06300 32.75900
C  28.98600 0.49600 33.60300
C  29.02100 -0.30500 34.86900
O  28.58000 -1.45300 34.93400
O  29.92400 0.31700 35.76500
C  30.47100 -0.51100 36.78500
H  22.13700 0.65500 33.46900
H  22.44600 0.01200 27.13000
H  28.87900 -0.71400 27.53500
H  26.52000 0.18200 35.31400
H  23.91100 1.83200 34.85700
H  22.69200 0.00400 35.81900
H  24.44600 0.01400 36.50800
H  23.79500 -1.05500 35.19600
H  25.59900 3.01000 35.36300
H  26.93100 2.76700 34.37500
H  28.38200 2.53800 35.89500
H  27.63500 1.51800 36.98000
H  20.11700 1.53900 32.51400
H  19.18800 0.19700 31.64100
H  19.28100 1.82600 30.95400
H  18.19900 -0.13200 29.56000
H  17.93100 0.16900 27.89900
H  18.43700 1.51000 28.99300
H  24.74400 1.11700 25.63600
H  26.59500 -1.20800 25.52100
H  23.47200 -1.37300 25.36200
H  24.85900 -1.02700 24.14300
H  23.53700 0.10500 24.34200
H  28.27600 0.10600 24.98000
H  27.74100 1.39800 26.17900
H  26.10800 1.00700 23.75100
H  27.71700 1.67900 23.37200
H  26.70800 2.58800 24.40700
H  31.73500 -0.40300 29.38400
H  30.70200 -1.54200 28.44800
H  31.23000 -1.92600 29.96700
H  29.23200 1.50600 33.93100
H  29.74100 -0.66700 37.57900
H  31.32600 0.01200 37.21200
H  30.87500 -1.46700 36.45100

