158

Mg 54.72100 22.84500 44.76100
C  52.24400 25.15500 43.78800
C  52.54300 20.36300 43.79500
C  57.22100 20.74300 45.20600
C  56.88900 25.56000 45.39100
N  52.70300 22.74900 43.64500
C  51.86800 23.84400 43.43700
C  50.53500 23.33500 42.80900
C  50.50200 21.88100 43.35000
C  51.97700 21.61000 43.66400
C  49.56600 21.64400 44.53900
C  50.24400 23.45800 41.26400
C  48.95800 24.20300 40.81500
H  48.46300 23.96900 39.39600
N  54.85000 20.78800 44.63900
C  53.91800 19.97700 44.08000
C  54.46900 18.66500 43.93500
C  55.79800 18.71200 44.41900
C  56.00600 20.09900 44.85400
C  53.70900 17.47200 43.40800
C  56.67000 17.55700 44.63400
O  56.27600 16.44700 44.36500
C  58.06900 17.66600 45.26600
N  56.75300 23.13000 45.43500
C  57.62200 22.04000 45.48400
C  59.05200 22.52100 45.56500
C  58.96600 24.11000 45.59200
C  57.44500 24.28800 45.50900
C  59.66500 22.00700 46.86200
C  59.86500 24.85600 44.54900
C  60.98000 25.84100 45.06700
N  54.59600 24.93900 44.74800
C  55.58200 25.91600 45.07600
C  54.97400 27.20000 45.01500
C  53.65400 26.99300 44.54600
C  53.46700 25.54900 44.39400
C  55.60000 28.53700 45.40700
C  52.39500 27.63100 44.25000
O  52.08200 28.81800 44.13200
C  51.48500 26.50000 43.58500
C  51.32600 26.74800 42.12800
O  52.13700 26.40100 41.24700
O  50.23100 27.53700 41.89900
C  49.90500 27.95800 40.49800
H  52.01400 19.48500 43.41900
H  58.08100 20.13500 44.91900
H  57.49500 26.46700 45.45300
H  49.73100 23.85000 43.33600
H  50.28900 21.18400 42.54000
H  50.05500 21.08700 45.33800
H  48.74600 21.06400 44.11600
H  49.12900 22.50900 45.03700
H  50.23900 22.53600 40.68300
H  51.17300 23.96400 40.99900
H  49.08700 25.27300 40.97800
H  48.15500 23.91700 41.49400
H  54.24500 16.63900 42.95300
H  52.89400 17.82900 42.78000
H  53.21000 17.09000 44.29900
H  58.01900 18.28900 46.15900
H  58.83800 17.97800 44.56000
H  58.33800 16.65400 45.57100
H  59.47400 22.03200 44.68600
H  59.11800 24.54400 46.58000
H  59.56300 22.70000 47.69600
H  60.73300 21.79900 46.78800
H  59.24100 21.01700 47.03100
H  59.24300 25.35300 43.80500
H  60.45800 24.07600 44.07100
H  61.97400 25.39400 45.04800
H  60.77800 26.08300 46.11100
H  61.01000 26.67600 44.36800
H  54.86300 29.34100 45.43000
H  56.17600 28.90800 44.56000
H  56.11000 28.49900 46.37000
H  50.53300 26.49900 44.11500
H  49.82700 27.17600 39.74300
H  50.65300 28.64400 40.10000
H  48.92600 28.43700 40.48900
Mg 46.99500 24.67200 28.31700
C  47.30700 27.02700 30.59800
C  46.57300 22.34400 30.75900
C  46.94300 22.38100 26.00900
C  47.72600 27.09800 25.79900
N  46.67100 24.71500 30.43700
C  46.85300 25.80100 31.17100
C  46.63100 25.53400 32.67200
C  46.80600 24.02800 32.69300
C  46.69000 23.65200 31.23300
C  48.11000 23.60000 33.43200
C  45.40300 26.20900 33.31600
C  45.26900 25.87000 34.83000
H  45.25200 26.95700 35.86000
N  46.65700 22.69400 28.35000
C  46.54000 21.91700 29.48400
C  46.32400 20.55200 29.08000
C  46.42700 20.49700 27.65200
C  46.69900 21.90100 27.27100
C  45.86900 19.39800 30.02000
C  46.40200 19.24200 26.69300
O  46.39000 19.42600 25.47100
C  46.35800 17.80000 27.13200
N  47.18800 24.80400 26.18200
C  47.19300 23.63300 25.48200
C  47.47000 23.97700 23.93600
C  47.22600 25.49300 23.86200
C  47.47100 25.83500 25.33000
C  48.84600 23.57700 23.44200
C  45.88400 26.13600 23.38800
C  44.63300 25.49100 23.94200
N  47.62400 26.64800 28.16400
C  47.92100 27.50200 27.12300
C  48.19300 28.84500 27.63200
C  47.87500 28.76000 28.98700
C  47.59200 27.35500 29.28600
C  48.54400 29.98800 26.72700
C  47.81800 29.47200 30.26000
O  48.11800 30.57900 30.65100
C  47.41100 28.36500 31.31600
C  48.55300 28.34400 32.28500
O  49.64900 27.85500 32.08500
O  48.11300 28.74400 33.53100
C  49.01000 28.50400 34.70900
H  46.55900 21.68600 31.63100
H  46.82200 21.69700 25.16600
H  47.81800 27.86200 25.02400
H  47.52000 26.05500 33.02700
H  46.02800 23.56300 33.29700
H  48.98400 23.38300 32.81800
H  47.82500 22.72800 34.02000
H  48.37600 24.35800 34.16900
H  44.48300 25.84300 32.86000
H  45.45600 27.29500 33.24100
H  46.12500 25.24200 35.07700
H  44.35900 25.29800 35.01600
H  46.54800 18.58300 29.76700
H  44.86000 19.20900 29.65300
H  45.95100 19.67900 31.07000
H  47.35600 17.56700 27.50400
H  46.07400 17.12000 26.32900
H  45.60600 17.62500 27.90200
H  46.79300 23.51300 23.22000
H  48.04900 25.90600 23.27800
H  49.24400 22.90300 24.20100
H  49.52400 24.39500 23.20000
H  48.85600 23.10400 22.46000
H  45.95600 26.06400 22.30300
H  45.89000 27.20500 23.59800
H  44.02400 26.32000 24.30400
H  44.80900 24.72800 24.70000
H  44.10000 24.94300 23.16600
H  48.36500 30.96100 27.18600
H  48.01000 29.90300 25.78000
H  49.58400 29.91100 26.41100
H  46.49800 28.68000 31.82000
H  49.58300 27.58200 34.61400
H  48.26800 28.43000 35.50300
H  49.53000 29.43800 34.92400

