158

Mg 46.59900 44.35700 42.60000
C  43.26400 43.43400 42.93400
C  47.25300 40.96300 42.39000
C  49.84100 45.06600 41.88900
C  45.70100 47.70200 42.24700
N  45.37000 42.42400 42.80900
C  44.01000 42.31700 42.81500
C  43.54800 40.86800 42.79200
C  44.94900 40.13300 43.05800
C  45.90800 41.26400 42.64400
C  45.23400 39.65800 44.46600
C  42.84700 40.46700 41.52800
C  43.27100 40.99500 40.13800
H  43.98300 40.16200 39.04700
N  48.30600 43.13100 42.22100
C  48.38300 41.75400 42.23600
C  49.73300 41.29400 41.96200
C  50.47300 42.48600 41.70700
C  49.56000 43.65200 41.95800
C  50.15100 39.83800 42.07600
C  51.94100 42.46800 41.43400
O  52.54300 41.43800 41.29900
C  52.67200 43.84500 41.35600
N  47.55500 46.12000 42.05900
C  48.91600 46.16700 41.95400
C  49.46700 47.60600 41.97700
C  48.18800 48.45500 42.29400
C  47.05200 47.40400 42.12100
C  50.62300 47.98300 42.87100
C  48.06000 49.78300 41.46800
C  47.86300 51.13800 42.26800
N  44.82500 45.45900 42.58100
C  44.61600 46.82500 42.54300
C  43.25200 47.04800 42.80500
C  42.64600 45.75800 42.96700
C  43.64900 44.76900 42.75800
C  42.57800 48.42800 42.75800
C  41.46600 45.04200 43.25000
O  40.31200 45.40800 43.45600
C  41.84300 43.53100 43.30700
C  41.67700 43.03900 44.74800
O  42.29500 43.41600 45.72900
O  40.65000 42.09800 44.87600
C  40.55500 41.36000 46.12300
H  47.40200 39.88200 42.34200
H  50.89200 45.36100 41.93200
H  45.44500 48.76100 42.32800
H  42.88600 40.70000 43.64100
H  45.11900 39.35600 42.31300
H  45.76600 40.46800 44.96500
H  45.99600 38.87900 44.48900
H  44.29800 39.46100 44.98800
H  41.79500 40.64900 41.74900
H  42.96000 39.39600 41.36500
H  43.78500 41.95500 40.18800
H  42.31100 41.20600 39.66700
H  50.39700 39.29300 41.16500
H  49.45100 39.17500 42.58400
H  51.04900 39.85600 42.69300
H  52.23300 44.47700 40.58400
H  53.73300 43.65000 41.20100
H  52.56300 44.16700 42.39100
H  49.81700 47.76600 40.95700
H  48.35400 48.70100 43.34400
H  50.68600 48.99000 43.28400
H  51.54600 47.79600 42.32200
H  50.70200 47.32300 43.73400
H  47.32500 49.72500 40.66500
H  49.06200 49.91800 41.05900
H  47.01400 51.68900 41.86300
H  48.73000 51.79900 42.24500
H  47.71100 50.91600 43.32400
H  41.56900 48.20700 43.10600
H  42.46500 48.87700 41.77100
H  42.93200 49.12900 43.51400
H  41.11500 42.95200 42.74000
H  41.37200 41.60400 46.80200
H  40.62600 40.30400 45.85900
H  39.68100 41.65400 46.70500
Mg 6.52900 54.56800 40.96100
C  6.21300 51.01600 40.79100
C  9.74900 54.30400 40.10100
C  6.54000 57.97900 40.64800
C  2.95200 54.58400 41.29200
N  7.77500 52.87200 40.43600
C  7.50000 51.52400 40.50900
C  8.72200 50.72800 40.21700
C  9.84600 51.79500 40.23400
C  9.05900 53.10400 40.29000
C  10.79400 51.62100 41.49600
C  8.68700 49.95000 38.88200
C  8.50200 50.72800 37.51100
H  7.17400 50.65700 36.79500
N  7.89200 55.94200 40.41200
C  9.21400 55.64100 40.12000
C  9.93800 56.88900 39.94100
C  9.02400 57.89100 39.98600
C  7.72400 57.32200 40.35600
C  11.41800 56.82700 39.61700
C  9.26100 59.36000 39.64400
O  10.44200 59.76300 39.58400
C  8.19400 60.31500 39.31900
N  4.99100 56.07700 40.93200
C  5.25700 57.45100 40.98100
C  3.90100 58.20200 41.22200
C  2.80100 57.13500 41.16400
C  3.57600 55.79300 41.09300
C  4.08100 59.03000 42.46700
C  1.78200 57.26400 39.99400
C  0.32500 57.56400 40.38100
N  4.89500 53.13800 41.16300
C  3.52700 53.28000 41.37300
C  2.91400 51.98400 41.60300
C  3.97600 51.12400 41.47100
C  5.14000 51.81800 41.11600
C  1.45700 51.56300 41.90300
C  4.30400 49.74800 41.42700
O  3.57600 48.82900 41.72500
C  5.73800 49.55700 40.93600
C  5.65400 48.91200 39.57600
O  5.13100 49.42900 38.62000
O  6.28000 47.73800 39.67500
C  6.00900 47.02200 38.45600
H  10.83900 54.27400 40.03700
H  6.48500 59.07000 40.64100
H  1.91400 54.60900 41.62800
H  8.72700 50.09200 41.10300
H  10.41300 51.82800 39.30300
H  11.63300 51.03400 41.12300
H  10.26400 51.14200 42.32000
H  11.04900 52.57600 41.95600
H  8.08500 49.04900 38.99700
H  9.69900 49.59400 38.68500
H  9.13500 50.37200 36.69800
H  8.69700 51.79900 37.57000
H  12.10000 57.53200 40.09200
H  11.46700 57.08100 38.55800
H  11.80700 55.80900 39.65400
H  7.45300 59.68800 38.82200
H  8.50200 61.17000 38.71800
H  7.77000 60.76500 40.21600
H  3.83000 58.84700 40.34600
H  2.22400 56.99100 42.07700
H  4.21000 60.05600 42.12300
H  5.01700 58.77600 42.96400
H  3.18800 58.99200 43.09000
H  1.67900 56.26500 39.57000
H  2.12200 57.87500 39.15800
H  -0.10900 58.43600 39.89100
H  0.15300 57.61400 41.45700
H  -0.23700 56.66800 40.11900
H  1.32100 50.51700 42.17700
H  0.76800 51.65900 41.06400
H  1.21400 52.08800 42.82700
H  6.35200 48.86200 41.50900
H  5.04500 47.19300 37.97700
H  6.12600 46.01400 38.85300
H  6.86400 47.30200 37.84100

