158

Mg -1.80500 17.18600 27.15400
C  -2.13800 14.99100 29.78800
C  -2.44200 19.77300 29.36000
C  -1.83500 19.33600 24.47400
C  -1.71400 14.56300 24.93800
N  -2.49300 17.28600 29.29600
C  -2.29300 16.27000 30.21100
C  -2.42200 16.76100 31.69500
C  -2.54200 18.31500 31.52700
C  -2.46900 18.49200 29.95000
C  -3.80400 18.97400 32.28200
C  -1.28900 16.30600 32.72400
C  -0.86800 17.10700 33.92100
H  -0.49900 16.30200 35.12700
N  -2.03500 19.30400 26.99200
C  -2.24900 20.17300 28.03200
C  -2.32500 21.46200 27.46200
C  -2.06900 21.43200 26.06900
C  -1.97300 19.94300 25.74800
C  -2.49300 22.63800 28.28300
C  -1.98900 22.51800 24.96500
O  -2.00600 22.15900 23.77600
C  -2.07900 23.95000 25.36400
N  -2.02900 16.96600 25.03600
C  -1.88600 18.00300 24.17700
C  -1.70300 17.52300 22.77100
C  -1.35100 16.00500 22.95600
C  -1.79900 15.80100 24.36700
C  -2.93800 17.81300 21.89100
C  0.13800 15.54000 22.57800
C  1.37500 16.23500 23.37700
N  -1.81400 15.16300 27.25000
C  -1.80700 14.18000 26.28000
C  -1.83900 12.85300 26.86800
C  -1.94100 13.13300 28.25400
C  -1.93600 14.51500 28.42400
C  -1.82900 11.61100 26.17200
C  -2.03700 12.52600 29.59200
O  -1.88200 11.35800 29.91800
C  -2.11500 13.67800 30.59100
C  -0.83500 13.58800 31.38300
O  0.28000 13.99600 31.05600
O  -1.12000 13.10900 32.64200
C  0.02500 13.20800 33.58600
H  -2.48600 20.60600 30.06400
H  -1.72300 19.88700 23.53800
H  -1.58400 13.83000 24.13900
H  -3.32800 16.19800 31.91700
H  -1.65800 18.76200 31.98100
H  -3.54000 19.89400 32.80300
H  -4.32200 18.24100 32.90100
H  -4.60300 19.27900 31.60500
H  -0.45200 16.02800 32.08300
H  -1.70600 15.36900 33.09500
H  -1.71700 17.69200 34.27300
H  0.07600 17.61200 33.71500
H  -2.74200 22.29900 29.28800
H  -3.38400 23.14700 27.91400
H  -1.70900 23.39400 28.28500
H  -3.03800 24.02100 25.87900
H  -2.02500 24.58000 24.47600
H  -1.34100 24.28900 26.09100
H  -0.80500 17.99200 22.36700
H  -1.97700 15.29200 22.42000
H  -3.54900 18.58200 22.36400
H  -3.40800 16.83300 21.80100
H  -2.61500 18.15000 20.90600
H  0.34200 15.78000 21.53500
H  0.22300 14.45300 22.55100
H  1.85000 17.00400 22.76800
H  2.15000 15.51000 23.62400
H  0.92600 16.57800 24.31000
H  -1.38300 11.76300 25.18900
H  -2.87700 11.44900 25.92000
H  -1.42200 10.77000 26.73400
H  -2.84000 13.76200 31.40100
H  0.65600 14.06400 33.34800
H  0.70600 12.38000 33.38600
H  -0.21600 13.23900 34.64900
Mg 44.84200 3.72400 46.84400
C  42.90100 6.60500 46.41300
C  42.17300 1.82300 46.00900
C  47.01500 0.99400 46.45400
C  47.71400 5.88000 46.83300
N  42.76700 4.20700 46.34700
C  42.17400 5.46400 46.25100
C  40.70800 5.37900 45.84500
C  40.42100 3.78400 46.02100
C  41.85900 3.21500 46.22200
C  39.44700 3.43200 47.24600
C  40.51000 5.82100 44.35300
C  39.47200 6.87700 44.27600
H  39.63700 7.95200 43.16700
N  44.59300 1.59800 46.35400
C  43.35800 1.03600 46.07500
C  43.60600 -0.36600 45.87400
C  44.98200 -0.63700 46.20600
C  45.60700 0.68400 46.33800
C  42.55200 -1.27600 45.35900
C  45.58400 -2.03300 46.35100
O  44.83700 -3.00700 46.25500
C  46.94900 -2.24300 46.78800
N  47.01400 3.43200 46.66300
C  47.59200 2.21200 46.61600
C  49.12400 2.31200 46.81500
C  49.33700 3.89100 46.81000
C  47.91800 4.47400 46.69200
C  49.68600 1.48900 48.02900
C  50.32600 4.28100 45.69700
C  51.55500 5.15800 46.04100
N  45.23900 5.78900 46.78300
C  46.44000 6.49600 46.80400
C  46.18100 7.94800 46.79300
C  44.76200 8.04800 46.78000
C  44.28400 6.70300 46.72400
C  47.12400 9.00200 46.46900
C  43.62200 8.90500 46.65700
O  43.59500 10.09600 46.69900
C  42.38000 8.02000 46.37000
C  41.39300 8.28700 47.45200
O  41.44600 7.85000 48.60800
O  40.31400 8.94500 46.93500
C  39.17900 9.19300 47.79200
H  41.26700 1.24000 45.83100
H  47.72500 0.16500 46.44400
H  48.46000 6.66500 46.97300
H  39.99400 5.82900 46.53500
H  39.96400 3.30100 45.15700
H  39.86300 2.77900 48.01400
H  38.59900 2.94300 46.76700
H  39.04000 4.35300 47.66200
H  40.07700 4.96200 43.84000
H  41.46100 6.15000 43.93500
H  39.47900 7.38500 45.24100
H  38.50200 6.40600 44.11300
H  42.68500 -1.73300 44.37900
H  41.55700 -0.83700 45.42300
H  42.50800 -2.03900 46.13700
H  46.97700 -3.27300 47.14400
H  47.17100 -1.56000 47.60700
H  47.51100 -2.11700 45.86200
H  49.61500 1.97800 45.90100
H  49.76700 4.21500 47.75800
H  50.09000 0.55400 47.64200
H  48.73200 1.42600 48.55200
H  50.43700 2.13100 48.49100
H  49.74200 4.82000 44.95100
H  50.86300 3.42800 45.28100
H  51.99700 4.95500 47.01700
H  51.39300 6.22000 45.86100
H  52.34400 4.79200 45.38400
H  46.87600 9.89000 47.05100
H  46.91400 9.20400 45.41900
H  48.14000 8.67500 46.69100
H  41.92600 8.40700 45.45700
H  39.13500 10.28100 47.73600
H  39.32000 8.92600 48.83900
H  38.30700 8.66500 47.40500

