158

Mg 1.98800 -1.44400 44.89100
C  5.31500 -0.44600 44.41300
C  0.96500 1.22500 42.94400
C  -1.25800 -2.61500 45.20800
C  3.16400 -4.38100 46.31700
N  3.10700 0.16300 43.80300
C  4.41600 0.37100 43.74600
C  4.68200 1.56000 42.81500
C  3.31700 2.16100 42.58300
C  2.39000 1.10300 43.11200
C  3.07700 3.57500 43.18000
C  5.39800 1.15600 41.42900
C  6.30400 2.25600 40.81700
H  7.51200 1.75000 40.03200
N  0.01900 -0.76100 44.27300
C  -0.13600 0.33400 43.46500
C  -1.55000 0.53600 43.22300
C  -2.27600 -0.55100 43.89500
C  -1.20400 -1.36100 44.50300
C  -2.14700 1.59200 42.32200
C  -3.73100 -0.82800 43.84100
O  -4.50100 -0.18800 43.15300
C  -4.31300 -1.98500 44.51900
N  1.04800 -3.28300 45.55900
C  -0.24800 -3.53200 45.62400
C  -0.50600 -4.95100 46.11700
C  0.87900 -5.46400 46.55200
C  1.78500 -4.34000 46.06000
C  -1.50100 -4.97300 47.25200
C  1.18200 -6.88600 46.14300
C  1.40900 -7.82900 47.38700
N  3.90900 -2.27400 45.23700
C  4.16400 -3.46100 45.90200
C  5.58600 -3.51900 46.17600
C  6.11300 -2.31700 45.58900
C  5.04900 -1.59500 45.08200
C  6.37700 -4.55700 46.83600
C  7.32700 -1.57700 45.32300
O  8.47600 -1.79500 45.63300
C  6.83100 -0.38800 44.41300
C  7.31700 0.88100 45.01800
O  7.23500 1.28500 46.20300
O  7.99900 1.55800 44.04200
C  8.54500 2.89300 44.38000
H  0.64100 2.10000 42.37600
H  -2.23000 -3.02300 45.49300
H  3.40400 -5.32400 46.81300
H  5.34600 2.22700 43.36400
H  3.12800 2.29300 41.51700
H  2.32000 3.53200 43.96300
H  2.74700 4.23600 42.37900
H  4.06600 3.84300 43.55000
H  4.65500 0.89500 40.67400
H  5.99200 0.25300 41.57100
H  6.55300 2.88900 41.66800
H  5.66600 2.84700 40.15900
H  -2.20200 1.45200 41.24300
H  -1.52000 2.46800 42.48900
H  -3.07700 1.94600 42.76800
H  -4.25900 -2.92200 43.96500
H  -5.35800 -1.67500 44.50700
H  -4.17900 -2.09000 45.59600
H  -0.79600 -5.46700 45.20100
H  0.91300 -5.33600 47.63400
H  -2.07900 -5.83500 46.92000
H  -1.96800 -4.01600 47.48800
H  -1.07300 -5.26900 48.21000
H  2.17000 -6.90000 45.68100
H  0.42500 -7.26400 45.45600
H  2.39300 -8.29100 47.30500
H  0.61300 -8.55700 47.23700
H  1.30000 -7.32300 48.34600
H  5.63900 -5.09100 47.43400
H  7.22200 -4.21900 47.43400
H  6.67000 -5.16500 45.98000
H  7.22400 -0.55300 43.41000
H  7.79200 3.48600 44.89900
H  8.64000 3.44100 43.44200
H  9.48400 2.84300 44.93000
Mg 0.72500 7.39800 26.54000
C  1.55900 9.84600 28.91000
C  0.98700 5.01100 28.86500
C  0.20800 5.16700 24.11500
C  1.31700 9.92500 24.14300
N  1.33800 7.46600 28.62200
C  1.38500 8.54800 29.46400
C  1.06500 8.14200 30.90800
C  1.47700 6.63800 30.79100
C  1.24700 6.31900 29.31200
C  2.90700 6.24700 31.24600
C  -0.28300 8.59800 31.41300
C  -0.36000 8.86800 32.89500
H  0.78200 8.54200 33.84600
N  0.45300 5.35400 26.53900
C  0.62400 4.53000 27.56100
C  0.36900 3.17700 27.17600
C  0.01900 3.15600 25.80900
C  0.22400 4.55500 25.41300
C  0.17700 2.04000 28.14900
C  -0.47200 2.06500 24.90900
O  -0.70400 2.20300 23.71800
C  -0.59200 0.65400 25.53000
N  0.66000 7.60000 24.38600
C  0.37500 6.45300 23.62500
C  0.48100 6.75200 22.11800
C  1.04300 8.27500 22.05600
C  0.99300 8.65000 23.59200
C  1.40400 5.69200 21.37500
C  0.18400 9.23100 21.17600
C  -1.25100 9.33700 21.66500
N  1.21900 9.47800 26.46200
C  1.37100 10.31600 25.44300
C  1.57800 11.64600 25.84600
C  1.67800 11.52000 27.26900
C  1.50400 10.19800 27.54800
C  1.72400 12.93700 24.97400
C  1.81400 12.20900 28.53400
O  2.04400 13.38900 28.84900
C  1.66000 11.17700 29.68400
C  2.83400 11.18600 30.48300
O  3.93200 10.68300 30.20800
O  2.66400 11.78200 31.70700
C  3.76100 11.83400 32.69600
H  1.12000 4.26800 29.65400
H  0.10800 4.48600 23.26700
H  1.50400 10.70000 23.39600
H  1.82600 8.65500 31.49500
H  0.60300 6.05900 31.08800
H  2.79000 5.99600 32.30000
H  3.60900 7.04200 30.99400
H  3.15300 5.35800 30.66500
H  -0.97700 7.76500 31.30300
H  -0.59400 9.52100 30.92300
H  -1.15600 8.22700 33.27400
H  -0.55200 9.92800 33.06600
H  -0.84900 1.71200 27.98600
H  0.29000 2.26800 29.20900
H  0.92300 1.27400 27.93900
H  0.19400 0.42100 26.24800
H  -0.53900 -0.08600 24.73200
H  -1.61400 0.59900 25.90500
H  -0.48400 6.62900 21.62500
H  2.04900 8.22700 21.63900
H  2.11200 5.17300 22.02200
H  2.04200 6.05100 20.56800
H  0.75500 4.91200 20.97700
H  0.22200 8.93800 20.12700
H  0.65900 10.21200 21.19100
H  -1.65900 10.33000 21.84800
H  -1.56800 8.85900 22.59200
H  -1.87300 8.82100 20.93400
H  0.87800 13.61000 25.11400
H  1.77000 12.77300 23.89700
H  2.63500 13.45800 25.26800
H  0.83100 11.44800 30.33800
H  4.69200 12.14400 32.22100
H  3.90400 10.93200 33.29100
H  3.71200 12.60600 33.46400

