158

Mg 41.09900 8.60100 29.25900
C  42.90600 9.83600 31.98400
C  38.98900 7.02100 31.62700
C  39.25900 7.40700 26.73900
C  43.63000 9.59500 27.19100
N  40.97000 8.52800 31.57000
C  41.78500 9.11300 32.46800
C  41.23800 9.09000 33.89400
C  39.93300 8.20400 33.80200
C  39.99100 7.88600 32.22200
C  39.77900 7.09900 34.84400
C  41.09300 10.51800 34.51300
C  40.23700 10.68800 35.78800
H  40.87300 11.62900 36.81800
N  39.33500 7.40300 29.23700
C  38.64600 6.91200 30.29800
C  37.31500 6.37900 29.85300
C  37.40100 6.41600 28.46200
C  38.73400 7.01800 28.05300
C  36.13700 6.07900 30.76400
C  36.32400 6.02900 27.45500
O  36.56300 6.11700 26.25400
C  35.07000 5.46300 27.87300
N  41.35500 8.55900 27.25300
C  40.41300 8.00700 26.37400
C  40.82500 8.26100 24.94000
C  42.29800 8.74700 25.14400
C  42.50000 9.04500 26.59300
C  40.61400 6.97300 24.03000
C  42.64300 10.00700 24.22500
C  43.72100 9.76600 23.12300
N  42.89900 9.44000 29.47900
C  43.86700 9.80700 28.55900
C  45.03300 10.34900 29.21700
C  44.61500 10.38100 30.56800
C  43.34100 9.94300 30.67700
C  46.28700 10.77400 28.62500
C  45.12700 10.78100 31.89600
O  46.23300 11.27500 32.26400
C  43.98100 10.42900 32.86300
C  44.41700 9.36300 33.77500
O  44.60100 8.17700 33.51500
O  44.71000 9.97300 34.98700
C  45.47900 9.22600 35.92600
H  38.37600 6.54100 32.39200
H  38.53200 7.13200 25.97200
H  44.54800 9.61600 26.59900
H  41.99800 8.62900 34.52500
H  39.10500 8.91300 33.77600
H  38.94700 7.03400 35.54500
H  40.62300 7.35300 35.48600
H  39.98500 6.12400 34.40300
H  40.81500 11.16100 33.67800
H  42.06500 10.89500 34.83000
H  40.10500 9.67500 36.16900
H  39.26300 11.13100 35.58300
H  36.06500 4.99300 30.81700
H  35.24400 6.63100 30.47300
H  36.43000 6.40000 31.76300
H  34.66800 5.02900 26.95800
H  34.45000 6.31800 28.14100
H  35.09500 4.72200 28.67300
H  40.14600 8.99900 24.51500
H  42.95400 7.92900 24.84700
H  41.50800 6.95100 23.40700
H  39.75300 7.15100 23.38500
H  40.51900 6.01300 24.53600
H  42.97500 10.77100 24.92700
H  41.77700 10.40600 23.69600
H  44.66500 10.13100 23.52800
H  43.49600 10.43900 22.29600
H  43.86500 8.76200 22.72300
H  46.90200 11.16300 29.43700
H  46.15100 11.59300 27.91800
H  46.87200 10.01600 28.10300
H  43.64900 11.36200 33.31800
H  46.47300 8.94200 35.58000
H  44.88600 8.38600 36.28900
H  45.68200 9.78300 36.84100
Mg 16.08000 50.86000 25.98500
C  17.97900 49.71600 28.71800
C  13.76700 52.14300 28.17400
C  14.63600 52.24500 23.34300
C  18.82000 49.88100 23.81700
N  16.00700 51.02000 28.23300
C  16.88500 50.53600 29.13400
C  16.42900 50.76700 30.54700
C  15.01300 51.32700 30.37400
C  14.92800 51.58500 28.83800
C  13.79600 50.48400 30.97500
C  17.50000 51.72000 31.20300
C  17.98700 51.24500 32.62300
H  17.41900 52.11700 33.75100
N  14.33900 51.86500 25.79800
C  13.56600 52.35200 26.78700
C  12.46300 53.12700 26.24600
C  12.67800 53.20000 24.85300
C  13.92900 52.44000 24.56800
C  11.36000 53.63500 27.06500
C  11.79700 53.85000 23.81800
O  12.15500 53.89400 22.64700
C  10.45800 54.36700 24.19100
N  16.64800 50.88700 23.81400
C  15.80700 51.53800 22.97900
C  16.42300 51.50400 21.62300
C  17.80900 50.84200 21.68700
C  17.79400 50.54500 23.18200
C  15.52500 50.70100 20.59300
C  19.05300 51.77600 21.30300
C  20.05100 51.05800 20.23700
N  17.97300 49.88500 26.17600
C  18.95200 49.51700 25.18300
C  19.98000 48.76800 25.82600
C  19.57700 48.75100 27.27300
C  18.41300 49.53700 27.38200
C  21.22800 48.09400 25.31500
C  20.04700 48.37800 28.62000
O  21.03700 47.72200 28.89800
C  19.04400 49.12100 29.59900
C  18.52700 48.21700 30.62200
O  17.63900 47.36700 30.52300
O  19.25600 48.34500 31.77800
C  18.90400 47.48000 32.88900
H  13.08200 52.53300 28.92900
H  14.27000 52.73300 22.43800
H  19.66000 49.61400 23.17300
H  16.43400 49.76900 30.98500
H  14.93700 52.33100 30.79100
H  13.26400 51.15800 31.64600
H  14.04300 49.54700 31.47500
H  13.12700 50.09900 30.20500
H  17.05400 52.70300 31.35200
H  18.23100 51.96600 30.43200
H  19.07100 51.36000 32.60200
H  17.79200 50.18300 32.77100
H  10.44600 53.04200 27.08000
H  11.16600 54.70400 26.97200
H  11.64500 53.64100 28.11700
H  9.95600 54.55400 23.24200
H  10.64100 55.16300 24.91300
H  9.96800 53.54200 24.70900
H  16.49700 52.53100 21.26300
H  17.88300 49.96200 21.04700
H  16.14000 50.62900 19.69500
H  14.64400 51.26500 20.29000
H  15.17300 49.70000 20.84100
H  19.57500 52.08700 22.20800
H  18.64600 52.70100 20.89500
H  19.97300 49.97200 20.18900
H  21.00600 51.38100 20.65100
H  19.96100 51.43700 19.22000
H  22.00600 48.83300 25.51000
H  21.18400 47.83000 24.25800
H  21.58200 47.28400 25.95200
H  19.75200 49.81900 30.04600
H  19.17500 46.47600 32.56300
H  17.89400 47.40800 33.29300
H  19.45900 47.76900 33.78200

