158

Mg 48.25900 34.16800 26.13900
C  46.75800 32.94500 29.02900
C  48.90300 37.18400 27.89900
C  49.89100 35.31800 23.43400
C  47.37100 31.25500 24.43600
N  47.93500 34.90400 28.27900
C  47.34600 34.20700 29.27400
C  47.57200 34.97500 30.63300
C  47.98700 36.43800 30.12700
C  48.28400 36.17500 28.70900
C  46.86200 37.48800 30.30300
C  48.70600 34.48300 31.56000
C  48.68200 34.78200 33.03800
H  47.37200 35.32800 33.62000
N  49.13800 36.03900 25.69500
C  49.32100 37.14200 26.51200
C  49.98800 38.25500 25.84500
C  50.23700 37.75100 24.53700
C  49.74700 36.29200 24.45100
C  50.32400 39.53800 26.52000
C  50.76500 38.51200 23.36900
O  50.78500 38.06600 22.25700
C  51.31100 39.87200 23.51700
N  48.39200 33.43700 24.06100
C  49.33400 34.02600 23.22000
C  49.48900 33.21100 21.98700
C  48.59400 31.89800 22.26600
C  48.03200 32.22700 23.66700
C  49.20100 33.94100 20.63100
C  49.23100 30.49800 22.04100
C  48.91100 29.72000 20.75100
N  47.25000 32.44300 26.61700
C  46.95200 31.39300 25.81000
C  46.11900 30.42300 26.55200
C  46.00400 31.00700 27.79300
C  46.68900 32.22800 27.82900
C  45.62400 29.11400 26.00500
C  45.44000 30.83300 29.02900
O  44.67700 29.97300 29.49000
C  45.98800 31.97900 29.98000
C  46.83500 31.33700 30.99000
O  47.93800 30.91700 30.70400
O  46.23000 31.35200 32.25100
C  47.00200 30.63500 33.24100
H  49.09900 38.09800 28.46300
H  50.54700 35.60200 22.60800
H  46.96800 30.35200 23.97400
H  46.61300 34.97500 31.15100
H  48.87400 36.78700 30.65500
H  46.57500 37.99400 29.38100
H  47.19000 38.32400 30.92100
H  45.95100 37.06400 30.72600
H  49.65500 34.88800 31.21000
H  48.92100 33.42800 31.39500
H  49.51600 35.45700 33.23100
H  48.88300 33.78900 33.43900
H  50.46800 39.53800 27.60000
H  49.71100 40.37300 26.18000
H  51.33900 39.86300 26.28900
H  50.56700 40.60200 23.83600
H  51.91200 40.12500 22.64300
H  52.09900 39.86900 24.27100
H  50.55300 32.99900 21.88400
H  47.72400 31.95100 21.61100
H  48.61400 33.22400 20.05500
H  50.11500 34.11500 20.06200
H  48.70600 34.89100 20.83200
H  49.03100 29.77100 22.82800
H  50.32100 30.50900 22.04900
H  48.38300 30.49900 20.20200
H  48.30900 28.85400 21.02700
H  49.86100 29.44100 20.29300
H  46.35900 28.33600 26.21000
H  45.39900 29.10600 24.93800
H  44.64500 28.96600 26.45900
H  45.18200 32.48100 30.51500
H  46.68000 30.91700 34.24400
H  48.02800 30.95700 33.06700
H  46.83200 29.57900 33.03000
Mg 26.36400 49.89600 27.11600
C  24.29500 51.18200 29.62700
C  28.59800 49.29700 29.66800
C  28.55100 48.82200 24.84700
C  24.30200 51.08300 24.62500
N  26.37800 50.09600 29.38600
C  25.43500 50.63400 30.17000
C  25.68500 50.36000 31.65300
C  27.21100 50.12600 31.56800
C  27.41300 49.68700 30.09400
C  28.06900 51.34400 32.02300
C  24.99100 49.25100 32.41000
C  24.42100 49.41200 33.82600
H  25.45000 49.89300 34.91600
N  28.32300 49.25600 27.19900
C  29.02100 48.94000 28.35000
C  30.35900 48.55000 27.99000
C  30.38700 48.36300 26.58300
C  29.06600 48.79400 26.11700
C  31.45900 48.38600 28.97500
C  31.52100 47.82200 25.69400
O  31.44100 47.76000 24.45900
C  32.85300 47.39600 26.28900
N  26.45200 50.06600 25.01700
C  27.35500 49.31700 24.32200
C  27.02200 49.20400 22.82300
C  25.52300 49.70900 22.81100
C  25.34200 50.25000 24.28700
C  27.88800 50.15700 22.00800
C  24.38200 48.57800 22.56000
C  23.20400 48.97500 21.68000
N  24.57500 50.98100 27.04700
C  23.81000 51.44100 25.94800
C  22.62500 52.16700 26.49000
C  22.84600 52.12000 27.90200
C  23.99100 51.37500 28.23100
C  21.54800 52.90400 25.65200
C  22.24600 52.46300 29.20600
O  21.21700 53.09000 29.42900
C  23.15300 51.86100 30.40700
C  23.68400 53.02000 31.20200
O  24.70900 53.65400 30.90100
O  22.97100 53.18000 32.33300
C  23.51700 54.13900 33.33000
H  29.41100 49.19600 30.38900
H  29.17300 48.58400 23.98200
H  23.57600 51.46500 23.90400
H  25.50800 51.24700 32.26100
H  27.53100 49.24400 32.12300
H  27.40100 52.07900 32.47300
H  28.48600 51.82100 31.13600
H  28.84600 51.09800 32.74700
H  25.68100 48.40800 32.42900
H  24.10800 48.96700 31.83900
H  23.99500 48.47800 34.19100
H  23.84900 50.33500 33.91700
H  31.78900 47.35700 29.11800
H  31.27500 48.73900 29.99000
H  32.29800 48.95300 28.57300
H  33.39300 48.21000 26.77200
H  33.53400 47.09500 25.49200
H  32.67600 46.47500 26.84400
H  27.03800 48.20400 22.39000
H  25.38700 50.44900 22.02300
H  28.78300 50.47200 22.54600
H  27.44200 51.10900 21.72200
H  28.17100 49.69500 21.06300
H  24.04400 48.26000 23.54700
H  24.82600 47.71400 22.06600
H  23.37500 49.91800 21.16100
H  22.33700 49.05000 22.33700
H  23.13700 48.10000 21.03400
H  21.79100 53.08300 24.60400
H  21.64900 53.89500 26.09500
H  20.64100 52.30500 25.57900
H  22.68100 51.08200 31.00600
H  24.39900 53.62100 33.70800
H  22.66700 54.35300 33.97700
H  23.90400 55.02300 32.82200

