158

Mg 24.76000 1.04700 28.75300
C  26.68400 0.60000 31.73400
C  21.99900 1.14700 30.63200
C  22.90700 1.13800 25.91200
C  27.64100 0.19200 26.93100
N  24.42000 0.78600 30.90800
C  25.32100 0.84500 31.95200
C  24.61600 1.05300 33.28900
C  23.07700 1.01200 32.88800
C  23.15200 0.91600 31.34200
C  22.17200 -0.02600 33.67100
C  25.07300 2.38100 34.06200
C  25.87900 2.07800 35.37700
H  25.67400 2.95300 36.60900
N  22.71800 1.23700 28.33500
C  21.73300 1.26900 29.24000
C  20.43300 1.36900 28.63000
C  20.66700 1.22100 27.24300
C  22.16700 1.21600 27.09700
C  19.10900 1.37800 29.48300
C  19.66200 1.07600 26.13500
O  20.03300 0.81400 25.01600
C  18.24100 1.16700 26.42000
N  25.17700 0.67000 26.73400
C  24.25800 0.90300 25.74400
C  24.98000 1.18700 24.42100
C  26.52900 0.97200 24.74700
C  26.48800 0.47300 26.16300
C  24.55300 0.22800 23.27000
C  27.52100 2.24800 24.48000
C  27.11300 3.51900 25.22200
N  26.75300 0.45900 29.14300
C  27.85200 0.19600 28.33500
C  29.04400 0.07200 29.04500
C  28.62700 0.21500 30.39700
C  27.30000 0.43400 30.44100
C  30.43600 -0.17900 28.47400
C  29.08700 0.34200 31.78400
O  30.18400 0.29300 32.21800
C  27.83200 0.65100 32.71600
C  27.92600 -0.37000 33.82400
O  27.69100 -1.52400 33.72500
O  28.46900 0.20600 34.96600
C  28.60100 -0.64800 36.11200
H  21.12100 1.24900 31.27300
H  22.38300 1.14100 24.95400
H  28.62400 0.08100 26.47000
H  24.89900 0.17900 33.87600
H  22.65900 2.00400 33.05800
H  21.42400 0.60300 34.15400
H  22.76000 -0.54400 34.42800
H  21.79300 -0.75800 32.95600
H  24.25800 3.00000 34.43500
H  25.69000 2.97400 33.38700
H  26.92500 2.27800 35.14300
H  25.78400 1.01600 35.60400
H  19.15500 1.48400 30.56700
H  18.48100 0.53500 29.19500
H  18.42900 2.14900 29.12100
H  18.04100 2.14300 26.86300
H  18.10500 0.35100 27.13000
H  17.45900 0.99400 25.68000
H  24.71200 2.20200 24.13100
H  26.92200 0.22500 24.05800
H  24.04100 -0.62400 23.71700
H  25.48400 -0.18500 22.88200
H  24.11000 0.78500 22.44400
H  27.46400 2.47800 23.41600
H  28.54200 1.99400 24.76400
H  27.93800 4.21500 25.06400
H  26.85000 3.36800 26.26900
H  26.27200 3.95900 24.68500
H  31.12900 0.12000 29.26000
H  30.62800 0.44700 27.60300
H  30.70200 -1.20900 28.23600
H  27.84000 1.62500 33.20500
H  29.57000 -0.62300 36.60900
H  28.48300 -1.69600 35.83900
H  27.80200 -0.38600 36.80500
Mg 16.68000 52.49500 26.00300
C  18.51200 50.86800 28.64100
C  14.18500 52.97800 28.21700
C  14.99900 53.81700 23.50000
C  18.87600 50.97000 23.70400
N  16.46100 52.16800 28.24600
C  17.24100 51.39100 29.08100
C  16.72100 51.38500 30.51100
C  15.27400 51.82700 30.36700
C  15.29900 52.35500 28.86300
C  14.18800 50.77700 30.68100
C  17.57100 52.23100 31.37400
C  17.64600 51.84900 32.86700
H  16.91900 52.80400 33.82300
N  14.92700 53.41400 25.90000
C  14.06600 53.56700 26.96500
C  13.00900 54.48900 26.60000
C  13.16300 54.69300 25.19600
C  14.43500 53.98500 24.83100
C  12.00800 54.95200 27.63100
C  12.31600 55.51300 24.31100
O  12.57400 55.64200 23.09600
C  11.04900 56.18500 24.79200
N  16.93400 52.43900 23.83700
C  16.10200 53.16700 23.03300
C  16.58500 53.15700 21.54200
C  17.87400 52.22300 21.66000
C  17.97900 51.85100 23.15200
C  15.54300 52.55400 20.55800
C  19.29500 52.86100 21.32600
C  19.96200 53.67300 22.46800
N  18.46600 51.30400 26.06900
C  19.17100 50.74900 25.03600
C  20.15800 49.87900 25.59000
C  20.05100 49.98600 26.97500
C  18.92400 50.88900 27.25200
C  21.13800 49.01500 24.79700
C  20.55000 49.52500 28.24600
O  21.52200 48.80300 28.40400
C  19.54800 50.08900 29.37600
C  19.02500 48.88300 30.07100
O  18.06600 48.20800 29.74700
O  19.80600 48.71500 31.21600
C  19.09700 47.86500 32.26200
H  13.23000 52.97400 28.74600
H  14.43100 54.29600 22.70000
H  19.40800 50.45600 22.90100
H  16.70100 50.35000 30.85000
H  15.00500 52.65500 31.02200
H  13.55800 51.13800 31.49300
H  14.68300 49.90400 31.10600
H  13.71500 50.49200 29.74100
H  17.29300 53.27800 31.25000
H  18.59500 52.13000 31.01400
H  18.72000 51.74200 33.02000
H  17.25400 50.84300 33.01400
H  11.94200 56.03300 27.50700
H  12.16700 54.72000 28.68400
H  11.00700 54.57300 27.42600
H  10.45600 56.65400 24.00700
H  11.42000 56.98800 25.42900
H  10.38300 55.44100 25.22900
H  16.97600 54.11400 21.19700
H  17.78900 51.30500 21.07900
H  15.32400 53.33700 19.83300
H  14.59000 52.18600 20.93800
H  15.92000 51.65200 20.07600
H  19.17200 53.57400 20.51000
H  20.05200 52.11500 21.08600
H  20.78500 52.99500 22.69500
H  19.32300 53.87100 23.32900
H  20.48300 54.54900 22.08000
H  21.57900 48.22200 25.40100
H  21.85600 49.65600 24.28700
H  20.55000 48.52500 24.02100
H  20.23600 50.72300 29.93600
H  19.69800 46.98500 32.49100
H  18.13900 47.44500 31.95700
H  18.97400 48.29300 33.25700

