158

Mg 53.65700 24.19900 44.59800
C  51.17900 26.48500 43.87300
C  51.62300 21.61900 43.68200
C  56.41800 22.25700 44.14800
C  55.80000 26.96100 45.08100
N  51.71600 24.07100 43.71000
C  50.81900 25.12700 43.62100
C  49.41000 24.71800 43.15800
C  49.59300 23.19800 43.57100
C  51.08200 22.96900 43.67900
C  48.86100 22.74100 44.86700
C  49.20600 25.08000 41.70000
C  48.23600 24.21200 40.90600
H  48.00700 24.62800 39.44000
N  53.97800 22.21600 43.99600
C  52.98600 21.32400 43.69600
C  53.57600 19.99200 43.60400
C  54.93600 20.17300 43.75700
C  55.12900 21.61000 43.89700
C  52.75100 18.73200 43.39700
C  56.04300 19.05000 43.76800
O  55.74800 17.87400 43.58600
C  57.55800 19.21000 43.98800
N  55.82600 24.60800 44.58500
C  56.70100 23.55900 44.55300
C  58.20500 24.06700 44.87000
C  57.97900 25.58300 45.08900
C  56.44000 25.75300 44.85800
C  58.70800 23.45300 46.17900
C  58.96400 26.44400 44.22900
C  58.82900 26.32100 42.70900
N  53.58300 26.34500 44.69400
C  54.46800 27.29100 44.98900
C  53.80400 28.57700 45.05900
C  52.45500 28.31000 44.64300
C  52.40100 26.95200 44.34900
C  54.46300 29.80400 45.64300
C  51.10300 28.93000 44.58500
O  50.64800 30.04100 44.82500
C  50.27100 27.80000 43.87800
C  50.14500 28.37600 42.46700
O  51.07200 28.62800 41.73300
O  48.82600 28.69500 42.17200
C  48.51900 29.02900 40.74200
H  50.93600 20.77000 43.66000
H  57.28200 21.60200 44.27300
H  56.45800 27.80900 45.28000
H  48.65600 25.28100 43.70800
H  49.28000 22.49600 42.79800
H  48.00900 22.11100 44.61300
H  48.43100 23.62300 45.34100
H  49.56000 22.26500 45.55600
H  50.15800 25.11200 41.17000
H  48.69600 26.04400 41.69900
H  47.29200 24.06000 41.43000
H  48.74400 23.25200 40.81400
H  51.88800 18.94100 42.76400
H  52.42500 18.43900 44.39500
H  53.20200 17.82700 42.99100
H  58.08100 18.25400 43.99400
H  57.69000 19.60900 44.99400
H  58.01600 19.92200 43.30200
H  58.89700 23.99200 44.03100
H  58.12500 25.95000 46.10600
H  57.99700 22.73100 46.58300
H  58.79900 24.21100 46.95600
H  59.72100 23.12600 45.94700
H  59.99300 26.15500 44.44400
H  58.85700 27.46600 44.59400
H  58.49000 27.25000 42.25000
H  58.13600 25.58000 42.31200
H  59.87200 26.21500 42.41100
H  55.53400 29.70700 45.82300
H  53.87500 30.14400 46.49600
H  54.30200 30.64500 44.96900
H  49.25400 27.73400 44.26500
H  49.36400 29.11600 40.05900
H  47.97100 29.95500 40.56700
H  47.86400 28.22500 40.40600
Mg -12.61300 15.99400 42.05700
C  -9.66600 14.07200 41.66100
C  -10.98500 18.40100 40.06300
C  -15.48100 17.64000 41.50600
C  -14.34900 13.19900 42.99900
N  -10.46600 16.24000 40.92700
C  -9.48000 15.24900 40.91900
C  -8.24800 15.73400 40.02900
C  -8.80300 17.13200 39.51400
C  -10.22400 17.28400 40.18800
C  -7.87200 18.33000 39.96500
C  -7.77500 14.76600 38.89100
C  -6.22100 14.54800 38.76300
H  -5.52500 15.26100 37.59800
N  -13.11500 17.86000 41.14700
C  -12.29700 18.75400 40.47800
C  -12.92800 20.04900 40.33000
C  -14.26600 19.85900 40.78300
C  -14.29800 18.42200 41.18300
C  -12.22400 21.28400 40.00600
C  -15.39800 20.84900 40.95800
O  -15.24200 22.00800 40.62900
C  -16.72700 20.51900 41.71400
N  -14.65200 15.46000 42.16600
C  -15.68100 16.33400 41.96000
C  -16.98600 15.74300 42.47600
C  -16.54300 14.36800 43.09500
C  -15.13800 14.33400 42.66900
C  -17.92800 16.64500 43.34100
C  -17.40300 13.11000 42.77700
C  -18.94000 13.22300 42.89300
N  -12.17500 14.06400 42.29300
C  -12.98100 13.03100 42.78200
C  -12.11400 11.89600 43.04900
C  -10.80500 12.31700 42.62200
C  -10.91100 13.55500 42.10500
C  -12.45200 10.51100 43.66400
C  -9.41300 11.82600 42.45900
O  -8.83900 10.78900 42.78500
C  -8.60200 12.95000 41.68100
C  -7.52400 13.40600 42.56300
O  -7.59200 13.55100 43.79000
O  -6.33600 13.55100 41.85200
C  -5.16500 14.15300 42.56000
H  -10.46500 19.24100 39.59800
H  -16.42200 18.18000 41.37400
H  -14.90100 12.31900 43.33600
H  -7.54500 15.80300 40.86000
H  -8.88400 17.14700 38.42800
H  -6.94400 17.98500 40.42100
H  -8.37200 19.09900 40.55500
H  -7.61000 18.95800 39.11400
H  -8.20900 15.05700 37.93500
H  -8.27000 13.79600 38.94300
H  -5.97100 13.49400 38.88700
H  -5.67500 14.91200 39.63300
H  -12.92000 21.73400 39.29800
H  -11.18700 21.18500 39.68500
H  -12.20300 21.90600 40.90100
H  -17.20700 19.92700 40.93400
H  -17.22300 21.47700 41.86800
H  -16.50900 19.96500 42.62700
H  -17.55800 15.38300 41.62100
H  -16.57100 14.56400 44.16700
H  -17.52700 17.65700 43.39800
H  -17.98200 16.25300 44.35700
H  -18.91800 16.72600 42.89200
H  -17.04100 12.43600 43.55300
H  -17.15100 12.59100 41.85200
H  -19.41000 12.28100 42.61300
H  -19.30100 13.93800 42.15300
H  -19.22700 13.47500 43.91300
H  -12.25300 9.72900 42.93100
H  -13.46100 10.43000 44.06800
H  -11.79400 10.44600 44.52900
H  -8.24400 12.39100 40.81700
H  -4.35100 13.48600 42.27700
H  -5.35800 14.19000 43.63300
H  -5.02600 15.14800 42.13800

