158

Mg 8.27400 3.10000 27.77900
C  9.80200 1.91200 30.68000
C  6.72900 5.59000 29.48700
C  6.36200 3.68400 25.05400
C  10.06600 0.66300 26.01100
N  8.22300 3.62300 29.76800
C  8.91400 3.04900 30.81300
C  8.52000 3.73300 32.18100
C  7.59000 4.85100 31.72400
C  7.47700 4.68900 30.18000
C  6.27600 5.07000 32.57300
C  9.89500 4.09100 32.97100
C  9.76200 5.17300 34.03500
H  10.54900 4.96700 35.39900
N  6.78900 4.48800 27.34700
C  6.35900 5.48300 28.14900
C  5.31600 6.32100 27.44300
C  5.11400 5.66800 26.21400
C  6.06900 4.57200 26.14300
C  4.68700 7.47100 28.01400
C  4.10100 5.99400 25.17000
O  4.05500 5.40400 24.12400
C  3.18200 7.13600 25.27400
N  8.14700 2.23100 25.78200
C  7.22100 2.65800 24.89300
C  7.36400 1.80100 23.55400
C  8.73500 1.11800 23.82800
C  9.00000 1.33800 25.29700
C  6.16900 0.87700 23.25200
C  9.96200 1.56200 22.99900
C  10.91600 0.48700 22.62500
N  9.61600 1.61800 28.18500
C  10.14400 0.59500 27.36900
C  10.93900 -0.31400 28.15600
C  10.87200 0.24100 29.45300
C  10.04600 1.33200 29.44500
C  11.85700 -1.44400 27.75700
C  11.37500 0.08600 30.83400
O  12.25100 -0.62800 31.33500
C  10.57700 1.13000 31.70400
C  9.71400 0.33300 32.59400
O  8.56600 -0.00500 32.30200
O  10.43700 0.10800 33.81200
C  9.59100 -0.70700 34.71700
H  6.29300 6.36500 30.12000
H  5.77600 3.89500 24.15700
H  10.69200 -0.08700 25.52300
H  8.09400 2.87500 32.70000
H  8.19200 5.72600 31.97000
H  5.36500 5.37700 32.05900
H  6.41800 5.86100 33.30900
H  5.98900 4.15200 33.08600
H  10.66600 4.46800 32.29900
H  10.24800 3.19900 33.48900
H  8.68800 5.32600 34.14200
H  10.16000 6.08500 33.59000
H  3.65600 7.40000 28.35900
H  4.56500 8.31700 27.33700
H  5.26100 7.85900 28.85500
H  2.78500 7.11800 26.28900
H  2.42500 6.92300 24.51800
H  3.71800 8.07900 25.17200
H  7.41000 2.53800 22.75200
H  8.77900 0.06200 23.56200
H  6.32800 -0.13500 22.87800
H  5.45400 1.35900 22.58500
H  5.62100 0.78000 24.18900
H  10.60200 2.29200 23.49400
H  9.56100 2.03500 22.10300
H  10.82700 -0.42500 23.21500
H  11.90400 0.91400 22.79300
H  10.83800 0.25400 21.56300
H  12.84000 -1.19600 28.15800
H  11.88500 -1.59000 26.67700
H  11.55900 -2.40800 28.17000
H  11.26400 1.81400 32.20300
H  9.16900 -1.47400 34.06700
H  8.83100 -0.11400 35.22500
H  10.14100 -1.24800 35.48700
Mg 34.94800 2.72800 30.00100
C  32.77000 3.61800 32.57900
C  37.49700 2.94100 32.13200
C  36.89200 2.57600 27.29800
C  32.17800 3.14900 27.80500
N  35.08000 3.33200 32.10600
C  34.10700 3.43900 33.02500
C  34.69300 3.44500 34.45600
C  36.21500 3.51600 34.25800
C  36.28300 3.18700 32.71600
C  36.91300 4.84800 34.55200
C  34.19400 2.13500 35.16900
C  34.04800 2.24600 36.71200
H  34.86600 3.37200 37.36300
N  37.02100 2.68300 29.80500
C  37.87400 2.70400 30.78100
C  39.20800 2.36700 30.18300
C  39.00000 2.26500 28.78900
C  37.54700 2.47200 28.53300
C  40.42000 2.28900 31.07000
C  40.13600 2.15700 27.65100
O  39.88500 2.31600 26.46200
C  41.60200 1.82000 28.05700
N  34.52100 2.97700 27.88300
C  35.56700 2.80800 26.95300
C  34.98400 2.85600 25.52300
C  33.42500 2.68500 25.70800
C  33.34100 2.93700 27.22700
C  35.35000 4.11300 24.65300
C  32.96900 1.28800 25.35400
C  32.83000 0.10900 26.38700
N  32.88500 3.25000 30.13600
C  31.95200 3.32000 29.15400
C  30.67400 3.63900 29.73000
C  30.86000 3.79900 31.10900
C  32.26100 3.52600 31.27100
C  29.35500 4.00700 29.07600
C  30.32700 4.10200 32.44400
O  29.17000 4.44700 32.69800
C  31.49100 3.81000 33.44000
C  31.66200 4.98600 34.35200
O  32.19300 6.01800 34.00300
O  31.13900 4.83000 35.62100
C  31.29800 5.93800 36.60800
H  38.34700 3.02000 32.81300
H  37.58800 2.42100 26.47200
H  31.30500 3.25000 27.15600
H  34.28700 4.35500 34.90000
H  36.61100 2.66300 34.80800
H  37.62300 4.84700 35.37900
H  36.11400 5.58400 34.63900
H  37.37900 5.25000 33.65200
H  34.85800 1.34100 34.82800
H  33.23300 1.80700 34.77400
H  34.41500 1.34000 37.19500
H  33.01300 2.41000 37.01100
H  40.17400 2.59200 32.08700
H  41.19000 2.96000 30.68900
H  40.69700 1.23600 31.12100
H  41.59500 0.88400 28.61400
H  42.19500 2.62300 28.49500
H  41.98500 1.60300 27.06000
H  35.52100 2.00600 25.10100
H  32.83600 3.47000 25.23200
H  35.92400 3.88100 23.75600
H  36.03500 4.78000 25.17600
H  34.49900 4.66300 24.25100
H  33.67500 0.93700 24.60300
H  31.98500 1.28900 24.88600
H  33.49800 0.28300 27.23100
H  32.99400 -0.84100 25.87800
H  31.80600 0.11000 26.76000
H  28.95200 4.80600 29.69900
H  28.78700 3.09900 28.87600
H  29.46200 4.45200 28.08600
H  31.24000 2.97100 34.08800
H  31.72800 6.88000 36.27000
H  31.97300 5.46400 37.32100
H  30.39300 6.13200 37.18500

