158

Mg 35.37600 1.21300 29.25800
C  33.30500 2.29300 31.85400
C  37.83200 0.87500 31.63700
C  37.73600 0.46500 26.84200
C  32.95300 1.84500 26.96300
N  35.56200 1.76900 31.50800
C  34.55000 1.98200 32.31300
C  34.98600 1.91300 33.76200
C  36.52300 1.75100 33.67100
C  36.68800 1.45800 32.20100
C  37.56100 2.75300 34.32400
C  34.18200 0.88900 34.61600
C  33.97400 1.14300 36.10700
H  34.72000 2.29100 36.74800
N  37.48400 0.83400 29.20700
C  38.25900 0.64400 30.27800
C  39.53500 0.09200 29.85300
C  39.60200 0.17500 28.47200
C  38.23500 0.50300 28.11800
C  40.60200 -0.26800 30.91300
C  40.76900 -0.07400 27.49800
O  40.58100 0.08200 26.29900
C  42.01400 -0.58100 27.94000
N  35.27600 1.15000 27.19900
C  36.41200 0.87400 26.39100
C  36.02100 0.67600 24.92000
C  34.49300 1.10600 24.98700
C  34.21300 1.32600 26.49000
C  36.81000 1.39600 23.79200
C  33.52000 0.15600 24.27800
C  33.12000 -1.14500 25.05600
N  33.50100 2.00700 29.29600
C  32.64400 2.14100 28.27900
C  31.39200 2.54400 28.78900
C  31.56300 2.68200 30.18400
C  32.83700 2.23400 30.49300
C  30.08500 2.66800 28.05800
C  30.90500 2.95300 31.46600
O  29.72200 3.20800 31.77700
C  31.99500 2.63400 32.55600
C  32.00200 3.85500 33.43200
O  32.72100 4.78000 33.34900
O  31.10300 3.66200 34.51100
C  31.06000 4.83100 35.45400
H  38.48000 0.75200 32.50700
H  38.44100 0.09800 26.09400
H  32.16800 2.08600 26.24400
H  34.78000 2.87000 34.24200
H  36.66900 0.79500 34.17400
H  38.20800 2.29000 35.07000
H  36.91600 3.50600 34.77400
H  38.11100 3.36000 33.60500
H  34.71200 -0.06400 34.62300
H  33.21300 0.68800 34.15900
H  34.06800 0.21900 36.67700
H  32.89900 1.31400 36.16500
H  40.20900 -0.37500 31.92400
H  41.50900 0.32700 30.80700
H  41.00600 -1.22900 30.59300
H  42.56100 0.25700 28.37300
H  42.62400 -0.97700 27.12900
H  41.88200 -1.39800 28.64900
H  36.00000 -0.37300 24.62600
H  34.35800 2.06100 24.47800
H  37.07000 0.67800 23.01400
H  37.69900 1.94700 24.10000
H  36.14400 2.14400 23.36300
H  34.01200 -0.21000 23.37700
H  32.66700 0.72300 23.90500
H  33.92600 -1.55300 25.66500
H  32.78500 -1.81100 24.26100
H  32.18800 -1.01200 25.60600
H  29.29800 2.33500 28.73500
H  29.96800 2.08900 27.14200
H  29.90700 3.69600 27.74500
H  31.58600 1.78200 33.09900
H  31.90400 4.73500 36.13600
H  30.12600 4.71700 36.00400
H  31.05400 5.78800 34.93200
Mg 41.51600 41.61100 27.18400
C  40.65100 44.09200 29.54500
C  42.10200 39.40000 29.81500
C  42.37800 39.39300 25.00100
C  40.96600 44.02800 24.68200
N  41.58000 41.81500 29.41300
C  40.92700 42.82400 30.13000
C  40.91600 42.53300 31.62300
C  41.33500 41.00100 31.60300
C  41.74500 40.69600 30.18800
C  42.36400 40.55600 32.64100
C  39.55700 42.89500 32.28500
C  38.89600 42.15000 33.49000
H  38.00700 42.88100 34.57600
N  42.11700 39.62900 27.42800
C  42.28100 38.87300 28.53900
C  42.58200 37.52400 28.20200
C  42.60200 37.46600 26.82400
C  42.35100 38.90900 26.36700
C  42.86600 36.37500 29.17000
C  42.85400 36.31800 25.91400
O  42.89100 36.36800 24.69100
C  43.12000 34.93400 26.46100
N  41.87600 41.79400 25.10800
C  42.08000 40.61300 24.43800
C  41.93000 40.87700 22.88900
C  41.24000 42.25300 22.88200
C  41.33300 42.71800 24.33600
C  43.32800 40.78500 22.26800
C  39.63800 42.24300 22.56300
C  38.80400 41.20300 23.39100
N  40.94800 43.63000 27.15400
C  40.93400 44.53900 26.04500
C  40.57000 45.82000 26.49500
C  40.47900 45.73000 27.87700
C  40.77600 44.34300 28.21200
C  40.35700 47.01800 25.68300
C  40.09000 46.48800 29.07700
O  39.67200 47.60300 29.28800
C  40.19400 45.42500 30.18000
C  41.12200 45.94300 31.20800
O  42.33100 45.97200 31.06200
O  40.43300 46.37000 32.28400
C  41.15000 46.90400 33.44100
H  42.16300 38.65800 30.61300
H  42.77100 38.74800 24.21200
H  40.95900 44.71700 23.83500
H  41.63600 43.22300 32.06300
H  40.44200 40.41100 31.81000
H  41.87600 39.88400 33.34800
H  42.68900 41.43100 33.20300
H  43.21200 40.03500 32.19600
H  38.77800 42.95100 31.52500
H  39.73900 43.87000 32.73600
H  39.63500 41.47100 33.91600
H  38.14000 41.47400 33.09100
H  42.20200 35.51100 29.18900
H  42.97400 36.55700 30.24000
H  43.83300 36.00600 28.83000
H  42.23400 34.72000 27.05900
H  44.04000 35.06300 27.03100
H  43.22300 34.10500 25.76000
H  41.16400 40.22100 22.47600
H  41.80300 42.99500 22.31600
H  43.66900 41.69100 21.76800
H  43.20900 39.93400 21.59600
H  44.19400 40.63300 22.91200
H  39.45700 41.88700 21.54900
H  39.13200 43.20500 22.64100
H  38.12400 41.71000 24.07600
H  39.33900 40.37100 23.84800
H  38.22200 40.73800 22.59600
H  39.89700 47.75200 26.34600
H  39.69900 46.86300 24.82800
H  41.33600 47.34900 25.33800
H  39.22000 45.35800 30.66500
H  41.35000 46.16800 34.22000
H  40.53600 47.63000 33.97300
H  42.14400 47.27300 33.18900

