158

Mg 42.53000 41.33600 26.94500
C  41.51000 43.52400 29.40200
C  43.09900 39.05700 29.26300
C  43.87400 39.45500 24.50400
C  42.17100 44.06300 24.62000
N  42.39400 41.32000 29.15600
C  41.84800 42.30300 29.90900
C  42.02300 41.93300 31.47000
C  42.53600 40.52500 31.39800
C  42.71900 40.28000 29.86600
C  43.91700 40.25800 32.10800
C  40.64500 42.22000 32.22000
C  40.22900 41.41000 33.43800
H  39.56200 42.19200 34.57100
N  43.42700 39.45400 26.96500
C  43.48900 38.59800 27.99200
C  44.09900 37.38400 27.52200
C  44.34800 37.47400 26.11700
C  43.88300 38.80400 25.81300
C  44.55000 36.27300 28.51500
C  44.86700 36.42700 25.18300
O  45.15400 36.75100 24.04200
C  45.07100 34.99400 25.64100
N  42.97700 41.68400 24.89800
C  43.52000 40.74900 24.10800
C  43.76800 41.34000 22.69600
C  43.01200 42.66300 22.69200
C  42.68000 42.85100 24.12000
C  45.35500 41.41000 22.42500
C  41.90500 42.68500 21.66700
C  40.51900 42.06300 22.05800
N  42.09500 43.41800 26.95200
C  41.90600 44.38700 25.94100
C  41.46100 45.61400 26.54400
C  41.40300 45.32300 27.92100
C  41.61500 43.93300 28.03100
C  41.23200 46.85900 25.72600
C  41.02700 45.91400 29.17700
O  40.56700 46.97900 29.47700
C  41.07900 44.77700 30.17600
C  42.00600 45.19800 31.20100
O  43.26100 45.13700 31.06900
O  41.37900 45.77900 32.27900
C  42.25600 46.66400 33.06900
H  43.00200 38.27400 30.01900
H  44.35900 38.95600 23.66300
H  41.78800 44.84600 23.96200
H  42.78100 42.62500 31.83600
H  41.77300 39.85200 31.78900
H  44.73900 39.98200 31.44700
H  43.82500 39.41700 32.79500
H  44.20500 41.08900 32.75100
H  39.97100 42.04700 31.38100
H  40.45200 43.27200 32.42900
H  41.06300 40.82600 33.82800
H  39.45000 40.72500 33.10400
H  45.58100 36.02400 28.26300
H  43.99100 35.34400 28.40600
H  44.55500 36.65200 29.53700
H  45.86600 34.87600 26.37700
H  45.29200 34.46500 24.71400
H  44.10700 34.66800 26.03200
H  43.34600 40.63400 21.98200
H  43.74200 43.43200 22.44000
H  46.05900 41.07100 23.18500
H  45.61900 42.42200 22.11900
H  45.50800 40.71000 21.60200
H  42.18600 42.05900 20.82100
H  41.68700 43.70700 21.35600
H  39.71700 42.79400 21.95900
H  40.52800 41.61700 23.05300
H  40.24100 41.24500 21.39400
H  42.14900 47.33500 25.38000
H  40.66700 47.57900 26.31800
H  40.75500 46.40000 24.86000
H  40.10400 44.61600 30.63700
H  43.07900 47.19400 32.58900
H  42.52300 46.12100 33.97500
H  41.49900 47.41500 33.29700
Mg -2.05000 33.97000 25.57300
C  -3.81800 32.49400 28.29200
C  -0.86200 36.34500 27.93500
C  -1.04700 35.88800 23.08900
C  -3.59700 31.80700 23.43600
N  -2.32800 34.37100 27.75800
C  -3.06900 33.56500 28.67100
C  -2.78900 33.96900 30.09000
C  -2.12700 35.40500 29.91800
C  -1.75600 35.36200 28.45700
C  -2.99900 36.61300 30.32800
C  -1.84800 32.93900 30.89300
C  -2.26800 32.31400 32.19900
H  -1.17700 31.83700 33.12500
N  -1.03800 35.83400 25.50500
C  -0.52500 36.58400 26.59500
C  0.26000 37.65200 26.02800
C  0.14500 37.53800 24.55100
C  -0.72300 36.41200 24.34200
C  1.15600 38.63000 26.84700
C  0.76600 38.43800 23.49600
O  0.52100 38.26800 22.29100
C  1.71800 39.49900 23.86900
N  -2.40900 33.92900 23.54600
C  -1.83300 34.83300 22.66900
C  -1.94700 34.30600 21.23400
C  -2.54800 32.92200 21.43900
C  -2.79300 32.81500 22.91800
C  -2.76600 35.11200 20.31400
C  -1.78000 31.67300 20.93800
C  -0.43700 31.33300 21.54900
N  -3.44400 32.47700 25.76400
C  -3.89800 31.60500 24.83400
C  -4.87400 30.72000 25.41500
C  -4.76900 31.00100 26.78300
C  -3.91800 32.05000 26.94500
C  -5.87500 29.87800 24.72500
C  -5.37000 30.64000 28.01800
O  -6.25700 29.84600 28.33200
C  -4.55200 31.45700 29.13400
C  -5.41300 32.12500 30.18000
O  -6.11200 33.10200 29.99900
O  -5.15300 31.49200 31.35500
C  -5.95600 31.91400 32.46100
H  -0.24100 36.96700 28.58200
H  -0.63700 36.48500 22.27200
H  -3.99500 31.09300 22.71100
H  -3.67100 34.19300 30.68900
H  -1.26600 35.45300 30.58500
H  -2.98600 37.38000 29.55400
H  -2.62000 37.04300 31.25500
H  -4.00000 36.26600 30.58300
H  -0.80300 33.21900 31.02900
H  -1.74200 32.05900 30.26000
H  -2.97500 31.49700 32.05000
H  -2.84800 33.05200 32.75300
H  2.16800 38.82800 26.49600
H  1.19400 38.29900 27.88500
H  0.66500 39.60100 26.92300
H  1.37700 40.34500 24.46400
H  1.98600 39.84400 22.87100
H  2.57200 38.98300 24.31000
H  -0.95300 34.27500 20.78800
H  -3.58200 32.87500 21.10000
H  -3.22000 35.90200 20.91300
H  -3.61900 34.61600 19.85000
H  -2.14300 35.57700 19.55000
H  -1.58700 31.90800 19.89200
H  -2.48400 30.84100 20.97800
H  0.39000 31.57300 20.88100
H  -0.37000 30.27200 21.79000
H  -0.23600 31.84600 22.48900
H  -5.77400 30.00400 23.64700
H  -6.88400 30.09700 25.07300
H  -5.67100 28.83700 24.97800
H  -3.75900 30.95400 29.68700
H  -6.99200 32.14300 32.21100
H  -5.47200 32.81300 32.84100
H  -5.98100 31.15000 33.23800

