158

Mg 7.30700 3.15300 27.66500
C  8.56500 1.99700 30.74500
C  5.18300 5.14900 29.42300
C  5.98900 4.12600 24.77500
C  8.95300 0.51300 26.02900
N  7.05100 3.55700 29.89700
C  7.68900 3.03100 30.97700
C  7.23300 3.70500 32.32400
C  5.99200 4.49200 31.84900
C  6.08500 4.49900 30.26800
C  4.60100 3.86900 32.35300
C  8.35300 4.57600 33.06100
C  8.67300 4.12100 34.48600
H  9.69200 4.89700 35.34500
N  5.75000 4.40900 27.16200
C  5.00500 5.17100 27.99700
C  4.07700 5.90700 27.26600
C  4.32200 5.73700 25.84100
C  5.41100 4.77100 25.86300
C  2.95900 6.52000 28.01000
C  3.65200 6.35300 24.66300
O  4.02400 6.02800 23.50600
C  2.61000 7.38000 24.91900
N  7.41400 2.43700 25.69200
C  7.03200 3.22700 24.66100
C  7.42900 2.63100 23.30600
C  8.30600 1.37100 23.71900
C  8.26500 1.43100 25.25700
C  6.27500 2.28100 22.30400
C  9.68600 1.30900 23.11700
C  10.06400 0.04700 22.32600
N  8.57500 1.59700 28.17300
C  9.16400 0.61000 27.39000
C  10.04800 -0.13500 28.23400
C  9.86200 0.38800 29.51000
C  8.94100 1.39700 29.48200
C  10.97400 -1.30900 27.83200
C  10.32600 0.28700 30.89600
O  11.13300 -0.50000 31.36100
C  9.58600 1.37100 31.70700
C  9.02300 0.60300 32.82800
O  7.89800 0.08700 32.99500
O  10.00900 0.68100 33.87300
C  9.45500 0.42500 35.23000
H  4.51700 5.79600 29.99800
H  5.89000 4.61700 23.80500
H  9.51400 -0.25100 25.48700
H  6.98600 2.85800 32.96500
H  6.00900 5.55100 32.10600
H  3.97400 3.51100 31.53600
H  4.01500 4.57300 32.94500
H  4.86800 3.07600 33.05100
H  8.17600 5.64700 32.96200
H  9.27500 4.40500 32.50500
H  9.10300 3.13000 34.33700
H  7.79100 3.90300 35.08800
H  3.31200 7.52800 28.23000
H  2.80000 6.08900 28.99900
H  2.04100 6.42600 27.43000
H  1.69600 6.93600 25.31400
H  2.37000 7.88800 23.98600
H  3.05700 8.08500 25.62000
H  8.11500 3.36600 22.88500
H  7.75000 0.47200 23.45300
H  5.45700 2.36900 23.01900
H  6.25300 1.25200 21.94600
H  6.15300 2.98500 21.48100
H  10.38800 1.29700 23.95000
H  9.99800 2.11800 22.45700
H  9.25600 -0.66400 22.15500
H  10.97600 -0.32500 22.79400
H  10.55300 0.14100 21.35600
H  10.42900 -2.25200 27.88900
H  11.84800 -1.21700 28.47700
H  11.16400 -1.15800 26.76900
H  10.27500 2.12000 32.09700
H  8.71100 1.19000 35.45200
H  10.25000 0.38200 35.97600
H  8.94500 -0.52100 35.41000
Mg 43.06100 41.57500 27.34200
C  42.23000 43.81300 29.77400
C  43.71400 39.19100 29.80800
C  44.40100 39.44100 24.93400
C  42.78600 44.06700 24.97200
N  43.09500 41.50400 29.55900
C  42.55800 42.53000 30.29400
C  42.42600 42.05800 31.78200
C  43.26000 40.76200 31.81100
C  43.42300 40.46500 30.28900
C  44.72800 41.04100 32.46600
C  40.90400 41.86600 32.11600
C  40.33900 42.76400 33.27100
H  39.80500 42.26500 34.66100
N  43.87000 39.59600 27.36000
C  43.95300 38.81000 28.47100
C  44.43800 37.51800 27.99600
C  44.64700 37.49200 26.61000
C  44.29100 38.89300 26.24800
C  44.74700 36.38800 28.93300
C  45.08800 36.32300 25.73100
O  45.36400 36.53200 24.55200
C  45.16400 34.93600 26.15900
N  43.31000 41.69800 25.26100
C  43.96800 40.69700 24.44700
C  44.05800 41.14400 22.96300
C  43.30000 42.49600 23.02500
C  43.05500 42.79100 24.53700
C  45.49200 41.14400 22.32100
C  42.00600 42.49500 22.17000
C  40.75400 41.66600 22.56500
N  42.60400 43.53900 27.34100
C  42.48700 44.43400 26.28600
C  41.98700 45.72400 26.76800
C  41.81400 45.56200 28.15300
C  42.30500 44.22300 28.43200
C  41.78500 46.99700 25.94400
C  41.42900 46.09500 29.40800
O  40.99000 47.18200 29.73300
C  41.67000 44.98900 30.48300
C  42.64800 45.52300 31.57100
O  43.88200 45.75100 31.59700
O  41.92000 45.53900 32.76400
C  42.71700 46.14100 33.92800
H  44.01300 38.45200 30.55400
H  44.89500 38.75100 24.24600
H  42.60700 44.86800 24.25100
H  42.93700 42.78500 32.41200
H  42.69100 39.98800 32.32600
H  45.55900 40.65100 31.87800
H  44.82000 40.52800 33.42300
H  44.94200 42.11000 32.48100
H  40.67000 40.81500 32.28400
H  40.27500 42.03500 31.24200
H  39.60200 43.35700 32.73000
H  41.18300 43.33600 33.65500
H  43.94000 35.65600 28.97400
H  44.81000 36.82100 29.93100
H  45.72800 35.99500 28.66600
H  46.00400 34.38400 26.58000
H  44.78600 34.54700 25.21300
H  44.26100 34.83400 26.76000
H  43.44100 40.43400 22.41200
H  43.97500 43.22000 22.56900
H  45.39100 40.66000 21.34900
H  46.05800 40.57200 23.05600
H  46.01700 42.09900 22.29800
H  42.40100 42.18000 21.20500
H  41.70600 43.53800 22.07000
H  40.45400 40.93200 21.81700
H  39.95000 42.38400 22.72500
H  40.92800 41.01400 23.42100
H  42.02300 47.89600 26.51200
H  40.73500 47.01000 25.65000
H  42.29800 46.91300 24.98600
H  40.72700 44.69800 30.94600
H  42.73300 47.19200 33.64000
H  43.68700 45.69400 34.14400
H  42.17200 46.09800 34.87200

