158

Mg 54.07100 24.76100 44.61600
C  51.14800 26.54200 43.95800
C  52.31600 21.90800 43.84100
C  57.00300 23.35200 44.01100
C  55.66700 27.86100 45.26500
N  51.92600 24.26400 43.76800
C  50.91200 25.17200 43.75900
C  49.63500 24.47800 43.43700
C  49.98100 22.92700 43.69600
C  51.50800 22.97900 43.73200
C  49.25400 22.47000 45.00800
C  49.05600 24.67100 42.01200
C  50.02600 24.87100 40.79300
H  49.40900 25.08100 39.42700
N  54.56600 22.83500 44.00500
C  53.71900 21.75300 43.90300
C  54.43800 20.55200 43.84600
C  55.81600 20.98000 43.87700
C  55.89200 22.43900 43.95800
C  53.90800 19.22300 43.70600
C  56.91000 19.94800 43.89500
O  56.69500 18.76600 43.88100
C  58.34700 20.44900 43.96000
N  55.99500 25.55400 44.55100
C  57.07900 24.72500 44.32000
C  58.44000 25.43700 44.52400
C  57.98500 26.85000 44.93400
C  56.46600 26.81000 44.83300
C  59.43800 24.74400 45.52800
C  58.72300 27.98300 43.98900
C  57.95200 28.34300 42.75100
N  53.55500 26.82700 44.77600
C  54.24100 27.93500 45.14300
C  53.30500 29.02200 45.48200
C  52.09500 28.55100 44.86400
C  52.32400 27.20100 44.36000
C  53.64400 30.29100 46.22000
C  50.72200 28.92400 44.60100
O  50.05500 29.94900 44.72500
C  50.14100 27.62500 43.94700
C  49.60300 27.89400 42.63200
O  50.28400 28.09800 41.59200
O  48.23900 28.11700 42.71700
C  47.57700 28.26200 41.41300
H  51.69600 21.01200 43.90400
H  57.94300 22.80300 44.10300
H  56.20500 28.73100 45.64700
H  48.87600 24.77500 44.16100
H  49.52800 22.32800 42.90600
H  48.80800 23.24500 45.63200
H  50.07100 21.93200 45.48800
H  48.50500 21.68100 44.94000
H  48.32300 25.47400 42.09000
H  48.56400 23.72500 41.78600
H  50.63800 23.97000 40.80600
H  50.72500 25.69000 40.96100
H  54.21100 18.69700 44.61100
H  54.35800 18.64400 42.90000
H  52.84100 19.32500 43.50600
H  58.53000 21.13100 43.13000
H  58.97400 19.58100 43.75600
H  58.64000 20.93500 44.89100
H  58.75700 25.28900 43.49200
H  58.09500 27.00300 46.00800
H  60.35700 24.38800 45.06200
H  58.96300 23.89900 46.02600
H  59.72100 25.46900 46.29000
H  59.64800 27.44900 43.77300
H  58.89700 28.84300 44.63500
H  58.66900 28.26200 41.93300
H  57.70500 29.39300 42.90600
H  57.03900 27.77200 42.58000
H  54.68600 30.33500 46.53500
H  53.08000 30.28700 47.15300
H  53.42300 31.13900 45.57100
H  49.35600 27.25600 44.60700
H  47.80100 29.24400 40.99700
H  46.49600 28.25700 41.55800
H  47.78600 27.45400 40.71200
Mg -2.70100 34.28400 27.19000
C  -4.17500 32.33600 29.91500
C  -1.31100 36.29700 29.59500
C  -1.71800 36.28100 24.68400
C  -4.48600 32.28000 24.96700
N  -2.90500 34.32900 29.52700
C  -3.42600 33.40700 30.49100
C  -3.08500 33.73300 31.90200
C  -2.17700 35.05500 31.73400
C  -2.17300 35.29500 30.17000
C  -2.50500 36.38300 32.61200
C  -2.41200 32.53200 32.65600
C  -3.03700 32.18600 34.07000
H  -1.99000 31.85300 35.17200
N  -1.59200 36.03900 27.11500
C  -1.06000 36.69100 28.23700
C  -0.29700 37.76900 27.78200
C  -0.35100 37.77200 26.36200
C  -1.29200 36.69200 25.98300
C  0.35800 38.73100 28.79200
C  0.47300 38.66200 25.40300
O  0.58100 38.49100 24.21200
C  1.11000 39.90500 25.95900
N  -2.94700 34.24300 25.03300
C  -2.45300 35.19700 24.20600
C  -2.85000 34.96400 22.76500
C  -3.48600 33.55000 22.82400
C  -3.64000 33.28900 24.37400
C  -3.93700 35.98100 22.29400
C  -2.55200 32.45300 22.27600
C  -1.14200 32.28900 22.83600
N  -4.09500 32.60900 27.34900
C  -4.72400 31.97500 26.31500
C  -5.44400 30.82300 26.82500
C  -5.31700 30.89300 28.23800
C  -4.46400 32.04900 28.57000
C  -6.40500 29.88100 26.01600
C  -5.72700 30.36000 29.52300
O  -6.50700 29.44200 29.75500
C  -5.09200 31.29500 30.62300
C  -6.22800 31.81700 31.36100
O  -6.95600 32.75000 31.14400
O  -6.22800 31.10500 32.53900
C  -6.79500 31.80800 33.69600
H  -0.75600 36.92200 30.29800
H  -1.37400 37.06100 24.00100
H  -5.10500 31.69900 24.28100
H  -4.01800 34.05100 32.36700
H  -1.16900 34.76000 32.02700
H  -3.53300 36.33800 32.97300
H  -2.26700 37.27400 32.03100
H  -1.91800 36.37000 33.53000
H  -1.39000 32.85000 32.86300
H  -2.42400 31.68300 31.97300
H  -3.84500 31.46500 33.95000
H  -3.58900 33.08300 34.35100
H  -0.24700 38.83400 29.69300
H  0.35400 39.76200 28.44000
H  1.30300 38.36100 29.19000
H  0.42400 40.41700 26.63300
H  1.42000 40.59300 25.17300
H  2.01000 39.59400 26.49000
H  -2.09800 35.04000 21.98100
H  -4.39300 33.55400 22.21900
H  -4.74800 36.06600 23.01700
H  -4.32100 35.69100 21.31700
H  -3.46800 36.95600 22.16300
H  -2.42700 32.60400 21.20400
H  -3.07200 31.50400 22.40500
H  -0.54500 32.51100 21.95200
H  -0.91300 31.24500 23.05400
H  -0.93000 33.00500 23.62900
H  -6.30800 29.95600 24.93200
H  -7.39200 30.09200 26.42700
H  -6.31600 28.81100 26.20200
H  -4.48900 30.65700 31.26800
H  -6.01900 32.42300 34.15300
H  -7.19300 31.13700 34.45800
H  -7.71700 32.34100 33.46100

