158

Mg 35.39000 48.80200 24.82900
C  35.61100 47.38500 27.84800
C  34.50300 51.85000 26.26100
C  34.92800 50.34600 21.70800
C  36.34900 46.00800 23.27600
N  35.16900 49.57600 26.85900
C  35.26600 48.75500 27.97200
C  35.22200 49.64000 29.21800
C  34.76400 51.05700 28.68500
C  34.86100 50.85200 27.15000
C  33.28200 51.53700 29.12200
C  36.57200 49.80900 30.00900
C  36.59800 49.34500 31.46200
H  35.32200 49.56500 32.26200
N  34.75900 50.80200 24.04700
C  34.40000 51.86700 24.87100
C  34.02000 52.99800 24.06100
C  34.18300 52.58300 22.69900
C  34.60500 51.18500 22.81100
C  33.58000 54.34700 24.58900
C  33.92300 53.33100 21.44000
O  33.92200 52.76600 20.37100
C  33.67400 54.82800 21.45000
N  35.60800 48.24500 22.75000
C  35.42200 49.00000 21.64200
C  35.82200 48.28800 20.38500
C  36.72400 47.04900 21.00700
C  36.27200 47.11800 22.48200
C  34.59600 47.99300 19.49800
C  38.26800 47.16000 20.82400
C  39.01000 45.80600 20.73600
N  35.89800 47.00300 25.38500
C  36.21800 45.89100 24.67800
C  36.43800 44.73400 25.58400
C  36.10500 45.31200 26.82300
C  35.81300 46.67500 26.66400
C  36.69600 43.35100 25.12300
C  35.94800 44.98200 28.23400
O  36.02700 43.95100 28.89600
C  35.74400 46.35800 28.94000
C  34.45000 46.28800 29.87200
O  33.32900 46.61900 29.48500
O  34.74000 45.55600 31.02200
C  33.59000 45.17700 31.80800
H  34.20100 52.80400 26.69800
H  34.89500 50.68300 20.67000
H  36.52600 45.09300 22.70800
H  34.41100 49.28400 29.85400
H  35.45700 51.88900 28.80500
H  33.28000 52.49700 29.63700
H  32.75500 50.84500 29.77800
H  32.66800 51.74900 28.24700
H  36.87300 50.84800 30.14100
H  37.43000 49.41200 29.46700
H  37.41800 49.76700 32.04200
H  36.69300 48.26000 31.51200
H  32.56300 54.55700 24.25800
H  34.24800 55.06800 24.11700
H  33.53000 54.42400 25.67500
H  34.45100 55.43900 21.90900
H  32.73300 54.98300 21.97800
H  33.48600 55.18500 20.43700
H  36.57100 48.85500 19.83200
H  36.38200 46.07700 20.65100
H  34.66700 48.28200 18.44900
H  33.65600 48.40400 19.86600
H  34.53000 46.90900 19.58300
H  38.80900 47.79700 21.52500
H  38.56900 47.60000 19.87300
H  39.22500 45.61100 19.68600
H  38.39600 45.05200 21.22900
H  40.02600 45.86900 21.12600
H  35.76600 42.82500 24.90300
H  37.29500 42.87700 25.90000
H  37.28000 43.32700 24.20300
H  36.54200 46.58200 29.64800
H  33.00200 44.50600 31.18100
H  32.92000 46.01900 31.98200
H  33.87900 44.78700 32.78400
Mg 0.19200 43.68000 25.60100
C  2.22900 43.31700 28.45300
C  -2.42200 42.69000 27.47000
C  -1.50600 43.91500 22.85500
C  3.16900 44.31800 23.62700
N  -0.03900 43.23100 27.73300
C  0.88900 43.12200 28.72400
C  0.32800 42.79100 30.09100
C  -1.20300 42.37800 29.70800
C  -1.26400 42.83800 28.24300
C  -1.54100 40.87700 29.85500
C  0.32900 44.10000 30.93000
C  -0.16400 44.00700 32.43400
H  -0.24700 42.63200 33.14100
N  -1.68400 43.29700 25.22000
C  -2.69500 42.87200 26.08800
C  -3.92000 42.82100 25.37700
C  -3.68400 43.24200 24.09000
C  -2.24100 43.49900 23.99800
C  -5.23500 42.39800 26.14500
C  -4.66500 43.59600 23.00900
O  -4.39300 44.27900 22.03100
C  -6.12400 43.15100 23.19400
N  0.77500 44.04000 23.44100
C  -0.18200 44.20500 22.55100
C  0.38000 44.65300 21.23300
C  1.84200 44.90700 21.52200
C  1.97800 44.32300 22.95500
C  0.19200 43.47300 20.14400
C  2.35600 46.37100 21.59700
C  1.37700 47.43100 22.19700
N  2.31400 43.89700 25.94800
C  3.40400 44.09900 25.02800
C  4.59600 43.97500 25.79100
C  4.18500 43.66600 27.06200
C  2.78600 43.54000 27.16800
C  5.98500 44.14000 25.26000
C  4.73300 43.37700 28.37200
O  5.89900 43.30300 28.74100
C  3.45900 43.20600 29.38000
C  3.63500 42.04000 30.21300
O  3.34800 40.89100 29.87900
O  4.29600 42.35700 31.33000
C  4.81900 41.20500 32.12600
H  -3.29600 42.25900 27.96200
H  -2.11400 43.91900 21.94800
H  4.06800 44.46900 23.02700
H  0.84000 41.95800 30.57400
H  -1.97200 42.86600 30.30600
H  -2.05300 40.55300 28.94900
H  -2.25200 40.72600 30.66700
H  -0.70000 40.22200 30.08500
H  -0.29800 44.86300 30.46800
H  1.35400 44.43800 30.78100
H  -1.15200 44.45600 32.53800
H  0.60000 44.55500 32.98500
H  -6.04500 43.11700 26.02000
H  -5.13500 42.19800 27.21200
H  -5.60200 41.42900 25.80700
H  -6.16000 42.08200 23.40100
H  -6.66400 43.17000 22.24700
H  -6.59000 43.71500 24.00200
H  -0.10400 45.57100 20.89900
H  2.47100 44.34300 20.83200
H  1.14600 43.06900 19.80500
H  -0.24900 43.89100 19.23900
H  -0.37800 42.67000 20.61200
H  2.64800 46.70300 20.60100
H  3.21700 46.40200 22.26500
H  1.80000 48.09200 22.95400
H  0.53400 46.94200 22.68400
H  1.04100 47.98400 21.31900
H  6.02400 45.10800 24.76000
H  6.23900 43.33000 24.57600
H  6.84400 44.15800 25.93100
H  3.56000 44.09900 29.99800
H  5.55600 41.51000 32.86900
H  5.33200 40.46500 31.51100
H  3.94000 40.84400 32.65800

