158

Mg 1.56800 41.59600 25.09800
C  2.22400 42.00100 28.40000
C  -1.48700 40.11100 25.95700
C  0.90300 41.01900 21.83500
C  4.55200 43.13700 24.21700
N  0.50400 41.04800 26.95000
C  0.97700 41.38000 28.20400
C  -0.14900 41.11200 29.28800
C  -1.22600 40.28300 28.45100
C  -0.64600 40.35000 27.02600
C  -1.46400 38.82700 28.88900
C  -0.73700 42.42300 29.83900
C  -1.13400 42.50400 31.28500
H  -1.84400 41.28700 31.88900
N  0.08800 40.72300 24.09100
C  -1.20200 40.29200 24.59300
C  -2.12600 39.95400 23.51400
C  -1.38100 40.05300 22.32500
C  -0.00700 40.56900 22.72200
C  -3.54800 39.50400 23.79800
C  -1.71400 39.65300 20.96600
O  -1.00300 39.90600 19.94300
C  -3.12500 39.17400 20.63300
N  2.54000 42.13300 23.31700
C  2.12300 41.61800 22.08800
C  3.18900 41.84700 20.98200
C  4.28100 42.67700 21.75500
C  3.76800 42.72300 23.20600
C  3.74500 40.59000 20.24500
C  4.37400 44.10700 21.06500
C  5.10300 44.22000 19.73400
N  2.99700 42.60400 26.11100
C  4.27600 43.02200 25.63300
C  5.04400 43.49600 26.82800
C  4.26200 43.16600 27.93800
C  3.12200 42.53600 27.43200
C  6.49500 44.09500 26.86300
C  4.21500 43.12900 29.38900
O  5.04000 43.46100 30.20400
C  2.84600 42.41900 29.72000
C  3.21200 41.24000 30.47300
O  4.08800 40.46400 30.23700
O  2.32800 41.14100 31.59500
C  2.72500 40.13300 32.59800
H  -2.40100 39.54500 26.14800
H  0.80400 40.87800 20.75700
H  5.50200 43.51100 23.83000
H  0.27900 40.45800 30.04800
H  -2.21800 40.73100 28.50200
H  -2.47300 38.61400 29.24200
H  -0.85400 38.72700 29.78600
H  -1.21100 38.06800 28.14900
H  -1.66200 42.72500 29.34700
H  0.04800 43.16600 29.69500
H  -1.62600 43.43600 31.56300
H  -0.18500 42.43500 31.81600
H  -3.88500 39.88900 24.76000
H  -3.56200 38.41500 23.85700
H  -4.24300 39.72000 22.98700
H  -3.80900 40.02300 20.60700
H  -3.48000 38.44800 21.36500
H  -3.27700 38.80000 19.62100
H  2.79500 42.46600 20.17600
H  5.22200 42.12800 21.72400
H  4.78000 40.47000 20.56500
H  3.56900 40.63800 19.17000
H  3.25200 39.68300 20.59600
H  4.86200 44.79300 21.75700
H  3.36200 44.47900 20.90500
H  4.31200 44.31200 18.99000
H  5.56400 43.25000 19.55000
H  5.83800 45.01600 19.61700
H  6.41600 44.75900 27.72300
H  6.75700 44.80800 26.08200
H  7.30600 43.38100 27.00700
H  2.16400 43.04000 30.29900
H  3.50400 40.57400 33.21900
H  3.04500 39.22500 32.08600
H  1.83200 39.92800 33.18900
Mg -5.25000 25.55400 25.43900
C  -3.89100 26.64300 28.43400
C  -7.25900 23.40600 27.24900
C  -6.07800 24.03000 22.57800
C  -2.51300 27.09300 23.79700
N  -5.43000 25.04400 27.62900
C  -4.91700 25.72900 28.67900
C  -5.49500 25.20000 30.01500
C  -6.39500 24.02200 29.64100
C  -6.42400 24.19600 28.07400
C  -5.89800 22.59700 29.97300
C  -6.12000 26.30900 31.00600
C  -5.92400 26.06300 32.53300
H  -5.47200 24.76100 33.19100
N  -6.65800 24.07800 25.01200
C  -7.34500 23.36300 25.87700
C  -8.27700 22.58400 25.18600
C  -8.04400 22.86500 23.78100
C  -6.84300 23.68900 23.73600
C  -9.43100 21.64800 25.77200
C  -8.68300 22.24400 22.50800
O  -8.34000 22.45200 21.36600
C  -9.84200 21.36300 22.67200
N  -4.44200 25.59500 23.44400
C  -5.04100 24.89900 22.38900
C  -4.17600 25.10300 21.11400
C  -3.18000 26.21000 21.50200
C  -3.36200 26.30300 23.03500
C  -3.57100 23.80200 20.61500
C  -3.34000 27.62100 20.80200
C  -2.46600 28.00100 19.59600
N  -3.64900 26.92100 25.91800
C  -2.55800 27.47200 25.17600
C  -1.71100 28.22500 26.05000
C  -2.21100 27.90400 27.38000
C  -3.34400 27.14200 27.20800
C  -0.56400 29.10600 25.67400
C  -1.96000 28.06500 28.80600
O  -1.02900 28.60700 29.39000
C  -3.07100 27.27000 29.57100
C  -2.43000 26.25900 30.57600
O  -1.89200 25.16000 30.25300
O  -2.43400 26.82100 31.82300
C  -1.67100 26.09700 32.83700
H  -8.02500 22.84800 27.79100
H  -6.29200 23.58700 21.60300
H  -1.69400 27.65300 23.33900
H  -4.64700 24.85000 30.60300
H  -7.34700 24.26600 30.11300
H  -5.80200 21.85800 29.17800
H  -6.66400 22.22500 30.65400
H  -4.97800 22.59700 30.55700
H  -7.19600 26.30900 30.82900
H  -5.58800 27.24500 30.84100
H  -6.87300 26.32600 32.99900
H  -5.23500 26.79800 32.95100
H  -9.62300 21.65500 26.84500
H  -9.34300 20.62400 25.40900
H  -10.34100 22.05300 25.33000
H  -10.62400 21.88400 23.22500
H  -9.51700 20.41100 23.09200
H  -10.31400 21.13200 21.71600
H  -4.87400 25.49100 20.37200
H  -2.20300 25.88000 21.15000
H  -2.52300 23.71100 20.89900
H  -3.75300 23.73400 19.54300
H  -4.04300 22.90600 21.01800
H  -3.20000 28.48600 21.45100
H  -4.36300 27.65100 20.42600
H  -2.06200 29.01300 19.58900
H  -2.94700 27.76200 18.64700
H  -1.62000 27.31700 19.51500
H  -0.34900 28.85400 24.63500
H  0.23400 28.77800 26.34000
H  -0.75700 30.17700 25.74300
H  -3.69900 27.99400 30.08900
H  -0.79300 26.71700 33.02100
H  -1.24800 25.13900 32.53600
H  -2.29700 26.05200 33.72800

