158

Mg 47.91400 25.83100 28.38600
C  48.89800 27.85000 31.11400
C  47.07500 23.37200 30.66600
C  46.90900 23.83000 25.82800
C  49.00100 28.16900 26.26500
N  47.95400 25.69000 30.59700
C  48.31300 26.63400 31.52600
C  47.88200 26.25500 32.89200
C  47.43600 24.78400 32.73900
C  47.50900 24.62000 31.23900
C  48.13400 23.59500 33.46800
C  46.78600 27.25000 33.57800
C  47.16700 27.66300 35.03900
H  46.05000 28.05300 35.95900
N  47.11700 23.90500 28.26300
C  46.93500 23.06800 29.30700
C  46.58500 21.73100 28.81000
C  46.33500 21.88100 27.40400
C  46.72200 23.29600 27.11600
C  46.72300 20.47000 29.69000
C  45.92300 20.93700 26.32900
O  45.56400 21.24200 25.21900
C  45.94900 19.45600 26.60900
N  47.89900 25.98200 26.37400
C  47.37500 25.07400 25.46900
C  47.64900 25.43400 24.00400
C  48.37000 26.77700 24.22600
C  48.43300 27.01200 25.74700
C  48.56300 24.43700 23.21900
C  47.58300 28.03400 23.55000
C  48.40100 28.85400 22.63400
N  48.81000 27.68600 28.50900
C  49.22400 28.51300 27.58900
C  50.02200 29.56000 28.23000
C  49.79800 29.36500 29.59400
C  49.11300 28.21600 29.73100
C  50.74800 30.67900 27.64900
C  50.07800 29.98100 30.88300
O  50.60900 31.06100 31.08400
C  49.35600 29.03300 31.98300
C  50.24200 28.61300 32.97600
O  50.78800 27.52300 32.93700
O  50.43200 29.57700 33.94100
C  51.34500 29.24400 35.00800
H  46.89800 22.53900 31.35000
H  46.56800 23.27900 24.94900
H  49.42700 28.84500 25.52100
H  48.81300 26.07200 33.42900
H  46.39200 24.66300 33.02800
H  48.88400 24.03100 34.12700
H  48.75500 23.04400 32.76100
H  47.45200 22.93000 33.99700
H  45.78600 26.81700 33.55300
H  46.70900 28.08200 32.87800
H  47.86700 28.49900 35.04400
H  47.67100 26.78700 35.44700
H  47.15400 20.73600 30.65500
H  47.30400 19.67600 29.22100
H  45.75200 20.17900 30.09000
H  45.56300 19.34800 27.62200
H  46.98500 19.12500 26.54400
H  45.39700 18.77200 25.96400
H  46.66700 25.56200 23.54900
H  49.37300 26.74200 23.80000
H  48.95800 23.58600 23.77400
H  49.46900 24.83100 22.75900
H  47.94700 23.99100 22.43800
H  47.11500 28.65700 24.31200
H  46.71400 27.61400 23.04300
H  49.35800 28.37000 22.43900
H  48.57500 29.82900 23.08900
H  47.84000 28.97900 21.70700
H  51.73600 30.22600 27.56000
H  50.75900 31.59700 28.23500
H  50.30400 30.97100 26.69700
H  48.57600 29.61700 32.47300
H  50.92200 28.46300 35.64100
H  51.62900 30.05200 35.68200
H  52.26100 28.88100 34.54100
Mg 1.69900 42.61800 25.36100
C  3.58700 42.07600 28.20600
C  -1.08200 41.48600 26.95000
C  0.20900 42.43700 22.33200
C  4.75100 43.35300 23.59400
N  1.35000 41.87900 27.37400
C  2.20700 41.91200 28.44100
C  1.50100 41.76900 29.81700
C  0.03500 41.47200 29.30300
C  0.10300 41.58500 27.75600
C  -0.62900 40.16100 29.80000
C  1.70300 43.03300 30.69800
C  2.25900 42.81500 32.12100
H  1.85100 41.57100 32.94600
N  -0.21700 42.17900 24.72500
C  -1.26100 41.70200 25.52700
C  -2.44500 41.61800 24.67800
C  -2.03500 41.82000 23.34400
C  -0.62200 42.20200 23.42800
C  -3.82100 41.25000 25.18800
C  -2.79600 41.83600 22.06200
O  -2.41100 42.32200 21.01600
C  -4.08100 41.13100 22.03800
N  2.43400 42.76700 23.22500
C  1.56200 42.78200 22.25000
C  2.17700 43.24100 20.88300
C  3.53500 43.77500 21.42700
C  3.60800 43.27100 22.84200
C  2.20800 42.11000 19.86400
C  3.48700 45.34300 21.37800
C  3.53500 46.04600 20.03100
N  3.74900 42.65800 25.73900
C  4.81700 43.05800 24.97100
C  6.05800 43.07000 25.75900
C  5.60900 42.67600 27.02300
C  4.21300 42.40100 26.96900
C  7.52000 43.33700 25.35400
C  6.06900 42.32500 28.36700
O  7.17500 42.36300 28.84500
C  4.79800 41.98300 29.15400
C  4.93500 40.72600 29.88400
O  4.52100 39.61600 29.54500
O  5.65400 40.89100 31.08500
C  5.68500 39.75700 31.98100
H  -1.97300 41.11400 27.45900
H  -0.14200 42.53000 21.30200
H  5.68500 43.68200 23.13500
H  1.99700 40.93200 30.30900
H  -0.56700 42.34100 29.57000
H  -1.63800 40.45200 30.09400
H  -0.02400 39.83100 30.64400
H  -0.80800 39.47000 28.97600
H  0.80000 43.63700 30.78300
H  2.50600 43.61800 30.25100
H  2.14600 43.72200 32.71500
H  3.33900 42.82000 31.97400
H  -4.58100 41.86000 24.69900
H  -4.00800 41.48800 26.23500
H  -4.01600 40.20500 24.95100
H  -4.78500 41.65600 22.68400
H  -3.90700 40.11700 22.39600
H  -4.54200 41.00400 21.05900
H  1.72700 44.04900 20.30600
H  4.42500 43.37800 20.93800
H  3.20500 41.67100 19.88800
H  1.98100 42.48000 18.86400
H  1.46000 41.36600 20.13800
H  4.28200 45.73200 22.01500
H  2.58200 45.61000 21.92500
H  3.62200 45.31700 19.22500
H  4.34800 46.76900 20.10300
H  2.63500 46.65400 19.93700
H  7.77900 44.30000 25.79400
H  7.70300 43.30400 24.28000
H  8.11400 42.49700 25.71400
H  4.77400 42.74100 29.93700
H  5.30600 40.39100 32.78300
H  6.67000 39.40000 32.28000
H  4.99600 38.97400 31.66300

