158

Mg 1.56700 8.68900 27.57300
C  2.17900 10.77300 30.25200
C  1.25000 6.07400 29.66500
C  1.40100 6.65700 24.76000
C  1.61900 11.58800 25.42000
N  1.74000 8.43800 29.70300
C  1.92800 9.43600 30.65100
C  1.58300 8.97400 32.05900
C  1.68000 7.39300 31.87700
C  1.47500 7.31800 30.31400
C  2.95300 6.66500 32.34800
C  0.09100 9.44000 32.54300
C  -0.17200 9.40000 34.05400
H  1.00300 8.84800 34.93400
N  1.31600 6.68400 27.26400
C  1.18200 5.73900 28.29500
C  0.83100 4.47300 27.65100
C  0.88800 4.58000 26.21800
C  1.27500 5.98800 26.01600
C  0.52100 3.24200 28.48300
C  0.63100 3.56700 25.18100
O  0.70200 3.82500 23.97700
C  0.26100 2.09800 25.54100
N  1.46800 9.05600 25.40200
C  1.42000 8.03200 24.48700
C  1.51300 8.56700 23.01900
C  1.33500 10.12400 23.25600
C  1.44200 10.31000 24.73800
C  2.93400 8.25500 22.38000
C  0.05000 10.83300 22.66700
C  0.25600 11.74900 21.50400
N  1.90400 10.68600 27.71600
C  1.94900 11.70000 26.83900
C  2.17200 12.90300 27.53700
C  2.32700 12.61600 28.87000
C  2.16400 11.24500 28.98500
C  2.26600 14.21700 26.84400
C  2.57400 13.19800 30.16700
O  2.94100 14.31300 30.51500
C  2.45200 12.01500 31.17300
C  3.57200 11.90100 32.18500
O  4.73300 11.79900 31.92800
O  3.03300 12.08000 33.44500
C  3.97800 12.08600 34.56200
H  0.91300 5.30800 30.36700
H  1.40200 6.11500 23.81200
H  1.68000 12.49000 24.80800
H  2.32400 9.34400 32.76800
H  0.89900 6.86100 32.42000
H  3.58800 7.22100 33.03900
H  3.60700 6.42500 31.51000
H  2.70800 5.76000 32.90400
H  -0.60300 8.72100 32.10800
H  -0.10800 10.42900 32.13300
H  -1.06300 8.78700 34.19100
H  -0.23000 10.41500 34.44700
H  1.26600 2.45600 28.36000
H  -0.40000 2.68200 28.31600
H  0.67500 3.39200 29.55100
H  1.02800 1.73500 26.22400
H  0.24800 1.57100 24.58700
H  -0.69200 2.17000 26.06600
H  0.70500 8.26800 22.35100
H  2.23200 10.71700 23.07800
H  3.50200 7.51000 22.93800
H  3.56700 9.12400 22.20400
H  2.69900 7.73100 21.45300
H  -0.48400 11.34000 23.47100
H  -0.64000 10.05500 22.34100
H  -0.44600 11.46800 20.71900
H  1.21600 11.76200 20.98800
H  0.04500 12.77200 21.81600
H  1.37600 14.25000 26.21600
H  3.16700 14.47800 26.29000
H  2.26900 14.94700 27.65300
H  1.60200 12.32700 31.78000
H  4.80600 12.77100 34.38600
H  4.30300 11.05400 34.69500
H  3.42900 12.33900 35.47000
Mg 26.31500 50.36000 27.19700
C  24.10200 51.65600 29.61800
C  28.29600 49.12400 29.53200
C  28.34300 49.19500 24.62500
C  24.10500 51.35900 24.78100
N  26.15900 50.27700 29.33500
C  25.26700 50.91700 30.11600
C  25.51700 50.71800 31.58200
C  27.02100 50.03200 31.55800
C  27.19600 49.81900 30.04900
C  28.20200 50.87600 32.06700
C  24.44100 49.83500 32.23400
C  23.94300 50.25400 33.64500
H  24.96900 50.63600 34.65800
N  28.15200 49.43300 27.08900
C  28.73700 48.86100 28.19000
C  29.91100 48.00500 27.83900
C  30.04400 48.13600 26.40600
C  28.80500 48.94900 25.98200
C  30.73100 47.26600 28.85000
C  31.03900 47.42000 25.41800
O  31.05100 47.60600 24.21300
C  32.03400 46.49200 25.97000
N  26.27700 50.35600 25.00600
C  27.22000 49.84400 24.18000
C  26.86000 50.02300 22.71200
C  25.40000 50.44200 22.79500
C  25.15500 50.66700 24.26500
C  27.77400 51.08700 22.02600
C  24.41600 49.31800 22.25700
C  23.78600 49.53300 20.91800
N  24.59000 51.42100 27.14700
C  23.81600 51.81800 26.05900
C  22.58900 52.48600 26.48800
C  22.71800 52.47100 27.86400
C  23.86500 51.74400 28.23100
C  21.52300 52.97800 25.60600
C  21.96700 52.78500 29.05500
O  20.85500 53.28200 29.19500
C  22.85000 52.26300 30.25200
C  23.30100 53.35900 31.18500
O  24.40600 53.95700 31.15100
O  22.32700 53.55000 32.15300
C  22.50000 54.49200 33.27200
H  28.89400 48.77300 30.37500
H  29.04900 48.88100 23.85300
H  23.31700 51.52200 24.04200
H  25.56700 51.72700 31.99000
H  26.95100 49.08500 32.09400
H  28.89500 51.13700 31.26700
H  28.71200 50.22300 32.77500
H  27.77400 51.79900 32.45700
H  24.71800 48.79100 32.38200
H  23.54700 49.63200 31.64400
H  23.37600 49.38200 33.97000
H  23.24900 51.07900 33.47900
H  30.61500 46.20100 28.64500
H  30.48500 47.53300 29.87700
H  31.76600 47.60400 28.89300
H  32.51600 47.02400 26.79000
H  32.78800 46.42600 25.18500
H  31.53400 45.53700 26.12700
H  27.05500 49.04000 22.28400
H  25.16300 51.40100 22.33500
H  28.33100 51.63000 22.79000
H  27.14800 51.62000 21.31100
H  28.49900 50.54600 21.41800
H  23.54700 49.15600 22.89500
H  24.89500 48.34600 22.13200
H  22.81800 49.05200 21.05900
H  24.28200 49.10200 20.04700
H  23.75300 50.58300 20.62700
H  21.91900 53.17200 24.60900
H  21.05300 53.84700 26.06500
H  20.69600 52.29600 25.40800
H  22.20700 51.59500 30.82500
H  23.14900 54.04200 34.02300
H  21.53000 54.75900 33.69100
H  23.01500 55.34500 32.83000

