158

Mg -3.13500 16.94200 26.85400
C  -3.79800 14.73300 29.38400
C  -3.65700 19.59300 29.07200
C  -2.76900 19.22000 24.36300
C  -3.19200 14.40400 24.51600
N  -3.67800 17.09400 28.94900
C  -3.79600 16.05500 29.79300
C  -3.92600 16.56300 31.29100
C  -4.01300 18.14400 31.14100
C  -3.72000 18.34800 29.60500
C  -5.41400 18.75600 31.57900
C  -2.65300 16.16600 32.15000
C  -2.07400 17.01100 33.29400
H  -1.57600 16.19100 34.49000
N  -3.02700 19.06100 26.73600
C  -3.29900 19.94600 27.78700
C  -3.09300 21.32300 27.30500
C  -2.55700 21.21200 26.00400
C  -2.78500 19.78100 25.60600
C  -3.27000 22.51700 28.23400
C  -1.99300 22.26400 25.04300
O  -1.73900 22.06400 23.88200
C  -1.69600 23.57100 25.63900
N  -3.01100 16.75500 24.73400
C  -2.78200 17.86500 23.94000
C  -2.76900 17.47700 22.46100
C  -2.73500 15.91300 22.54900
C  -2.95200 15.63000 24.02200
C  -3.89900 18.15100 21.68300
C  -1.44700 15.14300 22.12100
C  -0.19600 15.54700 22.91700
N  -3.52100 15.02500 26.87300
C  -3.54400 14.08300 25.87000
C  -3.88800 12.80300 26.41500
C  -4.00300 13.00500 27.83100
C  -3.79000 14.38900 28.02500
C  -4.17700 11.56100 25.70000
C  -4.08200 12.29800 29.08200
O  -4.10200 11.12100 29.31800
C  -3.98600 13.45300 30.17700
C  -2.82200 13.09500 31.01400
O  -1.61700 13.11200 30.78900
O  -3.37700 12.52500 32.15100
C  -2.42100 11.94300 33.10400
H  -3.78000 20.39800 29.79900
H  -2.56800 19.86600 23.50600
H  -3.29200 13.56000 23.83100
H  -4.78000 16.01100 31.68400
H  -3.30600 18.75300 31.70300
H  -5.40900 19.64600 32.20900
H  -6.15000 17.99200 31.83000
H  -5.91600 19.26000 30.75200
H  -1.75000 16.02400 31.55500
H  -2.99700 15.22200 32.57300
H  -2.77400 17.77200 33.64000
H  -1.18200 17.51800 32.92600
H  -2.35400 22.70600 28.79400
H  -4.07700 22.41000 28.96000
H  -3.49300 23.38800 27.61700
H  -1.22400 23.35500 26.59800
H  -2.53300 24.26400 25.72200
H  -1.02800 24.21300 25.06500
H  -1.83600 17.90500 22.09400
H  -3.63400 15.56100 22.04200
H  -4.11800 19.10200 22.16800
H  -4.73800 17.46300 21.78500
H  -3.54900 18.22900 20.65400
H  -1.28200 15.38200 21.07100
H  -1.72200 14.08900 22.12000
H  0.38100 16.35400 22.46400
H  0.31800 14.60100 22.75000
H  -0.41000 15.85300 23.94100
H  -3.25900 10.99000 25.55700
H  -4.53400 11.67300 24.67600
H  -4.90300 11.02300 26.30900
H  -4.84400 13.64500 30.82100
H  -1.65800 11.36600 32.58100
H  -2.97500 11.18500 33.65900
H  -1.92700 12.59500 33.82300
Mg 29.01800 56.96000 40.27600
C  26.80300 54.17000 39.68000
C  31.67700 54.89900 39.43400
C  30.89000 59.68200 39.86100
C  26.12000 58.96500 40.37000
N  29.19300 54.82800 39.30100
C  28.13900 53.89300 39.38600
C  28.79000 52.48000 39.07900
C  30.33000 52.66700 39.26700
C  30.41200 54.23000 39.35600
C  30.89300 51.98300 40.53900
C  28.46300 52.06900 37.62300
C  29.09100 52.74400 36.37000
H  28.13800 53.30600 35.27100
N  31.02400 57.28600 39.90400
C  31.94800 56.31100 39.71400
C  33.22600 56.87000 39.72600
C  33.06700 58.29300 39.73800
C  31.63100 58.53400 39.89500
C  34.46900 56.03700 39.51800
C  34.12300 59.30800 39.50200
O  35.29700 58.97100 39.26500
C  33.83600 60.74900 39.48600
N  28.60200 59.08200 40.36000
C  29.54400 59.97400 40.02400
C  28.83700 61.39700 40.06500
C  27.36000 61.11400 39.99200
C  27.33800 59.61400 40.32600
C  29.19300 62.16000 41.34900
C  26.71600 61.19800 38.55600
C  25.94600 62.49000 38.49900
N  26.82900 56.67000 40.18500
C  25.82800 57.58400 40.40400
C  24.60300 56.88700 40.54700
C  24.91500 55.54700 40.24000
C  26.29800 55.50600 40.02200
C  23.17500 57.44600 40.77000
C  24.38900 54.24400 39.96600
O  23.25200 53.80600 39.90200
C  25.53700 53.25700 39.69500
C  25.55300 52.34700 40.82600
O  25.89300 52.68200 41.92200
O  25.12800 51.02600 40.54400
C  24.93200 50.20600 41.71800
H  32.48500 54.16600 39.38800
H  31.49700 60.56100 39.63200
H  25.23500 59.60000 40.44500
H  28.42400 51.77300 39.82300
H  30.82000 52.38900 38.33300
H  31.87300 51.57300 40.29600
H  30.32000 51.15400 40.95500
H  31.21200 52.66800 41.32400
H  27.37700 52.11400 37.55200
H  28.75900 51.02000 37.67200
H  29.66400 51.91700 35.95100
H  29.79200 53.47100 36.78000
H  34.50600 55.54500 38.54600
H  34.50400 55.24800 40.27000
H  35.24400 56.74600 39.80600
H  33.31100 61.08900 38.59300
H  34.84600 61.13100 39.63700
H  33.42400 61.05700 40.44600
H  29.07800 61.95100 39.15800
H  26.67100 61.57400 40.70000
H  30.26200 62.37000 41.36100
H  29.06200 61.51600 42.21900
H  28.77000 63.15800 41.46500
H  26.15800 60.33800 38.18400
H  27.50700 61.39200 37.83100
H  26.62900 63.28300 38.80400
H  24.96600 62.38000 38.96300
H  25.82300 62.57200 37.41900
H  22.80400 57.84300 39.82500
H  23.29600 58.26100 41.48400
H  22.48700 56.70400 41.17600
H  25.32800 52.75600 38.74900
H  23.99800 49.66100 41.58000
H  24.67300 50.66100 42.67400
H  25.73900 49.48600 41.85500

