158

Mg 54.62800 24.25500 44.63600
C  51.93200 26.25600 43.53600
C  52.91600 21.68200 43.04000
C  57.41600 22.42400 44.69500
C  56.32300 27.02700 45.64500
N  52.69900 23.95800 43.33500
C  51.75000 24.98200 43.11300
C  50.62400 24.48000 42.19700
C  50.66600 22.93900 42.72500
C  52.16100 22.81800 42.94000
C  49.89800 22.74400 44.01800
C  51.13700 24.70400 40.66700
C  50.14300 25.03200 39.61100
H  50.54800 25.53700 38.30300
N  55.10100 22.31500 43.99500
C  54.29000 21.36800 43.44000
C  54.94200 20.15800 43.38200
C  56.29700 20.33600 43.84100
C  56.28500 21.76300 44.20900
C  54.21700 18.78200 42.99600
C  57.35500 19.25700 44.00300
O  57.13900 18.20000 43.47200
C  58.73100 19.40100 44.71600
N  56.63700 24.67900 44.93400
C  57.61600 23.76900 44.88300
C  58.91500 24.36900 45.46300
C  58.59200 25.91100 45.66200
C  57.08000 25.85300 45.41700
C  59.38400 23.65000 46.78900
C  59.47200 26.89600 44.85800
C  59.01400 27.51400 43.52000
N  54.16900 26.11600 44.88600
C  54.90300 27.17800 45.40200
C  54.03300 28.43200 45.48400
C  52.89600 28.02600 44.69000
C  53.04900 26.70300 44.33900
C  54.36700 29.76300 46.07800
C  51.65400 28.55100 44.13900
O  51.18800 29.66700 44.27300
C  50.88900 27.40700 43.31600
C  50.57500 27.79000 41.98000
O  51.33200 28.09000 41.13900
O  49.19300 27.82300 41.92700
C  48.58100 28.26200 40.60700
H  52.35700 20.82400 42.66100
H  58.37000 21.90400 44.81000
H  56.92300 27.87200 45.98700
H  49.68700 24.95500 42.49000
H  50.09100 22.37600 41.99000
H  50.58800 22.17300 44.63900
H  48.95700 22.22900 43.82700
H  49.78200 23.72700 44.47500
H  51.55700 23.75300 40.33900
H  51.86900 25.51100 40.63200
H  49.36000 25.64800 40.05400
H  49.58700 24.11500 39.41600
H  54.47400 17.92400 43.61800
H  54.43500 18.52100 41.96100
H  53.14300 18.96000 43.05400
H  58.64200 19.77900 45.73400
H  59.38700 20.03300 44.11700
H  59.15400 18.40500 44.84900
H  59.66500 24.26800 44.67900
H  58.59400 26.14600 46.72600
H  58.99200 22.63400 46.75500
H  58.99100 24.12700 47.68700
H  60.47200 23.59300 46.81900
H  60.39200 26.35500 44.63700
H  59.72600 27.76600 45.46400
H  59.11100 28.59800 43.46100
H  57.94900 27.34300 43.36800
H  59.54000 27.19200 42.62200
H  53.85800 30.50400 45.46100
H  55.44200 29.94200 46.09000
H  53.86500 29.99600 47.01700
H  50.06200 27.03400 43.92000
H  48.29800 29.31100 40.68500
H  47.67600 27.66900 40.47300
H  49.21500 28.07600 39.74000
Mg 9.75400 48.22900 25.80200
C  7.74400 48.38300 28.73300
C  12.35200 49.43200 27.62700
C  11.51200 47.94800 23.08800
C  6.76600 47.75100 23.99300
N  9.96000 48.79600 27.97400
C  9.05700 48.77600 28.95400
C  9.67100 49.16400 30.31100
C  11.03200 49.80200 29.92300
C  11.17500 49.38200 28.34800
C  11.14200 51.36100 30.03100
C  9.85100 47.96500 31.23200
C  9.27800 48.10100 32.66400
H  8.97800 46.85000 33.43500
N  11.69900 48.43500 25.51700
C  12.62000 48.92400 26.40900
C  13.88900 48.81100 25.80100
C  13.67600 48.38700 24.42000
C  12.25800 48.19200 24.30300
C  15.14200 49.20400 26.57300
C  14.73700 48.23900 23.29500
O  14.42100 48.04000 22.09600
C  16.15700 48.32600 23.63700
N  9.11700 48.10100 23.74600
C  10.15300 47.79000 22.87100
C  9.58200 47.54800 21.46300
C  8.00400 47.44500 21.74600
C  7.89000 47.84700 23.21800
C  9.90900 48.57800 20.40200
C  7.43000 45.99600 21.51300
C  6.14800 45.91500 20.62000
N  7.62100 48.26100 26.19600
C  6.58500 47.91300 25.36500
C  5.41400 47.70700 26.18400
C  5.80800 48.04200 27.46600
C  7.16900 48.22500 27.47000
C  4.03400 47.37000 25.72100
C  5.26800 48.11900 28.77900
O  4.12900 48.01700 29.17000
C  6.51700 48.30400 29.72900
C  6.57500 47.11000 30.65600
O  7.02000 46.00700 30.31300
O  5.99800 47.39600 31.90300
C  5.69900 46.21800 32.69800
H  13.14300 49.81300 28.27600
H  12.13400 47.83500 22.19800
H  5.87000 47.60500 23.38500
H  8.94500 49.75900 30.86600
H  11.87100 49.40700 30.49500
H  10.10600 51.64700 30.21000
H  11.56700 51.92700 29.20200
H  11.72900 51.68400 30.89200
H  10.91100 47.77500 31.40200
H  9.37400 47.04200 30.90500
H  8.29500 48.55700 32.54200
H  9.98400 48.70300 33.23600
H  15.84900 48.38000 26.47500
H  15.05100 49.42200 27.63700
H  15.64400 50.06900 26.14100
H  16.49100 47.32700 23.91700
H  16.25900 49.03300 24.46000
H  16.61500 48.77500 22.75500
H  9.99000 46.57400 21.19400
H  7.43600 48.19100 21.18900
H  9.10300 49.30300 20.29400
H  9.94900 48.11200 19.41700
H  10.84900 49.10900 20.55100
H  7.28000 45.40700 22.41800
H  8.11900 45.52300 20.81300
H  5.50800 46.73400 20.94900
H  5.59100 44.98700 20.75300
H  6.36500 46.01200 19.55700
H  3.58900 46.63700 26.39400
H  4.19800 46.77500 24.82200
H  3.54200 48.31600 25.49600
H  6.48900 49.30400 30.16300
H  4.62400 46.07900 32.81100
H  6.19100 46.45900 33.64000
H  6.06100 45.24500 32.36700

