158

Mg -0.13600 7.12300 26.93200
C  1.13500 9.33300 29.26300
C  -0.15500 4.62400 29.50600
C  -0.92600 4.90800 24.74900
C  0.80000 9.42100 24.41000
N  0.54800 6.95000 29.05500
C  0.97200 8.02300 29.77900
C  0.84100 7.69200 31.32400
C  0.73800 6.12100 31.33100
C  0.40000 5.82900 29.85200
C  2.00100 5.36100 31.80700
C  -0.32700 8.40000 32.09500
C  -0.22100 8.62500 33.66700
H  0.79800 7.94800 34.46800
N  -0.67800 5.02600 27.15400
C  -0.56500 4.18500 28.23000
C  -1.09100 2.87400 27.85200
C  -1.29000 2.89700 26.42600
C  -0.99400 4.28900 26.08900
C  -1.11400 1.68400 28.76200
C  -1.64800 1.83500 25.43700
O  -1.58000 2.02900 24.20600
C  -2.02400 0.51400 25.97500
N  0.03000 7.14200 24.91200
C  -0.47900 6.04700 24.22800
C  -0.89000 6.50200 22.79600
C  -0.19300 7.91800 22.64700
C  0.25500 8.22400 24.09000
C  -0.50900 5.46800 21.62900
C  -1.01100 9.00400 22.02000
C  -2.07600 9.69800 22.93200
N  0.75900 9.01700 26.80200
C  1.03300 9.88100 25.70400
C  1.36600 11.17700 26.17800
C  1.37000 11.07900 27.58200
C  1.04900 9.72800 27.88600
C  1.61200 12.36300 25.24900
C  1.66300 11.70800 28.83500
O  2.02200 12.85400 29.08400
C  1.48600 10.64200 29.97300
C  2.72100 10.72900 30.74900
O  3.79500 10.27500 30.40100
O  2.50700 11.51800 31.85700
C  3.62900 11.62300 32.73300
H  -0.32600 3.86400 30.27100
H  -1.48500 4.25300 24.07800
H  0.91500 10.24600 23.70400
H  1.76000 8.12800 31.71700
H  -0.07100 5.83500 32.00400
H  2.76000 6.06800 32.14300
H  2.46000 4.85100 30.96000
H  1.76100 4.53300 32.47400
H  -1.23100 7.79300 32.04700
H  -0.46900 9.31400 31.51800
H  -1.21600 8.42400 34.06300
H  -0.16600 9.70000 33.84200
H  -2.13500 1.34900 28.94000
H  -0.50200 1.85900 29.64700
H  -0.57900 0.95800 28.14900
H  -1.19100 -0.02800 26.42100
H  -2.43600 -0.10500 25.17700
H  -2.85000 0.53600 26.68600
H  -1.97200 6.57000 22.68800
H  0.64500 8.04600 21.96300
H  -0.19900 5.93900 20.69600
H  -1.28500 4.76400 21.32900
H  0.39400 4.92600 21.90900
H  -1.66900 8.56200 21.27200
H  -0.32400 9.68400 21.51700
H  -2.04500 10.78800 22.91200
H  -2.01700 9.48600 24.00000
H  -3.01000 9.48500 22.41200
H  1.25400 13.21800 25.82200
H  1.12000 12.34700 24.27600
H  2.70000 12.39200 25.19400
H  0.66800 11.01800 30.58700
H  4.54900 12.07200 32.35900
H  4.07900 10.69400 33.08400
H  3.25600 12.09900 33.64000
Mg 16.54600 51.13300 25.60500
C  18.62700 50.18300 28.36800
C  14.27600 52.38600 27.87800
C  14.75700 52.44900 23.02900
C  19.01700 50.00600 23.51500
N  16.56400 51.33300 27.93600
C  17.49900 50.89200 28.87500
C  17.06400 51.23600 30.28400
C  15.55200 51.72800 30.09900
C  15.43500 51.79400 28.50400
C  14.47100 50.81000 30.78400
C  18.02300 52.26500 30.94100
C  17.92000 52.45500 32.43400
H  17.02800 51.58100 33.29700
N  14.83600 52.40600 25.50400
C  14.05500 52.76700 26.50300
C  12.97900 53.59200 26.11600
C  13.14300 53.64300 24.65800
C  14.27900 52.84000 24.34100
C  11.92600 54.13300 27.06300
C  12.28300 54.48900 23.66000
O  12.34300 54.23200 22.47400
C  11.45500 55.60300 24.15600
N  16.81500 51.17700 23.53200
C  15.92000 51.64100 22.62800
C  16.26600 51.33000 21.17200
C  17.74500 50.95900 21.40600
C  17.84000 50.59300 22.90500
C  15.47800 50.20600 20.44500
C  18.69500 52.19600 21.09400
C  19.78500 51.77800 20.04900
N  18.33900 50.10700 25.82100
C  19.22900 49.75300 24.88200
C  20.33200 49.02800 25.52100
C  20.16300 49.23700 26.92700
C  18.91300 49.97300 27.04800
C  21.47900 48.40000 24.82100
C  20.76900 48.98700 28.17300
O  21.81300 48.41100 28.46400
C  19.82900 49.73900 29.21600
C  19.47800 48.82000 30.33600
O  18.55300 47.98800 30.24600
O  20.15200 49.16200 31.49500
C  19.52000 48.54300 32.69800
H  13.56900 52.78700 28.60700
H  14.23200 52.82400 22.14800
H  19.79200 49.65600 22.82900
H  16.99800 50.37000 30.94300
H  15.49800 52.73800 30.50500
H  14.99400 49.99600 31.28600
H  13.81100 50.52600 29.96400
H  13.95800 51.42200 31.52600
H  17.83200 53.21500 30.44200
H  19.06000 51.97300 30.77500
H  17.65500 53.49300 32.63100
H  18.97400 52.32200 32.68000
H  11.01500 54.50100 26.59200
H  12.33900 54.77000 27.84600
H  11.46200 53.27800 27.55400
H  10.43100 55.35400 24.43400
H  11.50500 56.21500 23.25600
H  11.96100 56.08800 24.99100
H  16.14300 52.26500 20.62600
H  18.04600 50.01200 20.95900
H  14.64000 50.02700 21.11800
H  15.91600 49.26700 20.10700
H  14.93800 50.62500 19.59600
H  19.33600 52.46400 21.93400
H  18.13600 52.96700 20.56300
H  20.78300 51.88200 20.47500
H  19.91100 52.38400 19.15200
H  19.57100 50.73800 19.80300
H  21.00600 47.55200 24.32600
H  22.10900 47.87500 25.54000
H  21.98800 49.05300 24.11200
H  20.40900 50.52800 29.69500
H  19.93200 49.03700 33.57700
H  19.72500 47.47300 32.72100
H  18.43500 48.64600 32.69000

