158

Mg 29.79300 57.87800 40.99400
C  27.20200 56.03000 39.44600
C  32.04300 55.78900 39.78800
C  32.34900 60.23100 41.69500
C  27.52000 60.33000 41.63200
N  29.59700 56.09900 39.88000
C  28.52000 55.40700 39.42100
C  28.89900 54.18600 38.59800
C  30.41000 53.95400 38.98700
C  30.74100 55.39500 39.56800
C  30.70300 52.76100 39.91300
C  28.78800 54.43200 37.08100
C  27.84700 53.55900 36.27300
H  26.78200 54.25600 35.33400
N  31.82700 57.99300 40.87900
C  32.58500 56.93300 40.38600
C  34.03200 57.19500 40.45100
C  34.17000 58.47900 41.13300
C  32.76200 58.95200 41.31900
C  35.14400 56.21400 39.97200
C  35.47700 59.11000 41.56600
O  36.53700 58.66100 41.12100
C  35.48700 60.37100 42.38800
N  29.95700 60.08900 41.61500
C  31.07100 60.81000 41.79300
C  30.78100 62.25900 42.02000
C  29.22500 62.18100 42.33400
C  28.87600 60.77400 41.81000
C  31.62500 62.99400 43.09700
C  28.48600 63.34300 41.75900
C  27.57000 64.12800 42.70200
N  27.72700 58.10100 40.78100
C  26.92700 59.17300 41.05700
C  25.55600 58.94900 40.70100
C  25.62200 57.69100 40.07500
C  26.95600 57.27000 40.04600
C  24.46800 59.85500 40.89100
C  24.79300 56.69800 39.46300
O  23.62300 56.70900 39.25900
C  25.75200 55.53200 39.12300
C  25.29800 54.37300 39.92300
O  25.60600 54.08300 41.03900
O  24.41500 53.66000 39.12000
C  23.94500 52.44100 39.70200
H  32.71000 54.98100 39.48200
H  33.16900 60.87600 42.01900
H  26.71300 61.05700 41.74300
H  28.38600 53.24400 38.79100
H  31.09600 53.71500 38.17400
H  31.08100 53.20800 40.83200
H  31.44500 52.11500 39.44200
H  29.81200 52.15100 40.06500
H  29.71400 54.55800 36.52000
H  28.45400 55.46400 36.97200
H  27.38100 52.80900 36.91200
H  28.54000 53.06900 35.58900
H  35.03000 56.16500 38.88900
H  34.87000 55.24000 40.37700
H  36.16700 56.34700 40.32300
H  35.10500 61.29400 41.95300
H  36.53600 60.42300 42.68200
H  34.94900 60.38700 43.33600
H  31.02000 62.56800 41.00200
H  29.22200 62.11700 43.42200
H  31.96600 63.98400 42.79500
H  32.48600 62.38100 43.36200
H  31.06400 63.06500 44.02900
H  27.87300 62.98300 40.93300
H  29.21300 64.06500 41.38800
H  26.59000 63.85500 42.30900
H  27.88000 65.16700 42.59900
H  27.60400 63.93300 43.77400
H  24.84300 60.86100 40.70500
H  24.19700 59.62100 41.92000
H  23.67000 59.73400 40.15900
H  25.64300 55.33900 38.05600
H  23.44500 52.65200 40.64800
H  24.72900 51.71300 39.91400
H  23.25300 51.99400 38.98900
Mg -10.27900 40.22700 39.35600
C  -9.53100 36.90500 38.46500
C  -7.20300 41.12000 37.95500
C  -11.31000 43.35300 39.17500
C  -13.62500 39.18000 39.88200
N  -8.62400 39.08100 38.41400
C  -8.50700 37.76000 38.04700
C  -7.15500 37.32800 37.50700
C  -6.40400 38.67000 37.50500
C  -7.44200 39.72800 38.07000
C  -5.09200 38.66000 38.25600
C  -7.21400 36.58800 36.09200
C  -7.87200 37.45600 34.98200
H  -8.99400 36.85400 34.15400
N  -9.32800 42.00900 38.87400
C  -8.06400 42.15900 38.36800
C  -7.81100 43.62000 38.11200
C  -8.98900 44.26900 38.53300
C  -9.95100 43.26400 38.85100
C  -6.50300 44.16900 37.51500
C  -9.09900 45.78400 38.52600
O  -8.18400 46.53500 38.23600
C  -10.30500 46.48400 39.13200
N  -12.19500 41.11800 39.39100
C  -12.35400 42.44400 39.33900
C  -13.86400 42.83600 39.43400
C  -14.58600 41.54700 39.62800
C  -13.46500 40.52200 39.66400
C  -14.23200 43.95100 40.44000
C  -15.71500 41.11100 38.61800
C  -17.15800 40.94100 39.26000
N  -11.34000 38.39200 39.47300
C  -12.67300 38.14800 39.70400
C  -12.91900 36.73000 39.66700
C  -11.70100 36.13300 39.20800
C  -10.80200 37.27100 39.00900
C  -14.22600 36.03100 39.99100
C  -11.01300 34.95700 38.77100
O  -11.38000 33.78700 38.80300
C  -9.64300 35.44300 38.25000
C  -8.64300 34.64900 38.98900
O  -8.56000 34.69900 40.22300
O  -7.83200 33.84800 38.15400
C  -6.66700 33.27300 38.80800
H  -6.19500 41.36000 37.61100
H  -11.75900 44.34100 39.05000
H  -14.67400 38.95200 40.08000
H  -6.87100 36.58300 38.25000
H  -6.16600 39.06800 36.51800
H  -4.84800 37.73000 38.76800
H  -5.13600 39.38500 39.06900
H  -4.27400 39.02400 37.63400
H  -7.69300 35.61000 36.13100
H  -6.18200 36.42400 35.78100
H  -7.12900 37.85700 34.29300
H  -8.42300 38.29800 35.40200
H  -6.07900 44.95300 38.14200
H  -6.84700 44.59800 36.57400
H  -5.77800 43.38100 37.31300
H  -10.67100 45.84300 39.93400
H  -10.94600 46.57400 38.25500
H  -10.12300 47.46000 39.58200
H  -14.06700 43.17400 38.41800
H  -15.00500 41.42400 40.62700
H  -14.89400 43.73200 41.27800
H  -14.55300 44.77800 39.80600
H  -13.29800 44.13900 40.96900
H  -15.45400 40.20400 38.07300
H  -15.79200 41.86500 37.83400
H  -17.88300 41.29900 38.52900
H  -17.18800 41.38600 40.25500
H  -17.33500 39.86900 39.34500
H  -14.81400 35.88700 39.08500
H  -14.74700 36.56400 40.78600
H  -14.19400 35.02200 40.40100
H  -9.66300 35.12900 37.20700
H  -6.90200 33.02700 39.84300
H  -5.76900 33.89100 38.80300
H  -6.31000 32.35700 38.33700

