158

Mg 35.29800 1.60700 29.19900
C  33.25200 2.64300 31.78200
C  37.94800 2.11400 31.27700
C  37.25900 0.82600 26.64500
C  32.56300 1.85800 27.08200
N  35.50700 2.20100 31.28900
C  34.55300 2.45500 32.19600
C  35.02900 2.44500 33.64500
C  36.49700 2.38200 33.41200
C  36.71100 2.29900 31.90500
C  37.32600 3.61100 33.99900
C  34.44000 1.36000 34.53500
C  34.02200 1.78300 35.96100
H  34.75500 2.95900 36.61200
N  37.35100 1.39200 29.03900
C  38.22900 1.76000 29.94500
C  39.57400 1.61800 29.41900
C  39.42400 1.09700 28.03700
C  37.98100 1.04700 27.85100
C  40.78400 1.89500 30.31300
C  40.48200 0.71800 27.03800
O  40.12300 0.43000 25.90900
C  41.89300 0.69500 27.43100
N  34.87800 1.28800 27.25200
C  35.81800 0.92000 26.35700
C  35.27300 0.56900 24.96700
C  33.74000 0.77300 25.15700
C  33.76700 1.39900 26.53000
C  35.80900 1.42400 23.81600
C  32.92600 -0.53400 24.95800
C  33.08000 -1.24400 23.51700
N  33.32600 2.13100 29.31100
C  32.35500 2.25000 28.40100
C  31.11200 2.78300 28.93900
C  31.43300 2.93000 30.26300
C  32.78000 2.50200 30.43900
C  29.83300 2.96500 28.25400
C  30.87300 3.30800 31.58000
O  29.78900 3.64200 31.92300
C  32.02000 3.00000 32.58900
C  32.19100 4.27500 33.38200
O  32.76900 5.33100 33.01500
O  31.50000 4.19800 34.55700
C  31.31100 5.48600 35.18800
H  38.83000 2.20500 31.91300
H  37.82500 0.53600 25.75700
H  31.79300 1.98100 26.31700
H  34.89600 3.46100 34.01700
H  36.96300 1.49600 33.84400
H  36.69200 4.28300 34.57800
H  37.75000 4.27900 33.24900
H  38.14700 3.31100 34.65000
H  35.04600 0.46200 34.65700
H  33.46500 1.04400 34.16400
H  34.13700 0.97000 36.67900
H  32.96400 2.04400 35.93300
H  41.78000 1.64100 29.95000
H  40.71100 1.38400 31.27300
H  40.77500 2.98000 30.41600
H  42.29500 1.69200 27.61100
H  42.43700 0.43200 26.52300
H  42.08800 0.06300 28.29700
H  35.49000 -0.46100 24.68500
H  33.37900 1.57300 24.51100
H  35.06200 1.94000 23.21300
H  36.43800 0.77700 23.20500
H  36.48500 2.18300 24.20800
H  31.87100 -0.27500 25.04600
H  33.36300 -1.21600 25.68800
H  32.34200 -1.03700 22.74100
H  33.13400 -2.28700 23.82900
H  34.07400 -1.07500 23.10400
H  29.04700 3.06800 29.00200
H  29.70700 2.15600 27.53400
H  29.83500 3.83400 27.59500
H  31.67600 2.17300 33.20900
H  32.30200 5.91900 35.32500
H  30.87800 5.34400 36.17800
H  30.71100 6.21400 34.64200
Mg 42.36900 41.34200 26.34300
C  41.70200 43.65600 28.68900
C  43.69900 39.23700 28.59500
C  43.69000 39.38700 23.76100
C  41.63900 43.86200 23.85400
N  42.72200 41.46700 28.43200
C  42.17800 42.40400 29.23000
C  42.40000 42.06200 30.68400
C  43.19400 40.68100 30.64500
C  43.13500 40.44100 29.13300
C  44.71400 40.72200 31.23900
C  41.05800 41.92800 31.46900
C  41.16800 41.47200 32.94100
H  40.48900 42.36300 33.99400
N  43.41100 39.38800 26.20100
C  43.85500 38.74800 27.27700
C  44.43500 37.48100 26.79300
C  44.31600 37.49000 25.32100
C  43.75200 38.78300 24.97100
C  45.06100 36.46700 27.78300
C  44.64900 36.34000 24.40400
O  44.38900 36.34700 23.20600
C  45.12600 35.00900 24.99900
N  42.44200 41.49300 24.12000
C  43.13300 40.64500 23.36400
C  43.03500 41.01100 21.92800
C  42.19500 42.29800 21.93200
C  42.15300 42.58900 23.43500
C  44.39200 41.12300 21.14700
C  40.83100 42.14000 21.33100
C  39.60200 41.79900 22.06200
N  41.76800 43.32700 26.24500
C  41.57500 44.24900 25.19200
C  41.11600 45.50500 25.68500
C  41.17000 45.32200 27.09600
C  41.65200 44.01100 27.33700
C  40.67800 46.68400 24.86100
C  40.78900 45.81900 28.42200
O  40.28700 46.88000 28.76700
C  41.10100 44.77600 29.51400
C  42.12100 45.34600 30.37400
O  43.18200 45.81700 29.99000
O  41.74600 45.24300 31.66800
C  42.73600 45.88500 32.62600
H  43.93200 38.44400 29.30900
H  44.04400 38.77900 22.92600
H  41.33500 44.59500 23.10400
H  43.04300 42.81100 31.14600
H  42.62900 39.91300 31.17400
H  44.94500 41.77100 31.42400
H  45.45700 40.58000 30.45500
H  44.77900 40.19500 32.19200
H  40.39000 41.23800 30.95400
H  40.37600 42.77300 31.56700
H  42.24600 41.42400 33.09400
H  40.88500 40.43800 33.13800
H  45.73200 37.05200 28.41200
H  45.62000 35.60200 27.42600
H  44.42400 36.10100 28.58800
H  44.52800 34.74300 25.87100
H  46.18200 35.06600 25.26100
H  45.02100 34.24400 24.22900
H  42.48300 40.13600 21.58500
H  42.72700 43.15500 21.51900
H  44.49200 40.23200 20.52700
H  45.24400 41.26400 21.81100
H  44.32900 41.92100 20.40600
H  40.96700 41.35100 20.59100
H  40.65400 43.10000 20.84500
H  39.69900 41.79600 23.14800
H  39.15500 40.85300 21.75700
H  38.87700 42.60600 21.95800
H  39.93500 46.39700 24.11800
H  41.48100 47.19000 24.32500
H  40.09300 47.34900 25.49600
H  40.20600 44.45000 30.04400
H  43.77800 45.60500 32.47300
H  42.50400 45.53000 33.63100
H  42.67900 46.97400 32.61700

