158

Mg 24.48900 -4.62400 45.70600
C  26.62700 -2.24100 44.46200
C  22.00900 -3.43100 43.67800
C  22.73100 -7.31200 46.55100
C  27.20300 -5.88400 47.67100
N  24.31000 -2.94200 44.33800
C  25.34000 -2.15300 43.87600
C  24.88100 -1.31100 42.65400
C  23.29600 -1.43700 42.76800
C  23.15600 -2.69500 43.65200
C  22.62400 -0.19600 43.41100
C  25.39900 -1.81700 41.31100
C  26.15500 -0.85500 40.34300
H  25.67500 -0.82900 38.84600
N  22.56800 -5.26100 45.21400
C  21.74100 -4.65700 44.35100
C  20.60800 -5.50000 44.10300
C  20.70300 -6.59200 44.97200
C  21.98500 -6.39200 45.66700
C  19.49900 -5.11700 43.06200
C  19.64900 -7.67800 45.15000
O  18.61000 -7.71100 44.49800
C  19.80000 -8.70800 46.26000
N  24.99400 -6.53800 46.82400
C  24.00600 -7.39000 47.10000
C  24.53500 -8.49200 48.01500
C  25.73200 -7.78200 48.72000
C  26.07400 -6.68800 47.68200
C  23.61500 -9.14500 49.04800
C  26.92600 -8.69500 49.05300
C  27.21700 -8.82900 50.55400
N  26.46500 -4.13800 46.13300
C  27.45600 -4.71400 46.89600
C  28.61000 -3.80800 46.84900
C  28.35300 -2.83300 45.90900
C  27.04500 -3.18900 45.48500
C  29.93700 -3.91800 47.63400
C  28.90300 -1.62800 45.22300
O  29.93700 -0.95400 45.35400
C  27.84200 -1.40000 44.06100
C  27.58300 -0.00400 44.00500
O  26.99100 0.66600 44.86000
O  28.17300 0.50700 42.87100
C  28.15600 1.99100 42.75900
H  21.28600 -2.94700 43.01800
H  22.22000 -8.23900 46.81600
H  28.04800 -6.16100 48.30400
H  25.29600 -0.30800 42.75300
H  22.73400 -1.51400 41.83700
H  23.28900 0.66800 43.40800
H  22.31700 -0.44800 44.42600
H  21.71900 0.12000 42.89300
H  24.56800 -2.21000 40.72500
H  26.04900 -2.63900 41.61300
H  27.20000 -1.16800 40.34300
H  26.00700 0.13900 40.76400
H  19.05800 -5.99100 42.58300
H  20.01700 -4.78000 42.16400
H  18.82400 -4.28500 43.26500
H  20.15800 -8.22300 47.16800
H  20.58200 -9.44500 46.07500
H  18.88900 -9.29600 46.37300
H  24.88100 -9.31700 47.39200
H  25.50200 -7.24800 49.64200
H  23.93900 -9.03500 50.08300
H  23.44700 -10.21000 48.89300
H  22.64400 -8.66100 48.94000
H  27.81400 -8.62000 48.42500
H  26.57500 -9.68100 48.74900
H  28.26700 -9.10800 50.64500
H  26.48100 -9.50900 50.98200
H  27.25300 -7.87700 51.08300
H  29.82700 -4.24800 48.66700
H  30.40600 -2.93600 47.69400
H  30.58500 -4.54600 47.02200
H  28.26700 -1.81200 43.14500
H  28.57800 2.60900 43.55200
H  27.10500 2.25900 42.64500
H  28.62900 2.33400 41.84000
Mg 0.23400 44.10600 26.62400
C  2.51400 43.96500 29.27200
C  -2.22100 43.39400 29.03100
C  -1.88500 43.47000 24.03900
C  2.78200 44.64600 24.33900
N  0.17600 43.90200 28.99000
C  1.22300 43.84700 29.84200
C  0.83600 43.78000 31.28500
C  -0.62500 43.37000 31.13700
C  -0.93800 43.63300 29.60200
C  -0.84400 41.85100 31.50500
C  1.09400 45.08900 32.09700
C  1.39300 44.82500 33.60500
H  0.98300 43.58500 34.35600
N  -1.73600 43.46200 26.55600
C  -2.56000 43.20800 27.62300
C  -3.85900 42.77300 27.17900
C  -3.80000 42.85800 25.68000
C  -2.45800 43.36800 25.35200
C  -5.06500 42.49200 28.12500
C  -4.95000 42.55000 24.67000
O  -4.74800 42.44600 23.47600
C  -6.33700 42.21100 25.15200
N  0.40100 43.93400 24.50400
C  -0.58700 43.65900 23.64700
C  -0.14300 43.80900 22.16200
C  1.32400 44.28100 22.30700
C  1.52400 44.31400 23.82600
C  -0.24500 42.44600 21.44200
C  1.74600 45.47500 21.41800
C  0.73500 46.60500 21.43600
N  2.22600 44.26100 26.75500
C  3.15300 44.48700 25.73200
C  4.47800 44.37600 26.28300
C  4.25700 44.13500 27.68300
C  2.91700 44.05600 27.91900
C  5.81500 44.44000 25.54500
C  4.89200 43.78400 28.85800
O  6.07900 43.58400 29.10500
C  3.83600 43.85100 29.99700
C  4.04200 42.70500 30.95400
O  3.69400 41.55800 30.79600
O  4.81900 43.15100 32.00700
C  4.86900 42.16800 33.10600
H  -2.98700 43.12400 29.76000
H  -2.43300 43.37100 23.09900
H  3.57200 44.72100 23.58900
H  1.36700 42.94900 31.75000
H  -1.37200 44.01600 31.59700
H  0.01000 41.18900 31.65300
H  -1.41300 41.33700 30.73000
H  -1.54800 41.74100 32.33000
H  0.20000 45.70100 31.97800
H  1.95200 45.55700 31.61500
H  1.10600 45.75500 34.09500
H  2.48100 44.79200 33.66300
H  -5.27100 43.50200 28.48000
H  -4.62000 42.08400 29.03200
H  -5.89100 41.89000 27.74600
H  -6.37300 41.29400 25.74000
H  -7.01100 42.18200 24.29600
H  -6.71900 43.03300 25.75800
H  -0.85300 44.53000 21.75800
H  1.88900 43.44600 21.89200
H  -0.36900 41.63800 22.16300
H  0.61000 42.16100 20.82800
H  -1.13600 42.53600 20.82100
H  1.89500 45.03200 20.43300
H  2.76600 45.78000 21.65300
H  0.01200 46.48400 22.24300
H  0.15300 46.60900 20.51400
H  1.27900 47.51300 21.69600
H  6.02200 43.41700 25.22900
H  6.59000 44.69100 26.26900
H  5.79200 45.03400 24.63100
H  3.96900 44.79100 30.53200
H  4.99900 41.13300 32.79000
H  3.98500 42.16600 33.74200
H  5.73800 42.52600 33.65800

