158

Mg 9.66000 46.96800 25.86600
C  7.78400 46.93800 28.84000
C  12.32600 48.09600 27.66700
C  11.55100 46.93800 23.02900
C  6.74200 46.42600 24.01900
N  10.00100 47.54500 28.08100
C  9.14200 47.35900 29.10400
C  9.84800 47.81700 30.46500
C  11.05900 48.66500 29.91300
C  11.14300 48.13500 28.45600
C  10.91100 50.18200 29.97700
C  10.17700 46.65200 31.51000
C  10.22400 47.05300 32.92600
H  9.71000 46.10200 34.05400
N  11.61700 47.30900 25.39600
C  12.58400 47.65600 26.35600
C  13.91300 47.61900 25.74300
C  13.64600 47.17400 24.38500
C  12.19500 47.07500 24.22800
C  15.22000 47.97400 26.33300
C  14.64600 46.83500 23.25500
O  14.32500 46.35000 22.09500
C  16.07800 47.07700 23.43900
N  9.22000 46.81400 23.82300
C  10.16900 46.75300 22.78000
C  9.56900 46.41100 21.39000
C  8.05200 46.18200 21.81900
C  7.97300 46.45500 23.25700
C  9.89800 47.40900 20.22700
C  7.59100 44.70100 21.64600
C  8.02400 43.65500 22.68000
N  7.67100 46.79000 26.30100
C  6.57500 46.55100 25.45800
C  5.39100 46.43600 26.19100
C  5.77900 46.56900 27.55900
C  7.23200 46.79700 27.55500
C  3.94600 46.20500 25.59300
C  5.38300 46.50500 28.90000
O  4.29000 46.23900 29.38900
C  6.58100 46.78100 29.83100
C  6.80300 45.65600 30.69100
O  7.45300 44.66700 30.43000
O  6.15000 45.81900 31.84200
C  5.88900 44.58400 32.61600
H  13.19900 48.47900 28.19800
H  12.09300 46.90900 22.08100
H  5.91500 46.23100 23.33200
H  9.21700 48.47300 31.06400
H  11.98300 48.36600 30.40600
H  9.97900 50.55400 30.40400
H  11.05000 50.74900 29.05600
H  11.66500 50.67500 30.58900
H  11.13100 46.16400 31.31000
H  9.49100 45.82900 31.31200
H  9.63800 47.95700 33.08900
H  11.27700 47.16500 33.18500
H  16.00500 47.21800 26.34800
H  15.04500 48.37000 27.33400
H  15.71600 48.76800 25.77500
H  16.11500 48.16200 23.54400
H  16.53900 46.83800 22.48100
H  16.48400 46.61700 24.34000
H  10.11900 45.49300 21.18500
H  7.39800 46.91700 21.34900
H  10.48400 48.25300 20.59100
H  8.99400 47.75100 19.72400
H  10.61400 46.93100 19.55800
H  7.93500 44.29200 20.69600
H  6.50600 44.73800 21.54800
H  8.63700 44.03100 23.49900
H  8.67700 42.94500 22.17300
H  7.08800 43.20400 23.00900
H  3.15000 45.93300 26.28700
H  4.09800 45.24900 25.09200
H  3.58600 47.02300 24.96900
H  6.37100 47.61100 30.50700
H  5.65600 44.70000 33.67500
H  6.84200 44.05600 32.61100
H  5.14700 43.94300 32.14000
Mg -11.00900 38.05500 41.99600
C  -9.29500 35.03400 41.49600
C  -8.54000 39.69500 40.27800
C  -12.99900 40.71400 41.90200
C  -13.72900 36.13100 43.25800
N  -9.25100 37.45400 40.99400
C  -8.67800 36.17800 40.92700
C  -7.46200 36.15900 40.00200
C  -7.10700 37.64500 39.84200
C  -8.36700 38.34500 40.40000
C  -5.74100 38.14400 40.44700
C  -7.87400 35.36400 38.70100
C  -7.19200 34.08000 38.34500
H  -6.53900 34.07500 36.99000
N  -10.77300 39.92500 41.25900
C  -9.65500 40.48000 40.69200
C  -9.91900 41.85000 40.29300
C  -11.20800 42.17600 40.71500
C  -11.70200 40.90000 41.31500
C  -8.97000 42.74400 39.53100
C  -11.83600 43.54700 40.53500
O  -11.25900 44.45800 39.93200
C  -13.16700 43.91600 41.08800
N  -13.08200 38.33900 42.58300
C  -13.64200 39.54000 42.37200
C  -15.09300 39.55500 42.76300
C  -15.34400 38.12500 43.25900
C  -13.95100 37.51700 43.03600
C  -15.51100 40.78500 43.60100
C  -16.49800 37.33600 42.66200
C  -17.29300 36.39300 43.57700
N  -11.36800 36.01600 42.50900
C  -12.47000 35.43100 43.17200
C  -12.11400 34.06200 43.47300
C  -10.87600 33.86500 42.80100
C  -10.45900 35.09000 42.30900
C  -12.97600 33.08100 44.32900
C  -9.89200 32.89100 42.53100
O  -9.94900 31.69600 42.78600
C  -8.78400 33.58600 41.59600
C  -7.44000 33.51000 42.17000
O  -6.52700 32.76700 41.74500
O  -7.33700 34.27800 43.31600
C  -6.05200 34.04900 43.98600
H  -7.74000 40.30200 39.85000
H  -13.65800 41.58500 41.90700
H  -14.59800 35.60200 43.65400
H  -6.64000 35.61000 40.46000
H  -7.14700 37.83400 38.76900
H  -5.17400 37.26300 40.74900
H  -5.87400 38.89100 41.22900
H  -5.13700 38.66700 39.70600
H  -7.88200 36.05600 37.85800
H  -8.89600 35.02800 38.87500
H  -7.82500 33.19600 38.26900
H  -6.37700 33.88900 39.04400
H  -9.19400 43.01900 38.50000
H  -8.02900 42.19400 39.54900
H  -8.65500 43.64800 40.05200
H  -13.83000 43.27700 40.50500
H  -13.23600 45.00100 41.01200
H  -13.32100 43.62400 42.12700
H  -15.64600 39.63100 41.82700
H  -15.46500 38.30200 44.32700
H  -14.65700 41.40000 43.88600
H  -16.16400 40.52500 44.43400
H  -16.03500 41.42100 42.88700
H  -16.08700 36.72900 41.85600
H  -17.24100 38.01400 42.24100
H  -18.33800 36.69600 43.65300
H  -16.85700 36.41600 44.57500
H  -17.20900 35.38300 43.17500
H  -12.29100 32.59000 45.02000
H  -13.34000 32.25700 43.71400
H  -13.76300 33.58600 44.88900
H  -8.78800 33.07000 40.63600
H  -5.87600 34.71300 44.83300
H  -5.17200 34.05700 43.34300
H  -6.10200 33.06000 44.44100

