158

Mg 9.03500 2.85300 26.97100
C  10.05700 1.47600 30.02500
C  6.79100 4.70300 28.71700
C  7.97300 4.07200 24.06600
C  10.87000 0.25400 25.31800
N  8.44600 3.00200 29.18500
C  9.08500 2.45400 30.21800
C  8.64300 3.14700 31.51500
C  7.43500 4.03100 30.99800
C  7.54200 3.90100 29.53000
C  5.97600 3.59600 31.55400
C  9.78000 3.92600 32.30500
C  9.55200 4.35600 33.77200
H  10.34700 3.82500 34.99900
N  7.57800 4.28000 26.48000
C  6.73300 4.88900 27.31700
C  5.98700 5.91300 26.61800
C  6.29900 5.71100 25.26400
C  7.33700 4.66900 25.20400
C  5.19100 6.99500 27.27300
C  5.82500 6.50800 24.09600
O  6.20700 6.41200 22.96200
C  4.77000 7.62200 24.34500
N  9.23100 2.10600 24.98400
C  8.77300 2.90800 23.93600
C  9.25400 2.35800 22.62600
C  10.06600 1.11300 22.98400
C  10.09200 1.15300 24.51100
C  8.18700 2.14100 21.50300
C  11.50200 1.19600 22.41900
C  11.76000 0.58900 21.05600
N  10.20800 1.25000 27.50400
C  10.93500 0.33800 26.69800
C  11.68200 -0.59000 27.53400
C  11.36000 -0.16000 28.85600
C  10.38500 0.90500 28.75200
C  12.65800 -1.72000 27.12400
C  11.56900 -0.41600 30.23700
O  12.22600 -1.25700 30.79200
C  10.79400 0.68200 31.05800
C  10.05400 -0.06500 32.11700
O  9.22000 -0.94200 31.83300
O  10.38200 0.33200 33.41300
C  9.81600 -0.27200 34.59600
H  6.14700 5.40200 29.25400
H  7.74100 4.62700 23.15500
H  11.48000 -0.43100 24.72600
H  8.24700 2.38100 32.18200
H  7.69500 5.05900 31.24900
H  6.16100 3.08500 32.49800
H  5.40300 2.92200 30.91700
H  5.28200 4.41800 31.73000
H  10.13400 4.71400 31.64100
H  10.59100 3.19800 32.28800
H  8.49900 4.21200 34.01200
H  9.70900 5.43500 33.79500
H  5.72700 7.92000 27.06300
H  4.92600 6.74600 28.30100
H  4.20100 6.96300 26.81800
H  5.15200 8.55100 24.76800
H  3.88000 7.20700 24.81700
H  4.37400 7.87600 23.36200
H  9.96200 3.07100 22.20200
H  9.50000 0.22800 22.69300
H  8.34000 2.89400 20.73000
H  7.22800 2.24300 22.01100
H  8.34200 1.12800 21.13200
H  12.20100 0.62000 23.02500
H  11.89200 2.21100 22.50200
H  10.84900 0.84800 20.51800
H  11.89600 -0.48300 21.19700
H  12.68100 0.91600 20.57300
H  12.62800 -1.78300 26.03600
H  12.46600 -2.59300 27.74700
H  13.62500 -1.30600 27.40800
H  11.55600 1.29500 31.53900
H  10.58800 -0.92700 35.00000
H  8.99600 -0.96800 34.42000
H  9.55600 0.57800 35.22600
Mg 53.61200 23.70000 44.74200
C  51.10500 25.81700 43.75700
C  52.01700 21.10800 43.05800
C  56.48600 21.69000 45.14300
C  55.45700 26.38500 45.79100
N  51.98000 23.56200 43.34600
C  51.02600 24.56200 43.13800
C  50.14100 24.17000 41.98900
C  50.07600 22.61900 42.08500
C  51.39700 22.35900 42.91800
C  48.85500 21.98900 42.81500
C  50.71500 24.60800 40.57400
C  49.71100 24.51500 39.43800
H  50.15600 25.02900 38.04600
N  54.15000 21.65300 44.39400
C  53.31600 20.77100 43.60600
C  54.00800 19.52500 43.52900
C  55.26900 19.63300 44.26400
C  55.32900 21.03100 44.65600
C  53.36700 18.21100 42.84400
C  56.30000 18.46400 44.36000
O  56.07600 17.41300 43.88100
C  57.49400 18.54600 45.25600
N  55.71200 23.98600 45.47100
C  56.69000 23.05700 45.48000
C  58.04700 23.68800 45.88800
C  57.67400 25.23300 46.06400
C  56.19100 25.21500 45.71200
C  58.63800 22.98100 47.09200
C  58.47200 26.14600 45.02700
C  60.02800 25.97700 44.71100
N  53.29200 25.59000 45.02300
C  54.11100 26.57800 45.48600
C  53.30500 27.84400 45.60100
C  52.12500 27.57600 45.03300
C  52.20000 26.21400 44.59600
C  53.78300 29.02800 46.35200
C  50.88800 28.10700 44.58900
O  50.42300 29.21400 44.76300
C  50.15400 26.94500 43.75800
C  49.69300 27.38100 42.39500
O  50.38200 27.89100 41.53900
O  48.34500 27.19600 42.40000
C  47.73800 27.73700 41.18400
H  51.47800 20.28300 42.59000
H  57.40300 21.09800 45.17300
H  56.05500 27.25400 46.07400
H  49.12000 24.53600 42.09200
H  50.15900 22.19200 41.08500
H  48.04400 22.69000 43.01000
H  49.32500 21.61100 43.72300
H  48.42400 21.15900 42.25700
H  51.55800 23.95400 40.35000
H  51.06600 25.64000 40.57600
H  49.02100 25.32700 39.66400
H  49.07000 23.63700 39.51800
H  52.75200 17.65800 43.55400
H  54.07700 17.63800 42.24800
H  52.62900 18.52700 42.10600
H  57.55600 19.20000 46.12600
H  58.28200 18.60300 44.50600
H  57.73900 17.56300 45.65900
H  58.65500 23.66000 44.98400
H  57.85200 25.66200 47.05100
H  58.43100 21.91200 47.13700
H  58.33600 23.41800 48.04400
H  59.71600 23.14200 47.11100
H  58.31500 27.16400 45.38300
H  57.92900 26.11200 44.08300
H  60.72400 26.80800 44.83000
H  60.13300 25.71200 43.65900
H  60.41700 25.08500 45.20200
H  54.83900 29.25400 46.20700
H  53.60100 28.85100 47.41200
H  53.23000 29.90200 46.00700
H  49.32700 26.62600 44.39100
H  47.84800 28.82100 41.17300
H  46.76300 27.30800 41.41500
H  48.13400 27.27800 40.27700

