158

Mg 30.90100 59.23900 39.30200
C  28.26500 57.08800 38.27300
C  33.03500 56.66200 38.56100
C  33.40700 61.40600 39.82200
C  28.62300 61.73300 39.59400
N  30.60700 57.14900 38.55400
C  29.51500 56.49600 38.18200
C  29.71400 54.99600 37.91000
C  31.28200 54.83300 38.26100
C  31.69100 56.32600 38.44100
C  31.50100 54.11800 39.64800
C  29.34500 54.67800 36.38200
C  29.71400 55.63100 35.15600
H  28.60000 55.90100 34.12100
N  32.90100 59.05800 39.22400
C  33.61700 57.91100 38.93400
C  35.07500 58.14300 38.98200
C  35.23100 59.50300 39.45300
C  33.83600 60.09200 39.50200
C  36.05300 57.13300 38.45100
C  36.59200 60.13900 39.77800
O  37.54300 59.47400 40.02400
C  36.72600 61.64300 40.05400
N  31.01800 61.29400 39.65900
C  32.15000 62.01200 39.87400
C  31.89000 63.51600 39.95100
C  30.37000 63.54000 39.95000
C  29.95200 62.11500 39.65400
C  32.47600 64.11600 41.24100
C  29.86200 64.48000 38.83100
C  28.41600 65.03100 39.14700
N  28.84600 59.43800 39.09400
C  28.05000 60.50500 39.29400
C  26.64600 60.18900 39.08700
C  26.70400 58.84700 38.71900
C  28.06400 58.41400 38.71200
C  25.55200 61.09300 39.29900
C  25.89000 57.69900 38.32500
O  24.66700 57.66600 38.16800
C  26.88400 56.52000 38.06100
C  26.46000 55.27600 38.85200
O  26.95200 54.95500 39.98700
O  25.36400 54.67300 38.29700
C  24.58200 53.77000 39.07300
H  33.74600 55.83500 38.50600
H  34.11600 62.19400 40.08300
H  27.79400 62.43600 39.69400
H  29.13100 54.36300 38.58000
H  31.78600 54.30700 37.44900
H  31.98400 54.80700 40.34100
H  32.25600 53.34400 39.51200
H  30.53600 53.73800 39.98200
H  28.26100 54.56600 36.34300
H  29.66700 53.66500 36.13900
H  30.54200 55.10200 34.68500
H  30.12400 56.61700 35.37400
H  36.54900 57.59400 37.59700
H  35.62400 56.23100 38.01600
H  36.79000 56.93500 39.23000
H  37.74900 61.94900 40.27000
H  36.13800 61.74400 40.96600
H  36.33300 62.08300 39.13700
H  32.44500 64.00200 39.14800
H  29.89600 63.76700 40.90500
H  33.17300 64.93800 41.07800
H  32.92000 63.40400 41.93600
H  31.72500 64.71600 41.75500
H  29.79200 63.92700 37.89400
H  30.54900 65.31600 38.70100
H  28.03300 64.67700 40.10400
H  27.73000 64.77200 38.34000
H  28.41500 66.10400 39.34000
H  24.59200 60.61100 39.11600
H  25.71200 61.75800 38.45000
H  25.62100 61.53700 40.29200
H  26.68900 56.45000 36.99100
H  25.10500 52.84600 39.32100
H  23.69700 53.58800 38.46300
H  24.25400 54.38400 39.91300
Mg 17.03700 53.10500 25.79900
C  19.06300 52.39300 28.70700
C  14.47800 53.90500 27.95800
C  15.30700 53.95800 23.12500
C  19.72400 51.90700 23.85600
N  16.84600 53.11900 28.08900
C  17.74200 52.80900 29.10100
C  17.14600 52.72800 30.45500
C  15.57800 53.04300 30.17400
C  15.60300 53.36700 28.64200
C  14.64400 51.90300 30.53800
C  17.83400 53.69600 31.54300
C  17.63300 53.13900 32.95500
H  16.80000 53.76200 34.09500
N  15.12700 53.82000 25.62900
C  14.24700 54.10100 26.61600
C  13.06000 54.68600 26.01000
C  13.31200 54.72500 24.57800
C  14.60800 54.11200 24.38300
C  11.79400 54.90400 26.83300
C  12.37600 55.14200 23.49100
O  12.66100 55.23900 22.27300
C  10.89700 55.50300 23.95000
N  17.48500 53.01700 23.79600
C  16.60400 53.33900 22.89300
C  17.18700 53.08500 21.48500
C  18.55400 52.28400 21.71000
C  18.59300 52.39800 23.23100
C  16.19300 52.28300 20.58400
C  19.77500 53.03900 21.02700
C  20.17300 54.44200 21.52200
N  18.98500 52.35700 26.18100
C  19.93200 51.94000 25.26600
C  21.16500 51.47700 26.01300
C  20.86200 51.72000 27.35600
C  19.54600 52.24900 27.37700
C  22.38900 50.92000 25.45300
C  21.33000 51.53400 28.70000
O  22.45200 51.08000 28.98700
C  20.21100 51.92100 29.63600
C  19.97000 50.78800 30.53000
O  19.85100 49.62900 30.11200
O  20.05000 51.17800 31.84400
C  20.00200 50.16900 32.91800
H  13.62800 54.10900 28.61300
H  14.82100 54.31800 22.21600
H  20.55800 51.55800 23.24500
H  17.20800 51.68500 30.76400
H  15.19200 53.98100 30.57300
H  14.48600 51.26100 29.67200
H  13.72200 52.27000 30.98900
H  15.15700 51.29400 31.28200
H  17.46200 54.72000 31.55800
H  18.86900 53.73600 31.20200
H  18.64300 53.16600 33.36400
H  17.41600 52.07400 33.03700
H  11.48700 55.94300 26.70800
H  11.87500 54.93300 27.91900
H  10.92100 54.32400 26.53600
H  10.86100 56.40800 24.55600
H  10.42900 54.67300 24.48000
H  10.26500 55.61500 23.07000
H  17.27700 53.91800 20.78800
H  18.39400 51.29300 21.28600
H  16.09700 51.23500 20.86800
H  16.67200 52.31500 19.60600
H  15.17600 52.66300 20.67800
H  19.55700 53.12500 19.96300
H  20.66600 52.41000 21.04000
H  21.13300 54.34100 22.02900
H  19.44000 54.77600 22.25600
H  20.20700 55.17800 20.71900
H  23.19200 51.15600 26.15100
H  22.67300 51.34300 24.48900
H  22.11000 49.88500 25.25500
H  20.66800 52.71500 30.22600
H  19.19600 49.43800 32.85100
H  19.74400 50.65800 33.85700
H  20.94100 49.62500 33.02100

