158

Mg 2.03600 -1.26600 44.64600
C  5.24000 0.48000 43.99300
C  0.73300 1.46600 42.57000
C  -0.73800 -2.75800 44.51000
C  3.85700 -3.87300 45.89300
N  2.91100 0.79000 43.52500
C  4.18600 1.25100 43.55600
C  4.39200 2.53600 42.70600
C  2.87400 2.93900 42.54200
C  2.09500 1.62200 42.85700
C  2.46700 4.16000 43.41400
C  5.22600 2.33500 41.31700
C  6.40100 3.31600 40.98600
H  6.10700 4.37400 39.91200
N  0.24800 -0.69800 43.83800
C  -0.06300 0.36000 42.97400
C  -1.47500 0.22300 42.62100
C  -1.98600 -0.95900 43.35200
C  -0.83200 -1.49600 43.98400
C  -2.25100 1.20600 41.69200
C  -3.48700 -1.39300 43.35700
O  -4.29100 -0.68900 42.78200
C  -3.98400 -2.54000 44.31700
N  1.61800 -3.12400 45.05400
C  0.36100 -3.55100 45.03700
C  0.23800 -4.91000 45.73000
C  1.68500 -5.29000 46.02600
C  2.44200 -4.00400 45.71500
C  -0.67800 -4.73900 46.98300
C  2.33500 -6.50300 45.30300
C  1.56500 -7.80000 45.68800
N  4.05500 -1.62400 45.03200
C  4.62700 -2.74400 45.62500
C  6.05800 -2.56300 45.66400
C  6.28600 -1.31100 45.04500
C  5.05500 -0.78200 44.66500
C  7.01600 -3.52800 46.23500
C  7.33600 -0.34200 44.71600
O  8.54800 -0.35300 44.99300
C  6.60900 0.87500 44.04800
C  6.86000 2.11600 44.79900
O  6.13900 2.43400 45.73500
O  7.83600 2.90700 44.23500
C  8.01300 4.21200 44.95500
H  0.30400 2.23100 41.92000
H  -1.56100 -3.47500 44.47800
H  4.38700 -4.74200 46.28800
H  5.04200 3.21600 43.25600
H  2.67800 3.29900 41.53200
H  2.37600 5.11800 42.90300
H  3.21400 4.16900 44.20800
H  1.47800 4.00100 43.84200
H  4.47000 2.34200 40.53200
H  5.73500 1.37100 41.29100
H  7.28100 2.81900 40.57900
H  6.77100 3.90500 41.82500
H  -2.94000 0.65500 41.05200
H  -1.51800 1.79200 41.13700
H  -2.76100 1.92900 42.32800
H  -5.06100 -2.45900 44.46700
H  -3.40300 -2.51800 45.23900
H  -3.71400 -3.46800 43.81300
H  -0.18700 -5.66900 45.07500
H  1.90100 -5.51800 47.07000
H  -1.32900 -5.61300 46.95200
H  -1.16300 -3.76400 47.00200
H  -0.27200 -4.72700 47.99500
H  3.38600 -6.68400 45.53000
H  2.23700 -6.28500 44.24000
H  2.25200 -8.62500 45.87800
H  0.95100 -8.14900 44.85900
H  0.83000 -7.63200 46.47500
H  7.54100 -4.06500 45.44500
H  6.46900 -4.33800 46.71800
H  7.62800 -3.18600 47.06900
H  6.93600 1.15700 43.04700
H  7.26000 4.90700 44.58200
H  8.94100 4.71400 44.68100
H  8.02400 3.98600 46.02100
Mg 56.42000 24.89700 44.74900
C  53.70000 26.92700 43.57100
C  54.81000 22.23800 43.42500
C  59.16000 23.25700 45.05100
C  58.12500 27.97900 45.47900
N  54.56800 24.64000 43.53300
C  53.58200 25.58000 43.17800
C  52.28000 24.87400 42.93600
C  52.57500 23.43400 43.29500
C  54.10100 23.43500 43.42000
C  51.88700 22.79100 44.57200
C  51.92500 25.00100 41.46000
C  50.58400 24.47500 41.03600
H  50.68000 23.24900 40.10800
N  56.90400 22.98400 44.28600
C  56.14400 21.99300 43.69400
C  56.87200 20.70500 43.69300
C  58.08600 20.92000 44.41400
C  58.15300 22.43700 44.61100
C  56.36000 19.44600 43.03000
C  59.23500 19.98800 44.62100
O  59.08800 18.76300 44.34000
C  60.47700 20.39600 45.20700
N  58.41300 25.57600 45.12000
C  59.34300 24.64100 45.17500
C  60.72000 25.29900 45.50700
C  60.40200 26.85300 45.57900
C  58.88900 26.82900 45.34500
C  61.32400 24.84700 46.81900
C  61.20000 27.71100 44.51100
C  62.42400 28.56100 45.01700
N  55.98100 26.96200 44.69000
C  56.75200 28.05900 45.18100
C  55.87000 29.21300 45.16800
C  54.67800 28.83200 44.54800
C  54.81200 27.47500 44.25600
C  56.27300 30.55400 45.60200
C  53.37900 29.25900 44.07100
O  52.93000 30.38300 44.08700
C  52.62800 28.09300 43.45500
C  52.19500 28.54800 42.09700
O  52.86600 29.16900 41.29900
O  50.90900 28.18500 41.86100
C  50.18500 28.70100 40.64500
H  54.13300 21.45400 43.08000
H  60.16800 22.83600 45.06000
H  58.79200 28.79400 45.76900
H  51.43900 25.31100 43.47400
H  52.31300 22.78500 42.46000
H  51.16700 23.56200 44.84700
H  52.60500 22.62200 45.37500
H  51.47300 21.84200 44.23100
H  52.70500 24.53800 40.85600
H  51.96200 26.03700 41.12300
H  50.01300 25.21200 40.47200
H  49.91400 24.14900 41.83200
H  57.19100 18.78700 42.78100
H  55.86500 19.85900 42.15000
H  55.58700 19.05300 43.69000
H  61.15700 20.82200 44.46800
H  61.01500 19.53300 45.59800
H  60.34100 21.02800 46.08400
H  61.31300 24.98500 44.64800
H  60.52000 27.29700 46.56700
H  62.09200 24.11500 46.57000
H  60.55300 24.41300 47.45500
H  61.94800 25.64700 47.21900
H  60.54500 28.49100 44.12300
H  61.51300 27.06000 43.69500
H  62.36700 29.55600 44.57700
H  63.35000 28.03000 44.79300
H  62.34400 28.57800 46.10400
H  56.11300 30.58400 46.68000
H  55.53300 31.18100 45.10600
H  57.25400 30.89700 45.27200
H  51.68500 27.97500 43.98900
H  50.82400 28.63900 39.76400
H  49.83800 29.73000 40.74000
H  49.34800 28.01200 40.53300

