158

Mg 24.23600 -5.83700 46.16600
C  26.21900 -3.18600 44.86500
C  21.75200 -4.93700 44.12600
C  22.77600 -8.80000 47.00200
C  27.13600 -6.72600 48.05400
N  24.11200 -4.21700 44.68900
C  24.97200 -3.23500 44.39800
C  24.23800 -2.18700 43.47100
C  22.71700 -2.62000 43.53200
C  22.87800 -4.03800 44.11300
C  21.71900 -1.72200 44.30600
C  24.79900 -2.18200 41.96500
C  25.28800 -0.80700 41.41200
H  25.10900 -0.61700 39.94600
N  22.49300 -6.76000 45.52900
C  21.61100 -6.20100 44.75700
C  20.40500 -7.12700 44.60900
C  20.72600 -8.23900 45.44600
C  22.06500 -7.97700 46.07100
C  19.19200 -6.92600 43.76600
C  19.91100 -9.45600 45.83500
O  18.80000 -9.47800 45.30700
C  20.31100 -10.53900 46.86600
N  24.82200 -7.52500 47.36500
C  24.09000 -8.64700 47.52700
C  24.74600 -9.65200 48.49400
C  26.19400 -9.06000 48.75800
C  26.04600 -7.62800 48.08400
C  23.91500 -10.19600 49.67300
C  27.35900 -9.90200 48.10600
C  28.68300 -9.69100 48.89800
N  26.27200 -5.13600 46.42600
C  27.30800 -5.55400 47.24200
C  28.44400 -4.65700 47.12600
C  28.03900 -3.70500 46.21800
C  26.73500 -4.04400 45.82200
C  29.74700 -4.76100 48.04500
C  28.46700 -2.46900 45.59400
O  29.46700 -1.79400 45.70800
C  27.31300 -2.14300 44.67800
C  26.75400 -0.75400 44.91700
O  26.03300 -0.44100 45.83300
O  27.33300 0.09200 44.04400
C  27.18200 1.53400 44.29600
H  20.83900 -4.72700 43.56500
H  22.49200 -9.78300 47.38400
H  27.97200 -7.08900 48.65600
H  24.20900 -1.22800 43.98800
H  22.28700 -2.69400 42.53300
H  20.92000 -1.35200 43.66400
H  22.14600 -0.85100 44.80400
H  21.27300 -2.33600 45.08900
H  24.08700 -2.57900 41.24100
H  25.67700 -2.82600 41.93600
H  26.36000 -0.73900 41.60100
H  24.67200 -0.02400 41.85400
H  18.37300 -6.45800 44.31100
H  18.75800 -7.83300 43.34600
H  19.44600 -6.14000 43.05500
H  19.44800 -11.14500 47.14300
H  20.43300 -9.92700 47.76000
H  21.22700 -11.03500 46.54200
H  24.83400 -10.48600 47.79700
H  26.39500 -8.87400 49.81300
H  22.87700 -9.86300 49.68600
H  24.38600 -9.86500 50.59800
H  23.91200 -11.28400 49.61300
H  27.46000 -9.48500 47.10300
H  27.03900 -10.94000 48.02400
H  29.10900 -10.69300 48.95600
H  28.48000 -9.31800 49.90200
H  29.36300 -9.14500 48.24400
H  30.12700 -3.76800 48.28500
H  30.57900 -5.31900 47.61400
H  29.44800 -5.22100 48.98700
H  27.72500 -2.04400 43.67300
H  26.14000 1.80900 44.13300
H  27.90700 2.01400 43.63900
H  27.41800 1.74200 45.33900
Mg 50.73000 46.12900 43.25200
C  47.91200 47.44800 41.67900
C  49.94500 43.14400 41.66900
C  53.83600 45.04200 43.95300
C  51.52100 49.37800 44.31300
N  49.10000 45.39700 41.84700
C  47.99800 46.09000 41.42700
C  47.09100 45.21700 40.58200
C  47.62000 43.76000 40.98000
C  48.93900 44.06200 41.58400
C  46.63600 42.98800 41.87500
C  47.23200 45.55500 39.05300
C  46.01500 46.04400 38.22900
H  45.47200 45.03300 37.20500
N  51.77700 44.30300 42.91000
C  51.21500 43.14000 42.27100
C  52.20200 42.04100 42.38200
C  53.39100 42.63500 42.95100
C  53.05500 44.07200 43.25400
C  51.92900 40.53700 42.05700
C  54.73700 41.88600 43.24000
O  54.84700 40.70300 42.88300
C  55.92200 42.53900 43.86200
N  52.42000 47.05500 43.96200
C  53.55900 46.33500 44.29000
C  54.60000 47.33800 44.84600
C  53.86200 48.68800 45.04100
C  52.52400 48.36400 44.34800
C  55.47300 46.83600 46.06800
C  54.67000 49.88000 44.47200
C  54.92200 51.00700 45.52200
N  49.91200 48.09500 43.04000
C  50.29200 49.29800 43.57800
C  49.34300 50.27900 43.16800
C  48.35400 49.63600 42.50100
C  48.82800 48.30400 42.37600
C  49.52600 51.79600 43.40800
C  47.05200 49.78600 41.86000
O  46.25900 50.71200 41.80100
C  46.72600 48.38000 41.31100
C  45.36100 47.92600 41.76000
O  45.03500 47.49000 42.85500
O  44.51600 48.07300 40.67800
C  43.16400 47.48700 40.98900
H  49.59100 42.25200 41.14700
H  54.86700 44.75300 44.17000
H  51.76600 50.29900 44.84600
H  46.05600 45.31000 40.91200
H  47.78300 43.12500 40.10900
H  45.72700 43.56900 42.03000
H  47.00900 42.93100 42.89700
H  46.53900 42.00700 41.40900
H  47.73200 44.82000 38.42200
H  48.00000 46.31900 38.94000
H  46.15400 46.94300 37.62900
H  45.26800 46.31200 38.97700
H  51.11400 40.38300 41.35000
H  51.71600 39.94000 42.94400
H  52.74100 40.01100 41.55300
H  55.54600 42.90700 44.81700
H  56.37700 43.31500 43.24700
H  56.78000 41.87500 43.96900
H  55.33600 47.54900 44.07100
H  53.60000 48.93100 46.07100
H  55.30300 45.76300 46.15600
H  55.31600 47.27800 47.05200
H  56.52300 46.90300 45.78400
H  54.06800 50.27100 43.65200
H  55.66300 49.54900 44.16900
H  55.99800 51.04700 45.69400
H  54.29700 50.88200 46.40600
H  54.64900 51.97400 45.10000
H  50.05700 52.26300 42.57800
H  49.90600 52.02600 44.40400
H  48.53400 52.24300 43.34800
H  46.68900 48.47200 40.22500
H  43.21600 46.39900 40.94700
H  42.51000 47.80500 40.17800
H  42.83800 47.86700 41.95800

