158

Mg 45.51200 4.32700 47.47300
C  43.23900 6.98700 47.01600
C  42.84900 2.09800 47.10300
C  47.82100 1.81700 47.49600
C  48.10400 6.70500 47.41100
N  43.28100 4.54500 47.22200
C  42.59100 5.69700 46.97400
C  41.09100 5.48500 46.65100
C  40.91700 3.93300 46.81200
C  42.44500 3.45600 47.13200
C  39.81700 3.56200 47.94300
C  40.72100 5.94000 45.20700
C  39.29800 6.48200 45.15200
H  38.45200 6.13800 43.97000
N  45.33700 2.19600 47.19200
C  44.17800 1.44300 47.19500
C  44.52700 0.12900 47.07100
C  45.95100 0.04200 47.18700
C  46.51200 1.36800 47.30900
C  43.48000 -0.93700 46.86200
C  46.69500 -1.29800 47.10400
O  46.09000 -2.32700 46.79800
C  48.20000 -1.33300 47.18000
N  47.64900 4.25700 47.34600
C  48.33100 3.11800 47.52300
C  49.83300 3.31800 47.74100
C  49.92300 4.86500 47.61700
C  48.44700 5.30600 47.39800
C  50.28600 2.76200 49.07500
C  51.00600 5.37000 46.55600
C  52.37600 5.83800 47.06300
N  45.74200 6.44500 47.22800
C  46.83400 7.25400 47.30200
C  46.46500 8.64700 47.21900
C  45.07400 8.58100 47.05700
C  44.61800 7.22200 47.12500
C  47.36100 9.91500 47.31500
C  43.91900 9.42300 47.00000
O  43.81500 10.61700 46.96400
C  42.64600 8.42600 46.86500
C  41.62700 8.72700 47.89300
O  41.45000 8.07900 48.91200
O  40.93500 9.86500 47.61100
C  40.54100 10.59000 48.86100
H  42.08900 1.37800 46.79300
H  48.67000 1.13100 47.47800
H  48.93600 7.40900 47.46900
H  40.43400 5.96300 47.37700
H  40.56900 3.53000 45.86100
H  39.30500 2.68100 47.55600
H  39.00800 4.28600 48.03800
H  40.19200 3.19600 48.89900
H  40.89500 5.07500 44.56700
H  41.49600 6.67600 44.99200
H  39.34200 7.57100 45.18400
H  38.78000 6.31200 46.09600
H  43.73800 -1.55500 46.00100
H  42.45800 -0.60600 46.67800
H  43.53700 -1.62000 47.71000
H  48.55000 -2.35900 47.06300
H  48.54300 -1.11400 48.19100
H  48.66000 -0.78700 46.35700
H  50.30900 2.82900 46.89100
H  50.16000 5.19200 48.62900
H  49.48400 2.29600 49.64800
H  50.85000 3.45800 49.69500
H  51.06100 2.01100 48.91600
H  50.64700 6.20300 45.95100
H  51.16300 4.63400 45.76800
H  53.13800 5.25100 46.55100
H  52.39500 5.75300 48.14900
H  52.46400 6.90300 46.84800
H  47.02100 10.56900 48.11800
H  47.29800 10.49700 46.39600
H  48.41600 9.64300 47.32400
H  42.15800 8.70800 45.93300
H  41.42500 10.52900 49.49600
H  39.57200 10.28800 49.26000
H  40.55800 11.65000 48.60900
Mg 49.45800 46.00400 42.34900
C  46.02300 46.54000 41.49800
C  49.13400 42.91100 41.01400
C  52.60300 45.74600 42.69700
C  49.63200 49.43900 43.20700
N  47.83100 44.89100 41.22400
C  46.48000 45.28000 41.03400
C  45.66800 44.12900 40.45100
C  46.71800 42.94400 40.40800
C  47.96700 43.58000 40.97800
C  46.31700 41.73400 41.21400
C  45.13100 44.55600 39.05600
C  43.60700 44.26900 38.68600
H  43.47800 43.36000 37.41900
N  50.74600 44.43500 42.02500
C  50.40700 43.24100 41.42800
C  51.65900 42.37200 41.48100
C  52.70100 43.15700 42.05400
C  52.03600 44.50000 42.28400
C  51.65900 40.91700 41.12500
C  54.12300 42.82900 42.09900
O  54.52600 41.79200 41.60100
C  55.19500 43.77100 42.66300
N  50.91700 47.52500 42.77900
C  52.18600 47.05500 42.87400
C  53.16100 48.24800 43.19200
C  52.14300 49.42400 43.61500
C  50.85200 48.80800 43.11600
C  54.09400 47.86100 44.39300
C  52.41200 50.85800 42.97500
C  52.57800 51.99800 44.06100
N  48.12000 47.75900 42.32000
C  48.33300 49.04000 42.72000
C  47.05100 49.76100 42.70300
C  46.10500 48.84000 42.25200
C  46.78200 47.59600 42.03500
C  47.02000 51.22700 43.27700
C  44.66500 48.61700 41.94500
O  43.66500 49.34100 42.04300
C  44.60600 47.19700 41.23300
C  43.43600 46.48000 41.82000
O  42.39900 46.27700 41.25000
O  43.75000 45.99400 43.04700
C  42.59400 45.43800 43.74600
H  49.11300 41.86600 40.69900
H  53.64000 45.54300 42.97300
H  49.66500 50.49400 43.48500
H  44.82800 43.75300 41.03600
H  46.91400 42.56400 39.40600
H  45.29400 41.71600 41.58800
H  47.02600 41.67500 42.04000
H  46.36400 40.88900 40.52700
H  45.58200 43.97600 38.25000
H  45.47400 45.56100 38.80800
H  43.04000 45.18100 38.50100
H  43.23300 43.72900 39.55600
H  52.31600 40.80200 40.26300
H  50.65000 40.57700 40.89000
H  52.07500 40.29100 41.91500
H  54.88200 44.23600 43.59800
H  55.62200 44.35900 41.85100
H  56.11500 43.20700 42.81200
H  53.80100 48.40800 42.32400
H  52.12200 49.51100 44.70100
H  53.80600 46.89900 44.81500
H  54.09900 48.63300 45.16300
H  55.08500 47.95100 43.94900
H  51.51200 51.11300 42.41500
H  53.23800 50.76100 42.27100
H  53.56700 52.43100 43.91200
H  52.48100 51.65300 45.09000
H  51.77100 52.72800 43.99200
H  47.72500 51.77800 42.65500
H  47.34400 51.24900 44.31800
H  46.03000 51.67300 43.17700
H  44.46000 47.38600 40.17000
H  42.87400 45.47100 44.79900
H  42.50100 44.41100 43.39200
H  41.70000 46.04200 43.59100

