158

Mg 29.99900 58.32100 39.39300
C  27.10300 56.43200 38.70100
C  31.83700 55.57600 38.67600
C  32.66500 60.29800 39.40400
C  27.86200 61.05000 40.07000
N  29.52600 56.24400 38.73700
C  28.26700 55.71700 38.56100
C  28.38800 54.17200 38.24200
C  29.85200 53.84600 38.57800
C  30.45600 55.26100 38.72700
C  30.17900 52.98500 39.81400
C  27.97800 53.66100 36.86000
C  28.69300 54.17900 35.63300
H  27.79500 54.63400 34.52600
N  32.05900 58.01300 39.09300
C  32.64300 56.76400 38.81500
C  34.08600 56.91200 38.66300
C  34.29600 58.34200 38.66800
C  32.99100 58.95700 39.04100
C  34.99100 55.78600 38.36000
C  35.55000 59.07900 38.35600
O  36.57500 58.46700 38.14800
C  35.50800 60.55600 38.31100
N  30.18000 60.37900 39.67600
C  31.43900 60.90600 39.66300
C  31.36900 62.45600 40.06800
C  29.87300 62.65100 40.42700
C  29.23100 61.31000 40.05600
C  32.44900 62.94400 41.09900
C  29.20100 63.86200 39.80200
C  28.22900 64.69300 40.67700
N  27.89200 58.66800 39.45500
C  27.16600 59.84900 39.69000
C  25.78700 59.62700 39.60400
C  25.62700 58.24200 39.22300
C  26.98800 57.72300 39.16200
C  24.71900 60.51200 39.95200
C  24.70400 57.12200 38.88300
O  23.49400 56.97700 38.79300
C  25.72100 55.87800 38.62100
C  25.54700 54.91000 39.76800
O  25.83400 55.04400 40.88700
O  24.98900 53.67100 39.29200
C  24.74500 52.68600 40.31700
H  32.46100 54.68400 38.59700
H  33.50800 60.99200 39.39700
H  27.22000 61.84300 40.45900
H  27.80200 53.70900 39.03700
H  30.36200 53.29000 37.79200
H  30.84300 53.45400 40.54000
H  30.70800 52.11500 39.42400
H  29.25200 52.54400 40.18000
H  26.89600 53.74300 36.76200
H  28.23900 52.60300 36.82200
H  29.26900 53.40300 35.12900
H  29.47000 54.92200 35.80900
H  35.99600 56.18500 38.50200
H  34.84700 55.47900 37.32500
H  34.93900 54.89800 38.99000
H  35.45500 61.10700 39.25000
H  34.71800 60.67500 37.56900
H  36.44800 60.76600 37.80100
H  31.47800 63.00700 39.13400
H  29.80800 62.83800 41.49900
H  33.16000 62.14200 41.30100
H  31.91200 63.11800 42.03100
H  32.74600 63.90200 40.67100
H  28.62200 63.57100 38.92500
H  29.98700 64.56200 39.51800
H  27.38800 64.96900 40.04100
H  28.77000 65.60400 40.93400
H  27.88000 64.10800 41.52800
H  23.86000 60.16500 39.37900
H  25.02100 61.52800 39.70000
H  24.34300 60.54500 40.97500
H  25.45100 55.44400 37.65800
H  23.75100 52.31000 40.07500
H  24.91800 52.95000 41.36000
H  25.42100 51.83200 40.28000
Mg -11.10400 38.40200 41.11300
C  -8.99500 35.73500 39.95800
C  -8.95900 40.52600 39.56200
C  -13.41300 40.64500 41.49600
C  -13.15800 35.85100 42.49400
N  -9.28300 38.03000 39.67300
C  -8.63500 36.92400 39.41900
C  -7.27900 37.34200 38.61700
C  -7.18500 38.85600 38.90800
C  -8.57900 39.20600 39.41700
C  -6.16300 39.19200 40.04800
C  -7.38800 36.97000 37.10500
C  -6.56500 35.78000 36.64000
H  -5.83800 36.05100 35.28600
N  -11.18400 40.34000 40.59600
C  -10.14600 41.12900 40.05800
C  -10.49900 42.49200 40.18900
C  -11.82400 42.53000 40.54800
C  -12.21600 41.16800 40.93400
C  -9.55200 43.61000 39.74200
C  -12.63000 43.82100 40.65800
O  -12.04000 44.92100 40.47100
C  -14.04600 43.87500 40.75100
N  -13.06600 38.20000 41.76000
C  -13.81100 39.33300 41.87800
C  -15.20000 39.09700 42.49400
C  -15.12800 37.57600 42.81600
C  -13.66300 37.20300 42.40900
C  -15.71900 40.04800 43.61700
C  -16.18200 36.61300 42.10400
C  -16.77300 35.44800 42.97700
N  -11.03700 36.25300 41.32600
C  -11.92300 35.43500 42.00000
C  -11.36800 34.16000 42.10000
C  -10.26100 34.22500 41.22100
C  -10.18700 35.50700 40.68800
C  -11.82100 33.10900 42.94900
C  -9.16500 33.47700 40.61000
O  -8.80500 32.31700 40.81300
C  -8.41300 34.37500 39.56900
C  -6.90700 34.25800 39.81400
O  -6.26500 34.89800 40.66500
O  -6.49400 33.28500 38.95000
C  -5.12200 32.82200 39.03100
H  -8.26900 41.24900 39.12200
H  -14.21000 41.33700 41.77800
H  -13.72200 35.12900 43.08800
H  -6.38900 36.81300 38.95500
H  -6.79700 39.39500 38.04400
H  -5.25700 39.67900 39.68600
H  -5.91200 38.31700 40.64700
H  -6.70600 39.86700 40.70900
H  -7.20000 37.85500 36.49800
H  -8.43300 36.72900 36.91200
H  -7.16200 34.87200 36.55100
H  -5.77500 35.54600 37.35300
H  -9.96000 43.88500 38.76900
H  -8.48500 43.41400 39.63100
H  -9.63500 44.38400 40.50500
H  -14.36300 43.02900 40.14000
H  -14.44200 44.80500 40.34400
H  -14.31500 43.55100 41.75600
H  -15.90900 39.22600 41.67600
H  -15.19900 37.39500 43.88900
H  -14.97300 40.80600 43.85600
H  -15.96900 39.43600 44.48400
H  -16.68800 40.45300 43.32500
H  -15.93300 36.21700 41.12000
H  -17.08700 37.20600 41.97000
H  -17.86000 35.38300 43.02100
H  -16.24600 35.45200 43.93100
H  -16.54100 34.43500 42.64600
H  -11.95100 32.24000 42.30400
H  -12.79300 33.25100 43.42000
H  -11.13700 32.93500 43.77900
H  -8.55400 34.09400 38.52600
H  -4.43900 33.34300 38.36000
H  -4.96800 31.74900 38.90900
H  -4.70300 33.04900 40.01100

