158

Mg 45.75800 4.82500 48.31300
C  43.80000 7.59800 47.68000
C  43.03300 2.80700 47.77900
C  47.82300 2.10300 48.17300
C  48.61000 6.79900 48.52500
N  43.55300 5.22300 47.85200
C  42.98500 6.43100 47.57800
C  41.54400 6.22400 47.13100
C  41.26800 4.72600 47.54700
C  42.72100 4.15300 47.75800
C  40.20700 4.42800 48.67000
C  41.38200 6.54600 45.64400
C  40.16200 7.40300 45.27900
H  39.51600 7.09800 43.96300
N  45.41800 2.78400 48.05900
C  44.24200 2.13000 47.92200
C  44.41300 0.70200 47.78600
C  45.78300 0.47400 47.99400
C  46.41600 1.79700 48.08600
C  43.33800 -0.28000 47.45100
C  46.42000 -0.96600 48.14400
O  45.77000 -2.00400 48.17600
C  47.88300 -1.16000 48.32900
N  47.95300 4.50400 48.02200
C  48.51100 3.29600 48.18600
C  50.02500 3.31600 48.21100
C  50.35900 4.83700 48.39300
C  48.87500 5.44900 48.25700
C  50.64400 2.32800 49.25500
C  51.32600 5.33900 47.28300
C  52.10700 6.67500 47.64800
N  46.12000 6.76000 48.21600
C  47.27900 7.42100 48.40900
C  47.02300 8.81600 48.48200
C  45.70400 8.94200 48.23300
C  45.17300 7.64200 48.03500
C  48.08000 9.86000 48.59000
C  44.68000 9.85200 47.92000
O  44.71800 11.05800 47.91800
C  43.35300 9.01300 47.62000
C  42.33300 9.36700 48.65700
O  42.51600 9.10500 49.84000
O  41.24700 9.97500 48.08700
C  40.14300 10.21200 49.14500
H  42.20900 2.11300 47.59900
H  48.49400 1.24500 48.09500
H  49.50000 7.38200 48.77300
H  40.86700 6.91100 47.63900
H  40.83900 4.11000 46.75700
H  39.44200 3.87800 48.12000
H  39.82600 5.31100 49.18200
H  40.62100 3.80400 49.46200
H  41.35300 5.63200 45.05100
H  42.23200 7.07900 45.22000
H  40.54600 8.41400 45.41900
H  39.34700 7.27500 45.99100
H  42.81400 -0.83000 48.23300
H  43.72700 -0.90200 46.64500
H  42.60300 0.31800 46.91300
H  48.33700 -0.69700 47.45300
H  48.16200 -2.16300 48.65200
H  48.15700 -0.68000 49.26900
H  50.39300 2.96500 47.24700
H  50.77400 5.05000 49.37800
H  49.99800 2.06000 50.09200
H  51.48600 2.87000 49.68500
H  51.12000 1.46300 48.79400
H  50.81100 5.47500 46.33200
H  52.09200 4.57200 47.16000
H  53.13900 6.62900 47.30000
H  52.15800 6.78200 48.73100
H  51.56700 7.54500 47.27400
H  48.40900 9.71200 49.61900
H  47.55600 10.78700 48.35800
H  48.92200 9.69000 47.91800
H  42.97200 9.24000 46.62500
H  40.39500 10.81800 50.01500
H  39.73000 9.28000 49.53100
H  39.27300 10.75800 48.77900
Mg 48.93500 35.30100 27.21500
C  47.01500 33.87400 29.94600
C  49.20800 38.10000 29.23800
C  49.87300 37.07600 24.50000
C  48.13800 32.51500 25.27700
N  48.23700 35.86100 29.39800
C  47.59600 35.06500 30.27800
C  47.86100 35.63300 31.64800
C  48.14700 37.14900 31.35700
C  48.60100 37.03000 29.89100
C  46.98300 38.08300 31.58100
C  49.11300 34.93600 32.35500
C  48.93200 34.68500 33.86000
H  49.75200 35.48700 34.81000
N  49.61900 37.23400 26.94300
C  49.64400 38.26700 27.94700
C  50.25200 39.45100 27.35300
C  50.56600 39.17300 25.91600
C  50.03300 37.78000 25.77000
C  50.57900 40.75600 28.17300
C  51.19200 40.03200 24.93600
O  51.31300 39.64000 23.79900
C  51.76400 41.47600 25.25600
N  49.00900 34.82100 25.24400
C  49.46300 35.79100 24.30000
C  49.65100 35.06800 22.89600
C  49.25200 33.57500 23.28800
C  48.71300 33.65700 24.71800
C  48.95500 35.61900 21.65100
C  50.57300 32.67300 23.27000
C  50.37400 31.30500 22.54900
N  47.86900 33.44200 27.55700
C  47.62900 32.41700 26.64400
C  46.99700 31.34500 27.38400
C  46.60100 31.88100 28.59500
C  47.25100 33.17100 28.69800
C  46.70100 29.91800 26.88400
C  45.87200 31.63200 29.79000
O  45.11600 30.71300 30.11300
C  45.98000 32.99700 30.68500
C  46.43900 32.53000 32.02300
O  47.46800 31.86500 32.23900
O  45.51500 32.89900 32.98500
C  45.89800 32.51300 34.39600
H  49.37500 38.95900 29.89100
H  50.39100 37.42400 23.60300
H  48.03200 31.58400 24.71500
H  46.91100 35.49600 32.16400
H  49.01900 37.45500 31.93500
H  47.18700 39.12800 31.81300
H  46.45100 37.66600 32.43700
H  46.37400 38.08100 30.67700
H  50.02000 35.52400 32.21800
H  49.33100 34.00800 31.82700
H  49.02900 33.61600 34.05200
H  47.90600 34.99300 34.06100
H  50.15400 41.62900 27.67800
H  51.63100 41.00300 28.31600
H  50.03100 40.90500 29.10400
H  52.12100 41.95000 24.34200
H  52.52400 41.46500 26.03800
H  50.90300 42.12600 25.41200
H  50.72800 35.18700 22.77300
H  48.47300 33.15000 22.65500
H  49.53200 36.41400 21.17900
H  48.07400 36.13900 22.02900
H  48.66300 34.95900 20.83400
H  50.96700 32.39600 24.24800
H  51.36200 33.15200 22.69000
H  50.93700 31.30400 21.61600
H  49.32500 31.07300 22.36300
H  50.72100 30.42300 23.08600
H  45.85100 29.93900 26.20100
H  46.45700 29.31200 27.75600
H  47.59800 29.60000 26.35200
H  44.99700 33.42300 30.88500
H  46.35800 33.36400 34.89800
H  46.60200 31.68200 34.44100
H  44.98600 32.26400 34.93700

