158

Mg 9.58800 3.13900 27.39500
C  10.83700 1.51900 30.31200
C  7.69800 5.10500 29.35600
C  8.12900 4.20900 24.61300
C  11.02200 0.41200 25.56200
N  9.23600 3.19600 29.57700
C  9.94300 2.52700 30.60600
C  9.49900 3.09300 32.05900
C  8.25800 3.95500 31.71500
C  8.44700 4.16300 30.12400
C  6.89700 3.35600 32.18400
C  10.76800 3.83300 32.70500
C  11.20500 3.22300 34.06200
H  10.23500 2.84300 35.18100
N  8.23100 4.55300 27.06900
C  7.65500 5.36400 27.99400
C  6.96000 6.45200 27.33400
C  6.85200 6.10100 25.93700
C  7.72900 4.88100 25.80100
C  6.37400 7.70800 28.01700
C  6.10700 6.75300 24.81700
O  6.02300 6.37300 23.64600
C  5.42600 8.06400 25.07600
N  9.68200 2.44900 25.39400
C  8.99400 3.11800 24.42800
C  9.13500 2.42300 23.06300
C  10.24700 1.44600 23.31400
C  10.40700 1.42700 24.81500
C  7.78100 1.71500 22.62500
C  11.57200 1.90900 22.58500
C  11.88800 1.17200 21.22000
N  10.74900 1.41800 27.78600
C  11.23600 0.43200 26.96700
C  11.97000 -0.62100 27.70900
C  11.89300 -0.21200 29.03600
C  11.09400 1.00900 29.05900
C  12.69900 -1.88200 27.11000
C  12.28900 -0.49900 30.43000
O  12.97200 -1.39800 30.89500
C  11.55100 0.60800 31.31100
C  10.76500 -0.07600 32.40600
O  9.61900 -0.47300 32.33700
O  11.58800 -0.27400 33.51400
C  11.04000 -0.93300 34.69500
H  7.18900 5.77900 30.04800
H  7.86000 4.52800 23.60400
H  11.41400 -0.51200 25.13100
H  9.13400 2.23900 32.63000
H  8.37100 4.94200 32.16400
H  6.91300 2.27700 32.33300
H  6.06000 3.57500 31.52100
H  6.62400 3.90200 33.08800
H  10.55000 4.88500 32.88800
H  11.55900 3.88700 31.95600
H  11.93400 3.98600 34.33700
H  11.80300 2.35400 33.78700
H  5.28700 7.76800 28.07500
H  6.59400 8.57200 27.39100
H  6.86300 7.75500 28.99000
H  6.03100 8.90600 25.41200
H  4.65600 7.81900 25.80700
H  4.82900 8.35200 24.21100
H  9.39700 3.23100 22.38000
H  9.90200 0.45000 23.03800
H  7.22400 2.51500 22.13900
H  7.12700 1.46400 23.46000
H  7.93600 0.90400 21.91400
H  12.34400 1.53500 23.25700
H  11.67800 2.98000 22.41000
H  12.07700 1.98500 20.51900
H  11.09500 0.58700 20.75400
H  12.80600 0.59600 21.33700
H  12.07300 -2.31100 26.32700
H  12.81000 -2.66100 27.86400
H  13.68300 -1.58400 26.74800
H  12.35200 1.16900 31.79200
H  10.24100 -0.35000 35.15300
H  11.89600 -1.18300 35.32300
H  10.56100 -1.84100 34.32900
Mg -10.10100 40.63600 42.89700
C  -9.43800 37.28300 41.87500
C  -7.12900 41.60800 41.51600
C  -11.16800 43.93200 42.95300
C  -13.36300 39.56100 43.69000
N  -8.52700 39.54400 41.77800
C  -8.47200 38.19500 41.45400
C  -7.12000 37.80300 40.76000
C  -6.36200 39.26000 40.89800
C  -7.36900 40.18400 41.45900
C  -5.02300 39.08500 41.67700
C  -7.31000 37.40400 39.22800
C  -6.65700 36.06000 38.94900
H  -5.73500 36.08200 37.72000
N  -9.30400 42.54300 42.33600
C  -7.99000 42.68700 41.82100
C  -7.74200 44.12700 41.66500
C  -8.92100 44.85300 42.07400
C  -9.87400 43.79000 42.46900
C  -6.41300 44.71500 41.14100
C  -9.11500 46.33500 42.03400
O  -8.20200 47.11600 41.70900
C  -10.43600 47.02900 42.51000
N  -11.99400 41.57000 43.25300
C  -12.09900 42.95500 43.29300
C  -13.60700 43.31400 43.71100
C  -14.16600 41.99300 44.24100
C  -13.14000 40.98000 43.68300
C  -13.76300 44.55500 44.62000
C  -15.63500 41.76300 43.61700
C  -15.74500 41.32900 42.13200
N  -11.22600 38.78800 42.94700
C  -12.49800 38.54100 43.27600
C  -12.72600 37.10300 43.40600
C  -11.50700 36.57300 42.85600
C  -10.66900 37.68100 42.52300
C  -13.96500 36.51000 43.77900
C  -10.89400 35.29800 42.43500
O  -11.22300 34.12200 42.48700
C  -9.59000 35.82300 41.75300
C  -8.56800 35.03400 42.44400
O  -8.03400 35.25400 43.49100
O  -8.23500 33.95600 41.65300
C  -7.26000 33.05600 42.28200
H  -6.09000 41.82200 41.25500
H  -11.66500 44.90100 42.86800
H  -14.29600 39.27800 44.18200
H  -6.55400 37.04200 41.29600
H  -6.06400 39.58300 39.90000
H  -4.73700 38.05800 41.90300
H  -5.07000 39.58900 42.64200
H  -4.18400 39.59800 41.20700
H  -6.98600 38.07500 38.43200
H  -8.38800 37.25200 39.18300
H  -7.43300 35.35600 38.65000
H  -6.02900 35.77900 39.79400
H  -6.44800 45.49500 40.38100
H  -5.97300 43.81900 40.70400
H  -5.63900 44.85200 41.89600
H  -10.31400 48.09000 42.29100
H  -10.72700 46.79600 43.53400
H  -11.18700 46.58700 41.85400
H  -14.13800 43.52200 42.78200
H  -14.30600 41.97300 45.32200
H  -12.76200 44.91600 44.85400
H  -14.28500 44.36700 45.55900
H  -14.32800 45.33900 44.11600
H  -16.10700 42.73900 43.50100
H  -16.19000 41.22400 44.38500
H  -14.74200 41.28300 41.70700
H  -16.29000 42.05500 41.53000
H  -16.17700 40.33000 42.19200
H  -13.81400 35.55100 44.27500
H  -14.75200 36.40600 43.03200
H  -14.51800 37.14400 44.47200
H  -9.62900 35.61500 40.68400
H  -7.59500 32.61100 43.21900
H  -6.36200 33.61700 42.54000
H  -6.94500 32.32800 41.53400

