158

Mg 29.04500 59.29700 41.31500
C  26.28100 57.72300 40.17900
C  30.95100 56.73200 39.74300
C  31.98100 61.26100 41.29100
C  27.12400 62.13000 41.83700
N  28.64700 57.52400 40.10700
C  27.42700 57.11100 39.75800
C  27.46600 55.96500 38.71100
C  28.91500 55.36900 38.98700
C  29.55200 56.59700 39.64100
C  28.96900 54.16200 39.86200
C  27.29200 56.58100 37.24300
C  26.68800 55.54500 36.24200
H  26.39400 56.11400 34.85200
N  31.20500 58.97800 40.75200
C  31.72000 57.80900 40.24500
C  33.16800 57.94900 40.23300
C  33.50000 59.23800 40.76000
C  32.18100 59.91900 41.00300
C  34.02500 56.80100 39.80800
C  34.85300 59.80400 41.03200
O  35.81100 59.17500 40.62800
C  35.11600 61.11400 41.82100
N  29.52900 61.44400 41.66700
C  30.74800 61.96900 41.60400
C  30.68200 63.47300 41.73500
C  29.12500 63.78000 41.86200
C  28.53100 62.36600 41.83200
C  31.56500 64.03100 42.89900
C  28.43100 64.65400 40.70600
C  27.78900 66.00000 41.21400
N  27.06400 59.73900 41.42700
C  26.39200 60.92500 41.63900
C  24.94800 60.69500 41.53300
C  24.83800 59.44200 40.94100
C  26.14800 58.90300 40.85300
C  23.83400 61.58000 41.88700
C  23.94700 58.44300 40.36200
O  22.74200 58.38600 40.29300
C  24.84300 57.30000 39.86400
C  24.53000 56.07000 40.64700
O  24.70300 55.89100 41.84500
O  23.88700 55.16100 39.87000
C  23.52300 53.90000 40.42600
H  31.48500 55.86200 39.35500
H  32.81300 61.96500 41.34000
H  26.40400 62.94900 41.88700
H  26.55100 55.38000 38.80600
H  29.47100 55.21500 38.06200
H  27.98000 53.95000 40.26900
H  29.66400 54.21500 40.69900
H  29.26500 53.34600 39.20300
H  28.23200 56.96700 36.84700
H  26.70800 57.49900 37.30400
H  25.74400 55.17300 36.63900
H  27.38100 54.70700 36.16200
H  34.38500 56.78800 38.78000
H  33.58400 55.81500 39.95000
H  34.88700 56.84600 40.47400
H  34.94800 61.93400 41.12200
H  36.20000 61.08900 41.93600
H  34.48400 61.20500 42.70400
H  31.02000 63.80900 40.75500
H  28.87900 64.26500 42.80700
H  31.12800 64.08500 43.89600
H  32.07500 64.92900 42.54900
H  32.36100 63.31200 43.09100
H  27.54600 64.09600 40.40100
H  29.04100 64.71500 39.80500
H  26.70100 65.95000 41.18800
H  28.18000 66.69000 40.46600
H  28.21100 66.26400 42.18300
H  22.89600 61.18000 41.50300
H  24.06700 62.55600 41.46100
H  23.83400 61.79200 42.95600
H  24.68500 57.19000 38.79100
H  22.67900 54.00600 41.10800
H  24.40500 53.38700 40.81000
H  23.18800 53.24900 39.61800
Mg -5.16300 25.20200 26.71400
C  -3.51400 27.07200 29.22900
C  -6.18000 23.08700 29.33700
C  -6.46400 23.17700 24.49200
C  -3.57300 27.07100 24.28200
N  -4.85100 25.14900 29.01400
C  -4.23100 26.02000 29.84100
C  -4.50200 25.73800 31.31400
C  -5.02200 24.23700 31.22300
C  -5.45100 24.18300 29.81900
C  -4.03600 23.09200 31.59200
C  -5.55300 26.77900 31.89200
C  -5.16000 27.36300 33.27100
H  -6.20600 27.08300 34.37500
N  -6.13700 23.37700 26.90000
C  -6.55800 22.70900 27.97700
C  -7.33800 21.59000 27.65300
C  -7.43900 21.61600 26.25800
C  -6.66600 22.72600 25.80700
C  -7.88300 20.65000 28.64900
C  -8.13800 20.51100 25.36400
O  -8.08600 20.47700 24.14600
C  -9.06400 19.56800 26.08100
N  -5.08500 25.12400 24.70000
C  -5.81400 24.26200 23.96800
C  -5.81900 24.67400 22.41700
C  -4.94200 25.94500 22.52300
C  -4.39900 26.04300 23.89300
C  -5.37200 23.56200 21.44500
C  -5.62100 27.22500 22.03300
C  -5.11600 27.86300 20.69900
N  -3.96700 26.77800 26.69800
C  -3.32300 27.36900 25.66900
C  -2.44700 28.44100 26.14600
C  -2.58200 28.39700 27.53500
C  -3.43100 27.34700 27.83400
C  -1.46700 29.18500 25.26300
C  -2.07900 28.95000 28.76800
O  -1.30400 29.87100 29.04200
C  -2.76600 28.05500 29.95800
C  -1.75500 27.43000 30.76100
O  -0.88100 26.65700 30.33700
O  -1.83500 27.97400 32.01600
C  -1.18900 27.32000 33.13500
H  -6.73300 22.62900 30.16000
H  -6.95100 22.53900 23.75200
H  -3.03800 27.69400 23.56300
H  -3.54000 25.71600 31.82700
H  -5.86400 24.10600 31.90200
H  -4.39600 22.55900 32.47100
H  -3.09700 23.58200 31.85100
H  -3.86500 22.42700 30.74500
H  -6.52800 26.29400 31.95300
H  -5.67500 27.62200 31.21200
H  -4.88700 28.41600 33.19800
H  -4.33000 26.75900 33.63900
H  -7.67200 19.59300 28.48700
H  -8.94100 20.89500 28.74300
H  -7.46000 20.80400 29.64200
H  -9.61200 19.14000 25.24200
H  -9.79900 20.07500 26.70700
H  -8.60100 18.75800 26.64500
H  -6.83300 25.01200 22.20500
H  -4.03200 25.76400 21.95100
H  -6.24500 23.32400 20.83800
H  -4.86300 22.75100 21.96600
H  -4.64400 23.94900 20.73200
H  -5.47300 28.00800 22.77700
H  -6.70200 27.13700 21.92300
H  -4.49800 28.73800 20.90100
H  -5.97600 28.29700 20.18900
H  -4.65300 27.09600 20.07700
H  -0.68600 28.45900 25.03700
H  -0.91800 29.96400 25.79100
H  -1.97800 29.52700 24.36300
H  -3.55900 28.54000 30.52700
H  -0.90500 26.27400 33.02200
H  -1.97000 27.36400 33.89400
H  -0.38100 27.97400 33.46100

