158

Mg 16.68300 52.40200 26.54800
C  18.84200 51.29000 29.05200
C  14.53400 53.21700 29.02900
C  14.84400 53.82900 24.29900
C  19.09700 51.64600 24.19600
N  16.62700 52.11900 28.78800
C  17.63700 51.70300 29.55900
C  17.26200 51.99600 31.02600
C  15.72900 52.16000 30.97700
C  15.57300 52.47500 29.47800
C  15.02200 50.85400 31.37700
C  17.98700 53.25500 31.54600
C  18.24100 53.25000 33.06600
H  17.23700 52.53500 33.98300
N  14.95800 53.54400 26.63500
C  14.25200 53.78000 27.77000
C  13.21000 54.77200 27.41300
C  13.20500 54.92500 26.00900
C  14.35200 54.14100 25.55100
C  12.34200 55.51000 28.48200
C  12.32400 55.79200 25.06600
O  12.63600 55.82300 23.86900
C  11.12800 56.65300 25.67700
N  16.93900 52.60500 24.55600
C  15.99600 53.21000 23.85700
C  16.39500 53.24900 22.35900
C  17.76100 52.53000 22.31200
C  17.94200 52.28100 23.80100
C  15.33300 52.78000 21.24300
C  18.84400 53.19700 21.42600
C  19.80500 54.18900 22.01600
N  18.49500 51.48100 26.50100
C  19.37900 51.24600 25.50000
C  20.58600 50.54200 25.93800
C  20.43400 50.56200 27.41500
C  19.14300 51.15200 27.68700
C  21.69800 49.91500 25.20000
C  21.06200 50.27600 28.63700
O  22.16800 49.67900 28.73500
C  20.09300 50.79800 29.84200
C  19.86200 49.61000 30.78500
O  19.46600 48.52700 30.52700
O  20.23500 50.01200 32.09000
C  20.12800 49.06700 33.23400
H  13.78300 53.45600 29.78600
H  14.47300 54.34200 23.41000
H  19.95400 51.33800 23.59300
H  17.61100 51.10400 31.54700
H  15.41600 52.90600 31.70800
H  14.47000 51.11600 32.28000
H  15.74700 50.09500 31.67100
H  14.39400 50.36700 30.63100
H  17.35000 54.09200 31.26400
H  18.99400 53.34500 31.13900
H  18.19300 54.30600 33.33400
H  19.25800 52.91400 33.26900
H  12.78800 55.40100 29.47100
H  11.35500 55.05000 28.51300
H  12.17700 56.57900 28.34400
H  10.53400 56.02300 26.33900
H  10.51900 56.99800 24.84200
H  11.56700 57.53500 26.14300
H  16.67300 54.30300 22.31900
H  17.61700 51.58800 21.78300
H  14.84400 51.90100 21.66300
H  15.92500 52.61700 20.34200
H  14.63100 53.59500 21.06900
H  18.35000 53.85000 20.70700
H  19.43700 52.42500 20.93500
H  20.76300 53.72300 21.78800
H  19.68000 54.27600 23.09600
H  19.85400 55.24500 21.75200
H  21.82000 50.27400 24.17800
H  21.78700 48.83200 25.29000
H  22.52000 50.40400 25.72300
H  20.57300 51.60100 30.40100
H  21.17800 48.93900 33.50000
H  19.68400 48.08500 33.07200
H  19.54100 49.42600 34.07900
Mg -5.07000 25.30700 25.93000
C  -3.94100 26.79500 28.91500
C  -7.09800 23.22900 27.83800
C  -5.71000 23.70800 23.16100
C  -2.66000 27.24600 24.24600
N  -5.44000 25.00000 28.18600
C  -4.97300 25.83100 29.21000
C  -5.66000 25.39500 30.51800
C  -6.32900 24.02700 30.15900
C  -6.28800 24.04900 28.67500
C  -5.66100 22.79600 30.70400
C  -6.73600 26.38600 31.14000
C  -6.83300 26.40900 32.67700
H  -6.18800 25.32800 33.52500
N  -6.23600 23.62800 25.60600
C  -7.07600 22.98900 26.47100
C  -7.76400 21.96900 25.77700
C  -7.34000 22.01900 24.39100
C  -6.36100 23.11500 24.35500
C  -8.76800 21.11500 26.46200
C  -7.78000 21.13900 23.18200
O  -7.31700 21.42800 22.08900
C  -8.82200 20.06900 23.34600
N  -4.54300 25.70300 23.98100
C  -4.85500 24.79400 23.06000
C  -4.12100 25.00600 21.67800
C  -3.40300 26.29500 21.95900
C  -3.47700 26.40900 23.45000
C  -3.27900 23.78700 21.25100
C  -3.86300 27.59500 21.18100
C  -2.80200 28.09500 20.15700
N  -3.65100 26.82500 26.42900
C  -2.74800 27.49300 25.61000
C  -1.97100 28.47500 26.45300
C  -2.45700 28.24000 27.73400
C  -3.42000 27.24700 27.68200
C  -1.04200 29.56900 26.04800
C  -2.43300 28.64500 29.05400
O  -1.79000 29.65800 29.52000
C  -3.40500 27.75700 29.90600
C  -2.48800 27.06400 30.84900
O  -1.64900 26.21100 30.63900
O  -2.83300 27.50400 32.08200
C  -2.25600 26.83600 33.26000
H  -7.79400 22.55100 28.33700
H  -5.81700 23.13700 22.23600
H  -1.96600 27.87100 23.68000
H  -4.96000 25.29300 31.34600
H  -7.35000 23.94700 30.53100
H  -5.04300 22.24500 29.99500
H  -6.44700 22.11400 31.02700
H  -5.07000 22.99300 31.59900
H  -7.72600 26.17700 30.73400
H  -6.54900 27.37200 30.71400
H  -7.89600 26.37800 32.91600
H  -6.52000 27.41200 32.96600
H  -9.01200 21.28000 27.51200
H  -8.58000 20.04200 26.41700
H  -9.62300 21.23300 25.79700
H  -8.87900 19.34500 22.53200
H  -9.82700 20.46100 23.50100
H  -8.47900 19.45900 24.18200
H  -5.02500 25.02600 21.06900
H  -2.34700 26.13000 21.74400
H  -2.25500 23.98800 20.93700
H  -3.87400 23.21200 20.54200
H  -3.09200 23.13700 22.10600
H  -3.91400 28.37400 21.94100
H  -4.89900 27.46900 20.86600
H  -3.28400 28.30000 19.20100
H  -2.04400 27.35600 19.89700
H  -2.35300 29.03800 20.46800
H  -0.81500 29.46200 24.98800
H  -0.19200 29.60700 26.73000
H  -1.49600 30.56000 26.06800
H  -4.26500 28.25600 30.35300
H  -1.43800 27.51700 33.49700
H  -1.78000 25.85800 33.18900
H  -2.98000 26.82700 34.07400

