158

Mg -1.06600 7.46800 26.20800
C  -0.01000 9.63000 28.72900
C  -0.90200 4.88600 28.43000
C  -1.59700 5.35900 23.63500
C  -0.59200 10.08300 23.98400
N  -0.28800 7.26000 28.32700
C  -0.15400 8.28200 29.20800
C  -0.41400 7.85800 30.64700
C  -0.30200 6.31400 30.53500
C  -0.45700 6.12900 29.03300
C  0.98400 5.61900 31.10100
C  -1.75200 8.40600 31.29500
C  -1.53500 8.99300 32.69200
H  -0.61700 8.19500 33.69300
N  -1.28900 5.41000 26.05900
C  -1.24500 4.49300 27.12800
C  -1.73200 3.20700 26.62500
C  -1.79600 3.28300 25.17000
C  -1.51000 4.69300 24.86800
C  -1.97000 2.00200 27.48900
C  -2.07100 2.18600 24.13000
O  -1.96000 2.44700 22.94500
C  -2.41400 0.70500 24.52500
N  -0.81000 7.54600 24.08000
C  -1.25000 6.62000 23.24700
C  -1.23100 7.10700 21.77400
C  -1.04000 8.67300 21.93300
C  -0.85500 8.81100 23.48500
C  -0.19100 6.41000 20.83100
C  -2.30100 9.52400 21.41500
C  -3.46200 10.00900 22.35700
N  -0.51000 9.49800 26.29900
C  -0.36100 10.41600 25.31200
C  -0.10700 11.67800 25.83100
C  0.08500 11.42800 27.26500
C  -0.17300 10.12300 27.40400
C  0.03700 12.94500 25.02600
C  0.37600 11.99200 28.53500
O  0.64200 13.12300 28.87400
C  0.26700 10.82600 29.61500
C  1.60200 10.75200 30.39000
O  2.70900 10.34700 30.00700
O  1.26300 11.17400 31.63000
C  2.27100 11.17400 32.65200
H  -1.03700 4.03200 29.09700
H  -1.81800 4.77600 22.73800
H  -0.54200 10.84700 23.20500
H  0.49700 8.20100 31.13700
H  -1.13900 5.84300 31.05100
H  0.75100 4.93800 31.92000
H  1.71400 6.40900 31.28200
H  1.43100 5.01700 30.31100
H  -2.45600 7.57400 31.32400
H  -2.24000 9.20900 30.74300
H  -2.51800 9.04100 33.16000
H  -1.20800 10.00500 32.45400
H  -1.51300 1.09400 27.09600
H  -3.04300 1.82600 27.56600
H  -1.57800 1.95100 28.50500
H  -3.02800 0.64000 25.42400
H  -1.53400 0.09900 24.74400
H  -2.90400 0.20500 23.69000
H  -2.20700 6.85500 21.35900
H  -0.13100 9.06400 21.47600
H  0.48500 7.18700 20.47400
H  -0.80500 5.88000 20.10300
H  0.32100 5.65100 21.42200
H  -2.76300 8.84200 20.70100
H  -1.85800 10.37500 20.89800
H  -4.45800 9.69300 22.04900
H  -3.46800 11.09900 22.36500
H  -3.24100 9.67100 23.36900
H  1.06200 13.30500 25.10800
H  -0.68500 13.55100 25.57200
H  -0.32200 13.03400 24.00000
H  -0.54700 10.96600 30.32600
H  3.31900 10.95000 32.44800
H  1.88500 10.37600 33.28600
H  2.32500 12.08100 33.25500
Mg -2.41000 33.90500 26.32000
C  -4.05700 32.42300 29.07000
C  -0.71700 35.95900 28.50200
C  -1.21200 35.40500 23.67200
C  -4.08300 31.64300 24.28400
N  -2.36700 34.07400 28.56300
C  -3.11200 33.42900 29.44100
C  -2.88700 33.85900 30.87100
C  -1.98200 35.18600 30.61000
C  -1.65400 35.13300 29.16000
C  -2.57500 36.59800 31.02900
C  -2.33700 32.79700 31.82000
C  -3.08200 32.52700 33.12400
H  -2.18600 32.57700 34.37400
N  -1.09000 35.45900 26.10500
C  -0.47200 36.10600 27.15300
C  0.46300 36.98100 26.53500
C  0.25200 36.92800 25.08000
C  -0.69600 35.89700 24.93600
C  1.24200 38.05700 27.35600
C  0.90800 37.76100 24.02800
O  0.69400 37.72900 22.86400
C  2.02300 38.69700 24.48900
N  -2.77700 33.69300 24.35800
C  -2.14200 34.42800 23.41700
C  -2.46900 34.05700 21.95400
C  -3.11500 32.65600 22.15500
C  -3.26700 32.59200 23.70900
C  -3.41400 35.11200 21.29300
C  -2.29700 31.54900 21.48500
C  -1.24700 30.83200 22.39800
N  -3.76000 32.32400 26.58800
C  -4.33800 31.49700 25.66100
C  -5.26500 30.59300 26.25700
C  -5.14300 30.88100 27.61700
C  -4.29100 32.00700 27.73800
C  -6.07600 29.41500 25.65400
C  -5.55900 30.44600 28.89600
O  -6.26400 29.51400 29.19500
C  -4.92200 31.52700 29.90600
C  -5.97500 32.28700 30.64600
O  -6.78000 32.93900 30.08800
O  -5.92000 32.03700 32.04900
C  -6.99600 32.77000 32.75800
H  -0.16300 36.60100 29.19100
H  -0.59300 35.72600 22.83200
H  -4.60000 31.07400 23.50800
H  -3.84500 34.19700 31.26700
H  -1.15800 35.06900 31.31300
H  -2.52700 37.18100 30.10900
H  -2.03000 37.03800 31.86500
H  -3.63900 36.63200 31.26500
H  -1.42500 33.29300 32.15200
H  -2.10900 31.79900 31.44700
H  -3.60000 31.56900 33.14300
H  -3.75600 33.36700 33.29300
H  0.81000 39.01400 27.06400
H  2.28000 38.04800 27.02400
H  1.19600 38.03700 28.44500
H  2.37700 39.15700 23.56600
H  2.85100 38.18000 24.97400
H  1.53100 39.43800 25.11800
H  -1.47400 34.09000 21.50900
H  -4.09200 32.49700 21.69800
H  -3.13300 36.11000 21.62800
H  -4.42700 35.02900 21.68500
H  -3.27700 34.94600 20.22400
H  -1.70600 31.91800 20.64700
H  -2.96300 30.76500 21.12400
H  -0.22500 31.17900 22.24600
H  -1.27100 29.79100 22.07500
H  -1.45200 30.71200 23.46100
H  -7.04900 29.81000 25.36200
H  -6.11100 28.70000 26.47600
H  -5.48400 28.96900 24.85400
H  -4.32300 30.90100 30.56800
H  -6.46000 33.45400 33.41600
H  -7.53800 32.04100 33.36000
H  -7.72400 33.32900 32.17000

