158

Mg 17.77400 -1.90000 26.11200
C  16.81400 -0.08100 29.04200
C  19.50000 -4.00600 28.28500
C  18.72500 -3.47800 23.37700
C  16.31200 0.62400 24.19400
N  18.24600 -1.82500 28.39500
C  17.61800 -1.16700 29.36000
C  17.96500 -1.68000 30.78400
C  19.09100 -2.76300 30.43900
C  18.89000 -2.89900 28.94800
C  20.56100 -2.41300 30.85300
C  16.75700 -2.28500 31.60300
C  16.76100 -1.95500 33.14800
H  18.10400 -1.98200 33.84600
N  18.83900 -3.64000 25.87300
C  19.46900 -4.40200 26.84200
C  20.09300 -5.55800 26.14700
C  19.88000 -5.41000 24.66000
C  19.20300 -4.15300 24.60900
C  20.85100 -6.66600 26.86000
C  20.31100 -6.33900 23.53000
O  19.97000 -6.09600 22.38100
C  21.09900 -7.60900 23.92700
N  17.72500 -1.36700 24.07300
C  18.08800 -2.22400 23.08500
C  18.00500 -1.52700 21.70400
C  17.00200 -0.32400 21.99000
C  17.02300 -0.32800 23.52200
C  19.37100 -1.16800 21.10600
C  15.59400 -0.42300 21.39400
C  15.19300 0.74700 20.43100
N  16.74600 -0.20800 26.48100
C  16.07600 0.63100 25.58900
C  15.29200 1.54700 26.27100
C  15.56700 1.35600 27.63100
C  16.45700 0.22200 27.67900
C  14.38600 2.55700 25.61500
C  15.38200 1.86200 28.99300
O  14.83500 2.90400 29.40100
C  16.12500 0.87700 29.94400
C  17.11500 1.65800 30.73300
O  17.97600 2.40100 30.25700
O  17.06300 1.43900 32.12200
C  17.90200 2.18800 33.03300
H  20.05100 -4.65500 28.96900
H  19.04600 -3.93800 22.44000
H  15.83500 1.40500 23.59800
H  18.46500 -0.87100 31.31600
H  18.89600 -3.72400 30.91400
H  20.61500 -1.36400 31.14700
H  21.26300 -2.39400 30.01900
H  20.94500 -3.04300 31.65500
H  16.81200 -3.37300 31.59800
H  15.76000 -2.04100 31.23700
H  16.19100 -2.76400 33.60600
H  16.36000 -0.97600 33.41300
H  20.99300 -6.62700 27.94000
H  21.84700 -6.62400 26.42000
H  20.48700 -7.64800 26.55900
H  20.51600 -8.18700 24.64400
H  22.05800 -7.25100 24.29900
H  21.18700 -8.19500 23.01100
H  17.46800 -2.25300 21.09300
H  17.40800 0.63600 21.67100
H  19.67900 -0.14000 21.29800
H  19.18700 -1.32300 20.04300
H  20.20900 -1.74300 21.49900
H  14.83200 -0.53400 22.16500
H  15.46500 -1.38700 20.90200
H  14.28600 1.22700 20.79800
H  15.06800 0.31700 19.43700
H  15.97000 1.49100 20.25600
H  13.46600 2.02200 25.38300
H  14.91500 3.04800 24.79800
H  14.09400 3.31300 26.34500
H  15.48200 0.32600 30.63100
H  17.26600 2.90200 33.55800
H  18.69500 2.83200 32.65400
H  18.42200 1.39900 33.57500
Mg 47.16000 34.97400 28.30800
C  45.25100 33.04100 30.72200
C  47.39300 37.37100 30.65000
C  48.50800 36.85400 25.86500
C  46.68400 32.32300 26.01100
N  46.32700 35.10600 30.43400
C  45.81600 34.21400 31.26400
C  45.82600 34.68200 32.72500
C  46.19400 36.13300 32.59300
C  46.68700 36.22900 31.12700
C  45.03300 37.09900 32.79500
C  46.86100 33.74700 33.49300
C  46.92800 33.65000 35.05500
H  46.00800 34.59600 35.90700
N  47.93300 36.80100 28.32300
C  47.99300 37.66800 29.38200
C  48.76100 38.83300 29.01000
C  49.15200 38.70200 27.66600
C  48.60000 37.37000 27.22000
C  48.72400 40.02000 29.89400
C  49.76200 39.71400 26.78200
O  50.09000 39.48400 25.62500
C  50.06400 41.12300 27.28200
N  47.67400 34.61600 26.23100
C  48.02400 35.60600 25.37500
C  47.92700 35.20800 23.90900
C  47.69100 33.63700 24.05100
C  47.34600 33.50400 25.52900
C  46.78700 35.91300 23.15000
C  48.95900 32.68300 23.66200
C  50.34400 32.81500 24.45400
N  46.14900 33.13900 28.35400
C  46.01700 32.20800 27.27900
C  45.22700 31.05400 27.64800
C  44.87000 31.39400 28.99700
C  45.48700 32.63800 29.37200
C  44.96400 29.82900 26.82900
C  44.14600 30.90100 30.18100
O  43.61200 29.79300 30.36200
C  44.23900 31.98400 31.28400
C  44.50700 31.53000 32.65600
O  45.43500 30.84800 33.01200
O  43.41500 31.97900 33.42700
C  43.44300 31.57200 34.83900
H  47.61700 38.06800 31.46000
H  48.70400 37.58400 25.07600
H  46.37100 31.56500 25.28900
H  44.80100 34.52300 33.06100
H  47.00400 36.30500 33.30100
H  44.99100 37.86600 32.02300
H  45.19800 37.59900 33.75000
H  44.08900 36.55600 32.83100
H  47.77500 34.17100 33.07800
H  46.84800 32.72900 33.10400
H  47.92200 33.92300 35.40800
H  46.87900 32.59700 35.33400
H  48.16200 40.79900 29.38000
H  49.74400 40.40400 29.87300
H  48.33800 39.86100 30.90100
H  50.30600 41.62800 26.34700
H  50.87100 41.11100 28.01400
H  49.20100 41.56400 27.78200
H  48.88000 35.53200 23.49100
H  46.79600 33.26900 23.55000
H  47.18900 36.34100 22.23200
H  46.44300 36.73300 23.78200
H  45.95900 35.23600 22.94500
H  49.09800 32.96500 22.61800
H  48.56700 31.66600 23.68000
H  50.28700 33.55100 25.25700
H  51.11800 33.09200 23.73900
H  50.61600 31.86400 24.91200
H  45.70800 29.05000 26.99300
H  45.03000 30.11200 25.77900
H  43.98700 29.39400 27.03900
H  43.35000 32.59600 31.43500
H  44.06700 30.72700 35.13000
H  42.41900 31.25100 35.03300
H  43.74400 32.41200 35.46500

