158

Mg 7.93400 2.99800 27.72900
C  9.60500 1.67000 30.53900
C  6.01100 4.90400 29.68200
C  6.05400 3.62600 24.96700
C  9.43800 0.34700 25.79000
N  7.95400 3.27400 29.85100
C  8.62300 2.60200 30.86300
C  8.28000 3.11300 32.22400
C  7.11700 4.12700 31.91200
C  6.98800 4.14200 30.37000
C  5.84900 3.73300 32.67900
C  9.53600 3.61400 32.99500
C  9.10500 4.58600 34.18500
H  9.74200 4.13900 35.45100
N  6.36800 4.22300 27.32400
C  5.69300 4.96400 28.26900
C  4.86200 5.88500 27.62300
C  4.81800 5.50400 26.25200
C  5.80700 4.43500 26.10000
C  4.21400 7.00300 28.36900
C  3.88700 6.00000 25.20500
O  3.88200 5.63000 24.03900
C  2.89400 7.14000 25.57700
N  7.90100 2.18000 25.60100
C  6.97700 2.60100 24.71000
C  7.09000 1.91500 23.40100
C  8.29900 0.86000 23.67100
C  8.58600 1.17900 25.11500
C  5.76400 1.22400 22.96000
C  9.58400 1.07300 22.78900
C  9.98600 -0.19500 21.92900
N  9.36100 1.52900 27.96700
C  9.84100 0.52500 27.11700
C  10.60300 -0.42900 27.87800
C  10.63300 0.08900 29.15300
C  9.79600 1.25000 29.18200
C  11.31400 -1.68100 27.38800
C  11.17400 -0.16900 30.39700
O  11.92500 -1.07400 30.78800
C  10.56000 0.88700 31.39800
C  9.86500 0.12500 32.52500
O  8.76100 -0.38800 32.41600
O  10.55600 0.18900 33.64200
C  10.23300 -0.69700 34.81200
H  5.50300 5.53500 30.41500
H  5.40700 3.90600 24.13300
H  9.85100 -0.53800 25.30200
H  7.96000 2.22500 32.76900
H  7.51000 5.11400 32.15300
H  5.81700 4.26000 33.63300
H  5.79400 2.66800 32.90500
H  4.99300 4.07900 32.10100
H  10.25800 4.01200 32.28200
H  9.96800 2.77200 33.53400
H  8.02300 4.63200 34.30600
H  9.59200 5.53800 33.97400
H  4.52500 7.10600 29.40900
H  3.14100 6.81300 28.33600
H  4.45800 7.94300 27.87500
H  2.26700 7.47500 24.75000
H  3.48500 7.99400 25.90700
H  2.25400 6.85900 26.41300
H  7.37800 2.61300 22.61400
H  7.98600 -0.18300 23.63500
H  4.98200 1.41700 23.69500
H  5.79900 0.15800 22.73400
H  5.43700 1.76600 22.07300
H  10.44000 1.21200 23.45000
H  9.46200 1.89400 22.08300
H  10.96900 -0.60400 22.16100
H  10.00600 -0.00400 20.85600
H  9.25700 -0.97700 22.13900
H  10.59100 -2.41900 27.04200
H  11.84900 -2.23600 28.15900
H  11.82100 -1.48300 26.44400
H  11.30500 1.54000 31.85400
H  9.71700 -1.63000 34.58700
H  9.50700 -0.09700 35.36100
H  11.13500 -0.91900 35.38300
Mg 24.18500 -4.66100 45.90300
C  26.33800 -2.47300 44.34700
C  21.73400 -3.53300 43.63200
C  22.48800 -7.49200 46.52700
C  26.95500 -5.93100 47.82400
N  24.04400 -3.24700 44.18300
C  25.02800 -2.37100 43.83000
C  24.60500 -1.30500 42.75100
C  23.06100 -1.39400 42.95200
C  22.87000 -2.79300 43.63400
C  22.50100 -0.28200 43.85500
C  25.14100 -1.82600 41.36200
C  25.88900 -0.82700 40.53200
H  25.77400 -0.92100 39.00200
N  22.27900 -5.47600 45.16800
C  21.49800 -4.78100 44.28100
C  20.24700 -5.50500 44.29900
C  20.42300 -6.72000 45.07900
C  21.74300 -6.61700 45.63400
C  19.12400 -5.08100 43.38400
C  19.45200 -7.90200 45.37100
O  18.29800 -7.87300 44.83300
C  19.85800 -9.19800 46.06000
N  24.68100 -6.46100 47.07000
C  23.74100 -7.36900 47.23900
C  24.25400 -8.42600 48.30700
C  25.53100 -7.73400 48.87200
C  25.84800 -6.68300 47.80300
C  23.29800 -8.83000 49.48400
C  26.76000 -8.78000 49.11300
C  27.56100 -8.62200 50.47700
N  26.19800 -4.24300 46.19500
C  27.20600 -4.78300 46.95400
C  28.45900 -4.09900 46.79500
C  28.14800 -3.25300 45.67300
C  26.79100 -3.33700 45.40200
C  29.73400 -4.42800 47.47600
C  28.76700 -2.33400 44.72900
O  29.89400 -2.00200 44.37700
C  27.58000 -1.77700 43.91800
C  27.58100 -0.26700 44.04000
O  27.18500 0.35700 45.00000
O  27.91400 0.21000 42.82700
C  28.20500 1.66700 42.82500
H  20.82300 -3.12300 43.19200
H  22.03700 -8.36300 47.00700
H  27.77100 -6.25200 48.47400
H  25.03400 -0.35700 43.07800
H  22.57100 -1.25700 41.98800
H  23.28200 0.31700 44.32200
H  21.95800 -0.72800 44.68900
H  21.81200 0.29000 43.23300
H  24.28600 -2.02300 40.71500
H  25.80700 -2.67500 41.52100
H  26.92400 -1.13000 40.69000
H  25.75800 0.20800 40.84400
H  19.31100 -5.52000 42.40400
H  19.07800 -3.99300 43.33200
H  18.16500 -5.49500 43.69500
H  19.20200 -9.99300 45.70800
H  19.75300 -9.03200 47.13200
H  20.85400 -9.45700 45.70000
H  24.47500 -9.37400 47.81700
H  25.37800 -7.27700 49.85000
H  23.84300 -8.87400 50.42700
H  23.00900 -9.88100 49.50300
H  22.44800 -8.14700 49.47900
H  27.43100 -8.84300 48.25600
H  26.34300 -9.78700 49.08700
H  28.37700 -7.94000 50.23600
H  27.99300 -9.55800 50.83000
H  26.81500 -8.20100 51.15000
H  30.40300 -5.00500 46.83700
H  29.46000 -4.97200 48.37900
H  30.26000 -3.50600 47.72500
H  27.87300 -1.97100 42.88600
H  27.76500 2.04000 41.90000
H  29.28100 1.84000 42.81400
H  27.81400 2.32800 43.59900

