158

Mg 24.67000 -6.21100 45.80400
C  27.05500 -3.99200 44.41800
C  22.32800 -5.06500 43.46300
C  22.83100 -8.81800 46.49700
C  27.38500 -7.79800 47.51800
N  24.66400 -4.50900 44.25300
C  25.75100 -3.82100 43.83900
C  25.38500 -2.84300 42.68800
C  23.80700 -3.00800 42.53400
C  23.54800 -4.27600 43.46500
C  23.09000 -1.68000 42.96600
C  26.18500 -2.93200 41.33200
C  26.79000 -1.70700 40.68300
H  26.22500 -1.42800 39.27900
N  22.88600 -6.75300 45.14100
C  22.03600 -6.13600 44.24400
C  20.86000 -6.86900 44.21300
C  20.91200 -7.85000 45.20300
C  22.25100 -7.86100 45.68700
C  19.63200 -6.40300 43.32100
C  19.79000 -8.81400 45.54900
O  18.79500 -8.74800 44.87600
C  19.72500 -9.73900 46.73500
N  25.05800 -8.04000 46.89500
C  24.09900 -8.96600 46.99400
C  24.56200 -10.29100 47.68800
C  26.01000 -9.81700 48.10000
C  26.17600 -8.50000 47.44800
C  23.69200 -10.86300 48.87300
C  27.01000 -10.89500 47.56500
C  27.28100 -12.08400 48.55300
N  26.73800 -5.88300 46.07800
C  27.68800 -6.55700 46.86600
C  29.01500 -5.96400 46.72800
C  28.75900 -4.96400 45.77800
C  27.37400 -4.88700 45.44900
C  30.24300 -6.42300 47.51400
C  29.38800 -3.87100 45.13800
O  30.52000 -3.42200 45.18500
C  28.34100 -3.23200 44.09800
C  28.34700 -1.81100 44.37700
O  28.02700 -1.26900 45.48800
O  28.67700 -1.04800 43.26600
C  28.32600 0.36500 43.42200
H  21.74100 -4.56000 42.69400
H  22.11900 -9.60700 46.74800
H  28.24200 -8.16600 48.08600
H  25.61300 -1.81500 42.96700
H  23.63400 -3.25800 41.48800
H  23.21300 -1.50600 44.03500
H  22.03300 -1.71700 42.70400
H  23.51400 -0.80600 42.47100
H  25.57300 -3.38100 40.54900
H  26.88800 -3.73800 41.54000
H  27.86500 -1.83200 40.55600
H  26.49700 -0.81900 41.24200
H  19.09900 -7.11400 42.69100
H  20.01900 -5.72700 42.55900
H  18.97000 -5.89700 44.02400
H  18.74400 -10.17200 46.92900
H  20.10800 -9.23600 47.62300
H  20.33300 -10.55700 46.34900
H  24.58000 -11.17100 47.04500
H  26.04300 -9.61600 49.17100
H  23.50500 -11.92300 48.70100
H  22.67200 -10.47800 48.87500
H  24.04900 -10.75400 49.89700
H  28.01300 -10.52300 47.35900
H  26.59300 -11.38200 46.68400
H  28.34200 -12.28500 48.70500
H  26.75300 -12.94100 48.13400
H  26.86600 -11.80300 49.52100
H  30.43600 -7.47500 47.30600
H  29.95000 -6.30500 48.55800
H  31.03700 -5.77500 47.14200
H  28.68600 -3.36700 43.07300
H  29.06000 0.76500 44.12100
H  27.27900 0.47000 43.70500
H  28.32500 0.73200 42.39500
Mg 16.71200 53.11600 26.26800
C  18.68800 51.55200 28.78500
C  14.42900 53.84200 28.86800
C  14.42800 54.07400 24.01600
C  18.86300 51.92200 23.88200
N  16.54500 52.60300 28.49900
C  17.51200 52.02300 29.31800
C  17.10100 52.17200 30.81300
C  15.52400 52.40800 30.71700
C  15.43900 52.90300 29.27300
C  14.52600 51.26100 30.91600
C  17.87900 53.35200 31.55700
C  18.10200 53.24000 32.95400
H  17.21300 52.36800 33.80100
N  14.82700 54.02200 26.40800
C  14.10100 54.33600 27.58400
C  12.97500 55.11100 27.20300
C  13.03700 55.35700 25.81400
C  14.10400 54.47600 25.33400
C  12.10000 55.72900 28.26400
C  12.21900 56.31600 24.92700
O  12.49200 56.46900 23.80500
C  11.05900 57.25100 25.57000
N  16.64600 52.94400 24.29300
C  15.53000 53.32700 23.57300
C  15.73700 53.02000 22.16400
C  17.27300 52.73100 22.07600
C  17.69600 52.57000 23.49700
C  14.82800 51.90400 21.63400
C  18.08100 53.88900 21.38800
C  18.91300 54.89200 22.20300
N  18.42800 51.93200 26.32100
C  19.27500 51.61600 25.24000
C  20.41400 50.86600 25.74100
C  20.19100 50.84900 27.13500
C  19.06400 51.51800 27.40300
C  21.51000 50.20400 25.01200
C  20.82600 50.36300 28.36500
O  21.89800 49.75700 28.61200
C  19.87600 50.91400 29.51900
C  19.49200 49.73000 30.36500
O  18.76400 48.78400 30.17300
O  20.28000 49.80100 31.47800
C  20.17600 48.77300 32.48100
H  13.75000 54.19900 29.64400
H  13.65000 54.49400 23.37500
H  19.54900 51.55300 23.11700
H  17.17600 51.23600 31.36600
H  15.11600 53.21100 31.33000
H  13.67900 51.73300 31.41500
H  14.89200 50.42700 31.51500
H  14.18600 50.78400 29.99700
H  17.34900 54.28600 31.37000
H  18.87000 53.49200 31.12400
H  17.85700 54.21200 33.38200
H  19.13700 53.07000 33.25000
H  12.47200 56.67500 28.65800
H  11.97500 55.00000 29.06400
H  11.09000 55.89700 27.89000
H  10.10000 56.74300 25.67900
H  10.95300 58.13500 24.94100
H  11.32500 57.63400 26.55500
H  15.44200 53.81200 21.47500
H  17.58600 51.86400 21.49500
H  14.58300 52.16600 20.60500
H  13.89500 51.72700 22.16900
H  15.30500 50.92400 21.60400
H  17.43700 54.46200 20.72000
H  18.69600 53.46600 20.59400
H  18.50600 55.86000 21.91000
H  19.95600 54.73500 21.92700
H  18.87600 54.84500 23.29200
H  22.32500 49.93700 25.68500
H  21.87200 50.94500 24.29800
H  21.11500 49.38800 24.40700
H  20.33400 51.59300 30.23700
H  20.80500 49.20000 33.26100
H  20.59900 47.87700 32.02700
H  19.13000 48.70800 32.78100

