158

Mg 16.30300 52.53800 26.78300
C  18.27300 51.14300 29.35300
C  13.73600 52.94800 28.98000
C  14.76800 53.96900 24.30100
C  18.96200 51.46800 24.58100
N  15.97400 52.02700 28.97800
C  16.94300 51.60700 29.87400
C  16.43300 51.87900 31.25600
C  14.92800 52.19900 31.10700
C  14.78900 52.29000 29.57100
C  13.98000 51.21600 31.80400
C  17.28600 53.00800 31.97800
C  17.46100 52.86000 33.51100
H  16.50000 53.60600 34.46900
N  14.45400 53.34400 26.59200
C  13.51200 53.36600 27.63700
C  12.36200 54.11500 27.22100
C  12.56200 54.39900 25.82500
C  13.99400 53.97000 25.49900
C  11.14000 54.37200 28.11000
C  11.65300 55.14900 24.82500
O  12.10100 55.55000 23.72900
C  10.29200 55.35800 25.25400
N  16.76200 52.54800 24.66800
C  16.00700 53.39500 23.92600
C  16.74200 53.64700 22.62100
C  18.05000 52.77400 22.67500
C  17.92700 52.17000 24.01600
C  15.97800 53.40000 21.25300
C  19.47400 53.45100 22.45000
C  20.43400 52.62900 21.69700
N  18.15300 51.54100 26.85000
C  19.05800 51.10100 25.87500
C  20.12500 50.28800 26.43900
C  19.90300 50.38500 27.80900
C  18.68600 51.08200 27.97000
C  21.22100 49.52000 25.77100
C  20.38100 50.04400 29.13300
O  21.31800 49.28300 29.37800
C  19.44000 50.66500 30.13800
C  19.17700 49.56900 31.18600
O  18.68300 48.49200 30.96400
O  19.50000 49.96300 32.44500
C  19.05100 49.20400 33.60500
H  13.07000 53.17700 29.81400
H  14.21800 54.55800 23.56400
H  19.66600 50.99800 23.89000
H  16.62900 50.99700 31.86500
H  14.75900 53.20900 31.48000
H  13.48900 50.54900 31.09600
H  13.19300 51.81500 32.26000
H  14.51600 50.75300 32.63400
H  16.75000 53.94700 31.84100
H  18.22200 53.11200 31.43000
H  18.44800 53.21000 33.81400
H  17.42200 51.80600 33.78400
H  10.32000 53.88200 27.58400
H  10.98300 55.41800 28.37500
H  11.34500 54.00400 29.11500
H  10.15600 55.90200 26.18900
H  9.80600 54.38600 25.33600
H  9.84500 55.79900 24.36300
H  16.98400 54.70600 22.53700
H  17.96600 51.93600 21.98300
H  16.35200 52.57900 20.64100
H  16.02300 54.28000 20.61100
H  14.92600 53.18500 21.44000
H  19.86800 53.79900 23.40500
H  19.43000 54.41300 21.94000
H  19.95900 51.84700 21.10500
H  21.16500 52.26400 22.41800
H  21.05800 53.08900 20.93200
H  21.64000 49.97800 24.87600
H  20.70300 48.60600 25.47900
H  21.97100 49.39100 26.55100
H  19.92400 51.53100 30.59100
H  17.99800 49.45300 33.73400
H  19.49400 49.54500 34.54100
H  18.97400 48.11800 33.54500
Mg 9.22200 48.36300 26.07400
C  7.17900 48.61100 28.94800
C  11.89400 49.51100 28.11200
C  11.23400 48.17000 23.39400
C  6.55600 47.81900 24.18700
N  9.52700 48.87000 28.30600
C  8.54600 48.79500 29.26600
C  9.15600 49.11700 30.66500
C  10.41200 49.88000 30.25200
C  10.65500 49.39900 28.78600
C  10.48700 51.44100 30.42000
C  9.41300 47.88400 31.67800
C  8.92300 48.12400 33.09700
H  8.98000 46.90100 34.09700
N  11.28100 48.83100 25.79200
C  12.16600 49.27500 26.81200
C  13.42000 49.39900 26.14000
C  13.26200 49.03200 24.78500
C  11.86700 48.60400 24.59600
C  14.72800 49.84700 26.91600
C  14.30900 49.05700 23.65100
O  13.95500 48.67400 22.53200
C  15.72100 49.42100 23.95400
N  8.95500 48.08100 24.12300
C  9.91100 47.99200 23.16400
C  9.36700 47.65900 21.76300
C  7.83200 47.62400 22.02500
C  7.79500 47.85100 23.57400
C  9.77800 48.60500 20.58000
C  7.17900 46.22500 21.57500
C  5.74200 46.27500 21.10200
N  7.22100 48.21100 26.44400
C  6.18100 48.03400 25.51700
C  4.93700 48.06400 26.13300
C  5.28500 48.21900 27.52600
C  6.68700 48.33000 27.64200
C  3.57300 47.79800 25.45100
C  4.75900 48.30600 28.82600
O  3.57700 48.26500 29.17300
C  5.92900 48.56500 29.81500
C  5.84600 47.53000 30.80900
O  6.39200 46.42100 30.81400
O  4.97900 47.94200 31.81500
C  4.77900 46.94700 32.86200
H  12.71600 49.83600 28.75400
H  11.82400 48.13900 22.47500
H  5.72700 47.84700 23.47700
H  8.55200 49.84000 31.21300
H  11.26800 49.61900 30.87300
H  10.44800 51.87800 29.42200
H  11.38500 51.75500 30.95100
H  9.70800 51.86000 31.05600
H  10.46600 47.60300 31.67900
H  8.71700 47.10600 31.36500
H  7.88100 48.44200 33.05700
H  9.46700 48.98200 33.49200
H  14.70700 49.76800 28.00300
H  15.04400 50.86600 26.69400
H  15.50000 49.14700 26.59600
H  15.60700 50.28500 24.60800
H  16.30500 49.79800 23.11500
H  16.08900 48.51800 24.44200
H  9.60600 46.63600 21.47400
H  7.28500 48.50200 21.68200
H  9.07800 48.65500 19.74700
H  10.65300 48.04800 20.24600
H  9.95800 49.63800 20.87900
H  7.24800 45.54500 22.42500
H  7.87100 45.89200 20.80200
H  5.16800 45.80700 21.90200
H  5.57800 45.74300 20.16500
H  5.28900 47.26600 21.06400
H  3.42600 48.66600 24.80800
H  2.75500 47.64700 26.15600
H  3.60500 46.90900 24.82100
H  5.67400 49.54100 30.22800
H  3.94400 47.17500 33.52600
H  5.67900 47.08200 33.46300
H  4.59300 45.94000 32.49000

