158

Mg 24.75700 -4.03500 45.67200
C  26.98500 -1.76400 43.89700
C  22.34300 -3.06500 43.56100
C  23.13300 -6.87400 46.48900
C  27.73400 -5.26400 47.33400
N  24.70800 -2.47800 43.95800
C  25.64500 -1.70800 43.38500
C  25.09200 -0.79500 42.25400
C  23.62500 -1.26300 42.25300
C  23.52100 -2.34900 43.31000
C  22.60400 -0.12700 42.36300
C  25.78000 -1.00800 40.92800
C  25.88300 0.07700 39.89000
H  25.16800 -0.14400 38.52600
N  22.92300 -4.76400 45.25300
C  22.05700 -4.23400 44.33800
C  20.80100 -4.95900 44.35000
C  21.01000 -6.10100 45.19800
C  22.44200 -5.97300 45.70900
C  19.57400 -4.51800 43.57200
C  20.00000 -7.22200 45.35700
O  18.84400 -7.06900 44.97000
C  20.35800 -8.57200 45.99000
N  25.45800 -5.87700 46.57200
C  24.48200 -6.82100 46.92800
C  25.15800 -7.96800 47.70900
C  26.54500 -7.34000 48.14800
C  26.62700 -6.10000 47.25400
C  24.35200 -8.67600 48.82400
C  27.80200 -8.31300 48.13700
C  28.24200 -8.91600 49.38800
N  26.85500 -3.58300 45.79300
C  27.88300 -4.13500 46.52100
C  29.06700 -3.37100 46.31100
C  28.80200 -2.44100 45.29800
C  27.42500 -2.63000 44.93200
C  30.38600 -3.46300 47.03900
C  29.36600 -1.32500 44.48800
O  30.51000 -0.83800 44.46500
C  28.19000 -0.79200 43.62900
C  28.04800 0.68400 43.96200
O  27.32600 1.10100 44.79500
O  28.63500 1.46300 42.95300
C  28.32200 2.91500 42.94300
H  21.49500 -2.73700 42.95700
H  22.65200 -7.76400 46.89900
H  28.55500 -5.65900 47.93500
H  25.28000 0.24800 42.50800
H  23.30900 -1.78900 41.35200
H  21.84700 -0.13300 41.57900
H  23.11100 0.83100 42.24200
H  22.15300 -0.18000 43.35400
H  25.22300 -1.83600 40.49100
H  26.82100 -1.30700 41.05400
H  26.89300 0.38700 39.62000
H  25.34800 0.92400 40.31800
H  19.78100 -4.60500 42.50600
H  19.61700 -3.43000 43.62600
H  18.63700 -5.02600 43.79900
H  20.57600 -8.39500 47.04300
H  21.12500 -9.13200 45.45300
H  19.48400 -9.22200 46.02800
H  25.31700 -8.68400 46.90300
H  26.46400 -6.99200 49.17800
H  24.18200 -9.74700 48.70800
H  23.33600 -8.36200 49.06100
H  24.95900 -8.48300 49.70800
H  28.67100 -7.80600 47.71600
H  27.63500 -9.17400 47.49100
H  28.02700 -9.98500 49.39100
H  27.63400 -8.46700 50.17400
H  29.28900 -8.85900 49.68400
H  31.10700 -2.89600 46.45000
H  30.72100 -4.43800 47.39200
H  30.41400 -2.85700 47.94400
H  28.47700 -0.97100 42.59300
H  28.72900 3.52800 43.74700
H  27.24800 3.10200 42.97800
H  28.67700 3.35500 42.01200
Mg 30.84900 57.88300 40.16100
C  28.14300 55.91700 38.91100
C  32.88700 55.14000 39.25800
C  33.59400 59.95900 40.23500
C  28.69000 60.63000 40.35100
N  30.55700 55.78500 39.07800
C  29.33200 55.17600 38.78700
C  29.59700 53.76500 38.22300
C  31.04200 53.44800 38.75100
C  31.57300 54.84400 39.13400
C  30.98600 52.51200 39.95600
C  29.38100 53.92500 36.72500
C  28.17500 53.08400 36.20600
H  27.31100 53.77800 35.13700
N  32.97000 57.56300 40.07200
C  33.54400 56.35900 39.57100
C  34.96400 56.51000 39.74600
C  35.22200 57.85000 40.03900
C  33.85800 58.50700 40.15000
C  35.88100 55.34400 39.70100
C  36.59500 58.50800 40.20600
O  37.59500 57.84500 40.17700
C  36.79400 59.99400 40.49200
N  31.13000 60.02200 40.38100
C  32.32500 60.59800 40.39300
C  32.14300 62.15700 40.64200
C  30.52800 62.24000 40.90000
C  30.08000 60.90400 40.51800
C  33.04700 62.58400 41.92200
C  30.03400 63.45200 40.00500
C  29.24200 64.46800 40.81400
N  28.82000 58.26800 39.79800
C  28.09300 59.41600 39.96900
C  26.70200 59.13400 39.78200
C  26.62200 57.80500 39.40100
C  27.99100 57.33000 39.33500
C  25.57700 60.11300 39.94100
C  25.76900 56.72300 39.09500
O  24.53600 56.69200 38.91600
C  26.69300 55.40200 38.75900
C  26.32000 54.26800 39.64100
O  26.94200 53.91700 40.62200
O  25.27800 53.58800 39.11600
C  24.71700 52.38100 39.74600
H  33.50300 54.25100 39.10700
H  34.39100 60.70600 40.20900
H  28.08000 61.50600 40.57900
H  28.87600 53.20300 38.81700
H  31.67000 53.09300 37.93500
H  31.60900 51.65300 39.70700
H  30.02900 52.00200 40.07300
H  31.40900 52.91800 40.87500
H  30.19100 53.52200 36.11700
H  29.26300 54.96300 36.41600
H  27.47100 52.89200 37.01600
H  28.49600 52.13400 35.78000
H  36.95500 55.39300 39.88200
H  35.86000 55.00300 38.66600
H  35.47900 54.49000 40.24500
H  37.85300 60.25100 40.46900
H  36.31400 60.17600 41.45400
H  36.29500 60.58800 39.72600
H  32.56700 62.69100 39.79100
H  30.26300 62.32700 41.95400
H  33.35600 61.67300 42.43300
H  32.39500 62.97100 42.70500
H  33.91700 63.22000 41.75500
H  29.59500 62.98800 39.12100
H  30.92100 63.97400 39.64600
H  29.71300 65.43400 40.99800
H  29.01700 64.10000 41.81500
H  28.35000 64.75600 40.25700
H  25.91000 61.05700 39.51000
H  25.31600 60.21600 40.99500
H  24.67200 59.77100 39.43800
H  26.52000 55.00700 37.75800
H  25.04300 52.31600 40.78500
H  25.11900 51.48900 39.26600
H  23.62800 52.39300 39.75500

