158

Mg 40.40500 10.24000 30.15900
C  41.98300 11.74300 32.73100
C  38.05500 9.02300 32.34900
C  38.71100 8.86900 27.60500
C  42.89800 11.19100 27.94100
N  39.95000 10.48300 32.34000
C  40.86500 11.01400 33.22300
C  40.43400 10.84400 34.68200
C  39.23100 9.83100 34.52600
C  38.99200 9.82300 32.98000
C  39.62700 8.35800 35.06200
C  40.03300 12.08800 35.38300
C  40.70400 12.26100 36.75000
H  40.11900 13.24200 37.75400
N  38.62500 9.15500 30.01800
C  37.80800 8.67400 30.97500
C  36.73300 7.92400 30.41800
C  36.81900 8.01000 29.03200
C  38.07300 8.78000 28.78200
C  35.54800 7.27000 31.33300
C  35.90200 7.41600 27.95600
O  35.97400 7.57000 26.72200
C  34.62700 6.67300 28.46000
N  40.74400 10.12400 28.00300
C  39.91100 9.47400 27.19900
C  40.52100 9.40100 25.74300
C  41.75000 10.36800 25.86100
C  41.79400 10.59500 27.35300
C  40.95400 7.96100 25.28600
C  41.58100 11.64500 25.00000
C  40.75300 12.82300 25.54700
N  42.12500 11.19900 30.25500
C  43.03700 11.57300 29.29300
C  44.03200 12.44500 29.89200
C  43.58600 12.48200 31.25100
C  42.42900 11.80100 31.40200
C  45.22100 13.06800 29.24200
C  44.06500 12.96000 32.52200
O  45.06800 13.57000 32.84800
C  42.99200 12.56400 33.53600
C  43.64900 11.77100 34.61900
O  43.72600 10.57000 34.57900
O  44.03400 12.50100 35.70800
C  44.71300 11.80900 36.90000
H  37.44300 8.44300 33.04300
H  38.31200 8.29700 26.76500
H  43.61100 11.59500 27.21800
H  41.32000 10.36500 35.09800
H  38.41400 10.14500 35.17600
H  38.78300 7.88300 35.56200
H  40.48300 8.51200 35.71900
H  39.94100 7.61700 34.32700
H  38.94800 12.17200 35.44700
H  40.42500 12.94400 34.83300
H  41.69000 12.60800 36.43900
H  40.74800 11.31700 37.29200
H  34.58800 7.71400 31.07100
H  35.77700 7.49700 32.37500
H  35.55500 6.18600 31.21800
H  35.05800 5.78200 28.91900
H  33.96300 6.46900 27.62100
H  33.95400 7.26600 29.07900
H  39.77800 9.74000 25.02100
H  42.72000 10.04500 25.48500
H  40.66500 7.13700 25.93900
H  42.04100 7.92100 25.21800
H  40.52400 7.77100 24.30300
H  41.04600 11.30400 24.11400
H  42.53700 12.09200 24.73000
H  40.19600 13.30000 24.74100
H  41.55200 13.48000 25.89200
H  40.07900 12.57500 26.36700
H  44.89700 13.27700 28.22200
H  46.06200 12.37400 29.26000
H  45.50700 13.86300 29.93000
H  42.54600 13.48100 33.92100
H  45.30700 10.92900 36.65700
H  43.84100 11.53400 37.49400
H  45.35700 12.50200 37.44200
Mg 53.65800 24.82400 45.52700
C  51.17400 27.03500 44.41700
C  52.02800 22.20200 43.88200
C  56.54400 22.86400 45.78100
C  55.51600 27.62800 46.49800
N  51.80300 24.74600 44.18100
C  50.95800 25.72500 43.89800
C  49.79700 25.10200 43.03500
C  49.89100 23.57200 43.30800
C  51.32400 23.53600 43.84700
C  48.78400 22.95100 44.26500
C  49.70400 25.52800 41.53300
C  50.99300 25.52700 40.69200
H  52.17300 24.59700 41.03500
N  54.12900 22.77200 44.95900
C  53.27900 21.85200 44.35000
C  53.96000 20.54500 44.41800
C  55.27200 20.74300 44.99500
C  55.35500 22.19600 45.25600
C  53.31500 19.39600 43.70900
C  56.31700 19.66400 45.25000
O  56.10600 18.51500 44.91500
C  57.58500 19.83900 45.95400
N  55.73900 25.19500 45.92500
C  56.70000 24.24200 46.03400
C  58.02700 24.76300 46.59600
C  57.74300 26.32600 46.51700
C  56.20800 26.40500 46.33100
C  58.29100 24.22800 48.00900
C  58.55600 27.13600 45.48900
C  58.69700 28.64200 45.71100
N  53.36700 26.88800 45.60700
C  54.19400 27.85600 46.17400
C  53.41400 29.02100 46.32400
C  52.26700 28.82300 45.57400
C  52.32100 27.48700 45.07600
C  53.79500 30.23100 47.05200
C  51.04800 29.41900 45.11800
O  50.57400 30.55500 45.28000
C  50.29500 28.30500 44.29600
C  50.03500 28.72400 42.90400
O  50.88800 28.93800 42.03800
O  48.65000 28.82800 42.71900
C  48.28900 29.18400 41.31600
H  51.56500 21.37200 43.34400
H  57.49000 22.33600 45.91600
H  56.02200 28.53600 46.83300
H  48.88200 25.54100 43.43400
H  49.88800 22.92600 42.43000
H  47.86800 23.54200 44.23000
H  49.12600 22.76400 45.28300
H  48.69700 21.96200 43.81600
H  49.18100 26.47100 41.37400
H  49.08400 24.80200 41.00800
H  51.33700 26.55200 40.55300
H  50.67500 25.32500 39.67000
H  53.11000 19.64800 42.66800
H  52.29800 19.18100 44.03800
H  53.84500 18.44400 43.73900
H  57.81400 18.83700 46.31500
H  57.50700 20.44000 46.86100
H  58.36700 20.25900 45.32200
H  58.81500 24.46700 45.90400
H  58.05300 26.78300 47.45700
H  58.05200 23.17500 48.15800
H  57.83600 24.86800 48.76500
H  59.37800 24.21900 47.93800
H  58.07200 27.02900 44.51800
H  59.54500 26.67800 45.45300
H  59.73900 28.70500 46.02400
H  57.99800 28.98000 46.47600
H  58.53100 29.17600 44.77600
H  54.37000 30.08200 47.96600
H  52.89200 30.78700 47.30400
H  54.45100 30.85900 46.45100
H  49.34000 28.10800 44.78400
H  48.76800 28.55200 40.56800
H  48.37600 30.24800 41.09300
H  47.27200 28.96500 40.98900

