158

Mg 23.86100 -6.80200 47.36100
C  26.54400 -4.66000 46.26900
C  21.84200 -5.14900 45.10300
C  21.57300 -9.20100 47.82700
C  26.26100 -8.65300 49.07200
N  24.19200 -5.07100 45.93300
C  25.30400 -4.36200 45.65100
C  25.14100 -3.41200 44.45600
C  23.57300 -3.42600 44.32800
C  23.16400 -4.65700 45.13300
C  22.79100 -2.19500 44.75500
C  25.87300 -4.01200 43.24100
C  27.10300 -3.13500 42.74400
H  27.10200 -2.49900 41.38300
N  21.90400 -7.05300 46.67400
C  21.24000 -6.22900 45.77800
C  19.89100 -6.74300 45.57800
C  19.81200 -7.93500 46.26700
C  21.13900 -8.10400 46.99500
C  18.78200 -5.95400 44.88000
C  18.61300 -8.86500 46.41600
O  17.59700 -8.51700 45.80200
C  18.52300 -10.08600 47.25000
N  23.91800 -8.72200 48.28800
C  22.79300 -9.55600 48.40700
C  23.12000 -10.93100 49.04300
C  24.66900 -10.71200 49.39800
C  24.98400 -9.27000 48.91500
C  22.30100 -11.33800 50.30100
C  25.73500 -11.65500 48.75500
C  26.84300 -12.07200 49.83600
N  25.96200 -6.61800 47.78800
C  26.78400 -7.49200 48.45600
C  28.07100 -6.86600 48.61300
C  28.04700 -5.63500 47.84600
C  26.75100 -5.63100 47.24600
C  29.34400 -7.45900 49.22100
C  28.74200 -4.48000 47.37100
O  29.80000 -4.04800 47.60500
C  27.76900 -3.81400 46.26400
C  27.38100 -2.46000 46.66900
O  26.86900 -2.23200 47.76700
O  27.84800 -1.51500 45.79800
C  27.78400 -0.10100 46.26000
H  21.18600 -4.54100 44.47700
H  20.98800 -10.10500 47.64400
H  27.07300 -9.24300 49.50200
H  25.43400 -2.38100 44.65400
H  23.26800 -3.59700 43.29500
H  23.44500 -1.45300 45.21200
H  22.04100 -2.52500 45.47400
H  22.25000 -1.87700 43.86400
H  25.14700 -4.10700 42.43400
H  26.23300 -5.03000 43.38600
H  28.02900 -3.69700 42.86200
H  27.20400 -2.33100 43.47200
H  17.90700 -5.69900 45.47600
H  18.59300 -6.33200 43.87500
H  19.25200 -4.97200 44.82200
H  17.49300 -10.44300 47.27800
H  18.81000 -9.85600 48.27600
H  19.23100 -10.85000 46.92900
H  23.04400 -11.63600 48.21500
H  24.85400 -10.70900 50.47200
H  21.68400 -10.48400 50.57800
H  22.96600 -11.60300 51.12300
H  21.62700 -12.15500 50.04300
H  26.20500 -11.15000 47.91100
H  25.24500 -12.55700 48.38900
H  26.70200 -13.14600 49.95600
H  26.64800 -11.68400 50.83600
H  27.83700 -11.90700 49.42100
H  30.12500 -6.70100 49.27200
H  29.61800 -8.37400 48.69400
H  29.14100 -7.66000 50.27200
H  28.32800 -3.94100 45.33700
H  26.74700 0.14200 46.49200
H  28.20200 0.50200 45.45500
H  28.41500 0.05900 47.13400
Mg 46.74400 24.93300 28.20400
C  47.72700 27.25300 30.68000
C  45.61000 22.82300 30.62000
C  46.34200 22.61800 25.72200
C  48.35100 27.03600 25.83500
N  46.64900 25.12700 30.41600
C  46.96300 26.21800 31.24600
C  46.52900 25.92100 32.73100
C  45.98600 24.45900 32.63600
C  46.06000 24.12600 31.10800
C  46.63700 23.36100 33.46500
C  45.47700 26.97300 33.27700
C  44.64200 26.75400 34.55400
H  45.49500 26.57600 35.89300
N  45.91700 23.05900 28.13600
C  45.60600 22.34100 29.27300
C  45.07600 21.01600 28.81700
C  45.24500 20.96800 27.41700
C  45.85200 22.26700 26.98100
C  44.51600 20.07700 29.83300
C  44.72400 19.95800 26.36500
O  45.01200 19.98000 25.16300
C  43.79600 18.99400 26.89100
N  47.18100 24.94400 26.06300
C  46.98800 23.80200 25.28600
C  47.68600 23.92700 23.87700
C  48.21000 25.37200 23.93600
C  47.85000 25.83800 25.37100
C  48.60900 22.74300 23.50000
C  47.85600 26.38900 22.74100
C  48.94100 27.38500 22.32600
N  47.69000 26.82700 28.19300
C  48.37400 27.51200 27.17100
C  49.03600 28.73300 27.66000
C  48.69300 28.68600 29.05700
C  47.93800 27.49400 29.35700
C  49.83000 29.75000 26.93000
C  48.77500 29.53500 30.27500
O  49.07600 30.71700 30.44000
C  48.17000 28.50000 31.43000
C  49.30700 28.16200 32.33500
O  50.39700 27.73100 32.01400
O  48.99100 28.60400 33.60900
C  50.17700 28.80300 34.41000
H  45.23100 22.07200 31.31600
H  46.30100 21.83100 24.96600
H  48.80400 27.70100 25.09600
H  47.40400 26.06900 33.36500
H  44.92700 24.44600 32.89400
H  47.41700 23.78600 34.09600
H  47.18900 22.66400 32.83500
H  45.96700 22.77500 34.09300
H  44.89500 27.21400 32.38700
H  45.95800 27.92100 33.52000
H  44.03400 25.85800 34.42500
H  43.98300 27.61300 34.68200
H  45.13900 19.18600 29.75700
H  43.49900 19.81300 29.54300
H  44.53000 20.40500 30.87200
H  43.32300 18.45900 26.06700
H  42.94000 19.51100 27.32300
H  44.36900 18.31300 27.52100
H  46.91700 23.88500 23.10500
H  49.29700 25.31100 23.90400
H  49.14800 22.31200 24.34400
H  49.17600 22.97800 22.60000
H  47.99000 21.87400 23.27300
H  46.98500 27.00700 22.95700
H  47.63700 25.75200 21.88400
H  49.65800 27.54600 23.13200
H  48.46100 28.36300 22.29200
H  49.42700 27.15600 21.37800
H  50.31900 29.54600 25.97800
H  50.52600 30.11800 27.68400
H  49.00300 30.44300 26.77500
H  47.29500 28.97600 31.87400
H  49.90300 28.89100 35.46100
H  50.60600 29.77800 34.17900
H  51.04400 28.16200 34.25300

