158

Mg 35.16500 3.28200 30.41500
C  32.76500 4.17400 32.74100
C  37.52600 3.15400 33.09000
C  37.75200 2.94400 28.34200
C  32.99300 3.72700 27.84800
N  35.16500 3.65500 32.66900
C  34.00600 3.96200 33.34800
C  34.27100 3.83100 34.87600
C  35.83200 3.75000 34.98300
C  36.20200 3.49400 33.49500
C  36.58900 5.05000 35.49100
C  33.53700 2.57500 35.50500
C  32.94300 2.74100 36.87000
H  33.51900 3.74500 37.90600
N  37.21800 2.77100 30.69700
C  38.01800 2.79600 31.81100
C  39.40900 2.44800 31.47300
C  39.49600 2.33000 30.04600
C  38.13300 2.67500 29.65000
C  40.48200 2.33600 32.49500
C  40.68200 1.98100 29.12100
O  40.64200 1.94400 27.87600
C  42.05600 1.76900 29.63200
N  35.35000 3.14500 28.39400
C  36.52200 3.17800 27.72400
C  36.28000 3.24200 26.16800
C  34.65600 3.08500 26.08600
C  34.29000 3.26400 27.53200
C  36.74600 4.56600 25.62200
C  34.16800 1.81100 25.45500
C  32.91800 1.88300 24.63600
N  33.26100 3.81700 30.30300
C  32.46700 3.94700 29.16700
C  31.16000 4.34500 29.57300
C  31.20000 4.38700 31.00800
C  32.52000 4.12800 31.41400
C  30.06900 4.54100 28.60900
C  30.47900 4.70300 32.19800
O  29.33000 5.06800 32.24600
C  31.40100 4.45400 33.40100
C  31.42500 5.71900 34.25400
O  31.93000 6.80200 33.94700
O  30.73900 5.48800 35.43200
C  30.81100 6.63700 36.36200
H  38.33500 3.17400 33.82300
H  38.54600 2.92000 27.59200
H  32.37500 3.74400 26.94800
H  33.83800 4.68100 35.40400
H  36.23900 2.95200 35.60400
H  35.88200 5.75400 35.93000
H  37.03400 5.58500 34.65200
H  37.24300 4.73300 36.30400
H  34.24500 1.74600 35.50400
H  32.67400 2.30600 34.89700
H  33.09900 1.79200 37.38300
H  31.87200 2.92900 36.78600
H  41.21700 1.54600 32.34100
H  40.00100 1.90700 33.37400
H  40.91500 3.31000 32.72400
H  42.24200 2.57500 30.34100
H  42.87600 1.67600 28.91900
H  41.94900 0.84700 30.20300
H  36.86400 2.38000 25.84700
H  34.30600 3.80800 25.34800
H  37.19600 5.24700 26.34500
H  35.92300 5.10600 25.15300
H  37.47500 4.41100 24.82700
H  34.03400 1.03400 26.20800
H  34.89800 1.38400 24.76800
H  32.12200 1.28500 25.08100
H  33.19800 1.64600 23.60900
H  32.49500 2.88800 24.64500
H  29.63100 3.54300 28.59600
H  30.40500 4.84700 27.61800
H  29.35800 5.26400 29.00900
H  31.11100 3.57400 33.97600
H  30.64400 7.55700 35.80200
H  31.83000 6.66400 36.74700
H  30.06600 6.36900 37.11200
Mg 2.22200 41.77100 24.65900
C  3.94000 41.75400 27.64900
C  -0.43800 40.19700 26.16800
C  0.70600 41.58300 21.56400
C  5.07900 42.88100 23.07800
N  1.89500 41.04300 26.63600
C  2.62700 41.32100 27.77700
C  1.83100 41.11800 29.06100
C  0.45300 40.55300 28.55200
C  0.63200 40.59500 26.96000
C  -0.06100 39.20200 29.11500
C  1.63500 42.37300 30.03400
C  1.60100 41.97700 31.57300
H  0.17000 42.05700 32.14200
N  0.38500 41.09300 23.97100
C  -0.56300 40.43300 24.73900
C  -1.66700 40.01900 23.86700
C  -1.51200 40.54700 22.60600
C  -0.09500 41.02500 22.65100
C  -2.81800 39.18700 24.39200
C  -2.44100 40.45100 21.30000
O  -2.06100 40.72800 20.15200
C  -3.80000 40.01200 21.40600
N  2.80900 42.21700 22.59400
C  1.98600 42.10200 21.52200
C  2.61900 42.71600 20.24700
C  3.91200 43.37200 20.87800
C  3.98900 42.80700 22.20800
C  2.87400 41.78500 19.06500
C  3.94400 44.95400 20.83100
C  5.13700 45.54100 20.02900
N  4.20600 42.18100 25.17700
C  5.21000 42.54000 24.45100
C  6.46100 42.61700 25.27300
C  5.94500 42.26100 26.55100
C  4.58600 42.01300 26.42800
C  7.80100 43.21600 25.03000
C  6.32800 42.13900 28.00200
O  7.38200 42.29200 28.53100
C  4.99300 41.87800 28.76200
C  5.14800 40.72800 29.72900
O  5.28300 39.58100 29.41000
O  5.44100 41.18700 30.95700
C  6.08800 40.31400 31.92000
H  -1.38000 39.86800 26.61200
H  0.22100 41.58800 20.58600
H  5.95300 43.33700 22.60800
H  2.31600 40.33000 29.63700
H  -0.24100 41.35700 28.79500
H  0.49900 38.86700 29.98800
H  0.00400 38.61000 28.20200
H  -1.04700 39.38000 29.54200
H  0.69100 42.85900 29.78600
H  2.52900 42.98700 29.93300
H  2.07900 42.71300 32.21800
H  1.95900 40.98300 31.84200
H  -3.17400 38.60400 23.54200
H  -3.60100 39.89400 24.66600
H  -2.54400 38.50500 25.19700
H  -4.27000 40.74900 20.75500
H  -4.28500 40.20800 22.36200
H  -3.94200 38.99300 21.04500
H  1.79900 43.37700 19.96600
H  4.75700 43.06500 20.26300
H  3.60900 42.16400 18.35500
H  1.93800 41.52900 18.56900
H  3.22600 40.86800 19.53800
H  4.00000 45.41700 21.81600
H  3.06800 45.41100 20.37100
H  5.83700 45.84700 20.80600
H  4.80000 46.38300 19.42500
H  5.70400 44.82300 19.43600
H  7.90200 43.97700 24.25600
H  8.54400 42.49700 24.68600
H  8.24000 43.73200 25.88400
H  4.71400 42.77300 29.32000
H  5.42700 39.48400 32.17100
H  6.43000 40.92000 32.76000
H  7.00100 39.91100 31.48200

