158

Mg -2.31200 16.91400 26.33500
C  -2.76700 14.56800 29.02800
C  -2.58000 19.45800 28.62200
C  -2.42300 19.17400 23.88000
C  -2.77100 14.30100 24.11000
N  -2.59100 16.92700 28.50300
C  -2.77600 15.90800 29.43500
C  -2.84400 16.46000 30.87800
C  -2.89000 17.98400 30.63000
C  -2.70100 18.13000 29.14000
C  -4.11700 18.74200 31.06100
C  -1.76000 15.94100 31.78300
C  -1.28800 16.75500 32.99800
H  -0.69600 15.88400 34.12300
N  -2.28400 19.04300 26.28700
C  -2.31400 19.92100 27.34200
C  -2.26700 21.27100 26.84900
C  -2.19800 21.21800 25.43100
C  -2.34600 19.78200 25.13300
C  -2.36100 22.53400 27.69700
C  -1.91200 22.28900 24.34000
O  -1.78200 22.02300 23.14900
C  -1.74100 23.65500 24.76000
N  -2.56800 16.72800 24.34100
C  -2.40000 17.80100 23.48400
C  -2.51200 17.35800 21.98700
C  -2.39600 15.81300 22.14100
C  -2.61900 15.58300 23.61700
C  -3.91100 17.84800 21.37800
C  -0.94800 15.17900 21.83900
C  -0.90600 13.93400 20.94500
N  -2.49000 14.81700 26.46000
C  -2.78600 13.88900 25.47900
C  -2.89700 12.58700 26.08100
C  -2.85000 12.82800 27.44300
C  -2.61800 14.21300 27.65700
C  -2.99200 11.30100 25.43400
C  -3.13100 12.22000 28.67500
O  -3.41400 11.10000 29.01000
C  -2.89100 13.28100 29.79200
C  -1.59200 12.93500 30.52400
O  -0.48100 13.34300 30.37100
O  -1.91200 11.99800 31.39500
C  -0.96200 11.52300 32.36300
H  -2.64800 20.20300 29.41800
H  -2.41200 19.81500 22.99700
H  -3.02700 13.54500 23.36500
H  -3.77500 16.19100 31.37700
H  -1.94400 18.37900 31.00000
H  -3.80600 19.74400 31.35800
H  -4.61800 18.32900 31.93600
H  -4.79900 18.84800 30.21700
H  -0.88100 15.68800 31.18900
H  -2.21300 15.02100 32.15100
H  -2.08100 17.34900 33.45300
H  -0.41500 17.34900 32.72900
H  -1.42100 23.06900 27.56500
H  -2.47300 22.23200 28.73900
H  -3.28800 23.06300 27.48100
H  -1.89100 24.24300 23.85400
H  -0.78000 23.80900 25.25000
H  -2.50600 23.97300 25.46900
H  -1.62100 17.84100 21.58600
H  -3.04100 15.25800 21.46000
H  -4.57400 16.99300 21.24400
H  -3.80500 18.55100 20.55100
H  -4.38800 18.52100 22.09100
H  -0.38000 14.94200 22.73800
H  -0.32600 15.90400 21.31500
H  -0.24000 14.28500 20.15700
H  -1.90200 13.81500 20.51800
H  -0.58600 13.03700 21.47700
H  -1.97100 10.92600 25.50900
H  -3.30000 11.29200 24.38800
H  -3.69900 10.71600 26.02300
H  -3.72400 13.30800 30.49400
H  -0.59000 12.35900 32.95600
H  -0.12500 11.03700 31.86400
H  -1.34200 10.77000 33.05400
Mg 10.24100 46.59300 25.67900
C  8.06400 46.87500 28.39900
C  12.60000 48.38100 27.35100
C  12.17200 46.80700 22.88200
C  7.49800 45.98300 23.71400
N  10.26900 47.59900 27.53600
C  9.38400 47.36200 28.61500
C  10.04800 47.80700 29.87300
C  11.23600 48.73200 29.39300
C  11.38800 48.19700 28.00300
C  10.96800 50.26800 29.45600
C  10.56400 46.64400 30.76100
C  10.46900 46.97200 32.26700
H  10.09900 45.73800 33.12700
N  12.21400 47.21300 25.30800
C  12.98000 47.94500 26.11000
C  14.30300 48.02800 25.58300
C  14.23700 47.46600 24.24000
C  12.80300 47.17500 24.07800
C  15.46700 48.62300 26.38400
C  15.40200 47.35200 23.23300
O  15.17000 47.02400 22.09100
C  16.81800 47.56900 23.70500
N  9.85900 46.36700 23.65900
C  10.82500 46.47900 22.65600
C  10.26600 46.21800 21.24000
C  8.74100 46.07400 21.51900
C  8.68800 46.06700 23.07100
C  10.62600 47.19200 20.10000
C  8.10400 44.91700 20.67600
C  6.91400 45.26700 19.75400
N  8.18900 46.28900 25.99500
C  7.22500 45.98800 25.13300
C  5.92000 45.90300 25.73600
C  6.20200 46.11400 27.08000
C  7.54200 46.43600 27.15400
C  4.55800 45.52700 25.16000
C  5.61400 46.16200 28.40300
O  4.51400 45.97900 28.81500
C  6.84000 46.70100 29.30000
C  7.01400 45.66500 30.35800
O  7.51800 44.56600 30.10600
O  6.44100 46.12900 31.55500
C  6.25500 45.08400 32.63900
H  13.31900 49.05300 27.82300
H  12.73400 46.86200 21.94800
H  6.57600 45.94100 23.13100
H  9.22600 48.25700 30.43000
H  12.03100 48.56800 30.12100
H  10.07600 50.49000 30.04200
H  10.81200 50.68300 28.46000
H  11.76700 50.81700 29.95400
H  11.62900 46.52300 30.56200
H  10.08600 45.69900 30.50400
H  9.79800 47.82300 32.38200
H  11.46500 47.24500 32.61500
H  15.15600 48.65400 27.42900
H  15.53400 49.66700 26.07800
H  16.40700 48.09500 26.22500
H  17.47500 47.54000 22.83600
H  17.08600 46.87300 24.50100
H  16.98100 48.50500 24.24000
H  10.75100 45.31400 20.87200
H  8.32600 47.01600 21.16100
H  11.05800 48.10500 20.51000
H  9.71500 47.41300 19.54400
H  11.26200 46.68700 19.37300
H  7.54800 44.29700 21.37900
H  8.79700 44.22000 20.20400
H  7.11400 44.94200 18.73300
H  6.74700 46.34300 19.69900
H  5.97500 44.83900 20.10300
H  3.94400 45.24500 26.01500
H  4.60300 44.80200 24.34700
H  4.15100 46.44200 24.73100
H  6.64300 47.64300 29.81200
H  5.18000 44.91000 32.67300
H  6.76400 45.45000 33.53000
H  6.69600 44.15600 32.27400

