158

Mg 25.31700 1.55500 29.15800
C  27.31000 1.32800 32.13500
C  22.61300 1.84000 31.13900
C  23.71000 1.41800 26.42300
C  28.41000 0.62100 27.37900
N  25.06700 1.73900 31.38900
C  25.98700 1.72500 32.36300
C  25.31000 2.07900 33.69700
C  23.76700 2.13900 33.37500
C  23.78600 1.88100 31.88500
C  22.93900 1.09700 34.21300
C  25.92100 3.41300 34.28000
C  25.17400 4.03700 35.58600
H  26.09300 4.21500 36.86100
N  23.34200 1.67100 28.87000
C  22.34100 1.75700 29.78100
C  21.06500 1.57000 29.05400
C  21.39300 1.50800 27.61500
C  22.83700 1.49800 27.60000
C  19.76200 1.37000 29.79600
C  20.44900 1.35300 26.43900
O  20.87400 1.36300 25.28100
C  18.99400 1.14900 26.68000
N  25.92300 1.06400 27.17200
C  25.05500 1.23400 26.19500
C  25.64300 0.97900 24.80800
C  27.20600 0.88100 25.06700
C  27.23200 0.86300 26.66300
C  25.09000 -0.31400 24.13600
C  28.06500 2.03900 24.48400
C  27.56200 3.47100 24.84200
N  27.41700 1.19000 29.59800
C  28.52700 0.82800 28.78800
C  29.66100 0.65300 29.59900
C  29.24800 0.75400 30.91100
C  27.90700 1.13100 30.86800
C  31.01000 0.12300 29.12700
C  29.62400 0.69100 32.30200
O  30.69400 0.50600 32.83500
C  28.39200 1.18500 33.08000
C  28.14900 0.29700 34.26700
O  27.54600 -0.76800 34.22500
O  28.77300 0.91600 35.37200
C  28.41200 0.25800 36.64900
H  21.78200 2.16300 31.76900
H  23.18100 1.36600 25.47000
H  29.33100 0.59200 26.79400
H  25.49900 1.21200 34.33000
H  23.44700 3.16500 33.55800
H  23.06500 0.09900 33.79300
H  21.89500 1.38900 34.33000
H  23.36400 1.16900 35.21400
H  25.94200 4.14100 33.46900
H  26.93100 3.11800 34.56500
H  24.34800 3.36100 35.80600
H  24.71200 4.97600 35.27900
H  19.41200 0.41300 29.40900
H  19.04000 2.15500 29.57200
H  19.97400 1.35300 30.86500
H  18.67100 1.81300 27.48200
H  18.87200 0.13400 27.05600
H  18.34300 1.27800 25.81400
H  25.37100 1.84700 24.20700
H  27.59400 -0.11000 24.83400
H  24.00100 -0.27000 24.11900
H  25.48000 -1.27300 24.47800
H  25.48900 -0.30900 23.12200
H  28.24200 2.05100 23.40900
H  29.05800 1.88900 24.90800
H  26.59800 3.35800 25.33800
H  27.38400 3.96700 23.88700
H  28.27100 4.11900 25.35700
H  31.26300 -0.92100 29.31200
H  31.76800 0.75400 29.59100
H  31.18000 0.23600 28.05600
H  28.67900 2.19900 33.36100
H  28.42300 -0.82700 36.54700
H  27.43500 0.63100 36.95700
H  29.27600 0.57200 37.23400
Mg -12.20900 40.01600 41.98200
C  -10.81000 36.90200 41.20000
C  -9.61000 41.56300 40.10300
C  -13.87800 42.97100 42.19800
C  -14.99900 38.37500 43.26600
N  -10.48600 39.25700 40.70000
C  -10.07800 37.95000 40.65600
C  -8.71800 37.89200 39.87600
C  -8.34200 39.34900 39.65200
C  -9.52300 40.11900 40.17700
C  -6.96400 39.75900 40.23300
C  -8.70400 36.92900 38.69900
C  -7.63900 35.82500 38.63900
H  -7.07800 35.33800 37.28300
N  -11.82500 42.04300 41.24700
C  -10.67900 42.38000 40.54800
C  -10.67400 43.82800 40.39800
C  -11.87100 44.30500 40.98500
C  -12.62400 43.11600 41.53600
C  -9.57800 44.65700 39.75400
C  -12.37100 45.66200 41.12200
O  -11.57800 46.61300 40.81600
C  -13.62400 46.01300 41.73800
N  -14.30300 40.53100 42.48300
C  -14.71000 41.82600 42.54100
C  -16.15300 41.93800 42.98500
C  -16.56500 40.39500 43.29200
C  -15.17600 39.70200 42.94500
C  -16.54600 42.92000 44.19200
C  -17.72800 39.81700 42.41100
C  -19.07900 39.69600 43.09500
N  -12.80700 38.07000 42.25600
C  -13.89400 37.57300 42.89200
C  -13.71300 36.09600 43.07900
C  -12.43900 35.81300 42.38600
C  -12.02700 37.00200 41.85900
C  -14.57500 35.18600 43.86700
C  -11.54700 34.74400 42.16200
O  -11.63300 33.60900 42.56800
C  -10.42700 35.39500 41.19300
C  -9.17700 35.04200 41.84700
O  -8.59800 33.95600 41.73100
O  -8.59300 36.08300 42.41600
C  -7.37900 35.90800 43.18700
H  -8.63000 41.87700 39.73700
H  -14.43600 43.82100 42.59600
H  -15.81800 37.84300 43.75500
H  -7.97000 37.47000 40.54700
H  -8.39800 39.66700 38.61100
H  -6.74900 38.99900 40.98400
H  -6.87800 40.69800 40.77900
H  -6.09800 39.73400 39.57100
H  -8.37500 37.41700 37.78200
H  -9.70000 36.51200 38.55200
H  -8.20400 34.98700 39.04700
H  -6.83100 35.91700 39.36500
H  -9.89700 45.06700 38.79500
H  -8.78800 43.97700 39.43500
H  -9.05100 45.39300 40.36100
H  -14.40400 45.62800 41.08100
H  -13.65300 47.10100 41.79200
H  -13.60200 45.71800 42.78700
H  -16.74600 42.18100 42.10300
H  -16.88500 40.23400 44.32200
H  -17.08000 43.80200 43.84100
H  -15.64400 43.16500 44.75300
H  -17.19300 42.41200 44.90700
H  -17.47000 38.80600 42.09800
H  -17.85000 40.38300 41.48800
H  -19.48200 38.68400 43.05700
H  -19.86400 40.17800 42.51300
H  -19.02700 40.12100 44.09700
H  -14.30600 34.15900 43.62300
H  -15.57100 35.28900 43.43600
H  -14.42800 35.48500 44.90500
H  -10.41800 34.87400 40.23600
H  -6.86400 36.86800 43.14700
H  -6.66300 35.23600 42.71400
H  -7.44900 35.67300 44.24900

