158

Mg 8.08500 3.00700 27.77400
C  9.51900 1.66300 30.61700
C  6.63300 5.48600 29.78200
C  6.70900 4.21300 24.95900
C  9.46100 0.26000 25.93100
N  8.00500 3.49500 29.88400
C  8.72900 2.78600 30.87600
C  8.46500 3.41500 32.24300
C  7.52900 4.63600 32.00500
C  7.39400 4.57300 30.42200
C  6.22300 4.82700 32.85900
C  9.74300 3.84700 33.07300
C  9.56800 4.72000 34.31900
H  10.49700 4.41700 35.47700
N  6.90300 4.68300 27.44400
C  6.42400 5.55900 28.35200
C  5.55900 6.50200 27.62600
C  5.46100 6.09900 26.28100
C  6.40400 4.97600 26.13200
C  4.90400 7.69500 28.27900
C  4.64000 6.75900 25.14100
O  4.77400 6.39100 23.98500
C  3.61700 7.82500 25.38000
N  7.94600 2.31900 25.80700
C  7.37800 3.03300 24.77700
C  7.56200 2.35900 23.42200
C  8.35500 1.09000 23.73500
C  8.65200 1.22700 25.20600
C  6.28800 2.04300 22.65200
C  9.67900 1.00600 22.96600
C  9.39500 0.89900 21.44300
N  9.20900 1.32400 28.12900
C  9.70700 0.34900 27.30800
C  10.71600 -0.40500 28.03300
C  10.61700 0.03100 29.35900
C  9.67700 1.08400 29.37600
C  11.52200 -1.51600 27.42800
C  11.10100 -0.22500 30.68600
O  11.92600 -0.96400 31.19900
C  10.41200 0.88300 31.53900
C  9.72700 0.10200 32.56200
O  8.97700 -0.82500 32.29800
O  9.99300 0.61100 33.82100
C  9.39000 -0.09500 34.94900
H  6.25600 6.34200 30.34500
H  6.39300 4.56400 23.97400
H  9.91900 -0.59000 25.42100
H  8.00000 2.63300 32.84300
H  8.27400 5.42500 32.09700
H  6.45000 5.51900 33.66900
H  5.92000 3.89700 33.33900
H  5.39800 5.10000 32.20100
H  10.35200 4.48500 32.43200
H  10.34900 2.98300 33.34800
H  8.55600 4.62700 34.71300
H  9.64600 5.79300 34.14400
H  4.93600 8.62900 27.71700
H  5.36200 7.89200 29.24900
H  3.86500 7.37800 28.37000
H  4.25700 8.70500 25.44800
H  3.05300 7.72300 26.30700
H  2.87000 7.80800 24.58600
H  8.26500 2.97100 22.85600
H  7.73600 0.19500 23.68100
H  6.17200 0.99300 22.38200
H  6.37900 2.72300 21.80500
H  5.46200 2.24600 23.33400
H  10.12000 0.07100 23.31000
H  10.35100 1.82200 23.23200
H  9.74100 1.76500 20.87900
H  8.34200 0.69100 21.25300
H  9.98800 0.13900 20.93400
H  12.53500 -1.51900 27.83100
H  11.52500 -1.58900 26.34000
H  11.11200 -2.47500 27.74500
H  11.18900 1.52000 31.96100
H  8.95000 0.70800 35.54000
H  10.09400 -0.68000 35.54200
H  8.44900 -0.62400 34.79300
Mg 9.09500 47.29900 27.71400
C  7.37900 46.83500 30.71500
C  11.92800 47.87000 29.58200
C  10.70000 48.07500 24.86000
C  6.02900 47.68200 26.05500
N  9.56300 47.43200 29.84500
C  8.69200 47.13400 30.87700
C  9.34500 47.43800 32.24600
C  10.73500 47.92300 31.88700
C  10.77200 47.75200 30.36900
C  10.99100 49.40600 32.42300
C  9.40800 46.18800 33.22100
C  9.18800 46.49300 34.70400
H  9.67700 45.39700 35.64600
N  11.08300 47.65800 27.29500
C  12.15000 47.78500 28.16100
C  13.34200 48.02100 27.39300
C  12.99700 47.95000 26.02100
C  11.50800 47.89400 25.99000
C  14.62200 48.26100 27.96800
C  13.83500 47.80200 24.77900
O  13.36300 47.80500 23.65200
C  15.30700 47.64900 24.94900
N  8.44500 47.86800 25.74300
C  9.34300 48.08300 24.75600
C  8.69900 48.53200 23.41500
C  7.15600 48.29300 23.76800
C  7.17300 47.87200 25.23400
C  8.95900 49.99900 23.11300
C  6.54200 47.28400 22.78600
C  6.63000 47.57000 21.26000
N  7.07600 47.18300 28.22500
C  5.95100 47.35200 27.44700
C  4.72200 47.09700 28.30900
C  5.23900 46.91000 29.59300
C  6.69900 46.90700 29.49800
C  3.30300 47.10600 27.89600
C  4.92500 46.63800 30.95900
O  3.81300 46.50200 31.42700
C  6.28600 46.63600 31.76200
C  6.34300 45.28800 32.33700
O  6.76300 44.24900 31.82000
O  5.97600 45.45200 33.66300
C  6.33300 44.25000 34.52600
H  12.78100 47.99100 30.25300
H  11.10600 48.27800 23.86700
H  5.07900 47.91200 25.56700
H  8.79700 48.27700 32.67300
H  11.56800 47.31300 32.23700
H  10.22300 50.08300 32.04900
H  11.96900 49.64900 32.00800
H  10.95900 49.39900 33.51300
H  10.40000 45.74500 33.30400
H  8.93500 45.32800 32.74600
H  8.16900 46.72100 35.01600
H  9.65800 47.46500 34.85300
H  15.20000 47.33700 27.93300
H  14.32200 48.54100 28.97800
H  15.03800 49.09400 27.40100
H  15.82500 48.58300 25.16900
H  15.71000 47.12300 24.08300
H  15.37100 46.92300 25.75900
H  8.96800 47.91600 22.55700
H  6.60200 49.23100 23.79800
H  9.61800 50.09400 22.25000
H  9.37200 50.50700 23.98400
H  8.06700 50.55500 22.82300
H  5.47800 47.26900 23.02200
H  7.03700 46.34700 23.04100
H  5.67700 47.57800 20.73300
H  7.30300 46.84400 20.80500
H  7.01100 48.59200 21.26100
H  2.62300 47.53700 28.63200
H  2.92200 46.08800 27.81900
H  3.10700 47.65100 26.97200
H  6.29000 47.43100 32.50900
H  6.36000 44.53800 35.57700
H  7.34800 43.93100 34.29200
H  5.67600 43.39900 34.34700

