158

Mg 45.25700 3.09100 47.94100
C  42.99800 5.67900 47.28800
C  42.71500 0.78300 47.48900
C  47.58000 0.54400 47.84700
C  47.87000 5.41200 47.69500
N  43.04200 3.24600 47.57800
C  42.40200 4.40800 47.25100
C  40.88700 4.13700 46.86900
C  40.83600 2.58900 46.93100
C  42.28500 2.17900 47.30600
C  39.69600 2.10600 47.92000
C  40.51600 4.63600 45.42000
C  39.31700 5.47900 45.31700
H  38.40100 5.42600 44.09600
N  45.09900 0.87600 47.86900
C  44.00400 0.16400 47.71600
C  44.33100 -1.29700 47.80800
C  45.72000 -1.36500 47.89700
C  46.23100 0.06800 47.91400
C  43.25500 -2.34600 47.66800
C  46.58700 -2.68600 48.04300
O  46.01700 -3.81100 47.92800
C  48.02700 -2.59700 48.15100
N  47.44900 3.01500 47.57600
C  48.12900 1.83900 47.75700
C  49.61200 2.13100 47.99300
C  49.73200 3.65800 47.83600
C  48.30800 4.08400 47.66400
C  50.07300 1.58700 49.36700
C  50.73800 4.15000 46.74700
C  51.94200 4.93500 47.19200
N  45.43300 5.11100 47.64400
C  46.54400 5.89400 47.63400
C  46.14900 7.31300 47.27500
C  44.75100 7.22100 47.27600
C  44.36800 5.89000 47.44600
C  47.10200 8.51800 47.14500
C  43.52500 8.01900 47.20200
O  43.35700 9.21900 47.19400
C  42.27100 7.00600 47.13600
C  41.27400 7.32100 48.15600
O  41.30500 7.08800 49.33700
O  40.23500 7.97100 47.54800
C  39.14200 8.37600 48.53100
H  41.96800 0.01000 47.29700
H  48.34800 -0.21500 48.01000
H  48.66600 6.15600 47.61900
H  40.26100 4.66700 47.58600
H  40.62400 2.04500 46.01000
H  40.11300 1.57000 48.77300
H  39.00500 1.49900 47.33500
H  39.27400 3.02200 48.33500
H  40.37200 3.75500 44.79400
H  41.37500 5.18100 45.02800
H  39.66400 6.50200 45.17000
H  38.93500 5.58200 46.33300
H  43.60400 -3.31700 48.01800
H  42.91800 -2.21600 46.64000
H  42.53600 -2.09000 48.44700
H  48.48100 -2.24600 47.22400
H  48.51800 -3.53800 48.40100
H  48.25800 -2.04800 49.06400
H  50.07900 1.53200 47.21100
H  50.15000 3.98300 48.79000
H  49.15700 1.32100 49.89300
H  50.67100 2.25100 49.99100
H  50.71400 0.73500 49.13600
H  50.26100 4.68000 45.92100
H  51.19900 3.23100 46.38600
H  51.70200 5.97900 46.98800
H  52.70400 4.64800 46.46800
H  52.27500 4.75300 48.21400
H  47.21800 8.62400 46.06600
H  48.01100 8.32700 47.71500
H  46.58200 9.36200 47.59800
H  41.86100 7.06200 46.12700
H  38.45800 9.06200 48.03100
H  39.43400 8.93100 49.42200
H  38.41700 7.59100 48.74400
Mg 35.93600 0.42800 29.49100
C  33.59100 1.55200 31.91400
C  38.27100 0.20600 32.10000
C  38.30000 -0.04700 27.13700
C  33.58200 1.18800 27.00200
N  35.86800 0.89400 31.72000
C  34.83100 1.30600 32.48600
C  35.28200 1.39600 33.94600
C  36.78100 1.00800 34.00400
C  36.99700 0.64900 32.55100
C  37.89500 1.93800 34.55400
C  34.33900 0.60300 34.92100
C  33.57000 1.36600 36.00600
H  34.31800 2.57200 36.58300
N  37.94900 -0.01100 29.60600
C  38.75800 -0.03100 30.76300
C  40.07800 -0.25200 30.37700
C  40.12200 -0.41200 28.92400
C  38.77800 -0.11300 28.51300
C  41.22800 -0.30000 31.36100
C  41.25000 -0.80200 28.04800
O  41.04400 -1.07400 26.83700
C  42.69400 -0.96900 28.61400
N  35.95900 0.53300 27.40400
C  37.03900 0.24700 26.65800
C  36.77700 0.33900 25.16800
C  35.24800 0.54500 25.12600
C  34.90500 0.80300 26.58600
C  37.39200 1.53300 24.42600
C  34.33300 -0.43400 24.26200
C  33.63400 -1.60200 25.00600
N  33.92400 1.00400 29.44300
C  33.15500 1.29900 28.35700
C  31.88600 1.65600 28.88000
C  31.96500 1.80400 30.22300
C  33.24900 1.44600 30.53200
C  30.60700 1.91700 27.99600
C  31.30100 2.12200 31.48200
O  30.08500 2.31900 31.61600
C  32.33800 1.99600 32.71700
C  32.53200 3.31900 33.38800
O  33.48400 4.01400 33.14100
O  31.43100 3.70400 34.05300
C  31.52000 5.12000 34.59000
H  38.89900 0.09400 32.98600
H  38.99500 -0.10100 26.29600
H  32.86500 1.20200 26.17800
H  35.16700 2.44000 34.23900
H  36.80500 0.11800 34.63300
H  38.59200 1.25300 35.03500
H  37.71200 2.58300 35.41300
H  38.39200 2.37900 33.69000
H  34.80200 -0.26300 35.39400
H  33.57700 0.14600 34.29000
H  33.55900 0.69500 36.86600
H  32.51900 1.59800 35.83400
H  40.79600 -0.57400 32.32400
H  41.90200 0.55600 31.40600
H  41.89000 -1.14500 31.17300
H  42.74600 -1.88600 29.20100
H  42.98200 0.00400 29.01200
H  43.37300 -1.03100 27.76400
H  37.11000 -0.52400 24.59100
H  34.93700 1.47600 24.65100
H  38.25400 1.19600 23.85100
H  37.74600 2.25200 25.16600
H  36.67100 1.95100 23.72300
H  34.86100 -0.72300 23.35300
H  33.46500 0.14500 23.94800
H  34.01300 -2.57300 24.68600
H  32.58700 -1.82900 24.80500
H  33.84100 -1.52400 26.07400
H  30.37000 0.99400 27.46600
H  30.92000 2.60700 27.21300
H  29.70000 2.07900 28.57800
H  31.89800 1.23500 33.36100
H  32.43700 5.35600 35.13000
H  30.76200 5.16900 35.37100
H  31.47300 5.72800 33.68600

