158

Mg 16.62600 -2.15100 27.83400
C  15.53700 -0.05600 30.52800
C  18.60600 -3.87500 29.89000
C  18.04100 -3.70500 25.10400
C  14.86200 -0.08200 25.65200
N  16.87200 -1.97700 30.01100
C  16.32500 -1.14400 30.87600
C  17.02700 -1.34500 32.30000
C  17.96500 -2.52000 32.03600
C  17.85400 -2.84200 30.52600
C  19.45900 -2.25500 32.58300
C  15.93900 -1.54900 33.36300
C  16.03300 -0.70500 34.64200
H  17.35400 0.07700 34.88500
N  18.02000 -3.70500 27.52000
C  18.73900 -4.26800 28.54000
C  19.49500 -5.42000 27.99900
C  19.29500 -5.38300 26.60000
C  18.37700 -4.19300 26.33600
C  20.27400 -6.35900 28.88000
C  19.96600 -6.31000 25.53300
O  19.80600 -6.09300 24.33300
C  21.02600 -7.38800 26.01500
N  16.73300 -1.70600 25.60200
C  17.28200 -2.60800 24.69700
C  16.96300 -2.14300 23.28800
C  15.70400 -1.23200 23.51400
C  15.74900 -1.00200 24.99600
C  18.11300 -1.20300 22.79100
C  14.40000 -1.91400 23.05200
C  13.93600 -1.45700 21.63800
N  15.37500 -0.51100 28.01100
C  14.77900 0.29400 26.99900
C  13.93400 1.31600 27.56500
C  14.25800 1.23200 28.94100
C  15.09300 0.08000 29.20000
C  13.07200 2.27100 26.81000
C  14.05300 1.87400 30.19900
O  13.38200 2.92100 30.39700
C  14.89600 1.11100 31.30000
C  15.72700 2.09300 32.05900
O  16.77900 2.49000 31.66800
O  15.10700 2.50500 33.23400
C  15.59400 3.78500 33.75000
H  19.23800 -4.43000 30.58700
H  18.23900 -4.43900 24.32000
H  14.18400 0.38700 24.93500
H  17.59600 -0.44100 32.51900
H  17.55100 -3.37900 32.56500
H  19.93700 -1.48400 31.97800
H  19.84100 -3.26900 32.70400
H  19.29900 -1.71000 33.51300
H  15.89400 -2.62100 33.55500
H  14.93900 -1.31700 32.99800
H  15.72500 -1.36900 35.45000
H  15.28100 0.07900 34.55200
H  21.32200 -6.07100 28.95300
H  20.14800 -7.37600 28.50700
H  19.80800 -6.37200 29.86500
H  21.42300 -7.79500 25.08500
H  20.44200 -8.12000 26.57400
H  21.71700 -6.83600 26.65100
H  16.78700 -3.02300 22.66900
H  15.91200 -0.25900 23.06800
H  19.07300 -1.33300 23.29300
H  17.97300 -0.15200 23.04300
H  18.42900 -1.16400 21.74900
H  13.59500 -1.64200 23.73500
H  14.45200 -2.99700 23.16900
H  14.47700 -0.53700 21.41700
H  12.84900 -1.38800 21.61600
H  14.17400 -2.22700 20.90300
H  13.40900 3.18100 27.30700
H  12.03000 2.07600 27.06200
H  13.21400 2.37600 25.73500
H  14.08100 0.90100 31.99300
H  15.91400 4.42800 32.93100
H  16.34700 3.54900 34.50200
H  14.71600 4.24400 34.20600
Mg 27.20900 50.24600 26.01200
C  25.28900 51.49800 28.74000
C  29.47300 49.04700 28.34600
C  29.28200 49.45200 23.55100
C  25.09600 51.82600 23.80700
N  27.39400 50.35400 28.27100
C  26.43400 50.81700 29.19000
C  26.74200 50.43000 30.64500
C  28.20100 49.85800 30.51600
C  28.36600 49.67000 28.97800
C  29.29100 50.90500 30.93700
C  25.72600 49.54200 31.38000
C  24.99800 50.26300 32.60500
H  25.89800 50.38700 33.91000
N  29.09300 49.35400 25.92000
C  29.82000 48.89300 26.96000
C  31.03800 48.24300 26.46300
C  31.03400 48.38000 25.03600
C  29.77300 49.01700 24.76300
C  32.13400 47.62200 27.36800
C  32.03500 47.85300 24.04400
O  31.97500 48.11200 22.88600
C  33.02800 46.80500 24.41900
N  27.24800 50.72400 23.97500
C  28.10800 50.22700 23.17500
C  27.71600 50.32700 21.70000
C  26.43700 51.14500 21.78100
C  26.23000 51.25100 23.26900
C  28.75600 50.98100 20.75300
C  25.37800 50.53300 20.87700
C  24.23800 49.72700 21.43800
N  25.51900 51.36200 26.20800
C  24.69900 51.86200 25.17800
C  23.50000 52.44600 25.72800
C  23.68900 52.41700 27.10700
C  24.90700 51.71100 27.34900
C  22.46300 53.16100 24.97300
C  23.21000 52.78400 28.46300
O  22.20300 53.41900 28.76700
C  24.14200 52.27100 29.57100
C  24.78300 53.39400 30.22100
O  25.74400 53.97400 29.79200
O  24.17500 53.54400 31.47200
C  24.57000 54.85000 32.20000
H  30.05600 48.57500 29.13900
H  29.81700 49.12000 22.65800
H  24.35500 52.28800 23.15200
H  26.70800 51.37300 31.19000
H  28.24700 48.86400 30.96100
H  28.78000 51.86000 31.05600
H  30.01000 51.17400 30.16200
H  29.68100 50.57500 31.90000
H  26.26300 48.65100 31.70600
H  24.97600 49.24700 30.64600
H  24.11200 49.69400 32.88300
H  24.73200 51.25800 32.24900
H  32.25600 46.57400 27.09600
H  31.84900 47.65000 28.42000
H  33.02000 48.25700 27.34900
H  33.61600 47.14800 25.27000
H  33.77900 46.81300 23.63000
H  32.53900 45.84800 24.60500
H  27.61700 49.25600 21.52200
H  26.57200 52.19100 21.50600
H  28.25900 51.75400 20.16700
H  29.16700 50.22800 20.08000
H  29.55400 51.45900 21.32200
H  25.95100 49.95400 20.15300
H  24.89200 51.26100 20.22900
H  24.04500 49.83100 22.50600
H  24.42300 48.69200 21.15100
H  23.35200 50.07500 20.90700
H  21.45200 52.97400 25.33500
H  22.36700 52.74300 23.97000
H  22.69300 54.22300 25.04800
H  23.59800 51.57900 30.21400
H  24.61300 55.61500 31.42500
H  25.60400 54.84600 32.54700
H  24.04200 55.05600 33.13100

