158

Mg 54.20000 24.75700 45.18700
C  51.86600 27.18100 44.21100
C  52.17000 22.40600 43.74900
C  56.76500 22.55400 45.15000
C  56.28600 27.27500 46.31800
N  52.27400 24.82800 44.00600
C  51.47800 25.87200 43.80400
C  50.27200 25.56500 42.94400
C  50.17900 23.99900 43.17100
C  51.63400 23.68600 43.66300
C  49.04000 23.67100 44.20900
C  50.49900 26.18300 41.55200
C  50.79800 25.26800 40.34400
H  52.10200 25.43800 39.55500
N  54.40700 22.68600 44.60600
C  53.44400 21.87900 44.02500
C  53.90800 20.49800 44.00200
C  55.28800 20.59000 44.28100
C  55.56200 21.97900 44.77100
C  53.02300 19.32300 43.61100
C  56.25800 19.37200 44.12700
O  55.89300 18.22600 43.84200
C  57.77900 19.43200 44.25200
N  56.30300 24.89700 45.56200
C  57.15300 23.91000 45.39700
C  58.61500 24.28000 45.96500
C  58.33700 25.75400 46.51000
C  56.89400 26.01800 46.06400
C  59.18200 23.40000 47.15800
C  59.32500 26.84300 45.99100
C  59.84500 27.75600 47.11400
N  54.11500 26.82100 45.32500
C  54.94800 27.67800 46.01500
C  54.30800 28.91000 46.15800
C  53.14700 28.86100 45.39000
C  53.02100 27.51700 44.91900
C  54.96500 30.16800 46.76900
C  51.94600 29.52300 44.87400
O  51.64500 30.72200 44.87700
C  51.06400 28.43700 44.20400
C  50.69500 28.98200 42.85800
O  51.42300 29.59300 42.09800
O  49.29900 28.80900 42.72000
C  48.49700 29.42700 41.62200
H  51.50700 21.58900 43.45600
H  57.67500 21.95100 45.15700
H  57.00700 28.00400 46.69200
H  49.51600 26.10500 43.51400
H  49.84900 23.43700 42.29700
H  48.47500 24.49700 44.64100
H  49.45700 23.20100 45.10000
H  48.35700 22.98800 43.70400
H  51.37500 26.83000 41.59700
H  49.68300 26.83500 41.24200
H  49.98200 25.40700 39.63600
H  50.70400 24.21500 40.60700
H  52.59200 19.73700 42.70000
H  52.27100 19.24300 44.39600
H  53.52800 18.37100 43.44700
H  58.24100 18.46100 44.07400
H  58.04200 19.72300 45.26900
H  58.07400 20.16700 43.50300
H  59.33000 24.27700 45.14200
H  58.27200 25.75300 47.59800
H  58.53800 22.54100 47.34500
H  59.40600 23.95800 48.06700
H  60.12500 22.92100 46.89500
H  58.96200 27.56100 45.25500
H  60.23500 26.37900 45.61100
H  60.92200 27.69600 47.27000
H  59.42500 27.42500 48.06400
H  59.63600 28.77600 46.79100
H  54.13400 30.82300 47.03200
H  55.75800 30.65900 46.20400
H  55.43900 29.88800 47.70900
H  50.20800 28.41200 44.87900
H  48.18000 28.70100 40.87300
H  49.09600 30.23600 41.20500
H  47.63200 29.88000 42.10600
Mg 42.98600 42.21000 25.75900
C  41.80000 44.58300 27.98900
C  43.98300 40.18800 28.30000
C  43.66300 39.87500 23.38400
C  41.94200 44.43400 23.10800
N  43.05100 42.49300 27.85400
C  42.46200 43.44000 28.62100
C  42.64700 43.17800 30.09600
C  43.68500 42.00600 30.08800
C  43.56700 41.50400 28.63700
C  45.07400 42.40400 30.47700
C  41.33700 42.82900 30.88000
C  41.10900 43.46200 32.26900
H  42.24400 43.50300 33.29200
N  43.87300 40.33800 25.81300
C  44.17500 39.63500 26.95100
C  44.63600 38.29500 26.61000
C  44.48900 38.16800 25.20600
C  43.97800 39.47700 24.71700
C  45.23200 37.34300 27.64800
C  44.67500 36.93300 24.33400
O  44.56400 37.03300 23.09700
C  44.99700 35.62000 24.92700
N  42.97300 42.15100 23.46200
C  43.15300 41.04200 22.78100
C  42.96600 41.27000 21.23100
C  42.15500 42.65500 21.23700
C  42.42700 43.14100 22.68200
C  44.24300 41.31900 20.47800
C  40.62900 42.49000 20.90500
C  39.94400 41.47700 21.82500
N  42.25400 44.26900 25.51000
C  41.90400 45.04000 24.40800
C  41.27000 46.31900 24.87500
C  41.29800 46.18900 26.27800
C  41.81100 44.88100 26.59300
C  40.82100 47.48800 24.05800
C  40.93200 46.83300 27.52500
O  40.38200 47.87600 27.68800
C  41.11500 45.78900 28.69100
C  41.85400 46.37000 29.74500
O  43.12000 46.44200 29.78000
O  40.99200 46.77700 30.79800
C  41.71900 47.14500 32.09500
H  44.24400 39.63100 29.20200
H  43.90200 39.13200 22.62000
H  41.58400 45.07900 22.30300
H  43.04400 44.07700 30.56800
H  43.43800 41.23000 30.81300
H  45.77300 42.31900 29.64400
H  45.35900 41.70800 31.26600
H  45.25100 43.41900 30.83300
H  41.19900 41.76300 31.06100
H  40.60400 43.09700 30.11800
H  40.20500 43.06200 32.72800
H  40.74500 44.47000 32.07300
H  45.47300 37.81100 28.60300
H  46.18800 36.93200 27.32500
H  44.54600 36.50900 27.79600
H  44.27400 35.38100 25.70600
H  45.90500 35.67700 25.52900
H  44.99200 34.83800 24.16800
H  42.29200 40.47500 20.91300
H  42.51500 43.22200 20.37800
H  45.06300 41.24400 21.19100
H  44.26500 42.19900 19.83500
H  44.18400 40.44800 19.82500
H  40.55300 42.16200 19.86900
H  40.13000 43.45900 20.90600
H  39.62800 40.66000 21.17600
H  39.07200 41.92000 22.30500
H  40.65100 40.99700 22.50100
H  41.55700 48.25100 24.31200
H  39.85800 47.83200 24.43500
H  40.78400 47.33400 22.97900
H  40.17400 45.52000 29.17100
H  41.47700 48.17500 32.35900
H  42.80500 47.06100 32.10600
H  41.47800 46.44900 32.89800

