158

Mg 43.83300 3.73600 47.59000
C  41.52700 6.33800 47.38100
C  41.10400 1.48000 47.44000
C  46.00900 1.34300 47.02000
C  46.42600 6.19700 47.03000
N  41.57700 3.85700 47.24200
C  40.88200 5.04900 47.40800
C  39.33900 4.79200 47.70700
C  39.32500 3.24100 47.85300
C  40.74400 2.82200 47.55900
C  38.86000 2.76200 49.22500
C  38.39200 5.36800 46.56200
C  38.84100 5.01500 45.10500
H  39.17500 6.14300 44.19900
N  43.58400 1.67600 47.30800
C  42.40400 0.93500 47.35600
C  42.74900 -0.37300 47.00400
C  44.16500 -0.52100 47.08100
C  44.62500 0.86700 47.13300
C  41.68800 -1.40600 46.57200
C  44.96300 -1.80800 46.88400
O  44.36400 -2.84100 46.66600
C  46.47700 -1.86500 46.99400
N  45.92200 3.74200 47.06200
C  46.57700 2.61100 47.07400
C  48.09500 2.82100 47.00100
C  48.22400 4.39900 47.07400
C  46.77100 4.82000 46.96100
C  49.01900 2.01300 48.01400
C  49.18800 5.09900 46.07200
C  50.44700 5.65600 46.71300
N  44.05800 5.91000 47.37600
C  45.14900 6.71900 47.21000
C  44.64700 8.08400 47.30000
C  43.26000 8.03200 47.32900
C  42.97300 6.62200 47.31400
C  45.52300 9.31700 47.47400
C  41.96900 8.72300 47.35800
O  41.76200 9.93800 47.38800
C  40.83600 7.68300 47.42200
C  39.93800 7.93000 48.63300
O  40.12800 7.46200 49.71000
O  38.82800 8.68000 48.32600
C  37.88600 8.91300 49.40300
H  40.26900 0.79300 47.58900
H  46.75100 0.55100 46.89500
H  47.23400 6.93100 46.99500
H  39.06300 5.31200 48.62400
H  38.74100 2.79500 47.04700
H  39.66800 2.47800 49.90000
H  38.16000 1.94700 49.03800
H  38.30500 3.52700 49.76700
H  38.32300 6.45500 46.61300
H  37.41200 4.93700 46.76500
H  38.03300 4.44800 44.64500
H  39.73200 4.39000 45.04800
H  42.01400 -1.80900 45.61300
H  40.74700 -0.86200 46.49500
H  41.73700 -2.14000 47.37700
H  46.66900 -1.39600 47.96000
H  46.89500 -1.44300 46.08000
H  46.68300 -2.92700 46.86300
H  48.41800 2.58200 45.98700
H  48.53000 4.69900 48.07600
H  49.53100 1.22200 47.46500
H  48.37300 1.59600 48.78700
H  49.69100 2.77100 48.41600
H  48.69800 5.83700 45.43700
H  49.56700 4.29000 45.44800
H  51.31100 5.28900 46.16000
H  50.54100 5.37800 47.76300
H  50.39500 6.73500 46.57200
H  45.26000 9.96600 46.64000
H  46.55400 9.01400 47.28700
H  45.35100 9.79900 48.43700
H  40.21900 7.89700 46.54900
H  38.46900 9.35400 50.21100
H  37.52600 7.97900 49.83500
H  37.00500 9.45400 49.05800
Mg 48.28100 44.83100 43.49000
C  44.82600 45.30200 42.36000
C  48.10600 41.69900 41.90300
C  51.64800 44.66800 43.60000
C  48.28700 48.24800 44.36400
N  46.54900 43.63000 42.19600
C  45.25700 44.02400 41.94300
C  44.60200 42.89400 41.13600
C  45.53300 41.65300 41.45200
C  46.80200 42.32500 41.94700
C  45.00500 40.46400 42.37900
C  44.31900 43.31300 39.63500
C  43.58400 42.34300 38.74400
H  44.28700 41.66300 37.57600
N  49.76800 43.35700 42.89600
C  49.44600 42.17700 42.22600
C  50.67200 41.46800 42.08200
C  51.70800 42.27000 42.56700
C  51.07700 43.47000 43.04500
C  50.70100 39.96400 41.44400
C  53.19300 41.97400 42.63100
O  53.57500 40.98200 42.14000
C  54.13500 42.89900 43.17800
N  49.80400 46.32600 43.81300
C  51.10800 45.97000 43.91400
C  51.93400 47.16000 44.41600
C  50.84900 48.24100 44.90300
C  49.53300 47.61900 44.25200
C  52.91300 46.79400 45.53800
C  51.19600 49.65100 44.50700
C  51.48200 50.71900 45.54500
N  46.85000 46.41000 43.49400
C  46.99400 47.67300 43.97800
C  45.73000 48.45900 43.82500
C  44.85300 47.57400 43.22600
C  45.59500 46.33200 43.02200
C  45.47700 49.91500 44.32400
C  43.49900 47.34700 42.74400
O  42.47900 48.07800 42.69700
C  43.44300 45.90300 42.06500
C  42.17900 45.13300 42.43200
O  41.20200 44.91100 41.70100
O  42.24900 44.93400 43.78600
C  41.06300 44.48200 44.51100
H  48.06900 40.63600 41.65400
H  52.72300 44.62600 43.78500
H  48.28400 49.27000 44.74800
H  43.66000 42.62600 41.61500
H  45.87000 41.28200 40.48400
H  43.95400 40.52000 42.66400
H  45.66600 40.38700 43.24200
H  45.25700 39.49700 41.94300
H  45.29500 43.58500 39.23600
H  43.76600 44.25100 39.68100
H  42.70600 42.80900 38.29500
H  43.12000 41.60300 39.39500
H  49.86400 39.65400 40.81900
H  50.91600 39.19200 42.18300
H  51.51900 39.75900 40.75300
H  55.13600 42.48100 43.06400
H  53.89300 42.95900 44.23900
H  54.19200 43.83000 42.61400
H  52.42800 47.59700 43.54800
H  50.68100 48.09600 45.97000
H  53.90500 46.48400 45.20900
H  52.51100 45.95600 46.10700
H  53.10300 47.56500 46.28500
H  50.35300 50.01000 43.91500
H  52.12300 49.64200 43.93400
H  51.45400 50.27500 46.54000
H  50.67900 51.45200 45.46900
H  52.44500 51.14600 45.26200
H  46.21500 50.27400 45.04200
H  44.47300 49.84600 44.74300
H  45.30800 50.57900 43.47600
H  43.30300 46.21200 41.03000
H  40.37100 45.28400 44.76800
H  41.36300 43.91600 45.39300
H  40.48700 43.77700 43.91200

