158

Mg 47.88200 34.78700 26.63900
C  45.70600 33.25000 29.04000
C  48.19300 37.59800 28.75000
C  49.71100 36.30600 24.32500
C  47.21300 32.19300 24.51400
N  46.93500 35.28800 28.63800
C  46.26200 34.46600 29.47400
C  46.42200 34.99400 30.95000
C  46.86400 36.55400 30.64500
C  47.40500 36.53900 29.22800
C  45.62700 37.53100 30.89700
C  47.52400 34.32100 31.84700
C  47.30000 34.45900 33.43000
H  46.11500 35.26900 33.92400
N  48.79900 36.70200 26.56500
C  48.77900 37.69800 27.46700
C  49.40000 38.89100 26.97300
C  49.80700 38.52600 25.65200
C  49.43600 37.12000 25.45000
C  49.40700 40.22200 27.79100
C  50.42500 39.43900 24.58200
O  50.65800 39.14100 23.43200
C  50.86500 40.78000 25.03700
N  48.21800 34.42700 24.61300
C  49.14200 35.10400 23.95200
C  49.63200 34.32600 22.72400
C  48.80200 33.04400 22.65900
C  48.03800 33.19800 24.02800
C  49.56900 35.09300 21.42900
C  49.66500 31.67100 22.57800
C  49.64300 31.03100 21.16900
N  46.65300 33.14300 26.66400
C  46.57300 32.11500 25.75000
C  45.64600 31.06800 26.24900
C  45.27800 31.49200 27.46400
C  45.93100 32.74000 27.73200
C  45.18100 29.94700 25.46200
C  44.45400 31.18300 28.63100
O  43.77300 30.19800 28.81400
C  44.71400 32.22300 29.70000
C  45.09700 31.66100 30.95300
O  46.08900 31.04100 31.13600
O  44.13400 31.90800 31.92000
C  44.40000 31.32400 33.25800
H  48.14800 38.40900 29.48000
H  50.43100 36.65700 23.58200
H  46.99500 31.37400 23.82500
H  45.52700 34.94100 31.56900
H  47.68200 36.79000 31.32600
H  44.73100 36.97000 31.16200
H  45.45300 38.09100 29.97800
H  45.87700 38.13500 31.76900
H  48.52600 34.57400 31.50000
H  47.45100 33.24700 31.67500
H  48.20300 34.91700 33.83500
H  47.32300 33.41800 33.75100
H  48.91200 40.96500 27.16600
H  50.44600 40.51500 27.94200
H  48.75900 40.15200 28.66400
H  50.00800 41.43600 25.18400
H  51.64500 41.10100 24.34700
H  51.36100 40.73500 26.00700
H  50.68800 34.13700 22.91900
H  48.00400 33.10700 21.91900
H  49.01300 34.57800 20.64500
H  50.54300 35.38400 21.03600
H  49.06000 36.02900 21.65700
H  49.07200 31.03500 23.23500
H  50.69700 31.65000 22.92900
H  49.26300 31.68300 20.38300
H  49.06200 30.10900 21.19400
H  50.65500 30.88600 20.79000
H  45.90000 29.12700 25.48600
H  44.99200 30.33000 24.45900
H  44.20800 29.62000 25.83000
H  43.67400 32.54500 29.65700
H  43.64500 30.56600 33.46800
H  44.15600 32.00200 34.07500
H  45.45900 31.13700 33.43300
Mg -9.84000 17.47600 40.77100
C  -6.39200 17.04800 41.02200
C  -9.30200 20.96600 40.38700
C  -13.01100 17.67700 39.89600
C  -10.15900 13.84800 40.74200
N  -8.10300 18.82300 40.62900
C  -6.75800 18.42900 40.75600
C  -5.79400 19.61200 40.64400
C  -6.80800 20.75100 41.01000
C  -8.18500 20.19200 40.64400
C  -6.74600 21.33700 42.37900
C  -5.12200 19.86400 39.19000
C  -3.67200 19.44600 39.10800
H  -3.04600 18.42300 38.17800
N  -10.98900 19.08900 40.10800
C  -10.58300 20.43100 40.00700
C  -11.77700 21.18200 39.69600
C  -12.83600 20.30800 39.66800
C  -12.30200 18.95800 39.94300
C  -11.59100 22.63800 39.26400
C  -14.23400 20.73600 39.45900
O  -14.58200 21.91800 39.19900
C  -15.35100 19.67500 39.54700
N  -11.35100 15.90900 40.50400
C  -12.60700 16.33700 40.15300
C  -13.60200 15.14900 40.25500
C  -12.66800 13.88400 40.18100
C  -11.30900 14.55900 40.54200
C  -14.63600 15.29100 41.37200
C  -12.72800 13.18500 38.79100
C  -12.46600 11.62100 38.82200
N  -8.61400 15.79500 40.84300
C  -8.84100 14.41800 40.93200
C  -7.63400 13.68000 41.03300
C  -6.64900 14.68700 41.10900
C  -7.27700 15.97300 40.93900
C  -7.44200 12.19900 40.95300
C  -5.19800 14.89400 41.30200
O  -4.32100 14.09800 41.54200
C  -4.99600 16.47200 41.25000
C  -4.42900 17.02700 42.46800
O  -3.24100 17.37300 42.52900
O  -5.36600 17.12100 43.46200
C  -4.98800 18.11100 44.54300
H  -9.09500 22.03800 40.34600
H  -14.03200 17.54800 39.53000
H  -10.19000 12.75800 40.70100
H  -5.09800 19.52300 41.47700
H  -6.61900 21.64400 40.41500
H  -7.70500 21.48900 42.87600
H  -6.18900 22.27200 42.31100
H  -6.16700 20.73300 43.07700
H  -5.40100 20.86800 38.87100
H  -5.79600 19.32400 38.52500
H  -3.40800 19.17500 40.13100
H  -3.14000 20.37400 38.90100
H  -12.21700 22.78300 38.38400
H  -10.51500 22.57900 39.10100
H  -11.72700 23.51900 39.89200
H  -15.33500 18.90800 38.77300
H  -16.15700 20.39300 39.39000
H  -15.30400 19.27100 40.55800
H  -14.07900 15.21300 39.27700
H  -12.90200 13.20700 41.00200
H  -14.34700 14.54600 42.11400
H  -15.57900 14.91700 40.97300
H  -14.75600 16.33300 41.66700
H  -12.02300 13.70900 38.14500
H  -13.72100 13.13900 38.34400
H  -11.68200 11.51400 38.07200
H  -13.31300 11.01200 38.50600
H  -12.15100 11.37600 39.83600
H  -8.11400 11.73100 41.67200
H  -6.40500 11.91900 41.14000
H  -7.60200 11.86700 39.92700
H  -4.48000 16.59700 40.29800
H  -5.71200 18.92600 44.55600
H  -4.03500 18.63000 44.44800
H  -5.13000 17.67000 45.53000

