158

Mg 48.94300 44.43100 42.81400
C  45.46000 44.37700 42.22900
C  49.16600 41.12500 42.43600
C  52.26900 44.77400 42.56900
C  48.73100 47.98900 42.78500
N  47.44500 42.94600 42.20900
C  46.08600 43.06900 42.09300
C  45.49300 41.65300 42.15400
C  46.68100 40.67900 42.38100
C  47.87500 41.66500 42.38300
C  46.60800 39.83500 43.72900
C  44.44200 41.20800 41.03100
C  44.51300 42.00000 39.67700
H  44.65200 41.13900 38.42100
N  50.50700 43.09800 42.60300
C  50.33700 41.76400 42.43200
C  51.66200 41.12300 42.29300
C  52.64400 42.16300 42.33100
C  51.80000 43.44000 42.45700
C  51.84100 39.63700 42.10700
C  54.16800 42.02300 42.12700
O  54.64100 40.88800 42.14000
C  55.15200 43.30700 41.84700
N  50.35800 46.13400 42.57200
C  51.66900 46.00500 42.60000
C  52.38600 47.43100 42.65500
C  51.27300 48.42200 42.93300
C  50.05800 47.46600 42.69100
C  53.59700 47.44100 43.60700
C  51.29400 49.64100 41.90000
C  51.03900 51.03500 42.51900
N  47.45200 45.93200 42.54600
C  47.48800 47.27800 42.67700
C  46.16500 47.86800 42.61900
C  45.31200 46.76200 42.46900
C  46.16200 45.62200 42.41300
C  45.85500 49.32500 42.43800
C  43.91100 46.34100 42.36600
O  42.81900 46.96900 42.39000
C  43.99000 44.84100 42.21000
C  43.06400 44.20100 43.21900
O  41.91100 43.76500 43.04700
O  43.58800 44.11700 44.48700
C  42.74300 43.49400 45.49900
H  49.34500 40.04700 42.42500
H  53.35500 44.78900 42.68400
H  48.72700 49.08100 42.78300
H  44.82400 41.74300 43.01000
H  46.76700 39.93500 41.58900
H  45.73300 40.14600 44.29900
H  47.46200 40.10200 44.35100
H  46.56300 38.74700 43.68100
H  43.44100 41.39900 41.41900
H  44.53100 40.12500 40.94900
H  45.36700 42.67900 39.68000
H  43.60000 42.59300 39.62800
H  51.61600 39.39200 41.06900
H  51.13100 39.17100 42.79000
H  52.82900 39.20400 42.26500
H  54.61900 43.94000 41.13700
H  56.01400 42.83500 41.37600
H  55.42100 43.82300 42.76900
H  52.82200 47.69600 41.69200
H  51.18100 48.78500 43.95600
H  53.64100 48.34300 44.21800
H  54.43600 47.62900 42.93600
H  53.76000 46.51600 44.15900
H  50.57900 49.38100 41.11900
H  52.23100 49.76500 41.35800
H  51.04100 50.99900 43.60900
H  50.13700 51.52700 42.15400
H  51.90200 51.60900 42.18200
H  46.04000 49.70500 43.44300
H  44.79700 49.39600 42.18300
H  46.56300 49.75100 41.72800
H  43.40300 44.55000 41.33800
H  42.56500 42.47900 45.14400
H  41.77700 43.95600 45.70100
H  43.21500 43.65400 46.46800
Mg -0.60100 44.62300 26.36900
C  1.67900 43.43500 28.86800
C  -3.14500 43.95500 28.51600
C  -2.70700 45.05700 23.80500
C  2.15800 44.47600 24.06600
N  -0.67500 43.74500 28.48200
C  0.36300 43.42300 29.32700
C  -0.11400 43.21000 30.76600
C  -1.69000 43.16300 30.54500
C  -1.87600 43.72200 29.08300
C  -2.42100 41.87000 30.80900
C  0.32600 44.48000 31.68600
C  0.67200 44.15500 33.19400
H  0.44700 42.76200 33.78100
N  -2.63600 44.60400 26.25100
C  -3.52600 44.38500 27.23600
C  -4.86800 44.61900 26.73700
C  -4.70900 45.10500 25.42600
C  -3.24300 44.94800 25.08700
C  -6.05600 44.46900 27.62300
C  -5.76700 45.61900 24.38200
O  -5.48300 45.99500 23.25800
C  -7.26000 45.55600 24.63300
N  -0.30800 44.72300 24.17300
C  -1.35800 45.00100 23.32300
C  -0.87300 45.08700 21.90000
C  0.66300 45.18100 22.06600
C  0.90200 44.83200 23.50000
C  -1.38900 43.97700 21.03700
C  1.27500 46.55200 21.64600
C  1.35300 47.66800 22.69500
N  1.51600 44.17300 26.40800
C  2.49800 44.14500 25.42000
C  3.78400 43.88400 26.05400
C  3.50600 43.56800 27.37600
C  2.13400 43.72600 27.53500
C  5.18100 43.71900 25.41100
C  4.15600 43.08900 28.60400
O  5.24700 42.61100 28.81300
C  2.91200 43.11400 29.62500
C  3.01000 41.89500 30.45600
O  2.54100 40.79600 30.13200
O  3.77000 42.22400 31.54900
C  4.05300 41.15700 32.50200
H  -3.98700 43.81100 29.19700
H  -3.35000 45.27200 22.94900
H  2.94300 44.64000 23.32400
H  0.10900 42.17200 31.01600
H  -2.13800 43.82500 31.28600
H  -1.76700 41.29600 31.46500
H  -2.70800 41.34200 29.89900
H  -3.32600 42.05200 31.38900
H  -0.35000 45.33500 31.68500
H  1.21400 44.87800 31.19500
H  0.06500 44.81900 33.81000
H  1.74400 44.23800 33.37000
H  -6.05100 43.44900 28.00800
H  -6.97500 44.63800 27.06100
H  -6.11000 45.22700 28.40400
H  -7.58600 45.89500 25.61700
H  -7.50300 44.49400 24.59200
H  -7.83400 46.22100 23.98700
H  -1.24500 46.06500 21.59700
H  1.15900 44.47100 21.40400
H  -1.84900 43.16200 21.59500
H  -0.61000 43.59500 20.37700
H  -2.24700 44.43000 20.54200
H  0.64900 46.92400 20.83500
H  2.25300 46.35300 21.20800
H  2.36800 47.92500 23.00000
H  0.61200 47.42600 23.45700
H  1.14700 48.62100 22.20700
H  5.50100 44.72700 25.14700
H  5.09900 43.29500 24.41000
H  5.68900 43.09800 26.14800
H  3.24100 44.00300 30.16200
H  4.12200 41.49700 33.53600
H  5.09200 40.85100 32.38600
H  3.31900 40.36100 32.38200

