158

Mg 8.77600 48.75400 26.23900
C  6.48800 48.32500 28.74000
C  11.04600 50.12000 28.53900
C  10.78800 49.46500 23.64600
C  6.12800 48.14900 23.92200
N  8.72300 49.14400 28.36500
C  7.76200 48.72400 29.17700
C  8.22000 49.04400 30.66200
C  9.49100 49.90400 30.60000
C  9.74100 49.82700 29.07500
C  9.39900 51.38400 31.01900
C  8.40600 47.75300 31.49100
C  9.18800 47.78800 32.83600
H  8.66600 47.08300 34.03800
N  10.72000 49.36800 26.21500
C  11.47000 49.95400 27.21600
C  12.70600 50.24400 26.68000
C  12.77700 49.91200 25.25200
C  11.34600 49.56000 25.01300
C  13.82400 50.87200 27.48200
C  14.00800 49.93500 24.23200
O  13.81800 49.52400 23.10600
C  15.34000 50.40300 24.57000
N  8.45500 48.97100 24.07400
C  9.53400 49.10900 23.23100
C  9.12700 48.79700 21.76900
C  7.72600 48.12900 21.95600
C  7.37600 48.46300 23.42100
C  9.17900 49.99800 20.78200
C  7.87400 46.54900 21.95000
C  8.20400 45.99000 20.52500
N  6.72700 48.29900 26.27500
C  5.73700 48.23300 25.30300
C  4.44900 47.95700 25.89500
C  4.71700 47.95900 27.27000
C  6.06400 48.21900 27.42800
C  3.28300 47.65900 25.08900
C  4.13900 47.76900 28.58400
O  3.04900 47.42000 28.92800
C  5.37000 47.85100 29.63100
C  5.49000 46.46000 29.99200
O  6.10300 45.64700 29.36600
O  4.76700 46.17800 31.16500
C  4.91400 44.82500 31.80300
H  11.79100 50.42400 29.27700
H  11.56600 49.76200 22.93900
H  5.42000 47.88500 23.13400
H  7.55800 49.62600 31.30400
H  10.32400 49.43700 31.12700
H  9.50600 52.08100 30.18800
H  10.18500 51.69600 31.70800
H  8.44000 51.51100 31.52100
H  8.83100 47.03300 30.79100
H  7.43200 47.27700 31.60100
H  9.23100 48.82900 33.15800
H  10.19500 47.51100 32.52500
H  14.80100 50.70600 27.02800
H  13.89700 50.59400 28.53300
H  13.63800 51.94600 27.48800
H  15.94100 49.77800 25.23200
H  15.28500 51.41500 24.97100
H  15.90700 50.34900 23.64100
H  9.93300 48.19100 21.35500
H  7.12800 48.56700 21.15700
H  9.49800 50.94700 21.21200
H  8.20600 50.20600 20.33800
H  9.91300 49.82100 19.99600
H  6.85300 46.23600 22.17100
H  8.59000 46.26900 22.72200
H  7.99800 46.77100 19.79300
H  7.62700 45.15600 20.12500
H  9.25100 45.77200 20.31600
H  3.05200 46.76300 24.51300
H  3.28900 48.44700 24.33500
H  2.44000 47.88600 25.74000
H  5.11900 48.56400 30.41600
H  4.02500 44.20400 31.69000
H  5.06100 44.92000 32.87900
H  5.71900 44.23800 31.36100
Mg -11.53300 16.40700 42.40500
C  -8.14400 16.57400 41.63200
C  -11.90200 19.68000 41.50700
C  -14.90900 15.88900 42.67400
C  -10.99100 12.84500 43.10800
N  -10.17000 17.91000 41.36700
C  -8.83600 17.78500 41.41200
C  -8.21300 19.26100 41.21300
C  -9.35700 20.19600 41.56300
C  -10.58200 19.18800 41.60600
C  -9.05800 21.20600 42.81000
C  -7.62100 19.50500 39.74700
C  -6.08500 19.84600 39.61300
H  -5.27400 19.00800 38.54100
N  -13.18500 17.59900 42.09000
C  -13.13500 18.90300 41.76900
C  -14.45900 19.42200 41.70700
C  -15.37900 18.33700 41.96200
C  -14.51900 17.21600 42.27200
C  -14.77600 20.88900 41.33900
C  -16.85200 18.42900 42.02000
O  -17.30800 19.50700 41.67100
C  -17.76600 17.33800 42.41600
N  -12.79500 14.63500 42.90800
C  -14.13900 14.72000 43.03300
C  -14.74300 13.40500 43.49300
C  -13.48900 12.46200 43.53600
C  -12.36800 13.35700 43.11900
C  -15.29300 13.52000 44.96700
C  -13.59600 11.17200 42.64000
C  -13.66600 11.37800 41.16400
N  -9.94800 14.93200 42.31400
C  -9.89600 13.62100 42.70400
C  -8.47800 13.22100 42.72500
C  -7.78300 14.32900 42.26300
C  -8.72900 15.35100 42.01900
C  -7.84200 11.83900 42.98200
C  -6.47300 14.82000 41.92900
O  -5.42300 14.22100 41.87900
C  -6.68100 16.27800 41.50300
C  -5.81300 17.08600 42.33600
O  -6.02000 17.40900 43.45100
O  -4.78200 17.53600 41.61600
C  -3.86400 18.48500 42.42400
H  -12.01600 20.76500 41.55400
H  -15.99100 15.74100 42.70000
H  -10.81100 11.78800 43.31300
H  -7.43000 19.37100 41.96300
H  -9.60500 20.90000 40.76800
H  -8.00800 21.09800 43.08100
H  -9.59400 20.74500 43.64000
H  -9.47100 22.19700 42.62500
H  -8.25700 20.16100 39.15200
H  -7.75800 18.59800 39.15900
H  -5.51300 19.76500 40.53800
H  -6.10000 20.92100 39.43200
H  -15.11500 21.39400 42.24400
H  -15.49100 20.71000 40.53600
H  -13.92700 21.38400 40.87000
H  -18.74800 17.76800 42.61600
H  -17.36300 17.02400 43.37900
H  -17.79100 16.57900 41.63400
H  -15.50500 13.13500 42.76100
H  -13.24300 12.10900 44.53700
H  -15.19800 12.57200 45.49600
H  -16.30400 13.90500 44.83800
H  -14.75300 14.33000 45.45800
H  -14.45700 10.57900 42.94800
H  -12.67900 10.65300 42.92100
H  -12.84200 10.96500 40.58300
H  -13.74900 12.43900 40.92700
H  -14.63200 10.98900 40.84500
H  -6.80000 11.96600 43.27400
H  -7.87900 11.39100 41.98900
H  -8.46300 11.29400 43.69200
H  -6.43000 16.33000 40.44400
H  -4.36000 19.23400 43.04100
H  -3.30500 19.04800 41.67800
H  -3.20100 17.98100 43.12800

