158

Mg 49.47600 35.64500 27.40800
C  47.58400 34.02400 29.90000
C  49.88700 38.27400 29.52300
C  50.88100 37.35100 24.84100
C  48.47400 33.10500 25.23300
N  48.81000 36.03300 29.48200
C  48.21600 35.21700 30.36700
C  48.26400 35.78500 31.77500
C  48.68600 37.24800 31.47900
C  49.20900 37.19300 30.11100
C  47.61600 38.31100 31.78500
C  49.30800 35.04900 32.66700
C  49.03100 34.97100 34.15900
H  48.01400 35.91100 34.82300
N  50.37400 37.45000 27.23900
C  50.41100 38.46500 28.23000
C  51.04200 39.64300 27.67400
C  51.41800 39.39400 26.36000
C  50.88000 38.03600 26.09900
C  51.15500 40.82900 28.56300
C  52.09400 40.21300 25.37900
O  52.42400 39.90300 24.19800
C  52.42700 41.65000 25.81500
N  49.66400 35.28400 25.37000
C  50.24700 36.14800 24.50100
C  50.17800 35.65400 23.05200
C  49.51300 34.27500 23.18100
C  49.27300 34.15200 24.73600
C  49.35900 36.67400 22.15300
C  50.36800 33.09800 22.63300
C  51.87600 33.05400 23.04000
N  48.38500 33.81500 27.56100
C  48.06500 32.94800 26.57900
C  47.11200 31.94200 27.07900
C  46.80500 32.42400 28.34600
C  47.68800 33.44400 28.61900
C  46.34900 30.95700 26.23000
C  45.93100 32.13400 29.45500
O  45.00300 31.28800 29.62200
C  46.47600 33.23200 30.57000
C  46.92600 32.35100 31.63100
O  48.03200 31.91200 31.75900
O  45.84000 32.12500 32.44300
C  46.10000 31.23000 33.56800
H  50.12800 39.08600 30.21200
H  51.39500 37.73900 23.95900
H  47.99600 32.43800 24.51200
H  47.28600 35.67500 32.24500
H  49.54100 37.53100 32.09200
H  46.68500 37.74500 31.82800
H  47.45000 38.90900 30.88900
H  47.77800 38.94200 32.65900
H  50.27200 35.53200 32.50600
H  49.45600 34.00100 32.40800
H  49.93000 35.17000 34.74300
H  48.87500 33.92800 34.43400
H  52.04400 40.84000 29.19300
H  50.37700 40.90900 29.32300
H  51.02100 41.74300 27.98400
H  53.00700 41.51100 26.72700
H  51.59800 42.34400 25.95500
H  52.95600 42.04800 24.94900
H  51.18000 35.55600 22.63300
H  48.50800 34.24800 22.76000
H  50.09700 36.94000 21.39600
H  49.08900 37.56700 22.71600
H  48.45800 36.29000 21.67600
H  50.36100 33.15800 21.54400
H  49.80100 32.19500 22.85600
H  52.04900 33.54400 23.99800
H  52.53200 33.63900 22.39600
H  52.32600 32.06200 23.01100
H  45.39400 30.63900 26.64700
H  46.96600 30.21200 25.72900
H  45.93000 31.59000 25.44700
H  45.75700 33.97600 30.91300
H  46.48300 30.28700 33.17800
H  45.21700 31.20400 34.20600
H  46.86300 31.65200 34.22200
Mg 5.93200 53.72800 41.39200
C  5.50000 50.24300 41.12400
C  9.18500 53.15400 40.13100
C  6.45300 56.98100 41.32100
C  2.77300 54.05900 42.60700
N  7.15800 51.91300 40.51400
C  6.71800 50.60900 40.57700
C  7.74700 49.74100 39.87700
C  9.03500 50.60200 39.84600
C  8.40900 52.01500 40.10700
C  9.99500 50.18300 40.97600
C  7.37500 49.24700 38.40800
C  6.61700 50.24700 37.44400
H  5.88400 49.61000 36.36400
N  7.63600 54.93300 40.85400
C  8.79100 54.48000 40.40800
C  9.67500 55.62700 40.32000
C  8.98600 56.75300 40.72500
C  7.63200 56.29500 40.95400
C  11.12400 55.57100 39.85300
C  9.49000 58.22200 40.86500
O  10.64900 58.58500 40.67200
C  8.60500 59.36200 41.39600
N  4.66700 55.30100 41.61600
C  5.17700 56.54200 41.65700
C  4.07100 57.52000 42.15300
C  2.85900 56.61300 42.54300
C  3.44000 55.25300 42.19500
C  4.55900 58.51400 43.30700
C  1.44000 56.88100 41.94700
C  0.85500 58.23400 42.31100
N  4.31400 52.44200 41.66300
C  3.12600 52.66800 42.28800
C  2.40800 51.47500 42.51600
C  3.35200 50.43700 42.13200
C  4.45000 51.13000 41.62500
C  0.98900 51.33800 43.18300
C  3.56800 49.06600 42.06400
O  2.87100 48.08500 42.27900
C  4.98600 48.89500 41.44400
C  4.75300 48.01300 40.27600
O  4.14900 48.33000 39.22100
O  5.33700 46.71600 40.52900
C  5.07500 45.67300 39.57200
H  10.15600 53.05600 39.64100
H  6.62000 58.05800 41.39200
H  1.89500 54.19900 43.24200
H  7.88200 48.89700 40.55300
H  9.48200 50.63500 38.85300
H  11.04200 50.19400 40.67200
H  9.80800 49.19800 41.40100
H  9.86900 50.78100 41.87900
H  6.90900 48.26100 38.41800
H  8.29100 48.97300 37.88400
H  7.36100 50.92000 37.01900
H  5.88100 50.83800 37.98900
H  11.74500 56.17800 40.51200
H  11.21700 55.88900 38.81400
H  11.58200 54.58300 39.80000
H  9.24300 60.23300 41.54700
H  8.24200 59.12400 42.39600
H  7.87300 59.56400 40.61400
H  3.74100 58.14900 41.32600
H  2.77400 56.68100 43.62700
H  4.85500 59.44400 42.82300
H  5.40000 58.04800 43.82100
H  3.80200 58.54300 44.09000
H  0.81200 56.01600 42.16300
H  1.49900 57.03600 40.87000
H  1.22600 58.63900 43.25200
H  -0.22300 58.11700 42.41700
H  0.95900 59.08000 41.63100
H  1.12400 51.14200 44.24600
H  0.43000 50.52400 42.72100
H  0.42400 52.26700 43.10700
H  5.70900 48.42600 42.11100
H  5.21000 44.70000 40.04400
H  5.80200 45.72000 38.76100
H  4.06800 45.66500 39.15700

