158

Mg 55.68400 24.52300 44.67100
C  52.96600 26.45400 43.72800
C  53.89100 21.71000 43.33600
C  58.44900 22.91400 44.89900
C  57.20900 27.48700 45.97700
N  53.78000 24.15100 43.52500
C  52.87000 25.11700 43.22800
C  51.67100 24.52700 42.55800
C  51.75400 23.07600 42.99800
C  53.22000 22.93200 43.31300
C  50.81700 22.69300 44.14500
C  51.62300 24.76500 41.00100
C  50.17000 24.58200 40.48100
H  49.96400 24.81000 38.95100
N  56.08400 22.60000 44.08200
C  55.27100 21.58300 43.64600
C  55.99600 20.30500 43.55900
C  57.32700 20.64600 44.00300
C  57.34400 22.08900 44.36400
C  55.43300 18.94900 43.10500
C  58.44100 19.65300 44.13800
O  58.38400 18.60800 43.52800
C  59.65300 19.92700 44.84200
N  57.58400 25.09700 45.39900
C  58.61600 24.18000 45.38500
C  59.91400 24.83600 45.85500
C  59.50400 26.31700 46.19400
C  58.00200 26.32000 45.87800
C  60.52500 24.14500 47.12800
C  60.35300 27.50600 45.40800
C  60.80500 28.79700 46.22500
N  55.19800 26.57100 44.96500
C  55.89800 27.64200 45.51300
C  55.05400 28.80000 45.38600
C  53.84700 28.37900 44.73500
C  54.06200 27.05300 44.44300
C  55.44000 30.17900 45.88300
C  52.60500 28.79100 44.31300
O  52.11800 29.86900 44.38700
C  51.88900 27.56400 43.60700
C  51.49100 27.97000 42.24500
O  52.27600 28.20100 41.33800
O  50.08700 28.11000 42.17000
C  49.57600 28.48100 40.76300
H  53.32300 20.83600 43.01200
H  59.44100 22.46300 44.96800
H  57.68100 28.38500 46.38200
H  50.76200 24.98800 42.94200
H  51.54400 22.39600 42.17200
H  51.46300 22.61900 45.02000
H  50.47300 21.67800 43.94700
H  50.03400 23.41600 44.37500
H  52.22400 24.02100 40.47800
H  52.03100 25.74300 40.74300
H  49.56500 25.41500 40.83800
H  49.79200 23.58700 40.71800
H  55.24700 18.22700 43.90000
H  56.15400 18.45800 42.45200
H  54.49800 19.05100 42.55400
H  60.22300 20.56200 44.16500
H  60.15500 18.96800 44.97400
H  59.42300 20.42700 45.78300
H  60.69200 24.78700 45.09300
H  59.55000 26.50400 47.26600
H  60.18600 23.13400 47.35200
H  60.46200 24.66600 48.08300
H  61.59400 24.19300 46.92000
H  59.90600 27.81600 44.46300
H  61.33200 27.09700 45.16000
H  60.22400 28.83400 47.14700
H  60.69300 29.73300 45.67900
H  61.84100 28.69400 46.54800
H  56.39000 30.08900 46.41100
H  54.79900 30.66700 46.61700
H  55.58200 30.92400 45.10000
H  51.01900 27.21500 44.16300
H  49.15200 29.48300 40.68900
H  48.86600 27.69600 40.50200
H  50.34500 28.51600 39.99200
Mg -10.34200 39.88500 39.53600
C  -9.53900 36.53200 38.69800
C  -7.29000 40.80100 38.52900
C  -11.44500 43.07400 39.50400
C  -13.60000 38.84600 40.31800
N  -8.57800 38.68900 38.82100
C  -8.45200 37.34200 38.53300
C  -7.02000 37.04800 37.96100
C  -6.26600 38.41500 38.31100
C  -7.42600 39.37200 38.57300
C  -5.27300 38.37700 39.55500
C  -7.08500 36.60300 36.43900
C  -7.52800 37.66700 35.45800
H  -8.80000 37.52500 34.67500
N  -9.47700 41.71200 39.05400
C  -8.20900 41.90300 38.63200
C  -7.93700 43.28200 38.45400
C  -9.18800 43.98800 38.69900
C  -10.13300 42.90200 39.16400
C  -6.67400 43.83800 37.90900
C  -9.46200 45.48100 38.38100
O  -8.57700 46.15500 37.80000
C  -10.69700 46.30800 38.67400
N  -12.36200 40.83700 39.76600
C  -12.49000 42.17900 39.77400
C  -13.85800 42.50900 40.24700
C  -14.34400 41.20100 40.96000
C  -13.43500 40.26300 40.25200
C  -14.13300 43.87000 41.12100
C  -15.88900 40.99000 40.89000
C  -16.45200 40.42900 39.67800
N  -11.40400 38.10700 39.53100
C  -12.72800 37.83100 39.79400
C  -13.04900 36.40600 39.62700
C  -11.84400 35.90500 39.19700
C  -10.88500 36.93100 39.14300
C  -14.33100 35.75200 39.93500
C  -11.18400 34.61700 38.78200
O  -11.65600 33.49100 38.59700
C  -9.66300 35.03100 38.57000
C  -8.87000 34.34300 39.59300
O  -9.04600 34.31700 40.79500
O  -7.96100 33.50100 38.92400
C  -6.89100 32.81700 39.70600
H  -6.32300 41.21400 38.23300
H  -11.72700 44.12800 39.55400
H  -14.61000 38.47300 40.50500
H  -6.68100 36.23500 38.60300
H  -5.64900 38.63300 37.44000
H  -5.58200 38.96700 40.41800
H  -4.32300 38.64800 39.09400
H  -5.31600 37.38200 39.99700
H  -7.68000 35.69100 36.49900
H  -6.04800 36.29700 36.30600
H  -6.82900 37.66100 34.62200
H  -7.47500 38.70300 35.79100
H  -6.77200 44.30000 36.92600
H  -5.92900 43.07000 37.70200
H  -6.34300 44.63200 38.57800
H  -10.77900 46.36600 39.76000
H  -11.59900 45.83300 38.28600
H  -10.57200 47.32100 38.29300
H  -14.38200 42.55100 39.29200
H  -14.09600 41.15100 42.02000
H  -13.18800 44.37300 41.32200
H  -14.70200 43.55000 41.99400
H  -14.87000 44.52400 40.65500
H  -16.17700 42.03800 40.96600
H  -16.18500 40.45300 41.79200
H  -17.13500 41.15400 39.23400
H  -17.03300 39.58800 40.05800
H  -15.69600 40.14800 38.94500
H  -14.82500 36.41900 40.64100
H  -14.21500 34.75800 40.36500
H  -14.84500 35.64300 38.98000
H  -9.50800 34.67200 37.55200
H  -7.32500 32.11200 40.41500
H  -6.30100 33.57600 40.22100
H  -6.36100 32.23400 38.95300

