158

Mg 9.10200 48.21100 26.28000
C  6.80000 48.78500 29.06700
C  11.59300 49.02400 28.40500
C  11.07600 48.25200 23.58900
C  6.20900 47.73000 24.25600
N  9.11600 48.77500 28.54600
C  8.11100 48.90300 29.46800
C  8.68700 49.06100 30.89200
C  10.18200 49.21400 30.59800
C  10.38500 49.07900 29.08100
C  10.83500 50.57400 31.05700
C  8.31800 47.91000 31.86700
C  9.06200 48.01300 33.20200
H  8.37300 47.45100 34.46900
N  11.11400 48.44300 25.97600
C  11.96100 48.85400 27.02900
C  13.30300 48.93200 26.46600
C  13.12400 48.73600 25.05900
C  11.75200 48.41600 24.79000
C  14.51100 49.31500 27.29100
C  14.26700 48.65700 23.93400
O  13.95600 48.38800 22.80400
C  15.72000 48.77000 24.19600
N  8.66100 48.00000 24.18000
C  9.71700 48.01000 23.31200
C  9.27000 47.67200 21.90500
C  7.69300 47.68300 22.09300
C  7.47000 47.72400 23.64100
C  9.72000 48.61000 20.74000
C  7.06300 46.45300 21.36600
C  7.05000 46.53200 19.85600
N  6.99000 48.34800 26.51300
C  5.94400 48.15400 25.58700
C  4.69300 48.30800 26.23800
C  4.91700 48.68100 27.53000
C  6.40100 48.63000 27.71000
C  3.35800 48.15400 25.58400
C  4.32400 49.19900 28.73300
O  3.19100 49.59000 28.92100
C  5.46800 49.08700 29.81000
C  5.16800 47.84800 30.60100
O  5.45700 46.71600 30.22700
O  4.52800 48.09200 31.82200
C  4.33500 46.90200 32.68000
H  12.47100 49.08800 29.05100
H  11.77800 48.18400 22.75600
H  5.32100 47.48700 23.66900
H  8.19500 49.98800 31.18500
H  10.90600 48.57400 31.10100
H  10.09100 51.18600 31.56700
H  11.24400 51.07900 30.18200
H  11.79900 50.43500 31.54700
H  8.68100 46.99900 31.39100
H  7.26000 47.80400 32.10800
H  9.25100 49.02800 33.55100
H  10.05900 47.59000 33.08400
H  15.28400 48.59600 27.02100
H  14.24700 49.36500 28.34800
H  14.87100 50.29500 26.98000
H  15.92700 49.55300 24.92500
H  16.15900 49.10400 23.25600
H  16.09600 47.76100 24.36600
H  9.52700 46.63500 21.68700
H  7.31400 48.66800 21.82100
H  8.91200 49.27100 20.42800
H  10.05600 48.02300 19.88500
H  10.34400 49.41700 21.12400
H  6.12500 46.23500 21.87700
H  7.60700 45.55300 21.65600
H  7.93000 47.06300 19.49300
H  6.13700 47.06500 19.59100
H  7.07200 45.51600 19.45900
H  2.56600 48.67800 26.11900
H  3.10900 47.09300 25.60400
H  3.37500 48.33900 24.51000
H  5.72600 49.99200 30.36000
H  3.58300 46.23000 32.26800
H  3.73500 47.15800 33.55300
H  5.23800 46.32100 32.86500
Mg 0.35100 43.63000 25.60300
C  2.25200 43.71100 28.43400
C  -2.37600 42.80900 27.68000
C  -1.40200 43.08400 22.93600
C  3.24300 44.29700 23.67700
N  -0.05300 43.45700 27.82100
C  0.87300 43.61900 28.76800
C  0.27000 43.54900 30.19100
C  -1.20800 43.13600 29.90100
C  -1.21000 43.12400 28.36200
C  -1.61200 41.76800 30.61700
C  0.38100 44.81100 31.07500
C  0.66400 44.71300 32.59400
H  0.22500 43.32300 33.33400
N  -1.65800 43.08600 25.35600
C  -2.65900 42.87100 26.30000
C  -3.88900 42.45900 25.58400
C  -3.56900 42.44400 24.13700
C  -2.13700 42.82500 24.08900
C  -5.13000 41.87000 26.23300
C  -4.53400 42.04700 23.03500
O  -4.18000 42.11600 21.85000
C  -5.92700 41.52400 23.29100
N  0.85400 43.84200 23.58800
C  -0.09000 43.44800 22.67400
C  0.43500 43.53400 21.23000
C  1.84100 44.18100 21.51900
C  2.02500 44.12500 22.98900
C  0.59000 42.20200 20.54900
C  2.02700 45.65100 20.99000
C  1.53800 45.93200 19.54800
N  2.34700 43.84300 25.92600
C  3.39200 44.05600 25.04900
C  4.60600 44.08200 25.76600
C  4.24300 43.93000 27.11600
C  2.86200 43.76200 27.13400
C  5.99400 44.40900 25.18700
C  4.69800 43.88900 28.49800
O  5.86200 43.83000 28.86700
C  3.43500 43.74300 29.39700
C  3.62800 42.54400 30.25200
O  3.48900 41.34700 29.94400
O  4.02900 42.92900 31.45700
C  4.09900 41.94200 32.50200
H  -3.25700 42.44500 28.21400
H  -1.94700 42.94300 22.00000
H  4.17300 44.31400 23.10500
H  0.74900 42.72200 30.71600
H  -1.91400 43.91400 30.19200
H  -0.86200 41.38200 31.30700
H  -1.75700 41.12600 29.74800
H  -2.54400 41.84400 31.17600
H  -0.56100 45.35900 31.04500
H  1.08600 45.48900 30.59400
H  0.29100 45.57200 33.15100
H  1.74200 44.86800 32.58000
H  -5.92900 42.57600 26.00700
H  -5.06600 41.99600 27.31400
H  -5.18500 40.80000 26.03600
H  -5.73300 40.58800 23.81500
H  -6.50300 41.34100 22.38400
H  -6.55200 42.13600 23.94100
H  -0.10900 44.12300 20.49200
H  2.58600 43.46500 21.17200
H  0.14900 41.39900 21.13900
H  1.58400 41.93200 20.19000
H  -0.08900 42.33300 19.70600
H  3.09400 45.85700 20.90500
H  1.70100 46.41000 21.70100
H  1.26000 45.04100 18.98300
H  2.44700 46.33200 19.10000
H  0.72100 46.65400 19.54500
H  6.40900 45.19200 25.82200
H  5.88200 44.86100 24.20200
H  6.68200 43.56800 25.09400
H  3.39700 44.65600 29.99100
H  5.02200 41.44000 32.21200
H  3.25000 41.26400 32.40800
H  4.11900 42.49400 33.44200

