158

Mg 26.75300 51.13400 27.00600
C  24.40000 52.11300 29.36700
C  28.86600 50.19900 29.46300
C  28.80700 50.14600 24.58100
C  24.58300 52.50100 24.38200
N  26.54100 51.23900 29.16600
C  25.44200 51.44500 29.94100
C  25.74600 51.15600 31.41500
C  27.35000 50.88400 31.41500
C  27.61700 50.68600 29.89800
C  28.13200 52.11300 32.01300
C  24.82900 50.02400 31.95000
C  24.08100 50.37900 33.22600
H  24.80000 51.10500 34.36100
N  28.56700 50.28300 26.98500
C  29.28700 49.96400 28.15200
C  30.53900 49.29000 27.70300
C  30.54800 49.31100 26.32400
C  29.30200 49.94900 25.87100
C  31.68200 48.77000 28.61100
C  31.67500 48.86600 25.43300
O  31.66400 49.15900 24.23300
C  32.83700 48.02500 25.86200
N  26.62200 51.22500 24.69500
C  27.59900 50.73400 24.00800
C  27.25300 50.75000 22.54100
C  25.87700 51.48800 22.41800
C  25.64100 51.74400 23.89400
C  28.43300 51.33500 21.62800
C  24.73700 50.61600 21.77800
C  24.42100 51.10500 20.37200
N  24.93300 52.17900 26.83100
C  24.12400 52.60900 25.77800
C  22.89700 53.24600 26.27300
C  23.02600 53.07100 27.68600
C  24.27400 52.48900 27.98200
C  21.89100 53.93700 25.47600
C  22.27300 53.25500 28.92200
O  21.15700 53.69500 29.14200
C  23.22000 52.65300 30.08200
C  23.61500 53.89000 30.89900
O  24.44400 54.75500 30.60200
O  22.90500 53.86300 32.04200
C  23.22400 54.86300 33.04500
H  29.50200 49.80300 30.25700
H  29.50400 49.73600 23.84700
H  23.99600 52.91300 23.55800
H  25.65000 52.09500 31.96000
H  27.49700 49.98300 32.01000
H  27.70400 52.69000 32.83200
H  28.39000 52.68400 31.12100
H  29.02300 51.72900 32.51100
H  25.27600 49.04900 32.14800
H  24.02000 49.78600 31.25900
H  23.73700 49.41300 33.59500
H  23.25400 51.01800 32.91600
H  31.80400 47.70200 28.42700
H  31.56900 48.98200 29.67400
H  32.57000 49.36000 28.38900
H  33.31000 47.71500 24.93000
H  32.52200 47.18100 26.47600
H  33.53500 48.64300 26.42800
H  27.21000 49.71600 22.20000
H  26.05100 52.49800 22.04700
H  27.93500 51.92900 20.86100
H  28.97800 50.55900 21.09000
H  29.08400 51.87200 22.31800
H  23.86700 50.83800 22.39600
H  24.94800 49.54800 21.72000
H  24.92200 52.03000 20.09000
H  23.37300 51.38100 20.25100
H  24.73400 50.30200 19.70400
H  21.63700 53.33100 24.60700
H  22.13400 54.94000 25.12400
H  21.02700 54.02900 26.13400
H  22.80500 51.83800 30.67400
H  22.81900 55.79000 32.63900
H  24.30000 55.03500 33.06600
H  22.82600 54.57100 34.01700
Mg 10.00400 47.88100 26.72600
C  7.89600 47.79400 29.53100
C  12.46700 49.10200 28.71100
C  11.95300 47.84200 23.97400
C  7.15100 47.20600 24.67300
N  10.20300 48.27700 28.97100
C  9.20900 48.06900 29.93900
C  9.85800 48.24100 31.31200
C  11.06500 49.20400 31.01500
C  11.25900 48.85600 29.43600
C  10.84100 50.73500 31.23900
C  10.24100 46.83800 31.86300
C  9.80300 46.46800 33.34000
H  10.67600 45.65800 34.24800
N  11.94600 48.37900 26.39400
C  12.84500 48.81700 27.35200
C  14.10600 49.12300 26.71500
C  14.01500 48.57700 25.35600
C  12.60500 48.24700 25.15200
C  15.30100 49.78300 27.44800
C  15.12300 48.51600 24.32100
O  14.92500 47.89300 23.28600
C  16.59300 49.00900 24.59300
N  9.57600 47.53000 24.62700
C  10.58500 47.61100 23.70100
C  10.11200 47.26500 22.26900
C  8.58100 47.01700 22.55800
C  8.39500 47.27500 24.02900
C  10.43400 48.22600 21.15500
C  8.10500 45.54600 22.21600
C  6.79200 45.45100 21.52800
N  7.91800 47.63000 27.00700
C  6.89700 47.35200 26.08400
C  5.62100 47.20000 26.81500
C  5.97400 47.38500 28.20300
C  7.36500 47.64400 28.24200
C  4.32700 46.80600 26.24400
C  5.44200 47.38700 29.57300
O  4.24500 47.28800 29.91700
C  6.68100 47.58700 30.45900
C  6.82800 46.28700 31.18700
O  7.29000 45.26100 30.66900
O  6.44000 46.45900 32.52000
C  6.28300 45.24900 33.22800
H  13.14400 49.73700 29.28600
H  12.52100 47.77300 23.04500
H  6.20600 46.94000 24.19300
H  9.17200 48.59800 32.08000
H  11.97100 48.87000 31.52200
H  11.78500 51.15100 31.59200
H  10.09300 50.83000 32.02500
H  10.55700 51.29500 30.34800
H  11.32900 46.79200 31.90200
H  9.93300 46.01000 31.22400
H  8.96500 45.80500 33.12400
H  9.29000 47.26200 33.88200
H  16.15400 49.11600 27.31900
H  15.23600 50.04900 28.50400
H  15.41700 50.67200 26.82700
H  16.52800 50.09100 24.70700
H  17.26400 48.92400 23.73800
H  17.05000 48.42400 25.39100
H  10.63000 46.32500 22.07900
H  8.02400 47.83600 22.10300
H  11.22200 47.89200 20.48000
H  10.70000 49.18300 21.60500
H  9.57700 48.34600 20.49200
H  7.97900 44.94500 23.11700
H  8.82300 45.02100 21.58600
H  6.27700 46.40200 21.38800
H  6.21600 44.66000 22.00800
H  7.01000 45.16000 20.50100
H  3.79800 46.19100 26.97200
H  4.56200 46.08800 25.45800
H  3.64600 47.53700 25.80900
H  6.55900 48.53200 30.98700
H  6.83000 44.35800 32.92000
H  5.22600 44.98600 33.20800
H  6.47600 45.46200 34.27900

