158

Mg 54.63600 25.39400 45.19100
C  51.93400 27.41000 43.96100
C  52.90100 22.76000 43.81300
C  57.40400 23.44900 45.53400
C  56.22200 28.18500 46.25400
N  52.84400 25.22800 43.61800
C  51.93400 26.14800 43.40300
C  50.77700 25.56600 42.54400
C  50.97800 24.01300 42.76700
C  52.30400 23.93800 43.49600
C  49.88400 23.27400 43.57300
C  50.76000 25.89800 41.00900
C  52.05500 26.42600 40.25200
H  52.96300 25.43900 39.52800
N  55.08700 23.37100 44.77300
C  54.16200 22.48000 44.30400
C  54.76800 21.12500 44.32200
C  56.11100 21.34100 44.76600
C  56.25900 22.77700 45.00200
C  54.11400 19.81200 43.86900
C  57.19900 20.19200 44.80200
O  56.86900 19.02100 44.51200
C  58.58200 20.50600 45.07500
N  56.60200 25.84100 45.57800
C  57.57700 24.86200 45.77200
C  58.93300 25.52000 46.13900
C  58.48100 26.98400 46.41700
C  56.99600 27.05100 46.05900
C  59.67200 24.95400 47.30300
C  59.38200 28.03900 45.65900
C  58.87900 28.63300 44.24500
N  54.16900 27.39500 45.31600
C  54.89100 28.37400 45.87200
C  54.08100 29.59000 45.84900
C  52.85600 29.21800 45.11900
C  53.01000 27.88300 44.83000
C  54.37800 30.87400 46.49800
C  51.68900 29.76000 44.61200
O  51.28400 30.94800 44.61700
C  50.94700 28.60700 43.93600
C  50.61100 29.13000 42.55600
O  51.36700 29.63500 41.78500
O  49.25500 28.82700 42.21900
C  48.86400 29.09000 40.81300
H  52.36300 21.91400 43.37800
H  58.30600 22.85400 45.69300
H  56.74300 28.94200 46.84300
H  49.88000 25.96800 43.01400
H  51.17000 23.45200 41.85300
H  50.23000 22.82500 44.50400
H  49.48300 22.41300 43.03800
H  48.98400 23.85400 43.77400
H  50.01700 26.62200 40.67600
H  50.39800 25.12000 40.33700
H  52.60700 26.90000 41.06400
H  51.72000 27.22800 39.59300
H  54.29200 19.05100 44.62900
H  54.63000 19.49100 42.96400
H  53.04800 19.87800 43.64700
H  59.16100 19.60400 44.87200
H  58.69900 20.80000 46.11800
H  58.86600 21.33700 44.43000
H  59.56700 25.37800 45.26400
H  58.52400 27.28100 47.46500
H  60.53600 24.41600 46.91100
H  59.00400 24.33200 47.89900
H  60.08300 25.76400 47.90500
H  60.33400 27.55700 45.43600
H  59.62300 28.79900 46.40200
H  59.49300 28.10000 43.51900
H  59.23500 29.66300 44.26100
H  57.79700 28.59700 44.11900
H  53.56200 31.52000 46.17200
H  55.31000 31.32100 46.15200
H  54.27900 30.81400 47.58200
H  49.98500 28.42400 44.41400
H  49.70000 29.15200 40.11600
H  48.22400 29.97200 40.83300
H  48.30700 28.20600 40.50500
Mg 49.26100 46.14400 42.65300
C  45.74300 46.23500 41.66100
C  49.41300 42.95300 41.51200
C  52.55200 46.30300 42.94100
C  48.96700 49.60000 43.13100
N  47.72600 44.76000 41.77400
C  46.40900 44.95900 41.50100
C  45.82900 43.59600 41.04600
C  46.97500 42.56200 41.11500
C  48.11900 43.45600 41.60300
C  46.84600 41.39700 42.14200
C  44.89600 43.52300 39.76000
C  45.57800 43.82900 38.34800
H  45.50500 42.65400 37.35300
N  50.77500 44.70700 42.44200
C  50.64500 43.42300 42.02300
C  51.90400 42.77500 41.93900
C  52.86600 43.69600 42.36700
C  52.05800 44.97600 42.67300
C  51.93200 41.28000 41.55000
C  54.33600 43.50400 42.40100
O  54.78400 42.38400 42.22400
C  55.27400 44.55600 42.66900
N  50.55100 47.78800 43.02700
C  51.90200 47.59800 43.07300
C  52.61800 49.00600 43.16500
C  51.41700 50.01400 43.04000
C  50.24600 49.06800 43.13400
C  53.46200 49.19100 44.41300
C  51.46900 50.79400 41.70500
C  51.47300 52.32600 41.79100
N  47.61700 47.61500 42.67300
C  47.69200 48.97900 42.88900
C  46.37400 49.59700 42.76000
C  45.56300 48.51500 42.35800
C  46.38400 47.38000 42.30000
C  45.93800 51.07100 42.91600
C  44.24400 48.17400 41.93800
O  43.25800 48.81800 41.90900
C  44.30700 46.70200 41.37500
C  43.32900 45.82900 42.18000
O  42.38200 45.15400 41.67400
O  43.66300 45.78800 43.48000
C  42.83800 44.92700 44.41900
H  49.49600 41.93200 41.13300
H  53.60100 46.60300 42.97700
H  48.79900 50.65100 43.37800
H  45.14400 43.46700 41.88400
H  47.26700 42.31000 40.09500
H  45.85900 41.33000 42.60000
H  47.45900 41.56100 43.02800
H  47.06100 40.43800 41.67000
H  44.11600 44.26500 39.93000
H  44.42500 42.54100 39.78400
H  46.58700 44.22200 38.47300
H  45.01000 44.65200 37.91600
H  52.38600 41.30100 40.55900
H  51.01500 40.73100 41.33500
H  52.45400 40.73400 42.33400
H  55.01000 45.34400 41.96300
H  56.25300 44.16000 42.40400
H  55.11000 44.93100 43.68000
H  53.27900 49.02700 42.29800
H  51.29200 50.65900 43.90900
H  54.51400 49.06800 44.15300
H  53.09400 48.51500 45.18400
H  53.42900 50.16700 44.89700
H  50.55900 50.55600 41.15400
H  52.30700 50.43100 41.11000
H  50.58900 52.76400 41.32800
H  52.27400 52.65300 41.12900
H  51.67600 52.60800 42.82400
H  45.23200 51.39300 42.15100
H  46.82400 51.69800 43.01400
H  45.43700 51.17700 43.87900
H  44.00200 46.58400 40.33500
H  43.12300 45.11600 45.45400
H  42.81000 43.84900 44.26100
H  41.78600 45.15300 44.24100

