158

Mg 46.25800 4.90500 48.54100
C  44.65700 7.95900 47.63900
C  43.41900 3.24000 47.78500
C  47.96800 2.13800 48.54500
C  49.18900 6.74900 49.07500
N  44.28800 5.52200 47.97000
C  43.86400 6.84200 47.63700
C  42.37900 6.81300 47.36600
C  41.96800 5.33100 47.56500
C  43.24800 4.62100 47.81300
C  40.89400 4.97700 48.65900
C  42.06200 7.47900 46.05100
C  40.70900 8.19100 46.09500
H  39.80400 7.60700 45.02200
N  45.76000 2.96300 48.24700
C  44.56900 2.46400 47.93400
C  44.58800 1.08300 47.98300
C  45.95100 0.70300 48.11400
C  46.64800 1.96200 48.27900
C  43.49600 0.17300 47.78100
C  46.48700 -0.71000 48.30100
O  45.74300 -1.68300 48.24200
C  47.94900 -1.03200 48.53700
N  48.40900 4.54000 48.44700
C  48.75200 3.25100 48.82800
C  50.11900 3.18500 49.50200
C  50.54700 4.61200 49.32400
C  49.30900 5.37200 49.00700
C  50.18500 2.58400 50.94500
C  51.77500 4.89600 48.33300
C  53.05900 5.61900 48.96200
N  46.84500 6.97100 48.37600
C  48.05000 7.56800 48.74900
C  47.95600 8.99000 48.57500
C  46.60700 9.24700 48.17600
C  45.96300 7.97500 48.04000
C  48.96300 10.09100 49.07000
C  45.60100 10.24400 47.79300
O  45.84600 11.43200 47.58400
C  44.25600 9.49600 47.49600
C  43.26600 9.82700 48.55600
O  43.31700 9.37700 49.71200
O  42.25700 10.57600 48.03100
C  41.21700 10.92400 48.95200
H  42.46600 2.73100 47.62600
H  48.44200 1.19600 48.82600
H  50.03000 7.36200 49.40300
H  41.90000 7.43200 48.12400
H  41.56900 4.87000 46.66200
H  40.62000 5.97200 49.01100
H  41.41400 4.38400 49.41200
H  40.03700 4.43800 48.25400
H  41.94100 6.67800 45.32200
H  42.80300 8.16900 45.64700
H  40.87500 9.26000 45.96100
H  40.24700 8.08600 47.07700
H  43.38900 -0.45400 48.66600
H  43.63700 -0.47700 46.91700
H  42.56500 0.72500 47.65400
H  48.66100 -0.79500 47.74700
H  47.95900 -2.12100 48.50900
H  48.28200 -0.68100 49.51400
H  50.73200 2.55200 48.86100
H  50.75200 5.00300 50.32000
H  50.03600 3.44200 51.60100
H  51.10600 2.08000 51.23700
H  49.34400 1.93700 51.19300
H  51.50800 5.44100 47.42800
H  52.08500 3.96700 47.85400
H  52.99500 6.66700 48.67100
H  54.04800 5.27800 48.65600
H  53.03800 5.43900 50.03700
H  49.58200 9.63500 49.84200
H  48.39100 10.91700 49.49100
H  49.52800 10.47200 48.21900
H  43.81400 9.76000 46.53600
H  41.03900 10.10700 49.65200
H  40.32900 11.09000 48.34200
H  41.41100 11.89600 49.40500
Mg 48.66100 35.01700 26.89700
C  46.79300 33.73600 29.53900
C  49.04000 37.92000 28.53300
C  49.70000 36.33900 23.92800
C  47.74600 32.04100 24.96300
N  48.01100 35.65000 28.88900
C  47.37600 34.96300 29.89900
C  47.33200 35.77200 31.23200
C  47.77600 37.23700 30.70300
C  48.40900 36.88300 29.33300
C  46.63900 38.31600 30.61300
C  48.49300 35.25700 32.19900
C  48.07900 35.20200 33.67800
H  48.43700 36.42100 34.55100
N  49.52400 36.77600 26.40200
C  49.61200 37.90800 27.25600
C  50.23400 39.00200 26.57700
C  50.47100 38.53300 25.22200
C  49.91600 37.14400 25.09400
C  50.60300 40.31400 27.25300
C  51.06400 39.32100 24.07900
O  51.20400 38.89700 22.92500
C  51.58100 40.76800 24.40000
N  48.82700 34.18600 24.79000
C  49.31600 34.96200 23.75200
C  49.27500 34.21700 22.37100
C  48.88100 32.77800 22.78000
C  48.50000 32.99500 24.27600
C  48.28800 34.94300 21.47200
C  50.03100 31.75000 22.57700
C  49.63700 30.60300 21.59700
N  47.48000 33.28800 27.11500
C  47.25700 32.11800 26.31800
C  46.59100 31.13800 27.11300
C  46.29700 31.85000 28.26000
C  46.90400 33.11500 28.30400
C  46.12700 29.77900 26.73900
C  45.64900 31.58600 29.50500
O  45.06400 30.58700 29.84100
C  45.83700 32.84700 30.42400
C  46.26500 32.50400 31.74300
O  47.38800 32.07600 31.98900
O  45.19600 32.56200 32.65100
C  45.50800 32.38400 34.07200
H  49.15800 38.81000 29.15400
H  49.93700 36.82000 22.97700
H  47.43300 31.17900 24.36900
H  46.36300 35.80300 31.73100
H  48.64900 37.64800 31.21100
H  47.03700 39.23700 31.03900
H  45.75700 38.08800 31.21100
H  46.35600 38.53500 29.58300
H  49.35500 35.91900 32.11400
H  48.96100 34.34100 31.83700
H  48.52800 34.36400 34.21200
H  47.03100 34.93000 33.79900
H  51.68900 40.33500 27.16800
H  50.48100 40.31600 28.33600
H  50.23200 41.22400 26.78000
H  52.13700 41.17300 23.55500
H  52.25900 40.61500 25.24000
H  50.68000 41.31200 24.68500
H  50.22700 34.27400 21.84300
H  47.99400 32.50000 22.21100
H  47.35800 35.23600 21.95900
H  48.05400 34.30800 20.61800
H  48.81400 35.84100 21.14600
H  50.31600 31.32100 23.53700
H  50.90400 32.21600 22.11900
H  49.94400 29.61900 21.95200
H  50.34800 30.67400 20.77500
H  48.61000 30.68000 21.23900
H  46.89400 29.06600 27.04100
H  45.88000 29.74500 25.67800
H  45.23400 29.56900 27.32800
H  44.90300 33.40600 30.47600
H  44.85500 31.62400 34.50100
H  45.24700 33.30800 34.58800
H  46.52900 32.14900 34.37200

