158

Mg 46.37800 24.48600 28.44300
C  46.72300 26.86500 31.15900
C  46.04200 22.11000 30.98600
C  46.24100 22.32400 26.04300
C  47.57500 26.92700 26.24800
N  46.16900 24.49200 30.80800
C  46.51100 25.57100 31.66400
C  46.46900 25.10500 33.16100
C  46.18400 23.54800 32.99200
C  46.22900 23.36600 31.47400
C  47.19000 22.66400 33.90100
C  45.45500 25.86600 34.02900
C  45.01000 25.19900 35.37500
H  45.80700 25.62900 36.59900
N  46.08600 22.51500 28.47300
C  45.93700 21.73300 29.61100
C  45.74100 20.33900 29.15600
C  45.70900 20.40100 27.69800
C  45.97400 21.80000 27.35800
C  45.66200 19.16100 30.10900
C  45.43100 19.25100 26.76100
O  45.58300 19.34900 25.58400
C  44.99800 18.01400 27.30900
N  46.79000 24.70100 26.39200
C  46.64100 23.61100 25.58800
C  47.03700 23.91000 24.21500
C  47.54000 25.42300 24.24600
C  47.32900 25.72700 25.70400
C  48.04500 22.89900 23.55400
C  46.84100 26.43600 23.30300
C  45.34300 26.79800 23.64100
N  46.93900 26.43000 28.55800
C  47.38500 27.26300 27.61900
C  47.58400 28.58400 28.13100
C  47.34900 28.43100 29.53500
C  46.95700 27.11000 29.75600
C  48.01400 29.84500 27.33000
C  47.41400 29.16100 30.79000
O  47.66500 30.32900 31.06300
C  46.92900 28.20700 31.93000
C  48.06400 27.95200 32.85400
O  49.01300 27.23900 32.59900
O  47.87000 28.70500 33.99900
C  48.92600 28.61700 35.03500
H  46.07700 21.32100 31.74100
H  46.18000 21.55500 25.27100
H  48.06800 27.62300 25.56600
H  47.42000 25.30100 33.65800
H  45.18100 23.35000 33.37000
H  47.95100 23.20200 34.46500
H  47.77300 21.92500 33.35100
H  46.52300 22.17100 34.60900
H  44.61900 26.22100 33.42700
H  45.95100 26.75800 34.40900
H  45.31000 24.15300 35.32400
H  43.94700 25.31600 35.58700
H  45.87800 18.24500 29.56000
H  44.65700 19.10200 30.52700
H  46.41200 19.36700 30.87300
H  45.88800 17.51700 27.69700
H  44.65800 17.42600 26.45700
H  44.20500 18.20400 28.03300
H  46.12500 23.90500 23.61900
H  48.60700 25.56500 24.07800
H  48.72600 23.27600 22.79100
H  47.55000 22.09700 23.00700
H  48.73400 22.46600 24.27800
H  46.82200 26.06200 22.28000
H  47.43000 27.34600 23.42200
H  45.30400 27.87300 23.81400
H  45.02000 26.14300 24.45000
H  44.66600 26.61200 22.80800
H  47.57200 30.68600 27.86300
H  47.54700 29.76300 26.34800
H  49.10200 29.87200 27.28700
H  46.08300 28.60400 32.49100
H  48.59800 29.36700 35.75400
H  49.89300 28.82600 34.57700
H  49.12100 27.61600 35.42100
Mg -5.91300 25.41700 26.32900
C  -3.93000 26.91600 29.00500
C  -7.04900 23.20600 28.60200
C  -7.25000 23.93300 23.64000
C  -4.03900 27.62900 24.12900
N  -5.45500 25.07900 28.57400
C  -4.67400 25.80600 29.43300
C  -5.12900 25.49800 30.88300
C  -5.85800 24.17800 30.70400
C  -6.18600 24.06800 29.20100
C  -4.95000 22.95400 31.14400
C  -6.04800 26.61000 31.55200
C  -5.93900 26.89400 33.04100
H  -5.57700 25.83800 34.02400
N  -7.08500 23.89600 26.11900
C  -7.52900 23.09900 27.20400
C  -8.47000 22.17000 26.61600
C  -8.43700 22.30600 25.13600
C  -7.56000 23.45400 24.87700
C  -9.43800 21.36700 27.56000
C  -9.15800 21.54800 24.12200
O  -9.04500 21.79700 22.91100
C  -10.04900 20.40400 24.54500
N  -5.57200 25.73500 24.19700
C  -6.25500 24.92300 23.33500
C  -5.98400 25.28000 21.90200
C  -5.09800 26.61600 22.02600
C  -4.86000 26.68200 23.54300
C  -5.44900 24.16600 21.01300
C  -5.68300 27.94300 21.43000
C  -5.80500 28.07400 19.88500
N  -4.32900 26.92500 26.45400
C  -3.75000 27.76300 25.51700
C  -2.81700 28.67300 26.09700
C  -2.87400 28.31200 27.41500
C  -3.80300 27.28700 27.65100
C  -1.92700 29.71100 25.47400
C  -2.29000 28.73600 28.63600
O  -1.41900 29.57400 28.85100
C  -3.09300 27.85900 29.78200
C  -2.09000 27.05900 30.58600
O  -1.23200 26.30300 30.14500
O  -2.30300 27.26200 31.90700
C  -1.39200 26.57400 32.88300
H  -7.50600 22.56100 29.35600
H  -7.65700 23.54000 22.70600
H  -3.52000 28.25500 23.40100
H  -4.31500 25.20300 31.54500
H  -6.81500 24.07500 31.21600
H  -5.56200 22.05500 31.22200
H  -4.42500 23.29400 32.03700
H  -4.06200 22.77700 30.53600
H  -7.05400 26.22400 31.39000
H  -5.92100 27.56700 31.04600
H  -6.94400 27.23600 33.28800
H  -5.17900 27.66000 33.19400
H  -8.98600 20.41600 27.84100
H  -10.45900 21.28700 27.18700
H  -9.40300 21.97700 28.46300
H  -9.35200 19.75700 25.07900
H  -10.43700 19.86600 23.68000
H  -10.91200 20.79500 25.08400
H  -6.92000 25.63800 21.47300
H  -4.18200 26.48500 21.44900
H  -6.08600 24.14200 20.12900
H  -5.51000 23.21000 21.53400
H  -4.41600 24.33000 20.70800
H  -5.06400 28.70900 21.89700
H  -6.69900 27.99400 21.82100
H  -6.70900 28.64100 19.66400
H  -5.70000 27.08300 19.44400
H  -4.89800 28.60000 19.58600
H  -0.92600 29.28200 25.52900
H  -1.94800 30.62400 26.06900
H  -2.16700 29.89800 24.42800
H  -3.70100 28.41300 30.49800
H  -1.71800 26.57700 33.92300
H  -0.41500 27.05900 32.88400
H  -1.17300 25.62500 32.39400

