158

Mg 16.82800 -1.65200 27.48700
C  15.67600 0.51100 29.94000
C  18.67800 -3.19100 29.98400
C  18.48100 -3.27100 25.20800
C  15.33300 0.24700 25.10800
N  17.23200 -1.27200 29.70900
C  16.52200 -0.39800 30.49000
C  16.88300 -0.54400 31.97800
C  17.99400 -1.64600 31.93400
C  18.02700 -2.05700 30.45800
C  19.47400 -1.15100 32.37600
C  15.65300 -0.94200 32.88200
C  15.64500 -0.29400 34.31500
H  16.93600 0.34400 34.91300
N  18.13700 -3.26900 27.58600
C  18.69400 -3.82000 28.70900
C  19.24600 -5.09700 28.43600
C  19.48700 -4.95300 27.00700
C  18.74700 -3.77800 26.50700
C  19.59200 -6.10400 29.47600
C  20.32400 -5.95500 26.14900
O  20.58500 -5.83200 24.94300
C  20.96200 -7.09300 26.76600
N  16.83400 -1.53300 25.45500
C  17.59500 -2.36200 24.63500
C  17.53100 -1.99800 23.15300
C  16.40800 -0.95300 23.17100
C  16.15200 -0.75900 24.64700
C  18.93000 -1.53900 22.61800
C  15.17700 -1.14300 22.28200
C  14.80000 0.14200 21.48500
N  15.58700 0.01000 27.53100
C  15.04300 0.61900 26.45300
C  14.18300 1.69900 26.86400
C  14.33000 1.67600 28.26000
C  15.26000 0.67300 28.61000
C  13.40600 2.65300 26.01000
C  13.90400 2.34800 29.51300
O  13.18900 3.37400 29.64600
C  14.71800 1.56100 30.61500
C  15.43600 2.50900 31.49000
O  16.52400 2.98500 31.24300
O  14.62800 2.80000 32.59100
C  15.16200 3.88600 33.40800
H  19.04400 -3.85800 30.76800
H  19.18700 -3.78800 24.55500
H  14.79900 0.78900 24.32500
H  17.25900 0.44400 32.24400
H  17.75600 -2.50800 32.55700
H  19.52100 -0.33800 33.10000
H  20.02200 -0.74500 31.52600
H  19.94900 -2.00800 32.85300
H  15.63700 -2.02700 32.98200
H  14.85200 -0.57000 32.24300
H  15.26800 -1.06200 34.99000
H  14.96200 0.55200 34.24200
H  19.19200 -7.05200 29.11700
H  19.12600 -5.89600 30.43900
H  20.65600 -6.03600 29.70000
H  21.42900 -6.80300 27.70800
H  21.79400 -7.30400 26.09400
H  20.36700 -8.00400 26.82400
H  17.21400 -2.81300 22.50300
H  16.92800 -0.05400 22.83800
H  19.57700 -1.46100 23.49200
H  18.89200 -0.57100 22.11800
H  19.32900 -2.25500 21.90000
H  14.31800 -1.32000 22.92900
H  15.26500 -2.04200 21.67100
H  15.75100 0.54100 21.13300
H  14.32700 0.79300 22.22000
H  14.17200 0.04800 20.59900
H  13.96200 3.58400 25.90000
H  12.44200 2.85600 26.47600
H  13.34900 2.13100 25.05500
H  13.93300 0.98400 31.10500
H  16.24100 3.85800 33.56100
H  14.73300 3.88500 34.41000
H  15.05000 4.88500 32.98800
Mg -12.96500 16.08100 42.07700
C  -9.94100 14.57700 41.48100
C  -11.68600 19.04200 40.55300
C  -16.04100 17.55400 42.38100
C  -14.41900 13.02100 42.87300
N  -10.92900 16.71700 41.14500
C  -9.84400 15.92200 41.07700
C  -8.65100 16.65200 40.38400
C  -9.23600 18.13200 40.31200
C  -10.69200 18.00000 40.70900
C  -8.42900 19.28900 41.01300
C  -8.09500 15.99200 39.12500
C  -6.58200 15.51600 39.07800
H  -5.69700 16.29100 38.12400
N  -13.74900 18.07100 41.59400
C  -13.01400 19.09600 41.01300
C  -13.93100 20.23200 40.87900
C  -15.19900 19.82200 41.42700
C  -15.03300 18.43600 41.87800
C  -13.42600 21.49200 40.22000
C  -16.45100 20.75300 41.61300
O  -16.49100 21.87400 41.12400
C  -17.59500 20.36700 42.50800
N  -14.96400 15.41800 42.51000
C  -16.01700 16.20300 42.73500
C  -17.22600 15.47100 43.28800
C  -16.77100 14.03900 43.14400
C  -15.27800 14.17300 42.85900
C  -17.60900 15.86400 44.83500
C  -17.49000 13.23100 42.00400
C  -17.43600 11.66500 42.06100
N  -12.28600 14.18800 42.35500
C  -13.01200 13.01800 42.67200
C  -12.05400 11.92600 42.76000
C  -10.82300 12.47600 42.32300
C  -11.01100 13.87200 42.05400
C  -12.30600 10.58100 43.27100
C  -9.42800 12.24000 41.96700
O  -8.83200 11.18400 41.88700
C  -8.82900 13.57200 41.52100
C  -7.79500 14.06000 42.48500
O  -7.99900 14.42100 43.64100
O  -6.57000 13.95700 41.84500
C  -5.32700 14.35600 42.60800
H  -11.28400 19.96100 40.12300
H  -17.02500 18.01500 42.27400
H  -14.89000 12.05200 43.05100
H  -7.84500 16.64800 41.11800
H  -9.21900 18.40100 39.25600
H  -7.54800 18.93100 41.54600
H  -9.19300 19.71800 41.66200
H  -8.23600 20.14300 40.36500
H  -8.28400 16.55500 38.21000
H  -8.66300 15.07900 38.95100
H  -6.75100 14.58100 38.54500
H  -6.06300 15.53600 40.03700
H  -13.77300 21.42800 39.18900
H  -12.33700 21.53500 40.20500
H  -13.76300 22.34800 40.80400
H  -18.37500 20.01100 41.83500
H  -17.88500 21.34300 42.89600
H  -17.32400 19.66000 43.29200
H  -18.12600 15.69600 42.71500
H  -16.99500 13.54500 44.08900
H  -18.00900 16.87800 44.84400
H  -16.74700 15.65600 45.46900
H  -18.40600 15.22800 45.22100
H  -16.89700 13.49400 41.12800
H  -18.51400 13.60300 41.99400
H  -16.85800 11.23800 41.24200
H  -18.41800 11.19600 41.99500
H  -17.05800 11.39600 43.04800
H  -13.20300 10.18300 42.79500
H  -12.42700 10.57100 44.35400
H  -11.46300 9.93200 43.03600
H  -8.39400 13.53800 40.52200
H  -4.57100 14.89600 42.03600
H  -4.75100 13.46300 42.85100
H  -5.60200 14.91600 43.50100

