158

Mg 3.52100 0.63200 44.16300
C  6.39900 2.69200 43.79000
C  1.65900 3.11900 42.75000
C  1.14100 -1.67700 43.60300
C  5.79300 -2.05400 44.82600
N  4.02700 2.52100 43.12800
C  5.27000 3.22000 43.11500
C  5.18900 4.56600 42.52300
C  3.57800 4.81500 42.60700
C  3.00300 3.36500 42.77800
C  3.22500 5.74600 43.78700
C  5.70100 4.66000 41.09800
C  6.34500 3.49100 40.38900
H  6.80900 3.82400 38.98700
N  1.66400 0.69600 43.40200
C  1.05400 1.84500 42.88100
C  -0.27400 1.51000 42.55800
C  -0.50600 0.18500 43.02300
C  0.75300 -0.36400 43.36200
C  -1.29600 2.41600 41.95100
C  -1.86900 -0.51100 42.83800
O  -2.90200 0.07200 42.48800
C  -1.92600 -1.99400 43.04400
N  3.41500 -1.63900 44.40600
C  2.33000 -2.30200 43.98700
C  2.53200 -3.83300 44.02700
C  4.09100 -3.92900 44.51900
C  4.51200 -2.46900 44.57200
C  1.54500 -4.74100 44.70800
C  4.99000 -4.81600 43.61300
C  6.15100 -5.72100 44.21500
N  5.63200 0.29600 44.38000
C  6.40700 -0.81600 44.72300
C  7.77000 -0.42000 44.95000
C  7.79700 0.94500 44.72700
C  6.48100 1.37100 44.35500
C  8.93100 -1.30000 45.41400
C  8.66700 2.10800 44.72600
O  9.85100 2.27600 45.06600
C  7.76700 3.32300 44.16500
C  7.57000 4.31300 45.31800
O  8.55800 4.84900 45.77800
O  6.27800 4.65100 45.65700
C  6.26600 5.66500 46.76700
H  1.02600 3.92300 42.36900
H  0.44500 -2.48400 43.36600
H  6.46500 -2.87400 45.08700
H  5.75500 5.31800 43.07400
H  3.20900 5.19700 41.65500
H  4.02500 5.87500 44.51600
H  2.30300 5.43500 44.27900
H  2.85000 6.66800 43.34400
H  6.60200 5.27200 41.07500
H  5.02300 5.04400 40.33500
H  5.87200 2.51400 40.48800
H  7.25200 3.34100 40.97400
H  -1.62700 2.08000 40.96900
H  -0.90000 3.42000 41.79800
H  -2.23300 2.43100 42.50700
H  -1.47000 -2.32400 43.97800
H  -1.48100 -2.46800 42.16900
H  -2.96700 -2.30600 43.12700
H  2.44700 -4.09000 42.97100
H  4.07300 -4.14300 45.58700
H  0.88100 -4.21800 45.39600
H  2.04500 -5.52700 45.27400
H  0.89200 -5.13500 43.92900
H  5.25200 -4.08200 42.85100
H  4.40000 -5.56600 43.08700
H  6.27300 -6.57700 43.55100
H  5.70200 -6.05400 45.15100
H  7.04200 -5.10400 44.32700
H  8.59800 -2.18100 45.96300
H  9.64500 -0.78600 46.05900
H  9.49500 -1.71800 44.58000
H  8.25000 3.81800 43.32300
H  6.65500 6.52800 46.22600
H  6.92300 5.28300 47.54800
H  5.32000 5.77800 47.29700
Mg -5.66300 24.99400 27.72100
C  -3.78100 26.86200 30.11200
C  -6.64800 22.84300 30.13300
C  -7.16300 23.01100 25.26300
C  -4.19900 26.83300 25.23200
N  -5.18000 24.87900 29.77300
C  -4.53500 25.78900 30.64300
C  -4.83800 25.54300 32.12900
C  -5.67100 24.15400 32.07100
C  -5.79900 23.85500 30.56700
C  -5.03200 23.03100 32.85100
C  -5.66000 26.69800 32.74100
C  -5.34100 27.00700 34.17100
H  -6.39900 26.71600 35.21100
N  -6.85700 23.17700 27.75500
C  -7.12300 22.46100 28.82800
C  -7.77100 21.24300 28.41200
C  -7.91000 21.19200 27.01300
C  -7.24100 22.45700 26.61900
C  -8.27100 20.26200 29.45600
C  -8.57700 20.12900 26.12100
O  -8.58400 20.17400 24.87000
C  -9.35100 19.02500 26.80000
N  -5.68400 24.89000 25.58100
C  -6.41200 24.04600 24.78800
C  -6.30800 24.33100 23.27500
C  -5.31300 25.61300 23.30000
C  -5.08500 25.85300 24.80100
C  -5.73900 23.14700 22.48800
C  -5.93300 26.92900 22.63200
C  -5.02400 27.73700 21.78700
N  -4.28400 26.55100 27.65900
C  -3.90800 27.22100 26.57400
C  -2.89800 28.21000 27.00700
C  -2.90800 28.20000 28.37200
C  -3.65100 27.09200 28.73500
C  -2.30000 29.21900 26.14000
C  -2.36900 28.74400 29.60200
O  -1.59100 29.68500 29.76600
C  -3.00500 27.96200 30.78800
C  -1.83100 27.50600 31.61900
O  -0.79500 26.97500 31.26200
O  -2.11800 27.90200 32.88500
C  -0.97400 27.72000 33.79800
H  -6.92100 22.12800 30.91200
H  -7.59300 22.32300 24.53300
H  -3.86800 27.55600 24.48400
H  -3.87900 25.36700 32.61700
H  -6.67300 24.21300 32.49700
H  -5.78400 22.37400 33.28800
H  -4.36300 23.33300 33.65600
H  -4.46100 22.41500 32.15700
H  -6.67500 26.30800 32.66500
H  -5.78500 27.60000 32.14300
H  -5.10200 28.06800 34.24800
H  -4.45000 26.44400 34.45100
H  -9.34500 20.09000 29.38500
H  -7.99800 20.54000 30.47400
H  -7.64000 19.38600 29.30800
H  -9.95900 18.51100 26.05500
H  -10.09900 19.38400 27.50800
H  -8.53900 18.52600 27.32900
H  -7.30600 24.51300 22.87600
H  -4.32100 25.33700 22.94200
H  -4.94600 23.46200 21.80900
H  -6.53000 22.63300 21.94100
H  -5.34800 22.39500 23.17200
H  -6.27100 27.58300 23.43600
H  -6.83700 26.67700 22.07900
H  -5.49100 27.88900 20.81400
H  -4.03300 27.28700 21.72400
H  -4.81400 28.72400 22.19800
H  -1.75800 28.62100 25.40800
H  -1.43600 29.67300 26.62600
H  -2.98500 29.96100 25.72800
H  -3.70400 28.59500 31.33400
H  -0.07800 28.13500 33.33600
H  -0.68900 26.67200 33.89100
H  -1.16800 28.13800 34.78600

