158

Mg 36.46900 49.93500 25.38100
C  36.61700 48.13700 28.38400
C  35.06000 52.53200 27.28700
C  35.61300 51.50200 22.54600
C  37.41700 47.14600 23.68300
N  35.81200 50.24400 27.65400
C  36.13700 49.36400 28.63100
C  36.00800 50.02700 29.99000
C  35.08400 51.27800 29.60800
C  35.39000 51.41900 28.10300
C  33.53700 51.07200 29.98600
C  37.29800 50.33500 30.77500
C  37.17800 50.18700 32.33000
H  35.83800 50.37800 32.95700
N  35.63400 51.81400 24.94600
C  35.21600 52.70500 25.89800
C  34.75500 53.91600 25.19600
C  34.77900 53.56800 23.79500
C  35.35300 52.32100 23.68500
C  34.35900 55.23000 25.90300
C  34.21400 54.36800 22.67600
O  34.25800 53.99900 21.49900
C  33.53100 55.68700 22.82400
N  36.35600 49.32600 23.43300
C  36.00500 50.16200 22.38700
C  36.37900 49.53500 21.02300
C  37.22000 48.28600 21.41500
C  37.01000 48.21300 22.97100
C  35.20200 49.16400 20.06700
C  38.64900 48.44500 20.97900
C  38.93000 47.36300 19.90200
N  36.91900 47.97300 25.87300
C  37.36700 46.95200 25.07800
C  37.63100 45.74100 25.77700
C  37.41800 46.16800 27.15200
C  37.00300 47.54500 27.13300
C  38.06100 44.50900 25.14000
C  37.36200 45.75200 28.53500
O  37.55300 44.68900 29.05100
C  36.85200 47.00200 29.40000
C  35.69400 46.64000 30.24000
O  34.48800 46.69800 29.95900
O  36.13200 46.41000 31.52000
C  35.01700 46.35200 32.54300
H  34.43700 53.26300 27.80600
H  35.29900 51.97700 21.61500
H  37.79000 46.42600 22.95200
H  35.38900 49.38900 30.62100
H  35.30400 52.19500 30.15500
H  33.44300 50.02800 30.28600
H  32.91200 51.33900 29.13400
H  33.25600 51.83000 30.71700
H  37.60600 51.36000 30.56900
H  38.11800 49.75600 30.35000
H  37.77800 50.92300 32.86400
H  37.52200 49.19600 32.62600
H  33.27200 55.30800 25.92800
H  34.75600 56.09600 25.37300
H  34.83400 55.21300 26.88400
H  32.68600 55.63000 23.51000
H  33.15500 55.87000 21.81700
H  34.30900 56.39300 23.11100
H  37.01500 50.24900 20.50000
H  36.59700 47.44000 21.12800
H  34.24200 49.61400 20.31700
H  35.01400 48.09100 20.07000
H  35.48700 49.49400 19.06700
H  39.36300 48.26500 21.78300
H  38.91900 49.42800 20.59500
H  38.71600 47.73400 18.89900
H  38.43300 46.40400 20.05400
H  40.00900 47.21700 19.86000
H  37.47800 44.34600 24.23300
H  37.69900 43.69300 25.76600
H  39.11400 44.39500 24.88300
H  37.68700 47.16400 30.08100
H  34.30800 47.17200 32.43300
H  35.46700 46.51200 33.52300
H  34.39700 45.45800 32.47800
Mg 17.17400 51.48500 26.40600
C  19.04900 50.33500 29.16100
C  14.63900 52.31600 28.51800
C  15.45500 52.39100 23.71200
C  19.79700 50.27600 24.23600
N  16.83000 51.30400 28.55700
C  17.80200 50.95800 29.55400
C  17.29500 51.14200 30.96700
C  15.81100 51.64400 30.67400
C  15.74300 51.79500 29.14900
C  14.66200 50.79200 31.24800
C  17.97900 52.16200 31.82300
C  17.97500 51.90100 33.38400
H  17.48400 53.06800 34.31400
N  15.27800 52.22800 26.14000
C  14.39100 52.50600 27.13300
C  13.20800 52.95800 26.49600
C  13.32200 52.89800 25.09500
C  14.75300 52.51400 24.95400
C  11.96600 53.30500 27.34600
C  12.31400 53.22300 24.09300
O  12.58400 53.09100 22.90400
C  10.97200 53.90100 24.43400
N  17.55300 51.28400 24.24500
C  16.72600 51.90200 23.40000
C  17.30400 51.89000 21.97000
C  18.81600 51.46400 22.22100
C  18.72900 50.94300 23.62700
C  16.65100 50.95800 20.93100
C  19.98400 52.38500 22.02600
C  20.80000 51.97900 20.78400
N  18.97000 50.41700 26.58500
C  19.91200 50.03600 25.62800
C  21.04300 49.38900 26.30000
C  20.70700 49.43800 27.69600
C  19.47400 50.05100 27.81300
C  22.25900 48.86900 25.61000
C  21.08100 49.11100 29.05900
O  22.08000 48.53300 29.41400
C  20.09500 49.69600 30.09400
C  19.69100 48.69900 31.06800
O  19.16400 47.60400 30.84600
O  20.11800 49.14300 32.31100
C  19.80600 48.45800 33.57300
H  13.85300 52.50600 29.25100
H  14.93800 52.89600 22.89300
H  20.65500 50.02400 23.61000
H  17.32600 50.17700 31.47200
H  15.61500 52.64700 31.05300
H  15.06000 50.03400 31.92400
H  14.25300 50.14600 30.47200
H  13.87300 51.30800 31.79600
H  17.58000 53.17300 31.73900
H  19.00100 52.23800 31.45100
H  18.95900 51.51500 33.65100
H  17.20000 51.14400 33.51000
H  12.03300 54.26400 27.86000
H  11.84300 52.58000 28.15100
H  10.96900 53.33700 26.90600
H  11.14400 54.76700 25.07400
H  10.28700 53.19300 24.90000
H  10.45900 54.19600 23.51800
H  17.28000 52.89000 21.53700
H  19.02100 50.65200 21.52300
H  15.86800 51.33300 20.27100
H  16.22600 50.07400 21.40800
H  17.42300 50.63500 20.23200
H  20.57400 52.37400 22.94300
H  19.63500 53.40800 21.88200
H  20.40400 51.14800 20.20000
H  21.81800 51.83200 21.14500
H  20.83900 52.83400 20.10900
H  22.66700 49.54700 24.86000
H  21.85300 47.93200 25.22800
H  23.06900 48.72100 26.32400
H  20.59200 50.51000 30.62300
H  18.90900 48.93600 33.96600
H  20.61300 48.52500 34.30300
H  19.63500 47.39200 33.42600

