158

Mg 41.46100 40.61700 26.68900
C  41.02700 43.02300 29.07100
C  42.47100 38.45400 29.08700
C  42.32100 38.48700 24.28400
C  40.63700 43.00400 24.25700
N  41.79000 40.81000 28.91000
C  41.44500 41.80200 29.68300
C  41.52000 41.39100 31.11500
C  42.02900 39.91500 31.02500
C  42.08100 39.65900 29.58500
C  43.42100 39.56800 31.71600
C  40.07600 41.46100 31.79100
C  39.86500 40.84000 33.15800
H  39.34300 41.84600 34.15400
N  42.25600 38.67300 26.71100
C  42.61500 37.95900 27.79700
C  43.07200 36.67500 27.33800
C  43.09400 36.64100 25.93400
C  42.54300 37.99400 25.60900
C  43.60200 35.72200 28.31600
C  43.49200 35.53400 24.96200
O  43.26200 35.56200 23.72600
C  44.06000 34.21800 25.45700
N  41.56300 40.78200 24.63400
C  41.91000 39.74300 23.80700
C  41.89100 40.12200 22.28500
C  41.00500 41.34300 22.33000
C  40.98200 41.76700 23.82700
C  43.25200 40.46300 21.68400
C  39.63300 41.18400 21.82300
C  38.51700 40.70200 22.84100
N  40.89400 42.67900 26.61300
C  40.58400 43.48100 25.54900
C  40.32200 44.81000 26.02500
C  40.40500 44.65400 27.46700
C  40.76800 43.34100 27.74600
C  40.16000 46.06000 25.29600
C  40.33800 45.34000 28.76000
O  40.23000 46.54500 29.05200
C  40.58700 44.27700 29.81000
C  41.72900 44.81000 30.59200
O  42.78400 45.24000 30.21100
O  41.43800 44.69000 31.98200
C  42.49200 45.03300 32.94400
H  42.50600 37.73500 29.90800
H  42.44800 37.74600 23.49100
H  40.32500 43.60800 23.40300
H  42.19700 41.99600 31.71800
H  41.25500 39.27000 31.44200
H  44.22300 39.34900 31.01100
H  43.32900 38.68400 32.34800
H  43.83100 40.39700 32.29400
H  39.36400 41.00900 31.09900
H  39.72300 42.48700 31.89800
H  40.87900 40.48400 33.33900
H  39.26800 39.93000 33.11200
H  43.16400 35.79200 29.31200
H  44.68700 35.73400 28.41200
H  43.30300 34.71600 28.02100
H  43.17300 33.69900 25.81900
H  44.59200 34.43600 26.38300
H  44.62200 33.62200 24.73700
H  41.43500 39.24600 21.82500
H  41.53300 42.18100 21.87500
H  43.83400 39.54300 21.73300
H  43.75400 41.25600 22.23900
H  43.20900 40.64000 20.61000
H  39.68100 40.45700 21.01200
H  39.33600 42.16000 21.44200
H  38.73500 40.94000 23.88200
H  38.35600 39.63800 22.66500
H  37.60400 41.28000 22.69700
H  39.42800 46.12900 24.49100
H  41.08300 46.39000 24.81900
H  39.98900 46.79200 26.08400
H  39.77200 44.14600 30.52100
H  43.47600 45.20200 32.50700
H  42.56300 44.19800 33.64100
H  42.33300 45.93700 33.53200
Mg 8.92400 48.86300 26.68500
C  6.44700 48.45600 29.17900
C  11.20100 49.52600 29.07800
C  10.99600 49.11000 24.22000
C  6.29900 48.12400 24.29200
N  8.81000 48.98200 28.92200
C  7.75500 48.78100 29.70900
C  8.06500 49.04200 31.21800
C  9.47000 49.64600 31.15400
C  9.91700 49.32200 29.64300
C  9.60800 51.19000 31.42300
C  7.89500 47.87900 32.20000
C  8.82700 47.85900 33.46100
H  8.40600 47.25700 34.84000
N  10.81200 49.23600 26.63100
C  11.63800 49.52600 27.72300
C  12.97200 49.60700 27.28500
C  13.00000 49.41600 25.87700
C  11.56500 49.26900 25.50500
C  14.16200 49.81400 28.16300
C  14.16600 49.42400 24.87200
O  14.04000 49.36000 23.66400
C  15.52600 49.43400 25.36500
N  8.63000 48.86600 24.57800
C  9.71200 48.91000 23.79500
C  9.39700 48.54000 22.29900
C  7.94500 48.04300 22.38200
C  7.58200 48.36900 23.83100
C  9.74100 49.47300 21.12400
C  7.77400 46.49900 22.12200
C  7.14300 46.05200 20.79000
N  6.77900 48.52000 26.66000
C  5.91000 48.13100 25.62700
C  4.60900 47.97100 26.20600
C  4.73800 48.09800 27.53300
C  6.06700 48.37300 27.81700
C  3.39600 47.50700 25.53200
C  4.05600 48.06700 28.75700
O  2.85300 48.01400 29.01900
C  5.09200 48.35300 29.90000
C  5.09400 47.24400 30.87300
O  5.65600 46.14000 30.75700
O  4.37300 47.66700 32.00100
C  4.29300 46.67100 33.11000
H  11.97600 49.60000 29.84400
H  11.64100 49.11400 23.33900
H  5.68800 47.81800 23.44000
H  7.30300 49.76500 31.51000
H  10.20500 49.11200 31.75600
H  8.64300 51.61900 31.69400
H  9.97300 51.69100 30.52600
H  10.32900 51.26300 32.23800
H  8.15700 46.99300 31.62300
H  6.84600 47.91400 32.49500
H  9.06000 48.88800 33.73300
H  9.78700 47.39500 33.23200
H  13.97900 49.93800 29.23000
H  14.78000 50.64900 27.83400
H  14.81900 48.96700 27.96100
H  15.79500 50.16900 26.12400
H  16.12700 49.77200 24.52000
H  15.81200 48.44300 25.71600
H  10.07900 47.69600 22.20100
H  7.21100 48.65800 21.86100
H  10.49500 48.94900 20.53800
H  10.02100 50.43700 21.55000
H  8.82600 49.66600 20.56400
H  7.26000 46.09400 22.99500
H  8.78100 46.12300 21.94300
H  6.06400 45.95100 20.90200
H  7.50600 45.06800 20.49300
H  7.36400 46.62800 19.89200
H  3.07300 46.63000 26.09300
H  3.73700 47.37900 24.50500
H  2.67200 48.31500 25.63400
H  4.82600 49.25500 30.45200
H  4.62600 47.18500 34.01100
H  4.97700 45.82400 33.04800
H  3.32100 46.19600 33.24200

