158

Mg 53.47200 24.21000 44.47800
C  50.74100 26.21400 43.42800
C  51.90400 21.47600 43.12000
C  56.40700 22.57000 44.44700
C  54.96700 27.08900 45.67400
N  51.74100 23.97500 43.03300
C  50.68000 24.86400 42.92800
C  49.57100 24.24700 42.07500
C  49.75700 22.76700 42.43300
C  51.24900 22.72300 42.85100
C  48.87700 21.98300 43.34300
C  49.68400 24.61500 40.53500
C  48.39600 24.98500 39.74700
H  47.96500 24.12400 38.61200
N  54.05800 22.29300 43.90900
C  53.26300 21.29300 43.34600
C  53.93900 19.97500 43.32400
C  55.22900 20.33900 43.77300
C  55.28000 21.79000 44.11500
C  53.28700 18.68100 42.88000
C  56.34800 19.26200 43.89700
O  56.19000 18.19000 43.42300
C  57.73600 19.50400 44.48800
N  55.45200 24.76500 45.07500
C  56.44600 23.90400 44.87100
C  57.81500 24.70100 44.90900
C  57.34700 26.17000 45.15900
C  55.83500 26.05200 45.25500
C  58.86000 24.18100 45.96200
C  57.93600 27.18300 44.09100
C  58.25200 28.59600 44.60900
N  53.00000 26.22300 44.65300
C  53.66500 27.19200 45.34700
C  52.84200 28.41300 45.34700
C  51.65900 28.02800 44.65100
C  51.83200 26.71700 44.14000
C  53.16600 29.70300 45.93300
C  50.22400 28.44400 44.34500
O  49.62500 29.47700 44.57900
C  49.58200 27.21700 43.54200
C  49.14500 27.68500 42.25600
O  49.87300 27.95300 41.31500
O  47.77200 27.86000 42.25000
C  47.21100 28.42500 40.97200
H  51.26400 20.60000 42.99900
H  57.30900 22.00000 44.21600
H  55.32200 28.03900 46.07800
H  48.62500 24.58500 42.49700
H  49.65700 22.13800 41.54900
H  48.85200 20.92500 43.08200
H  47.89300 22.45100 43.31700
H  49.23900 22.11000 44.36300
H  50.12600 23.79400 39.97100
H  50.41500 25.39700 40.32600
H  48.50500 25.96400 39.28000
H  47.61200 25.04100 40.50300
H  52.56300 18.80400 42.07500
H  52.66300 18.23100 43.65300
H  53.95800 17.89300 42.53900
H  58.37300 20.16100 43.89600
H  58.26900 18.55500 44.42100
H  57.60500 19.72000 45.54900
H  58.24300 24.68100 43.90600
H  57.64800 26.55000 46.13500
H  58.38100 23.67300 46.79900
H  59.52200 24.99500 46.25900
H  59.66500 23.53800 45.60600
H  57.24600 27.26200 43.25100
H  58.85400 26.77200 43.67100
H  57.66900 29.28200 43.99400
H  59.30000 28.82200 44.41200
H  57.99000 28.68400 45.66300
H  53.27200 30.40000 45.10100
H  54.04300 29.61300 46.57300
H  52.37900 30.03000 46.61300
H  48.78800 26.83400 44.18300
H  47.09100 27.69400 40.17300
H  47.78500 29.29100 40.64000
H  46.16700 28.72300 41.06500
Mg 47.49800 34.47800 27.68400
C  46.03000 32.77900 30.34800
C  47.77100 37.22800 29.60100
C  48.77200 36.00700 24.97400
C  46.50000 31.72500 25.58100
N  47.11700 34.86300 29.76700
C  46.62100 34.02200 30.69600
C  46.62300 34.68400 32.04100
C  46.65100 36.22500 31.69500
C  47.13400 36.15100 30.24500
C  45.39500 37.12300 31.79800
C  47.83300 34.11500 32.80500
C  48.21000 34.51100 34.25200
H  47.10900 35.21300 35.11800
N  48.35000 36.37300 27.35200
C  48.39100 37.34000 28.23600
C  49.03700 38.46900 27.63900
C  49.40000 38.11700 26.26100
C  48.82300 36.77500 26.10600
C  49.18200 39.79200 28.39000
C  50.07700 38.89200 25.25200
O  50.38700 38.42100 24.19500
C  50.62900 40.33000 25.50600
N  47.54300 33.95800 25.50700
C  48.17100 34.76600 24.66000
C  48.24400 34.09800 23.28200
C  47.41200 32.78800 23.42300
C  47.11700 32.80200 24.93200
C  47.84900 35.04000 22.13900
C  48.10200 31.54300 22.96600
C  47.18900 30.51800 22.24800
N  46.45600 32.71500 27.84700
C  46.21600 31.63000 26.93400
C  45.61000 30.49800 27.66400
C  45.52600 30.88500 29.02200
C  46.05300 32.22300 29.05200
C  45.32200 29.14500 27.12000
C  45.15800 30.51700 30.38900
O  44.64700 29.48100 30.81300
C  45.13900 31.84700 31.16200
C  45.23600 31.72000 32.62000
O  46.24400 31.27900 33.17400
O  44.04400 32.13300 33.19300
C  43.96300 32.24800 34.61500
H  47.80000 38.15000 30.18600
H  49.24000 36.48900 24.11300
H  46.14000 30.93200 24.92200
H  45.67900 34.36800 32.48600
H  47.50400 36.63000 32.23900
H  45.13600 37.36300 32.83000
H  44.51700 36.60900 31.40500
H  45.43000 38.09600 31.30900
H  48.73500 34.46100 32.29900
H  47.89400 33.03400 32.68100
H  49.11500 35.10200 34.39500
H  48.38900 33.61700 34.84900
H  50.18900 39.93600 28.78200
H  48.49000 39.83700 29.23100
H  49.01100 40.69000 27.79700
H  51.19700 40.65700 24.63400
H  51.08900 40.35400 26.49400
H  49.75600 40.97700 25.59400
H  49.28500 33.84900 23.07700
H  46.47700 32.89200 22.87200
H  47.09900 35.78700 22.40000
H  47.31100 34.46100 21.38800
H  48.73000 35.58900 21.80900
H  48.52400 30.91200 23.74800
H  48.97800 31.65800 22.32800
H  46.53100 30.92500 21.48000
H  46.53900 30.12400 23.03000
H  47.72700 29.65400 21.85800
H  45.46300 29.15400 26.03900
H  44.27300 28.92100 27.31700
H  46.00000 28.44400 27.60700
H  44.13300 32.22600 30.98000
H  44.51800 31.44800 35.10600
H  42.91700 32.27300 34.92100
H  44.55400 33.11800 34.90000

