158

Mg 24.26500 -5.95900 45.88700
C  26.38300 -3.48600 44.35000
C  21.68700 -4.73300 43.92900
C  22.48400 -8.55000 46.86000
C  26.99700 -7.08300 47.72900
N  24.07400 -4.25600 44.38400
C  25.07400 -3.37800 43.89800
C  24.46700 -2.40200 42.87400
C  22.92000 -2.67200 42.98100
C  22.87300 -3.98200 43.76100
C  22.09900 -1.62000 43.73700
C  25.02200 -2.64000 41.45100
C  25.51300 -1.41200 40.66200
H  25.36400 -1.41000 39.08600
N  22.33100 -6.63500 45.31600
C  21.47900 -5.96700 44.52300
C  20.24300 -6.75800 44.59900
C  20.34700 -7.73500 45.58400
C  21.74500 -7.71300 45.95200
C  19.00600 -6.31400 43.72100
C  19.22000 -8.66200 46.09300
O  18.14300 -8.57300 45.50800
C  19.31000 -9.59500 47.29400
N  24.77700 -7.73100 46.89900
C  23.81300 -8.61800 47.24500
C  24.45500 -9.70300 48.19000
C  25.69500 -8.91600 48.83700
C  25.84400 -7.90900 47.76800
C  23.58300 -10.35900 49.26000
C  26.94100 -9.74200 49.13200
C  27.76300 -9.27300 50.33300
N  26.31500 -5.38700 46.13800
C  27.31600 -5.96900 46.86900
C  28.55200 -5.17800 46.65800
C  28.19100 -4.26600 45.70500
C  26.83500 -4.42300 45.34200
C  29.80200 -5.46400 47.39700
C  28.72500 -3.21300 44.87000
O  29.89900 -2.89300 44.76900
C  27.58000 -2.71600 43.94600
C  27.40300 -1.27600 44.18800
O  26.92600 -0.80100 45.24200
O  27.68800 -0.50100 43.07400
C  27.42900 0.95800 43.08200
H  20.87000 -4.18800 43.45100
H  21.83600 -9.33800 47.25000
H  27.81400 -7.28900 48.42400
H  24.69700 -1.42100 43.29200
H  22.41200 -2.91700 42.04800
H  22.79100 -0.80000 43.92900
H  21.63100 -1.92400 44.67300
H  21.23400 -1.28700 43.16400
H  24.18300 -2.98800 40.84700
H  25.89000 -3.29600 41.38400
H  26.52400 -1.06000 40.87100
H  24.84100 -0.70400 41.14700
H  18.58500 -7.04100 43.02600
H  19.28600 -5.45900 43.10600
H  18.20500 -5.96700 44.37400
H  19.70000 -10.52200 46.87300
H  18.30800 -9.62000 47.72200
H  19.91100 -9.10900 48.06200
H  24.83700 -10.49700 47.54800
H  25.29900 -8.37200 49.69400
H  24.06400 -10.68500 50.18200
H  23.20100 -11.33300 48.95300
H  22.83700 -9.63000 49.57500
H  27.50600 -9.93700 48.22000
H  26.45100 -10.67000 49.42900
H  28.33400 -10.12400 50.70400
H  27.03100 -8.83900 51.01300
H  28.43500 -8.47300 50.02100
H  30.57900 -4.76100 47.09800
H  30.15700 -6.48800 47.28200
H  29.72200 -5.17100 48.44400
H  27.66900 -2.87600 42.87100
H  28.04400 1.45300 42.33000
H  27.78400 1.37300 44.02600
H  26.35800 1.03000 42.89500
Mg 26.66100 50.21200 26.27700
C  25.04300 51.85100 28.91500
C  29.18400 49.29700 28.63000
C  28.66100 49.16000 23.75600
C  24.56600 51.84900 24.13600
N  27.01400 50.53700 28.52700
C  26.13100 51.14000 29.35600
C  26.53300 50.91300 30.79900
C  28.00000 50.34000 30.68800
C  28.07500 49.97400 29.18900
C  29.12600 51.28400 31.20400
C  25.46400 49.92300 31.44600
C  24.89000 50.43300 32.81700
H  25.74300 50.94300 33.95100
N  28.57500 49.19600 26.23100
C  29.44900 48.94400 27.28200
C  30.56500 48.22700 26.74700
C  30.50900 48.27900 25.32200
C  29.19600 48.89500 25.05300
C  31.75500 47.81900 27.60800
C  31.67500 47.99700 24.28700
O  31.49500 48.04200 23.10500
C  33.08900 47.71400 24.68900
N  26.71300 50.60800 24.26000
C  27.53400 49.88100 23.43400
C  27.05200 49.89600 21.99300
C  25.66400 50.73500 22.18200
C  25.61200 51.08800 23.63200
C  28.10400 50.40200 21.02700
C  24.27500 50.20200 21.60300
C  23.57300 51.10200 20.52400
N  25.04000 51.56300 26.41500
C  24.29200 52.20700 25.50000
C  23.22900 52.99200 26.07300
C  23.49000 52.90200 27.50400
C  24.62000 52.03800 27.60500
C  22.20000 53.82200 25.43800
C  23.09000 53.35200 28.80600
O  22.20500 54.05600 29.12800
C  24.15200 52.70400 29.82400
C  24.77900 53.73500 30.69300
O  25.85100 54.27500 30.50400
O  23.93400 54.01300 31.67300
C  24.49000 54.98100 32.62300
H  29.85300 48.93900 29.41500
H  29.23700 48.76500 22.91700
H  23.77500 52.22000 23.48200
H  26.44100 51.87800 31.29900
H  28.14500 49.35200 31.12400
H  28.74600 52.29700 31.33600
H  29.95400 51.44800 30.51300
H  29.48000 50.91300 32.16700
H  25.83700 48.90500 31.56400
H  24.58800 49.86000 30.80000
H  24.31300 49.54100 33.06100
H  24.22900 51.25300 32.53700
H  31.95100 46.75100 27.50900
H  31.63100 48.09900 28.65400
H  32.62700 48.44200 27.41300
H  33.49700 48.71300 24.83800
H  33.63900 47.20200 23.89900
H  33.16200 47.16000 25.62500
H  26.77500 48.87100 21.74800
H  25.87700 51.71700 21.76000
H  28.71600 49.73100 20.42400
H  28.71700 51.01900 21.68300
H  27.55300 51.08300 20.37800
H  23.57000 50.21200 22.43300
H  24.31000 49.16800 21.26200
H  22.70200 51.52000 21.03000
H  23.29200 50.50200 19.65800
H  24.26300 51.93500 20.38800
H  21.20300 53.41500 25.60900
H  22.29900 53.74600 24.35500
H  22.24300 54.83000 25.85000
H  23.60800 52.02000 30.47500
H  24.93600 55.83700 32.11700
H  25.17200 54.40000 33.24400
H  23.81200 55.35900 33.38700

