158

Mg 26.15500 0.57100 29.10700
C  27.84900 -0.04100 32.07100
C  23.25800 0.93300 30.92100
C  24.50600 0.83900 26.13300
C  29.07700 -0.32700 27.26900
N  25.64900 0.57300 31.33300
C  26.49100 0.34800 32.32200
C  25.80400 0.80900 33.72800
C  24.34900 0.92900 33.30100
C  24.36500 0.78700 31.75200
C  23.30700 0.04600 34.02300
C  26.41500 2.03700 34.44800
C  26.22900 2.19000 35.99200
H  27.37000 2.49400 36.91700
N  24.19800 0.89800 28.63700
C  23.12500 0.91000 29.50100
C  21.86700 1.15000 28.72000
C  22.18800 1.14600 27.36400
C  23.67300 0.96800 27.36200
C  20.50700 1.15400 29.44400
C  21.33200 1.20000 26.12200
O  21.75500 1.05600 24.97000
C  19.84700 1.33800 26.22100
N  26.78900 0.42700 26.97100
C  25.90000 0.54000 25.96600
C  26.46900 0.11400 24.54800
C  27.99000 -0.01000 24.95700
C  27.98100 -0.02200 26.46900
C  25.80500 -1.11200 23.97600
C  28.83500 1.20300 24.36000
C  30.28200 0.85200 24.08500
N  27.99600 -0.23000 29.53900
C  29.08800 -0.47600 28.69600
C  30.24500 -0.83600 29.44900
C  29.84200 -0.60200 30.80200
C  28.47500 -0.34000 30.79000
C  31.67700 -1.15500 28.91800
C  30.19600 -0.56800 32.21500
O  31.26800 -0.73700 32.75900
C  28.94600 -0.18900 33.04000
C  28.61600 -1.27500 33.98700
O  28.00300 -2.28300 33.68000
O  29.05400 -0.99400 35.26300
C  28.91300 -2.09000 36.23500
H  22.38000 1.25200 31.48600
H  24.12900 1.01800 25.12400
H  30.00000 -0.67200 26.79900
H  25.84000 -0.08100 34.35700
H  24.00200 1.93700 33.53000
H  22.79700 0.78300 34.64200
H  23.70600 -0.78400 34.60700
H  22.71600 -0.45200 33.25500
H  25.87500 2.84300 33.95200
H  27.47500 2.07500 34.19500
H  25.82600 1.21200 36.25600
H  25.45800 2.93300 36.19400
H  19.78400 1.82600 28.98100
H  20.65600 1.52400 30.45900
H  20.17800 0.11900 29.53200
H  19.61500 2.34000 26.58100
H  19.40500 0.45700 26.68600
H  19.35400 1.28600 25.25000
H  26.32800 0.97200 23.89100
H  28.44300 -0.92300 24.57100
H  24.97500 -1.44600 24.59800
H  26.53000 -1.90400 23.78700
H  25.46600 -0.87100 22.96800
H  28.89100 1.96100 25.14100
H  28.41500 1.55500 23.41800
H  31.00000 1.66300 24.20800
H  30.42700 0.34800 23.13000
H  30.58800 0.02900 24.73200
H  31.56200 -1.82300 28.06500
H  32.28700 -1.56900 29.72200
H  32.09800 -0.21500 28.55900
H  29.10800 0.73200 33.59900
H  28.06300 -2.74600 36.04500
H  28.79800 -1.63700 37.21900
H  29.79800 -2.72600 36.22000
Mg 0.17600 43.73600 24.85900
C  2.41700 43.06300 27.47100
C  -2.38800 42.94700 27.09400
C  -2.16400 44.06800 22.28200
C  2.68000 43.98100 22.74100
N  0.08700 42.96200 27.05900
C  1.11400 42.98400 27.95700
C  0.65400 42.81400 29.38200
C  -0.85100 42.56600 29.23600
C  -1.09100 42.74900 27.68000
C  -1.46600 41.26700 29.76300
C  1.01000 44.08100 30.24000
C  1.26100 43.84500 31.78700
H  1.22900 42.49000 32.47800
N  -1.88900 43.52700 24.71600
C  -2.73100 43.13400 25.76100
C  -4.10500 43.14300 25.26700
C  -4.06300 43.48900 23.84500
C  -2.63200 43.75500 23.57000
C  -5.38200 42.95600 26.12300
C  -5.20200 43.59300 22.82000
O  -5.03600 43.91300 21.63800
C  -6.64100 43.31200 23.18400
N  0.28400 44.26100 22.89000
C  -0.77500 44.30300 21.95500
C  -0.27400 44.58000 20.51500
C  1.21600 44.85600 20.79400
C  1.41600 44.33000 22.23700
C  -0.50900 43.58600 19.30600
C  1.67100 46.24000 20.41300
C  0.90600 47.42500 21.12900
N  2.19000 43.52000 24.96800
C  3.14700 43.61400 24.01200
C  4.45500 43.36100 24.52800
C  4.24400 43.19900 25.90300
C  2.87500 43.26100 26.12400
C  5.78000 43.60800 23.69100
C  4.88400 42.96800 27.15100
O  6.07200 42.84700 27.46200
C  3.67200 42.88100 28.23600
C  3.88300 41.54900 28.94000
O  4.06600 40.44700 28.46800
O  3.94700 41.90800 30.25000
C  4.26200 40.69600 31.10100
H  -3.15300 42.83400 27.86500
H  -2.75500 44.01700 21.36500
H  3.48300 44.12800 22.01600
H  1.11500 41.91900 29.79900
H  -1.46800 43.35600 29.66500
H  -2.33100 41.44600 30.40200
H  -0.84400 40.75600 30.49700
H  -1.81900 40.67800 28.91600
H  0.11700 44.70500 30.27800
H  1.87800 44.55700 29.78300
H  0.51300 44.48100 32.26000
H  2.27500 44.18700 31.99400
H  -5.84300 43.90200 26.40900
H  -5.11500 42.53300 27.09200
H  -6.20400 42.31900 25.79600
H  -6.88700 43.93700 24.04300
H  -6.75900 42.29300 23.55200
H  -7.35500 43.67200 22.44400
H  -0.75300 45.53800 20.31100
H  1.83200 44.20200 20.17700
H  -1.01000 44.23000 18.58400
H  -1.19100 42.76800 19.53500
H  0.37200 43.21800 18.78000
H  1.70100 46.44500 19.34300
H  2.69000 46.26000 20.80000
H  1.56700 48.10600 21.66500
H  0.19800 47.19500 21.92500
H  0.29800 47.88000 20.34700
H  6.40600 42.76400 23.98100
H  6.33900 44.49600 23.98800
H  5.67300 43.64700 22.60700
H  3.70600 43.65200 29.00500
H  4.83000 39.91900 30.58900
H  3.31000 40.29200 31.44400
H  4.84300 41.08700 31.93700

