158

Mg 46.42900 16.28300 28.21700
C  44.09800 15.80600 30.77900
C  48.48300 17.64600 30.57800
C  48.28200 17.26200 25.66700
C  44.06700 14.92700 25.93300
N  46.25400 16.71100 30.39900
C  45.25500 16.40300 31.18800
C  45.55400 16.82100 32.64800
C  46.86800 17.61300 32.53200
C  47.28700 17.26900 31.09000
C  46.70300 19.15500 32.80400
C  45.74500 15.55400 33.53000
C  46.45300 15.71400 34.91400
H  46.03400 16.83500 35.88500
N  48.18100 17.23500 28.12100
C  48.94700 17.61900 29.19100
C  50.19600 18.23300 28.70200
C  50.18800 18.12000 27.25500
C  48.86200 17.49000 26.93900
C  51.21400 18.78100 29.67600
C  51.24900 18.45500 26.29300
O  51.14400 18.16800 25.09400
C  52.50000 19.16800 26.73500
N  46.17300 16.16500 26.05600
C  47.10100 16.65600 25.25700
C  46.67300 16.46600 23.75100
C  45.44100 15.54700 23.90100
C  45.23600 15.46100 25.37100
C  46.44700 17.81300 23.09600
C  45.58400 14.11800 23.29200
C  44.55500 13.62500 22.38200
N  44.48900 15.54800 28.25800
C  43.65900 15.05300 27.28400
C  42.37300 14.75600 27.91600
C  42.46700 15.02400 29.29900
C  43.78200 15.47700 29.46300
C  41.25200 14.19700 27.12200
C  41.89300 14.97600 30.56600
O  40.83000 14.54700 30.93200
C  42.94400 15.54100 31.59000
C  42.31600 16.61400 32.35600
O  42.05600 17.75300 31.95700
O  42.14700 16.17800 33.64500
C  41.91000 17.26000 34.52200
H  49.08700 18.13300 31.34700
H  48.85700 17.48200 24.76500
H  43.33100 14.57200 25.20900
H  44.80700 17.53600 32.99400
H  47.69700 17.23600 33.13100
H  47.33700 19.35800 33.66700
H  45.65400 19.35100 33.02100
H  47.05500 19.70400 31.93000
H  46.02900 14.70800 32.90400
H  44.77300 15.40000 33.99900
H  47.51100 15.84900 34.69000
H  46.26400 14.74800 35.38300
H  51.85600 19.55200 29.25100
H  51.82800 17.93600 29.98700
H  50.66900 19.35800 30.42300
H  53.14100 18.73200 27.50200
H  52.05200 20.09000 27.10600
H  53.08800 19.35900 25.83800
H  47.53400 16.00300 23.27000
H  44.51200 15.89300 23.45000
H  45.48600 17.97800 22.61000
H  47.26800 17.97400 22.39700
H  46.60100 18.51300 23.91700
H  45.72500 13.37600 24.07800
H  46.59300 13.98400 22.90100
H  44.30700 12.61400 22.70200
H  44.85300 13.49500 21.34200
H  43.63300 14.19500 22.50400
H  40.28900 14.43000 27.57600
H  41.43500 13.12300 27.06900
H  41.27400 14.61100 26.11400
H  43.04100 14.72200 32.30300
H  42.72400 17.97700 34.62600
H  41.84400 16.78200 35.50000
H  40.94200 17.72000 34.32500
Mg 7.38700 53.97900 41.96600
C  6.72600 50.34800 41.57800
C  10.55800 53.38300 41.03000
C  7.81300 57.27600 41.91800
C  3.89300 54.45600 41.87500
N  8.42400 52.07800 41.28500
C  8.09700 50.74600 41.22300
C  9.35600 49.87700 41.14100
C  10.51700 50.86400 41.32700
C  9.78800 52.23100 41.21900
C  11.24400 50.73800 42.73100
C  9.40900 49.13100 39.74900
C  9.10300 50.08800 38.52800
H  8.05300 49.56900 37.53600
N  8.98800 55.21600 41.54400
C  10.21300 54.80600 41.14200
C  11.16200 55.92900 40.99200
C  10.37600 57.09800 41.29800
C  8.99800 56.61700 41.62800
C  12.61600 55.83500 40.53400
C  10.94000 58.52700 41.36100
O  12.08400 58.77300 41.05100
C  10.09700 59.72700 41.81200
N  6.11300 55.55300 41.79800
C  6.50900 56.86600 41.97700
C  5.39000 57.85800 41.83500
C  4.11100 56.97100 41.91500
C  4.73400 55.58400 41.77700
C  5.29800 59.13000 42.72600
C  3.09500 57.21900 40.78600
C  1.63400 57.16800 41.22500
N  5.65600 52.65400 41.93600
C  4.27500 53.01700 41.97300
C  3.50700 51.75900 42.16800
C  4.41600 50.71300 42.05800
C  5.65900 51.29300 41.78900
C  2.03400 51.72700 42.54900
C  4.62900 49.26800 42.06300
O  3.83300 48.37300 42.45100
C  6.09000 48.95500 41.59800
C  6.03700 48.22500 40.30500
O  5.38100 48.61300 39.35900
O  6.59800 46.93800 40.51400
C  6.31900 45.99800 39.36500
H  11.61500 53.11100 41.00000
H  7.83000 58.35500 42.08500
H  2.84000 54.71600 41.99800
H  9.26500 49.00500 41.78800
H  11.28700 50.74600 40.56500
H  12.29300 50.47000 42.60600
H  10.79400 50.21400 43.57500
H  11.31200 51.75500 43.11600
H  8.89700 48.16900 39.77600
H  10.43400 48.76400 39.68900
H  10.02900 50.19800 37.96300
H  8.87700 51.10000 38.86400
H  12.74200 54.95500 39.90200
H  13.28500 55.73800 41.38900
H  13.00500 56.69400 39.98700
H  9.33800 59.86100 41.04000
H  10.67900 60.64900 41.79600
H  9.69000 59.47000 42.79000
H  5.43100 58.30600 40.84200
H  3.69000 56.89600 42.91800
H  6.21400 59.16600 43.31600
H  4.45800 58.98400 43.40600
H  5.20200 59.95200 42.01700
H  3.14400 56.61300 39.88100
H  3.25700 58.24200 40.44800
H  1.08800 56.44400 40.62000
H  1.13700 58.10600 40.97700
H  1.50000 57.02100 42.29700
H  1.72300 52.76600 42.65900
H  1.71700 51.27900 43.49000
H  1.48500 51.25700 41.73300
H  6.49400 48.33300 42.39600
H  5.88800 45.07700 39.75800
H  7.27300 45.70200 38.92600
H  5.66800 46.36700 38.57200

