158

Mg 2.44800 -1.45900 44.17600
C  5.78700 -0.31900 43.96600
C  1.54200 1.41500 42.48700
C  -0.60400 -2.75600 43.71300
C  3.65100 -4.55300 45.29000
N  3.51600 0.28000 43.34300
C  4.86800 0.57800 43.42200
C  5.26300 1.85600 42.61200
C  3.90600 2.53000 42.42800
C  2.89500 1.30800 42.78700
C  3.55900 3.88600 43.20900
C  5.97500 1.42400 41.29600
C  7.20800 2.24200 40.85800
H  6.94200 3.32300 39.81300
N  0.68200 -0.64500 43.36400
C  0.53400 0.49800 42.69700
C  -0.80100 0.56800 42.33300
C  -1.52100 -0.52200 42.74900
C  -0.45700 -1.31700 43.32100
C  -1.39500 1.86300 41.74500
C  -3.03900 -0.69300 42.56400
O  -3.72700 0.16100 42.02400
C  -3.79000 -1.79900 43.27000
N  1.66700 -3.41000 44.51000
C  0.33400 -3.64700 44.24200
C  0.00700 -5.16900 44.60200
C  1.30100 -5.65200 45.35800
C  2.25300 -4.44200 45.12400
C  -1.28100 -5.35700 45.41700
C  1.85000 -7.08000 44.85100
C  2.26700 -8.09800 45.90400
N  4.35100 -2.33200 44.59800
C  4.61600 -3.60600 45.02700
C  6.06100 -3.61300 45.28100
C  6.58500 -2.36700 44.83200
C  5.50800 -1.66000 44.34300
C  6.83200 -4.75500 45.94300
C  7.76300 -1.48200 44.74700
O  8.98400 -1.74400 44.88600
C  7.30100 -0.21300 43.93600
C  7.85100 0.89800 44.73900
O  7.46900 1.11900 45.85000
O  8.78300 1.58200 44.03000
C  9.20700 2.88500 44.63800
H  1.38300 2.33900 41.92800
H  -1.49400 -3.36800 43.55500
H  3.97700 -5.52700 45.66100
H  5.90500 2.57600 43.11900
H  3.74000 2.73500 41.37000
H  3.00100 4.57900 42.57900
H  4.50700 4.32700 43.51700
H  3.00500 3.69800 44.12900
H  5.21100 1.47200 40.52000
H  6.40500 0.42400 41.34800
H  8.00400 1.53700 40.61700
H  7.60000 2.87400 41.65500
H  -1.74400 1.55300 40.76100
H  -0.62900 2.60700 41.52400
H  -2.08800 2.30100 42.46400
H  -4.86400 -1.63600 43.18400
H  -3.45600 -1.77100 44.30700
H  -3.53300 -2.70500 42.72000
H  -0.11500 -5.77400 43.70300
H  1.17600 -5.60500 46.44000
H  -1.94500 -6.08100 44.94400
H  -1.82700 -4.44700 45.66600
H  -0.98200 -5.81600 46.35900
H  2.68000 -6.92300 44.16200
H  1.08500 -7.58600 44.26100
H  1.69600 -9.02500 45.86000
H  1.88700 -7.72000 46.85300
H  3.34600 -8.12200 45.74900
H  6.19600 -5.31800 46.62700
H  7.69700 -4.37200 46.48400
H  7.15300 -5.48400 45.19900
H  7.70900 -0.13200 42.92800
H  8.27900 3.45600 44.63600
H  10.03000 3.40500 44.14600
H  9.35000 2.89600 45.71900
Mg -5.62400 25.54000 25.96100
C  -4.41000 26.72800 29.03400
C  -7.39500 23.06500 27.72600
C  -6.15200 23.83600 23.10800
C  -3.29000 27.67500 24.41000
N  -5.73200 24.91500 28.17200
C  -5.33800 25.63900 29.24400
C  -5.99700 25.11700 30.50400
C  -6.80200 23.82800 30.04700
C  -6.61600 23.89200 28.52000
C  -6.19600 22.50600 30.67300
C  -6.90700 26.19400 31.14600
C  -6.70600 26.30700 32.67700
H  -6.36300 25.09200 33.49300
N  -6.84300 23.87900 25.44800
C  -7.50300 23.02400 26.31300
C  -8.46600 22.27500 25.56100
C  -8.05200 22.31600 24.18700
C  -6.95500 23.35900 24.23500
C  -9.61400 21.51000 26.31200
C  -8.64800 21.76100 22.94500
O  -8.29900 22.12000 21.81700
C  -9.81700 20.78300 23.18200
N  -4.71300 25.68300 24.03900
C  -5.12000 24.81400 23.05700
C  -4.40200 25.26300 21.74700
C  -3.74900 26.61700 22.11700
C  -3.92500 26.67100 23.60600
C  -3.52300 24.15400 21.16000
C  -4.42200 27.83200 21.36000
C  -3.49500 28.52800 20.33300
N  -4.16400 27.01200 26.53100
C  -3.23400 27.76900 25.80600
C  -2.61200 28.69200 26.71000
C  -3.05000 28.33900 28.01200
C  -3.99500 27.27200 27.84300
C  -1.71400 29.81600 26.27900
C  -2.82600 28.67200 29.38000
O  -2.12000 29.46000 30.02200
C  -3.79300 27.65700 30.10400
C  -3.15400 26.88800 31.20400
O  -2.71000 25.75500 31.17700
O  -3.02400 27.73100 32.27700
C  -2.36100 27.15600 33.41500
H  -8.15100 22.48700 28.26100
H  -6.25000 23.16500 22.25200
H  -2.62900 28.43500 23.98700
H  -5.20600 24.87800 31.21500
H  -7.83400 23.97800 30.36300
H  -5.34700 22.11800 30.10900
H  -7.01300 21.82700 30.91900
H  -5.65100 22.61600 31.61000
H  -7.96300 25.93800 31.06200
H  -6.56000 27.12500 30.69600
H  -7.48300 26.78400 33.27400
H  -5.86400 26.99200 32.78300
H  -10.49400 21.53700 25.66900
H  -9.90200 22.01300 27.23500
H  -9.36800 20.46200 26.47900
H  -10.02800 20.32500 22.21500
H  -10.62900 21.49000 23.34900
H  -9.50800 20.08400 23.96000
H  -5.14300 25.39400 20.95900
H  -2.69900 26.58800 21.82800
H  -2.47400 24.44800 21.12100
H  -3.82100 23.85700 20.15400
H  -3.69900 23.36200 21.88700
H  -4.69600 28.56600 22.11900
H  -5.34600 27.48500 20.89600
H  -3.88200 28.33200 19.33300
H  -2.50400 28.08400 20.42100
H  -3.48000 29.59400 20.55900
H  -0.93100 29.79100 27.03700
H  -2.23900 30.76900 26.34000
H  -1.31100 29.56000 25.29900
H  -4.67200 28.18900 30.46700
H  -2.48700 27.73200 34.33200
H  -1.29100 27.17800 33.20800
H  -2.54300 26.10100 33.61800

