158

Mg 17.50300 -1.29000 27.17500
C  16.53400 0.56700 29.93900
C  19.44000 -3.29800 29.12900
C  18.73300 -2.82200 24.39200
C  15.82000 1.04200 25.12000
N  17.97100 -1.30200 29.23400
C  17.38100 -0.52500 30.24800
C  17.84700 -0.92900 31.67800
C  18.88100 -2.08400 31.31800
C  18.80200 -2.18900 29.79200
C  20.33900 -1.69100 31.73000
C  16.73000 -1.35700 32.67900
C  16.75000 -0.77800 34.14400
H  18.02400 -0.34200 34.76500
N  18.74300 -3.00700 26.82300
C  19.43200 -3.68900 27.78600
C  20.10900 -4.82400 27.18100
C  19.87400 -4.77000 25.81900
C  19.09700 -3.47500 25.56400
C  21.12300 -5.74000 27.88100
C  20.23000 -5.77000 24.70000
O  19.88200 -5.64500 23.55000
C  21.04000 -7.06200 24.96500
N  17.32300 -0.86000 25.07800
C  17.91700 -1.72300 24.14200
C  17.80100 -0.96000 22.78300
C  16.54500 -0.06000 22.96200
C  16.60500 0.10200 24.45800
C  19.17300 -0.30300 22.41900
C  15.26600 -0.71500 22.37200
C  14.37500 0.34300 21.71500
N  16.34500 0.50600 27.40300
C  15.65400 1.27000 26.51900
C  14.97600 2.29200 27.24900
C  15.32600 2.09400 28.54100
C  16.09900 0.92400 28.64100
C  14.02300 3.35900 26.67300
C  15.03800 2.54200 29.93500
O  14.34100 3.46600 30.41700
C  15.88100 1.56200 30.85400
C  16.92300 2.45800 31.62800
O  17.96100 2.89600 31.12400
O  16.45000 2.58000 32.93200
C  17.31000 3.54400 33.69900
H  20.09900 -3.93900 29.72000
H  19.09200 -3.28800 23.47200
H  15.18900 1.70900 24.52800
H  18.40300 -0.11200 32.13800
H  18.65300 -3.04000 31.78900
H  20.40600 -0.95400 32.53000
H  21.03200 -1.43600 30.92900
H  20.86400 -2.49100 32.25200
H  16.64100 -2.43700 32.79700
H  15.78300 -1.08700 32.21300
H  16.31000 -1.53300 34.79600
H  16.10900 0.10300 34.09300
H  20.56700 -6.67700 27.90000
H  21.40800 -5.56400 28.91900
H  22.05000 -5.86000 27.32000
H  21.17300 -7.75800 24.13700
H  20.54200 -7.55900 25.79800
H  22.05700 -6.84100 25.28600
H  17.61200 -1.69500 22.00100
H  16.77000 0.87200 22.44500
H  19.06600 0.78100 22.46300
H  19.45900 -0.67800 21.43700
H  19.88000 -0.57800 23.20200
H  14.74900 -1.06000 23.26700
H  15.43100 -1.41600 21.55400
H  14.86400 1.31700 21.67600
H  13.37200 0.36700 22.14000
H  14.25600 0.14800 20.64900
H  14.40800 4.37200 26.79300
H  13.12100 3.26400 27.27800
H  13.67500 3.36400 25.64000
H  15.16900 1.07600 31.52100
H  17.16100 4.47400 33.15000
H  18.33500 3.17700 33.74100
H  17.03700 3.72400 34.73900
Mg 41.11400 41.98500 27.32000
C  40.55700 44.32500 29.79700
C  42.11700 39.79300 29.73100
C  42.32300 39.86900 24.90600
C  40.59200 44.48600 24.93700
N  41.42200 42.12500 29.43700
C  41.05800 43.14900 30.31600
C  41.05700 42.74700 31.82800
C  41.87100 41.38300 31.74500
C  41.84800 41.06700 30.26600
C  43.21600 41.42500 32.47500
C  39.75100 42.68200 32.63000
C  39.75300 43.59900 33.88600
H  39.18400 43.00800 35.13400
N  41.96600 40.05300 27.36100
C  42.21000 39.28100 28.44100
C  42.70500 37.89600 28.04200
C  42.74300 37.87800 26.61000
C  42.30000 39.30600 26.23100
C  43.00600 36.85200 29.02800
C  43.11000 36.84200 25.65700
O  43.14600 36.96300 24.48700
C  43.58500 35.49400 26.17000
N  41.49100 42.18700 25.29800
C  41.91900 41.08900 24.46600
C  41.68300 41.40200 22.97600
C  40.94700 42.79400 23.05200
C  40.96000 43.16400 24.56100
C  42.93400 41.31600 22.10400
C  39.62700 42.71500 22.27700
C  38.52300 41.92300 22.95100
N  40.66200 44.00200 27.28000
C  40.46400 44.98100 26.25500
C  39.95700 46.23200 26.81900
C  40.02700 46.01000 28.18900
C  40.46900 44.72500 28.44800
C  39.38000 47.42000 26.05100
C  39.85400 46.64500 29.45900
O  39.57800 47.79400 29.70000
C  40.07600 45.54900 30.61200
C  41.02200 46.12800 31.68900
O  42.22000 46.36900 31.57000
O  40.30100 46.50000 32.72900
C  40.90200 47.13700 33.86000
H  42.29900 38.99500 30.45300
H  42.66700 39.20600 24.11000
H  40.35400 45.25300 24.19700
H  41.65500 43.56000 32.24000
H  41.30700 40.65200 32.32500
H  43.57600 42.39600 32.81500
H  43.91800 41.03600 31.73700
H  43.12000 40.75300 33.32800
H  39.45000 41.68800 32.96100
H  38.96800 43.15400 32.03700
H  39.04700 44.38900 33.62900
H  40.67100 44.12900 34.14300
H  43.11800 37.24600 30.03900
H  43.94900 36.36500 28.78000
H  42.09400 36.26300 29.12200
H  42.84300 34.94400 26.74900
H  44.58100 35.64100 26.58700
H  43.71700 34.86900 25.28700
H  41.09000 40.58000 22.57300
H  41.60300 43.51700 22.56800
H  42.67200 41.09200 21.07000
H  43.60600 40.53900 22.47100
H  43.43600 42.25700 21.87900
H  39.82000 42.28300 21.29500
H  39.29300 43.73600 22.09300
H  37.68100 42.61200 22.89000
H  38.78200 41.61300 23.96300
H  38.19900 41.04000 22.39900
H  38.50400 47.79000 26.58400
H  39.12400 47.01200 25.07400
H  40.24400 48.08200 25.98500
H  39.10700 45.33600 31.06200
H  41.59300 47.92600 33.56600
H  41.43600 46.41300 34.47600
H  40.11900 47.53200 34.50800

