158

Mg 24.40000 -5.39800 46.08500
C  26.90200 -3.17600 44.87900
C  22.38700 -4.11700 43.71100
C  22.47100 -8.06300 46.54700
C  26.92700 -7.01000 47.98600
N  24.64900 -3.71600 44.55600
C  25.70000 -2.94900 44.27800
C  25.39900 -2.03500 43.11100
C  23.85000 -2.16400 42.93100
C  23.60800 -3.45200 43.78300
C  22.95700 -0.98200 43.39400
C  26.21700 -2.39600 41.84700
C  26.70900 -1.21900 40.97000
H  26.46000 -1.27500 39.38900
N  22.61400 -6.01000 45.37400
C  21.97700 -5.36800 44.35400
C  20.66500 -5.97600 44.17100
C  20.53200 -7.01900 45.13500
C  21.90300 -7.08300 45.77800
C  19.73300 -5.69300 43.02400
C  19.34500 -7.90800 45.41900
O  18.34600 -7.83200 44.76100
C  19.40000 -8.87100 46.52800
N  24.69800 -7.29800 47.13800
C  23.75100 -8.24500 47.08100
C  24.11000 -9.50200 47.88500
C  25.56500 -9.20900 48.33800
C  25.78700 -7.77200 47.78100
C  23.10300 -9.91100 48.97400
C  26.78000 -10.12700 47.94500
C  26.54100 -11.53300 47.32200
N  26.54700 -5.19500 46.42500
C  27.39100 -5.88400 47.23400
C  28.69200 -5.23200 47.26300
C  28.54300 -4.20000 46.31500
C  27.20500 -4.21700 45.84600
C  29.90000 -5.74700 48.01300
C  29.25100 -3.07800 45.76100
O  30.34700 -2.51500 45.99000
C  28.25900 -2.49800 44.65900
C  28.19200 -1.03900 44.68400
O  27.50000 -0.32200 45.43500
O  29.02900 -0.56900 43.66100
C  29.16200 0.90500 43.51700
H  21.80100 -3.55800 42.97900
H  21.87600 -8.95600 46.74700
H  27.84100 -7.43400 48.40700
H  25.59000 -1.04400 43.52300
H  23.67300 -2.32900 41.86800
H  22.66200 -0.47200 42.47700
H  23.47300 -0.23900 44.00300
H  22.12800 -1.35300 43.99600
H  25.60700 -3.05500 41.22900
H  27.07800 -3.01200 42.10500
H  27.78800 -1.24000 41.12300
H  26.46400 -0.25400 41.41200
H  18.93000 -5.29900 43.64700
H  19.35400 -6.60100 42.55500
H  20.11500 -4.89100 42.39200
H  19.74900 -8.29300 47.38300
H  20.11400 -9.68100 46.37400
H  18.41400 -9.22500 46.82700
H  24.19000 -10.28800 47.13300
H  25.61100 -9.17600 49.42600
H  22.59500 -10.78800 48.57200
H  22.31800 -9.20800 49.25000
H  23.65000 -10.16900 49.88100
H  27.37000 -10.22900 48.85700
H  27.38800 -9.54800 47.25000
H  25.51400 -11.85900 47.48700
H  27.25000 -12.22000 47.78500
H  26.79400 -11.48400 46.26300
H  29.52800 -5.79800 49.03600
H  30.60400 -4.92700 47.87200
H  30.10300 -6.69800 47.52000
H  28.70100 -2.95300 43.77200
H  28.66400 1.37000 44.36800
H  28.77600 1.23000 42.55100
H  30.22100 1.12900 43.65100
Mg 55.15800 23.79600 45.09600
C  52.36900 25.75400 43.95800
C  53.46300 21.04300 43.78600
C  57.91100 22.11000 45.23700
C  56.86800 26.78500 45.91700
N  53.16400 23.49500 43.82100
C  52.18800 24.45400 43.56800
C  50.96000 23.81700 42.95300
C  51.16700 22.32700 43.36500
C  52.70300 22.22100 43.66700
C  50.33700 21.80300 44.61000
C  50.95600 24.13900 41.37800
C  49.67100 24.11600 40.56600
H  49.80600 23.95100 39.00800
N  55.67900 21.79900 44.67800
C  54.81600 20.78900 44.20100
C  55.57300 19.47700 44.19100
C  56.90700 19.80200 44.49400
C  56.86900 21.24000 44.80600
C  54.92900 18.21200 43.74900
C  58.06600 18.85200 44.51800
O  57.96200 17.62500 44.32200
C  59.58000 19.24500 44.54100
N  57.08500 24.34300 45.58300
C  58.02500 23.43800 45.54700
C  59.41700 24.11900 45.86700
C  59.07200 25.58900 46.23300
C  57.61500 25.60200 45.88600
C  60.39000 23.36900 46.83700
C  59.92700 26.59300 45.34900
C  60.32300 27.87900 46.17100
N  54.68300 25.79600 45.15100
C  55.45500 26.87500 45.53000
C  54.58900 27.99800 45.67300
C  53.38000 27.60000 45.02400
C  53.50100 26.26600 44.65900
C  54.86400 29.25300 46.34800
C  52.04500 28.10500 44.68100
O  51.53800 29.22900 44.91300
C  51.35900 26.91200 43.81100
C  51.18400 27.43500 42.48200
O  52.07400 27.55800 41.56500
O  49.88200 27.89800 42.35400
C  49.29400 28.08700 41.00600
H  52.81800 20.21100 43.49500
H  58.85600 21.58500 45.39400
H  57.38600 27.68300 46.26000
H  50.04600 24.25700 43.35300
H  50.87200 21.66900 42.54700
H  49.87700 22.58500 45.21500
H  50.98800 21.22900 45.26800
H  49.60300 21.07500 44.26200
H  51.63300 23.35100 41.04900
H  51.42500 25.11500 41.25700
H  49.03900 24.98300 40.75700
H  49.16600 23.26400 41.02100
H  55.35900 17.99500 42.77200
H  53.83900 18.24500 43.76800
H  55.20800 17.32800 44.32200
H  59.59700 19.75700 43.57900
H  60.25300 18.40000 44.39400
H  59.96900 19.88400 45.33300
H  59.80800 24.10200 44.85000
H  59.20100 25.80300 47.29300
H  59.86100 22.54100 47.30900
H  60.75200 24.03200 47.62300
H  61.23900 22.96400 46.28600
H  59.37800 26.90300 44.46000
H  60.81700 26.06700 45.00300
H  60.40000 28.75200 45.52200
H  61.36600 27.72900 46.44800
H  59.69500 28.09300 47.03500
H  54.00700 29.84600 46.66900
H  55.58900 29.83300 45.77700
H  55.38300 29.02800 47.27900
H  50.37900 26.80400 44.27500
H  49.83500 27.63300 40.17600
H  49.24000 29.16700 40.87000
H  48.30000 27.65700 40.87600

