158

Mg 9.07100 4.00100 27.93400
C  10.04200 2.26800 30.88900
C  7.48100 6.37800 29.99500
C  7.48900 5.20700 25.17900
C  10.28300 1.20700 25.99600
N  8.81000 4.29000 30.19500
C  9.34400 3.44900 31.16400
C  9.07200 4.04000 32.59500
C  8.05300 5.15800 32.29800
C  8.17000 5.30700 30.69300
C  6.65900 4.98200 32.88600
C  10.35900 4.44800 33.42000
C  10.08100 4.66900 34.87100
H  10.61100 3.65200 35.93800
N  7.87000 5.72800 27.58900
C  7.36100 6.55300 28.55800
C  6.54900 7.57800 27.86900
C  6.48900 7.24500 26.50300
C  7.30900 5.98600 26.36200
C  5.86700 8.72600 28.57100
C  5.85400 8.06400 25.35500
O  5.91400 7.65100 24.20100
C  5.16200 9.35200 25.65600
N  8.91400 3.27400 25.84800
C  8.25700 4.01100 24.97600
C  8.41500 3.42000 23.56500
C  9.49500 2.33300 23.76500
C  9.51200 2.19800 25.30300
C  7.04900 2.85100 23.01100
C  10.95000 2.70400 23.22200
C  11.62200 1.58000 22.49400
N  10.10300 2.24000 28.27400
C  10.52500 1.26100 27.40000
C  11.31000 0.30800 28.24000
C  11.11400 0.63300 29.58600
C  10.36900 1.83300 29.55800
C  12.15800 -0.84300 27.76300
C  11.50300 0.31100 30.98600
O  12.16300 -0.59700 31.46300
C  10.77700 1.32000 31.85100
C  10.07100 0.49500 32.77900
O  8.95100 0.07000 32.58300
O  10.76200 0.49800 34.01200
C  9.94200 -0.11400 35.12600
H  6.92400 7.04000 30.66200
H  6.88700 5.58100 24.34800
H  10.74400 0.32200 25.55100
H  8.46800 3.23000 33.00500
H  8.36600 6.08000 32.78600
H  6.50300 5.89500 33.46100
H  6.46200 4.13500 33.54200
H  5.84900 4.89400 32.16200
H  10.64500 5.40900 32.99100
H  11.20400 3.76000 33.43700
H  9.01100 4.74300 35.06600
H  10.52600 5.61600 35.17600
H  6.33700 9.70500 28.66500
H  5.91700 8.58400 29.65100
H  4.84900 8.70900 28.18100
H  5.77800 10.00600 26.27300
H  4.34600 8.94300 26.25100
H  4.80700 9.93600 24.80700
H  8.84900 4.17600 22.91100
H  9.06700 1.38400 23.44200
H  7.14500 1.79900 22.74100
H  6.75000 3.41900 22.13000
H  6.24700 2.97800 23.73800
H  11.50500 3.09800 24.07400
H  10.80600 3.50300 22.49400
H  11.58800 1.74200 21.41600
H  11.21500 0.59600 22.72800
H  12.67800 1.41300 22.70900
H  12.71300 -0.61500 26.85300
H  11.46800 -1.68000 27.65500
H  12.82900 -1.14000 28.56900
H  11.56900 1.84400 32.38600
H  9.85300 -1.17400 34.88800
H  8.90200 0.20400 35.19100
H  10.48400 -0.04600 36.06900
Mg 45.97000 2.40400 47.72800
C  43.58000 4.92400 47.20300
C  43.38200 0.05200 47.81200
C  48.23800 0.04500 47.69000
C  48.38300 4.82100 47.18100
N  43.84100 2.52100 47.62400
C  43.04200 3.63900 47.34100
C  41.50600 3.31200 47.23400
C  41.36600 1.81900 47.68000
C  42.93600 1.42100 47.66900
C  40.70800 1.59100 49.05900
C  40.91700 3.49500 45.78700
C  39.48000 3.92100 45.79700
H  38.99000 5.01500 44.83900
N  45.80100 0.28200 47.70500
C  44.67000 -0.48400 47.79800
C  45.01700 -1.90900 47.86600
C  46.44200 -1.95900 47.75800
C  46.93400 -0.53500 47.73000
C  43.92900 -2.93100 47.99200
C  47.24500 -3.22300 47.56700
O  46.67900 -4.35300 47.61500
C  48.74900 -3.20900 47.27600
N  47.95000 2.40700 47.21100
C  48.67400 1.34600 47.52300
C  50.22900 1.58200 47.50900
C  50.24000 3.12600 47.14200
C  48.77900 3.53700 47.16400
C  50.87100 1.32000 48.96800
C  50.90300 3.44300 45.71800
C  52.09300 4.44200 45.72000
N  45.99300 4.53900 47.28300
C  47.05800 5.34500 47.18800
C  46.61600 6.73600 46.94200
C  45.21200 6.60500 46.94900
C  44.89700 5.23000 47.16800
C  47.44900 7.95200 46.74500
C  43.94700 7.29500 46.81400
O  43.66100 8.45800 46.59900
C  42.88500 6.17900 46.95200
C  41.95400 6.63600 48.06300
O  42.23900 6.61500 49.27200
O  40.81300 7.22800 47.53300
C  39.69700 7.38800 48.42300
H  42.61000 -0.70600 47.96100
H  49.00300 -0.71900 47.83700
H  49.21100 5.52500 47.27900
H  40.96900 3.99300 47.89400
H  40.66500 1.30300 47.02500
H  40.41200 2.57300 49.42900
H  41.46300 1.26900 49.77600
H  39.89700 0.86500 49.10600
H  40.97200 2.51400 45.31500
H  41.57300 4.13900 45.20200
H  39.02400 4.26100 46.72700
H  38.87900 3.06300 45.49600
H  43.43200 -3.07500 47.03300
H  43.23700 -2.59800 48.76600
H  44.40000 -3.87500 48.26900
H  49.40900 -2.77300 48.02500
H  49.03200 -2.87600 46.27800
H  49.10200 -4.22900 47.12500
H  50.72600 1.04800 46.69900
H  50.89500 3.73900 47.76100
H  51.15600 2.26100 49.44000
H  51.76300 0.70000 48.88100
H  50.13400 0.86700 49.63100
H  50.09500 3.84900 45.11000
H  51.17000 2.58300 45.10500
H  52.47900 4.73000 46.69700
H  51.93500 5.34100 45.12400
H  52.88100 3.86100 45.24100
H  47.69200 8.57400 47.60700
H  46.96100 8.55600 45.98000
H  48.36200 7.59300 46.27000
H  42.38100 6.11300 45.98700
H  38.78600 7.25000 47.83900
H  39.68100 8.41600 48.78600
H  39.59500 6.74600 49.29800

