158

Mg 44.58000 4.21600 45.80900
C  43.14800 7.30900 45.82900
C  41.42100 2.78800 45.32000
C  46.07400 1.30900 44.91700
C  47.69000 5.76000 45.85100
N  42.46700 5.01200 45.71900
C  42.12800 6.33500 45.66500
C  40.60500 6.52900 45.57000
C  40.14000 5.05900 45.47300
C  41.38900 4.18500 45.55300
C  39.06100 4.67700 46.57000
C  40.18300 7.36200 44.26200
C  41.06700 7.43100 42.94200
H  40.42600 7.98100 41.65800
N  43.86100 2.28400 45.19500
C  42.52600 1.96300 45.06000
C  42.52700 0.52800 44.68700
C  43.80200 0.08400 44.58700
C  44.65800 1.21500 44.92000
C  41.26400 -0.28100 44.35800
C  44.23200 -1.30800 44.19800
O  43.42700 -2.19400 43.92600
C  45.64100 -1.75900 43.92800
N  46.60100 3.63200 45.45200
C  46.95900 2.34000 45.25800
C  48.48500 2.16800 45.43900
C  49.02900 3.65400 45.52000
C  47.70000 4.37800 45.54800
C  48.85900 1.21700 46.61100
C  50.09500 4.14800 44.53000
C  51.42900 4.62300 45.09800
N  45.27700 6.08900 45.84100
C  46.55800 6.58900 45.88300
C  46.52100 8.00800 45.94500
C  45.20800 8.34400 45.96000
C  44.49700 7.13700 45.87900
C  47.69100 8.88700 46.12700
C  44.32500 9.38000 46.20000
O  44.53100 10.58600 46.38700
C  42.89900 8.79600 45.98700
C  42.06800 9.13500 47.17700
O  42.12000 8.53900 48.23700
O  41.25100 10.20900 46.83000
C  40.46900 10.58200 47.97900
H  40.49800 2.21800 45.19400
H  46.54300 0.34100 44.73300
H  48.69500 6.18500 45.88900
H  40.23100 6.94000 46.50700
H  39.76700 4.80000 44.48200
H  38.84200 5.55400 47.17900
H  39.56500 3.92800 47.18200
H  38.15400 4.37100 46.04900
H  40.12900 8.40400 44.57600
H  39.13800 7.06800 44.15900
H  41.50500 6.44600 42.78400
H  41.92800 8.04900 43.19500
H  41.26900 -0.59600 43.31400
H  40.33000 0.17200 44.68900
H  41.28600 -1.27200 44.81200
H  45.72600 -2.80300 43.62800
H  46.17800 -1.62000 44.86700
H  46.01700 -1.09800 43.14800
H  48.93400 1.72000 44.55200
H  49.47400 3.72900 46.51200
H  48.05100 0.94300 47.29000
H  49.63800 1.73600 47.16800
H  49.27100 0.37400 46.05600
H  49.75500 4.98900 43.92600
H  50.38000 3.41300 43.77700
H  52.22600 4.11500 44.55500
H  51.65300 4.49700 46.15700
H  51.52300 5.67700 44.83500
H  48.54100 8.43000 46.63300
H  47.39800 9.80300 46.64100
H  48.04300 9.21800 45.15000
H  42.33700 9.24900 45.17100
H  39.81300 11.37700 47.62600
H  41.08200 10.83900 48.84300
H  39.94200 9.69600 48.33400
Mg 9.39500 47.49300 25.74400
C  7.39800 47.68100 28.55200
C  11.89200 49.03700 27.44700
C  11.22900 47.68300 22.85400
C  6.54700 47.03900 23.80500
N  9.60000 48.25100 27.78300
C  8.68900 48.08400 28.86100
C  9.30800 48.54000 30.18500
C  10.68100 49.20300 29.70400
C  10.72200 48.83600 28.22800
C  10.78000 50.78900 29.98300
C  9.54100 47.36000 31.12000
C  9.32300 47.59700 32.58800
H  8.89100 46.43600 33.41000
N  11.37800 48.11500 25.19600
C  12.29400 48.67800 26.13900
C  13.56000 48.76300 25.47700
C  13.39900 48.29700 24.13300
C  12.00900 48.02000 24.00300
C  14.82400 49.29700 26.04200
C  14.41300 48.20100 22.97500
O  14.06600 47.85700 21.82400
C  15.94000 48.26300 23.20400
N  8.94800 47.35100 23.73800
C  9.81900 47.56900 22.73200
C  9.22800 47.01800 21.30200
C  7.76700 46.77300 21.59100
C  7.76600 47.04200 23.12900
C  9.58600 47.84300 20.03800
C  7.38000 45.27800 21.33100
C  8.15100 44.26500 22.23400
N  7.31900 47.31700 26.03200
C  6.27100 47.19200 25.15800
C  5.03100 46.94100 25.91100
C  5.41400 47.18300 27.22000
C  6.80200 47.47300 27.26800
C  3.68600 46.73500 25.44000
C  4.91800 47.19600 28.58300
O  3.73700 47.04300 28.98100
C  6.21000 47.41900 29.55200
C  6.31700 46.11500 30.14500
O  6.81900 45.14500 29.67100
O  5.71600 46.18900 31.37600
C  5.44400 44.85800 31.99000
H  12.78400 49.37200 27.98000
H  11.74400 47.47400 21.91400
H  5.60100 46.79600 23.31600
H  8.54000 49.24600 30.50300
H  11.57100 48.71900 30.10600
H  9.98000 51.19500 30.60100
H  10.67300 51.30000 29.02600
H  11.75900 51.03500 30.39500
H  10.59500 47.11800 30.98300
H  9.16000 46.44100 30.67600
H  8.57300 48.38700 32.54300
H  10.18400 48.06000 33.06900
H  14.61900 49.78700 26.99400
H  15.52300 49.96800 25.54400
H  15.42200 48.39600 26.17600
H  16.20700 47.42700 23.85000
H  16.24400 49.24000 23.57900
H  16.44500 48.16100 22.24300
H  9.64600 46.01400 21.21800
H  7.12800 47.46300 21.03900
H  8.72900 48.46800 19.79000
H  10.02100 47.34800 19.16900
H  10.36400 48.49100 20.44100
H  7.66200 45.21600 20.28000
H  6.30500 45.10200 21.31300
H  8.63200 43.46700 21.67000
H  7.28600 43.84600 22.74900
H  8.81800 44.70500 22.97500
H  3.56800 46.37300 24.41900
H  3.29600 47.75000 25.36800
H  3.21100 46.03100 26.12400
H  5.84200 48.21400 30.20100
H  4.37500 44.68500 31.86800
H  5.69500 44.95100 33.04700
H  6.03100 44.04600 31.56200

