158

Mg -2.02900 17.66900 25.81900
C  -2.21000 15.57100 28.53200
C  -2.50500 20.36300 27.90500
C  -2.05300 19.72900 23.08000
C  -1.54800 14.95300 23.59700
N  -2.31100 17.86700 27.92100
C  -2.37700 16.89600 28.90400
C  -2.94400 17.42000 30.25200
C  -3.23000 18.89300 29.89500
C  -2.61400 19.04100 28.44100
C  -4.78400 19.25500 29.86700
C  -1.94800 17.03000 31.42100
C  -1.99900 17.97500 32.63600
H  -2.13200 17.32400 34.01300
N  -2.18700 19.73000 25.56700
C  -2.26400 20.64700 26.52500
C  -2.24100 22.02700 25.99700
C  -2.05600 21.88600 24.60300
C  -2.12000 20.35200 24.34600
C  -2.38000 23.28900 26.81700
C  -1.84800 22.92600 23.61500
O  -1.77000 22.69700 22.40900
C  -1.60300 24.33100 23.97500
N  -1.74100 17.43600 23.64100
C  -1.85600 18.41100 22.74800
C  -1.69600 17.92100 21.25700
C  -1.29100 16.41000 21.46100
C  -1.52000 16.22800 22.99500
C  -3.01500 18.08800 20.44200
C  0.10300 16.05900 21.06600
C  1.28700 16.58400 21.95600
N  -2.00800 15.65500 25.89800
C  -1.77000 14.69600 24.97700
C  -1.79800 13.42400 25.67500
C  -1.90000 13.74400 27.03300
C  -2.09300 15.10000 27.14200
C  -1.70900 12.07400 25.17800
C  -1.98300 13.19800 28.34800
O  -1.94800 11.99800 28.73600
C  -2.30500 14.36000 29.37600
C  -1.30500 14.22300 30.46100
O  -0.18100 14.71700 30.47200
O  -1.76700 13.33400 31.38200
C  -0.81700 12.97100 32.52800
H  -2.67800 21.28100 28.47200
H  -1.94600 20.40300 22.22800
H  -1.47200 14.21600 22.79500
H  -3.79800 16.77700 30.46500
H  -2.65900 19.53700 30.56500
H  -5.00000 19.99900 29.10000
H  -5.10300 19.75200 30.78300
H  -5.34800 18.32900 29.75600
H  -0.92400 16.98300 31.04900
H  -2.15700 16.02700 31.79300
H  -2.74000 18.77300 32.60300
H  -1.02100 18.45200 32.56400
H  -3.38100 23.71300 26.73200
H  -1.74800 24.10200 26.46000
H  -2.19500 23.16700 27.88400
H  -1.30300 25.02300 23.18800
H  -0.67900 24.39500 24.55100
H  -2.55000 24.52200 24.47900
H  -0.80700 18.40800 20.85500
H  -1.99700 15.72600 20.98900
H  -3.86600 18.24400 21.10600
H  -3.01600 17.15500 19.87900
H  -2.97300 18.89900 19.71500
H  0.41900 16.32600 20.05800
H  0.11800 14.97800 21.20700
H  0.97700 17.27100 22.74300
H  1.96100 17.21200 21.37200
H  1.73300 15.75900 22.51000
H  -0.97000 11.49000 25.72700
H  -1.55200 12.07400 24.10000
H  -2.69700 11.61700 25.23600
H  -3.28400 14.26500 29.84600
H  -1.28100 13.24400 33.47600
H  0.11000 13.53000 32.40300
H  -0.49400 11.93100 32.53300
Mg -2.76700 34.66300 26.81400
C  -3.90600 32.78600 29.50200
C  -1.37300 36.88700 29.07400
C  -2.39300 36.71100 24.25500
C  -4.64100 32.46100 24.73400
N  -2.67700 34.79600 28.99700
C  -3.08800 33.84500 29.90800
C  -2.70400 34.19900 31.34100
C  -1.91400 35.55000 31.17200
C  -2.00500 35.79300 29.67600
C  -2.43900 36.78000 31.93900
C  -1.95300 32.97100 32.07500
C  -2.52400 32.66800 33.51900
H  -1.43400 32.62000 34.61300
N  -1.92600 36.52800 26.63100
C  -1.35400 37.20200 27.67900
C  -0.86400 38.44900 27.10600
C  -1.15600 38.53800 25.68600
C  -1.83500 37.22800 25.41300
C  -0.27600 39.54600 27.99200
C  -0.73700 39.58600 24.73900
O  -1.16100 39.58800 23.57400
C  0.24500 40.76000 25.09100
N  -3.43500 34.59100 24.81300
C  -3.02800 35.50700 23.87500
C  -3.60300 35.33900 22.50100
C  -4.05200 33.86400 22.56400
C  -4.03400 33.60300 24.12300
C  -4.67500 36.36800 22.05500
C  -3.21300 32.81700 21.65900
C  -2.25100 31.96200 22.35300
N  -3.93700 32.86000 26.99100
C  -4.62100 32.06400 26.04600
C  -5.21900 30.90000 26.65100
C  -5.02700 31.21700 28.00200
C  -4.25600 32.34000 28.17500
C  -6.01400 29.81200 26.06900
C  -5.27500 30.75900 29.31900
O  -5.91100 29.79400 29.63700
C  -4.57100 31.73100 30.41400
C  -5.59400 32.18800 31.39100
O  -6.38500 33.11500 31.30200
O  -5.68800 31.31500 32.50800
C  -6.62300 31.80500 33.52300
H  -0.66700 37.50100 29.63700
H  -2.32200 37.41700 23.42500
H  -5.08500 31.71900 24.06800
H  -3.63300 34.33100 31.89600
H  -0.83100 35.45300 31.25100
H  -3.26500 36.52200 32.60100
H  -2.76600 37.57600 31.27100
H  -1.73500 37.20300 32.65500
H  -0.87800 33.14500 32.12500
H  -2.11700 32.05600 31.50600
H  -2.99300 31.68800 33.61000
H  -3.27100 33.34700 33.93000
H  0.78500 39.66800 27.77600
H  -0.40600 39.48600 29.07200
H  -0.67700 40.53000 27.75000
H  -0.20200 41.58500 25.64600
H  0.48900 41.37600 24.22600
H  1.15800 40.31500 25.48600
H  -2.76100 35.42300 21.81400
H  -5.10800 33.83400 22.29600
H  -4.79700 37.08600 22.86600
H  -5.72500 36.12800 21.89000
H  -4.34300 36.88500 21.15400
H  -2.65800 33.33500 20.87800
H  -3.94100 32.05100 21.38900
H  -2.43300 30.89700 22.21100
H  -2.10900 32.10200 23.42500
H  -1.30600 32.20300 21.86600
H  -5.59600 29.68700 25.07100
H  -7.05900 30.10000 25.95100
H  -5.76900 28.86700 26.55400
H  -3.83800 31.14100 30.96200
H  -6.23400 32.65900 34.07700
H  -6.90800 30.99200 34.19000
H  -7.56500 32.03600 33.02400

