158

Mg 30.35500 57.61900 39.93100
C  27.58000 55.63300 38.82600
C  32.39100 54.99000 39.07300
C  33.00200 59.61000 40.17200
C  28.18000 60.41600 40.12000
N  29.99900 55.53800 39.03200
C  28.80800 54.92400 38.73800
C  29.12100 53.60100 37.99700
C  30.55700 53.23400 38.63600
C  31.00300 54.67000 39.00100
C  30.50500 52.31600 39.93200
C  29.03300 53.65800 36.46700
C  27.98000 52.75700 35.84600
H  27.09800 53.28900 34.68000
N  32.34500 57.36000 39.74100
C  32.98800 56.19100 39.45800
C  34.45100 56.48000 39.53000
C  34.68100 57.83900 39.85800
C  33.30100 58.31800 39.92800
C  35.41800 55.30100 39.34900
C  36.09200 58.45300 39.99000
O  37.09600 57.80300 39.81400
C  36.23800 59.90400 40.22100
N  30.48500 59.71000 40.16100
C  31.76100 60.27500 40.31400
C  31.62600 61.84600 40.52000
C  30.07700 62.05600 40.74400
C  29.53900 60.64200 40.30200
C  32.44300 62.46200 41.71800
C  29.56100 63.37900 40.10600
C  28.36600 64.18300 40.70300
N  28.24600 58.01400 39.59800
C  27.56800 59.18400 39.74600
C  26.17400 58.88300 39.53400
C  26.10500 57.48800 39.13000
C  27.42000 56.99900 39.18100
C  24.96000 59.85000 39.63300
C  25.22600 56.40900 38.73200
O  24.00300 56.38000 38.56000
C  26.19500 55.12400 38.43200
C  25.79600 53.97700 39.29700
O  25.69100 53.97800 40.54200
O  25.42200 52.92600 38.56800
C  24.85200 51.71100 39.30700
H  33.07600 54.17500 38.82700
H  33.84600 60.30000 40.24000
H  27.46700 61.21000 40.35000
H  28.41200 52.80600 38.22700
H  31.05300 52.69000 37.83200
H  29.47100 51.97900 40.00100
H  30.70000 52.81500 40.88100
H  30.99400 51.34300 39.87800
H  29.94800 53.36800 35.94900
H  28.66800 54.62400 36.12100
H  27.23300 52.42300 36.56600
H  28.48400 51.86100 35.48400
H  36.40700 55.57900 38.98400
H  35.10400 54.41600 38.79500
H  35.54300 54.79400 40.30500
H  35.90900 60.28600 41.18700
H  35.97500 60.49300 39.34200
H  37.32000 60.03300 40.20900
H  31.90700 62.35100 39.59600
H  29.83000 62.02800 41.80500
H  33.14100 63.20700 41.33500
H  32.86700 61.66300 42.32600
H  31.72700 63.05600 42.28500
H  29.22100 63.11900 39.10400
H  30.34500 64.11200 39.91400
H  28.01400 63.63800 41.57900
H  27.52200 64.07700 40.02200
H  28.57100 65.24100 40.86600
H  25.10900 60.75600 39.04500
H  24.66800 60.01300 40.67000
H  24.10900 59.34300 39.17900
H  26.07400 54.90100 37.37200
H  23.83600 51.90200 39.65200
H  25.45300 51.39100 40.15800
H  24.76900 50.83200 38.66800
Mg 9.65200 47.20800 26.74700
C  7.83100 47.03000 29.67400
C  12.34300 48.45200 28.60100
C  11.40600 47.59400 23.91300
C  6.73700 46.80700 24.85300
N  10.05000 47.55700 28.86300
C  9.21500 47.32600 29.90300
C  9.75300 47.72900 31.24400
C  11.09100 48.55200 30.89500
C  11.15800 48.29100 29.33900
C  11.02900 50.10600 31.05100
C  10.00800 46.60200 32.23400
C  9.75500 46.96300 33.74600
H  10.03900 45.77900 34.70900
N  11.59000 47.65900 26.38200
C  12.55700 48.18700 27.20500
C  13.79000 48.28700 26.49500
C  13.56100 47.94200 25.18700
C  12.14500 47.68800 25.10500
C  15.08300 48.70500 27.17600
C  14.49600 47.83000 24.08800
O  14.02100 47.47100 23.03100
C  15.98700 48.11500 24.22400
N  9.14200 47.24500 24.61400
C  10.04700 47.45200 23.66400
C  9.47300 47.33500 22.27700
C  7.89500 47.16500 22.59600
C  7.89500 47.06500 24.13500
C  9.87300 48.57600 21.43900
C  7.11700 45.97800 21.83900
C  7.14900 44.62200 22.59400
N  7.62100 46.82500 27.16800
C  6.53200 46.73700 26.27400
C  5.34100 46.59700 27.08700
C  5.78000 46.79000 28.39500
C  7.23600 46.84300 28.43300
C  3.92800 46.39200 26.57400
C  5.33400 46.76400 29.82600
O  4.20700 46.50200 30.26500
C  6.68900 46.87200 30.65800
C  6.86400 45.62900 31.53400
O  6.90100 44.45700 31.13500
O  6.66400 45.86800 32.85300
C  6.34900 44.68700 33.71500
H  13.13900 49.11400 28.94800
H  11.86800 47.89400 22.97000
H  5.83400 46.68900 24.25000
H  9.12200 48.47500 31.72800
H  11.94400 48.08600 31.38900
H  11.16600 50.48400 30.03800
H  11.86000 50.39300 31.69600
H  10.06600 50.52200 31.34600
H  11.02400 46.21100 32.27500
H  9.26200 45.83500 32.02400
H  8.71200 47.27800 33.77900
H  10.27200 47.84500 34.12200
H  15.09900 48.54300 28.25400
H  15.39300 49.73900 27.02800
H  15.93300 48.08300 26.89600
H  16.44000 48.36900 23.26500
H  16.56700 47.30500 24.66500
H  16.03000 49.00300 24.85400
H  9.94200 46.51000 21.74100
H  7.36700 48.05600 22.25600
H  10.61800 49.23600 21.88300
H  9.04200 49.25100 21.23300
H  10.29800 48.24100 20.49300
H  7.65300 45.82000 20.90300
H  6.09500 46.27600 21.60200
H  6.20600 44.49800 23.12700
H  7.93500 44.54400 23.34400
H  7.31300 43.79400 21.90300
H  3.93600 46.62000 25.50900
H  3.23500 47.10800 27.01700
H  3.59400 45.38800 26.83700
H  6.63900 47.65700 31.41300
H  7.28100 44.12400 33.73900
H  5.57800 44.10900 33.20500
H  6.10400 44.99700 34.73100

