158

Mg 24.91500 1.29400 29.40000
C  27.15900 0.93900 32.13100
C  22.31500 1.23400 31.58600
C  23.10300 1.84000 26.69900
C  27.70500 1.15100 27.20200
N  24.77300 0.92100 31.65700
C  25.81300 1.05200 32.56800
C  25.24200 1.16300 33.98800
C  23.71500 1.12300 33.83300
C  23.54700 1.07500 32.24000
C  22.96100 -0.04800 34.57000
C  25.66100 2.46600 34.72400
C  26.09000 2.35900 36.21700
H  25.84200 3.55300 37.14300
N  23.01600 1.37900 29.17300
C  22.07800 1.39400 30.17400
C  20.81900 1.67900 29.60200
C  20.98300 1.70300 28.17300
C  22.42500 1.66700 27.95700
C  19.50700 1.92200 30.35600
C  19.95300 1.93600 27.05300
O  20.20100 1.83000 25.87400
C  18.53300 2.26000 27.43400
N  25.28200 1.29000 27.15200
C  24.37900 1.68800 26.35500
C  24.91400 2.02200 24.95700
C  26.46800 1.94500 25.14900
C  26.53000 1.48200 26.62700
C  24.39000 1.06600 23.86500
C  27.36800 3.23500 24.86600
C  26.98800 4.57400 25.39700
N  26.97100 0.87100 29.56200
C  27.94200 0.92300 28.60300
C  29.13200 0.47900 29.21000
C  28.91400 0.53700 30.63100
C  27.56200 0.80200 30.76100
C  30.45700 0.21300 28.46800
C  29.54800 0.49400 31.92900
O  30.71900 0.28200 32.13200
C  28.40900 0.73100 32.96200
C  28.43900 -0.30000 33.98200
O  28.16700 -1.50800 33.72200
O  28.96500 0.13200 35.12100
C  29.11800 -0.72600 36.29000
H  21.56500 1.39500 32.36400
H  22.46300 1.90600 25.81700
H  28.62800 1.10900 26.62000
H  25.66800 0.32000 34.53200
H  23.28400 2.08100 34.12200
H  23.67100 -0.75500 34.99900
H  22.24000 -0.60600 33.97200
H  22.27200 0.37100 35.30400
H  24.78500 3.11400 34.75000
H  26.49500 3.01500 34.28700
H  27.15700 2.14900 36.29600
H  25.51000 1.55900 36.67600
H  19.13400 2.88800 30.01600
H  19.61300 2.04700 31.43300
H  18.75200 1.15600 30.18100
H  17.98700 1.49200 27.98100
H  17.93000 2.43500 26.54300
H  18.48500 3.23400 27.92200
H  24.70700 3.07300 24.75600
H  26.98200 1.20300 24.53800
H  23.69700 0.30400 24.22200
H  25.20400 0.56300 23.34200
H  23.89200 1.65300 23.09300
H  27.49200 3.26400 23.78400
H  28.39900 3.15300 25.21300
H  26.85300 5.30300 24.59900
H  27.71200 4.97900 26.10500
H  26.16400 4.55500 26.11000
H  31.11000 1.08500 28.48800
H  30.37400 -0.15600 27.44600
H  31.06100 -0.58500 28.89900
H  28.71000 1.67100 33.42400
H  29.93500 -0.32000 36.88600
H  29.24700 -1.79900 36.14800
H  28.27500 -0.54900 36.95800
Mg 36.17600 49.33200 24.95000
C  36.29300 47.62200 27.96400
C  34.70900 52.04300 26.55900
C  35.87100 50.78600 21.94200
C  37.27400 46.34500 23.34900
N  35.60800 49.76400 27.04900
C  35.80600 48.92200 28.18200
C  35.47300 49.67300 29.48000
C  34.84100 51.02600 28.96100
C  35.05400 50.90600 27.39900
C  33.37800 51.33800 29.41300
C  36.84600 49.85600 30.29500
C  36.77800 49.30300 31.69600
H  36.30700 50.31400 32.71700
N  35.45900 51.15100 24.32300
C  34.97400 52.15000 25.12300
C  34.54200 53.29200 24.32400
C  34.95000 52.97400 22.98100
C  35.43400 51.59700 23.03000
C  34.09500 54.64500 24.92600
C  34.98300 53.80700 21.73000
O  35.42300 53.44500 20.62900
C  34.63100 55.27000 21.90100
N  36.48300 48.63800 22.95800
C  36.26300 49.44600 21.86400
C  36.76600 48.72600 20.51400
C  37.61000 47.58200 21.16100
C  37.04700 47.45600 22.60300
C  35.45700 48.24800 19.72400
C  39.17000 47.83600 21.16000
C  39.92500 47.25300 20.00700
N  36.75600 47.37800 25.49700
C  37.16400 46.26200 24.77500
C  37.44000 45.11600 25.65200
C  37.16800 45.62700 26.87500
C  36.73100 46.97900 26.75400
C  37.79200 43.68800 25.30400
C  37.26700 45.24000 28.29500
O  37.64700 44.20500 28.79300
C  36.68600 46.52500 29.05700
C  35.65200 46.12900 30.02900
O  34.41600 46.33200 29.97500
O  36.30400 45.52600 31.10900
C  35.34900 45.16700 32.20200
H  34.14700 52.77800 27.13900
H  35.56100 51.13700 20.95500
H  37.78600 45.60100 22.73600
H  34.77800 49.02200 30.01000
H  35.48800 51.84000 29.28700
H  32.65800 51.25800 28.59900
H  33.35700 52.33400 29.85600
H  32.96700 50.66500 30.16600
H  37.11800 50.90500 30.41100
H  37.61800 49.37100 29.69800
H  37.69600 48.74800 31.89100
H  36.05200 48.49000 31.67300
H  34.80500 55.39800 24.58500
H  34.01200 54.59700 26.01200
H  33.09200 54.87300 24.56300
H  33.64700 55.45000 22.33300
H  34.77000 55.67900 20.90000
H  35.37000 55.77000 22.52600
H  37.33200 49.41400 19.88700
H  37.44100 46.66900 20.58900
H  35.58300 47.19200 19.48200
H  35.15800 48.78000 18.82100
H  34.59400 48.23300 20.39000
H  39.68400 47.61200 22.09500
H  39.29700 48.90500 20.98900
H  39.36800 46.91700 19.13300
H  40.35900 46.32100 20.37000
H  40.64600 48.03300 19.76200
H  37.77200 43.60500 24.21700
H  37.14800 43.05100 25.90900
H  38.81400 43.51300 25.64100
H  37.50400 46.92300 29.65700
H  35.93900 45.18100 33.11900
H  34.80600 44.22200 32.20700
H  34.67800 45.99900 32.41600

