158

Mg 16.45900 -2.03800 27.53600
C  15.42200 -0.04900 30.27700
C  18.77600 -3.46600 29.75700
C  17.56600 -3.90500 25.01700
C  14.63700 0.03400 25.39500
N  17.02500 -1.72800 29.81600
C  16.42600 -0.90200 30.67400
C  17.00100 -1.12000 32.05700
C  18.15500 -2.15800 31.89600
C  17.97100 -2.50200 30.39100
C  19.54600 -1.73900 32.32600
C  15.94200 -1.39300 33.11400
C  15.88000 -0.42000 34.32400
H  17.15300 0.26100 34.72100
N  17.83500 -3.56900 27.37000
C  18.71900 -3.93700 28.36700
C  19.53400 -5.09000 27.86100
C  19.18500 -5.23200 26.45900
C  18.12900 -4.23800 26.21300
C  20.59800 -5.75500 28.56900
C  19.64800 -6.21500 25.40400
O  19.22500 -6.20200 24.26100
C  20.62600 -7.25300 25.78300
N  16.01400 -1.95800 25.49200
C  16.67600 -2.85300 24.64500
C  16.33900 -2.48100 23.15700
C  15.27200 -1.33500 23.30400
C  15.35400 -1.02900 24.79700
C  17.61800 -2.17200 22.36300
C  13.78900 -1.56900 22.85800
C  13.07100 -2.67500 23.66800
N  15.26100 -0.40200 27.72700
C  14.52700 0.28100 26.76100
C  13.61800 1.22800 27.40700
C  14.00400 1.14800 28.79900
C  14.96500 0.12100 28.91900
C  12.64900 2.24900 26.70600
C  13.76900 1.72700 30.12000
O  13.01100 2.66200 30.41800
C  14.65700 1.00700 31.13900
C  15.49900 2.10600 31.67900
O  16.59200 2.42300 31.20200
O  14.93400 2.64800 32.76100
C  15.60100 3.71800 33.42500
H  19.38900 -3.96500 30.51100
H  17.98900 -4.32600 24.10200
H  14.03300 0.70700 24.78300
H  17.29500 -0.08000 32.20200
H  17.92600 -3.09700 32.40000
H  20.07500 -1.59700 31.38300
H  19.94400 -2.57200 32.90500
H  19.52200 -0.78200 32.84700
H  15.90800 -2.41400 33.49500
H  14.97500 -1.18900 32.65400
H  15.47700 -0.97800 35.16800
H  15.21600 0.39600 34.03600
H  20.99800 -5.24700 29.44700
H  21.42200 -6.01000 27.90200
H  20.30100 -6.73800 28.93500
H  20.39800 -7.83300 26.67800
H  21.63800 -6.85600 25.86500
H  20.62600 -7.90000 24.90600
H  15.96100 -3.41300 22.73700
H  15.61900 -0.47200 22.73600
H  18.50000 -2.34700 22.97900
H  17.43900 -1.16100 21.99600
H  17.72800 -2.87000 21.53300
H  13.63500 -1.52000 21.78000
H  13.29900 -0.65600 23.19800
H  12.21100 -2.23500 24.17300
H  13.77300 -3.04500 24.41400
H  12.73900 -3.48800 23.02100
H  11.70600 1.83800 27.06700
H  12.54300 2.02100 25.64500
H  12.73300 3.33500 26.74100
H  14.00900 0.67700 31.95100
H  15.35500 4.70600 33.03600
H  16.66600 3.49200 33.45600
H  15.16000 3.81300 34.41800
Mg 7.43300 52.16300 40.92300
C  6.99200 48.64900 40.81800
C  10.81300 51.58000 40.54100
C  7.83000 55.43700 40.39000
C  4.01900 52.45200 41.16300
N  8.74400 50.28600 40.51400
C  8.29300 49.00000 40.50400
C  9.49900 48.10200 40.26400
C  10.71600 49.07800 40.55600
C  10.05100 50.40300 40.47200
C  11.53300 48.85000 41.85000
C  9.56800 47.45400 38.92100
C  9.39100 48.37100 37.64600
H  8.24700 48.28000 36.62600
N  9.07800 53.35900 40.36900
C  10.38500 52.93900 40.38400
C  11.25100 54.13300 40.26600
C  10.44200 55.25900 40.16600
C  9.04000 54.73400 40.30400
C  12.67500 53.90000 40.14400
C  10.84400 56.71900 39.97000
O  12.02600 57.01000 39.92300
C  9.93600 57.86700 39.79500
N  6.08900 53.71400 40.61700
C  6.54200 55.00900 40.45500
C  5.32300 55.96000 40.72000
C  4.10400 55.00800 40.92200
C  4.72600 53.62900 40.81800
C  5.55300 56.94400 41.90300
C  3.00400 55.20800 39.86400
C  2.06400 56.40800 39.99700
N  5.73900 50.86100 41.07500
C  4.43800 51.17800 41.30300
C  3.72300 49.91300 41.56600
C  4.64800 48.92900 41.35200
C  5.91200 49.54000 41.04700
C  2.30000 49.63600 42.14900
C  4.86300 47.57600 41.38000
O  4.09400 46.65400 41.63500
C  6.35500 47.25800 40.99700
C  6.38200 46.40700 39.75400
O  6.22200 46.76700 38.60700
O  6.59700 45.07900 40.11400
C  6.48900 44.21500 38.97500
H  11.89500 51.58200 40.68900
H  7.88600 56.52400 40.30800
H  2.95200 52.56100 41.36800
H  9.45900 47.25700 40.95200
H  11.34000 49.04900 39.66200
H  11.27800 49.44600 42.72600
H  12.60700 48.84100 41.66300
H  11.32400 47.78500 41.94800
H  8.87700 46.61200 38.96800
H  10.56600 47.01600 38.90300
H  10.21700 48.04900 37.01300
H  9.57000 49.41500 37.90300
H  12.87800 53.28300 39.26900
H  13.25600 53.42000 40.93100
H  13.23600 54.81900 39.97500
H  9.65500 58.13100 40.81500
H  9.09400 57.73200 39.11700
H  10.53300 58.65400 39.33500
H  5.36600 56.47200 39.75900
H  3.70100 55.03400 41.93400
H  4.97300 56.53900 42.73100
H  5.20600 57.95200 41.67200
H  6.57800 57.05200 42.25800
H  2.29500 54.38100 39.90100
H  3.48900 55.13100 38.89100
H  0.99000 56.29800 40.14400
H  2.14600 57.00800 39.09100
H  2.57700 56.93500 40.80200
H  1.55800 49.62700 41.35000
H  1.99000 50.44600 42.80900
H  2.40600 48.70200 42.70200
H  6.98300 46.69100 41.68400
H  7.34600 44.28200 38.30600
H  5.54300 44.35800 38.45200
H  6.52900 43.26500 39.50800

