158

Mg 53.10200 25.42200 44.48300
C  50.57700 27.78200 43.85800
C  50.80500 22.92000 43.46500
C  55.66300 23.33500 43.67400
C  55.31800 27.88500 44.99800
N  50.94500 25.39300 43.46500
C  50.10400 26.48800 43.54700
C  48.72400 26.06000 43.09000
C  48.70400 24.52900 43.49700
C  50.24700 24.20900 43.49700
C  47.90500 24.29900 44.89300
C  48.29900 26.30200 41.58800
C  49.38300 26.71700 40.53900
H  49.58400 25.89500 39.28400
N  53.20100 23.39400 43.81800
C  52.12300 22.58500 43.51700
C  52.65300 21.28400 43.23600
C  54.06400 21.27100 43.39300
C  54.35000 22.67900 43.63700
C  51.76100 20.10800 42.71600
C  55.08300 20.08600 43.31600
O  54.57800 18.96900 43.23600
C  56.57400 20.20800 43.33500
N  55.21200 25.57200 44.22600
C  56.02100 24.54500 44.15000
C  57.55500 24.97700 44.28300
C  57.44100 26.47500 44.64900
C  55.89500 26.72400 44.55500
C  58.33600 24.13400 45.34600
C  58.19600 27.38100 43.55300
C  58.93200 28.53400 44.17500
N  53.02900 27.44600 44.51800
C  53.98800 28.31900 44.99300
C  53.29900 29.50800 45.45300
C  52.01600 29.41600 44.94100
C  51.88900 28.13900 44.38300
C  53.93100 30.72200 46.01800
C  50.69500 30.11400 44.74200
O  50.47800 31.28100 45.06000
C  49.78700 29.05700 43.97700
C  49.48700 29.53700 42.62300
O  50.30000 29.73400 41.73400
O  48.16700 29.83200 42.55200
C  47.61900 30.51300 41.39100
H  49.99200 22.19400 43.40900
H  56.55000 22.70500 43.58000
H  56.04500 28.65200 45.27200
H  48.09200 26.65000 43.75500
H  48.25600 23.85600 42.76600
H  48.56900 23.91100 45.66700
H  47.18800 23.51300 44.65500
H  47.36300 25.20300 45.16900
H  47.52300 27.06300 41.67200
H  47.86400 25.37800 41.20600
H  50.34000 26.65600 41.05600
H  49.12900 27.74500 40.28300
H  52.16900 19.36200 42.03500
H  50.95200 20.58400 42.16100
H  51.21800 19.52200 43.45700
H  56.98400 19.23600 43.06000
H  57.04000 20.47400 44.28400
H  56.88800 20.93200 42.58300
H  57.98100 24.75100 43.30600
H  57.83400 26.72900 45.63400
H  57.60000 23.67800 46.00800
H  59.01400 24.76900 45.91700
H  58.81000 23.29100 44.84400
H  57.41300 27.79500 42.91700
H  58.88400 26.80300 42.93600
H  59.30700 28.29700 45.17100
H  58.13500 29.25300 44.36400
H  59.76700 28.93600 43.60100
H  53.18900 31.33400 46.52900
H  54.40900 31.27500 45.20900
H  54.57100 30.38200 46.83200
H  48.87100 28.99600 44.56400
H  48.02200 30.07500 40.47900
H  47.88800 31.56900 41.41300
H  46.54300 30.34900 41.45000
Mg 36.60100 49.90800 25.48000
C  36.91900 48.16100 28.53700
C  35.16500 52.49400 27.14900
C  35.85200 51.27100 22.45400
C  38.09600 47.11400 23.87500
N  35.97700 50.20500 27.60600
C  36.29700 49.45200 28.60500
C  36.06400 50.25600 29.93800
C  35.40400 51.61100 29.48900
C  35.50800 51.43000 27.95400
C  33.96300 51.94000 30.13500
C  37.40300 50.45500 30.75200
C  37.49300 50.01700 32.22300
H  36.21800 50.13300 33.09200
N  35.65400 51.64300 24.88200
C  35.12900 52.56400 25.71000
C  34.42200 53.64000 24.91800
C  34.63800 53.34900 23.56700
C  35.43600 52.03900 23.56900
C  33.77100 54.82300 25.65600
C  34.34800 54.14200 22.29900
O  34.65500 53.74800 21.18300
C  33.72000 55.47200 22.40900
N  36.90600 49.23500 23.43900
C  36.52900 50.03600 22.35800
C  37.02700 49.50100 21.03700
C  37.91100 48.21000 21.55100
C  37.60500 48.17300 23.06300
C  35.79700 49.13100 20.16200
C  39.48600 48.35900 21.13300
C  40.19400 47.11300 20.53300
N  37.24400 47.91200 25.98000
C  37.89200 46.89300 25.24200
C  38.21000 45.76300 26.17700
C  37.84800 46.20500 27.46800
C  37.30400 47.52300 27.29000
C  38.98000 44.55800 25.78300
C  37.78200 45.84300 28.85400
O  38.25400 44.88000 29.54000
C  37.16000 47.13700 29.60800
C  35.98800 46.66100 30.41100
O  34.95100 46.29200 29.87400
O  36.39100 46.49600 31.71000
C  35.43800 45.73200 32.60800
H  34.70500 53.28200 27.75000
H  35.78800 51.76100 21.48000
H  38.71800 46.39400 23.33900
H  35.34400 49.75900 30.58700
H  36.07600 52.40700 29.80800
H  34.01800 52.89600 30.65500
H  33.67300 51.13000 30.80500
H  33.17300 52.19100 29.42800
H  37.60300 51.52000 30.87700
H  38.18000 49.96200 30.16700
H  38.32200 50.60900 32.61100
H  37.78000 48.96600 32.24900
H  33.33800 54.59300 26.63000
H  32.97400 55.18800 25.00900
H  34.42500 55.68800 25.76600
H  32.78800 55.39900 22.96900
H  33.46900 55.80100 21.40100
H  34.45500 56.15900 22.82900
H  37.71400 50.21000 20.57500
H  37.45200 47.31500 21.13200
H  35.96200 48.14400 19.73100
H  35.59600 49.89500 19.41200
H  34.95500 48.92100 20.82100
H  40.04600 48.63900 22.02600
H  39.49600 49.21600 20.46100
H  40.47200 47.41700 19.52300
H  39.43900 46.32800 20.50200
H  41.00700 46.80800 21.19200
H  39.95600 44.83000 25.38000
H  38.30200 44.07800 25.07700
H  39.02300 44.02200 26.73000
H  37.87600 47.60800 30.28000
H  35.00300 46.36000 33.38600
H  36.02400 44.95600 33.10000
H  34.64200 45.16800 32.12200

