158

Mg 53.09000 25.02100 43.28100
C  50.77600 27.52600 42.71300
C  50.88700 22.68100 41.99800
C  55.64300 22.74600 42.81300
C  55.54200 27.43600 44.09500
N  51.09800 25.10300 42.45900
C  50.24700 26.20500 42.43700
C  48.87600 25.89800 41.93000
C  48.85900 24.25000 41.91000
C  50.33500 23.97800 42.21200
C  47.97100 23.65700 43.11900
C  48.45800 26.38000 40.48100
C  49.54700 26.29300 39.36400
H  49.33700 25.55200 38.08400
N  53.23200 22.95800 42.59000
C  52.19900 22.13500 42.27500
C  52.64300 20.82800 41.95200
C  54.01200 20.81700 42.05300
C  54.35100 22.21000 42.58800
C  51.72500 19.66900 41.52600
C  54.94800 19.65400 41.88200
O  54.54200 18.58700 41.49200
C  56.46400 19.73200 42.14800
N  55.23700 25.15600 43.49600
C  56.06600 24.03200 43.23500
C  57.64000 24.41200 43.55200
C  57.43500 25.86900 44.10800
C  55.96200 26.21800 43.83300
C  58.37300 23.43900 44.53100
C  58.54100 26.78200 43.50400
C  59.39700 27.55500 44.60000
N  53.16600 27.07100 43.45600
C  54.20000 27.92100 43.83200
C  53.58700 29.19800 44.14300
C  52.33900 29.10300 43.56200
C  52.08000 27.79100 43.25400
C  54.29300 30.43900 44.65900
C  51.05400 29.78400 43.37100
O  50.73200 30.93800 43.56800
C  50.04500 28.76700 42.76300
C  49.57500 29.38500 41.44800
O  50.31000 29.55100 40.41300
O  48.20400 29.66400 41.51800
C  47.56300 30.16000 40.33300
H  50.10100 21.99700 41.67200
H  56.52900 22.11400 42.71800
H  56.27700 28.11800 44.52800
H  48.20700 26.21100 42.73100
H  48.47000 23.79800 40.99800
H  47.62700 24.48600 43.73700
H  48.55600 22.93000 43.68300
H  47.12400 23.15300 42.65500
H  48.05900 27.39400 40.44400
H  47.59300 25.78100 40.19600
H  50.40500 25.78800 39.80800
H  49.87200 27.25400 38.96600
H  52.00500 19.27400 40.54900
H  50.71500 20.01000 41.29800
H  51.70900 18.79400 42.17600
H  56.95500 18.79900 41.87400
H  56.61600 20.12700 43.15200
H  56.79600 20.49600 41.44400
H  58.18700 24.33900 42.61200
H  57.58600 25.95700 45.18400
H  57.78000 22.54300 44.71800
H  58.50600 23.97300 45.47200
H  59.33600 23.18400 44.09000
H  58.07800 27.54000 42.87100
H  59.20400 26.24600 42.82500
H  59.08600 28.59900 44.55000
H  60.46900 27.41600 44.46000
H  59.17400 27.37700 45.65200
H  55.08600 30.69800 43.95800
H  54.74000 30.18100 45.62000
H  53.55100 31.23100 44.75300
H  49.15000 28.65200 43.37400
H  47.52900 29.41200 39.54000
H  48.16100 31.01900 40.02800
H  46.56500 30.52100 40.58300
Mg 46.93500 17.30600 28.17300
C  45.20400 17.06800 31.18000
C  49.19900 19.47600 29.71300
C  48.18600 18.12200 25.22200
C  44.18700 15.69300 26.62200
N  47.09500 18.32700 30.21600
C  46.40700 17.79400 31.32200
C  47.13300 18.28700 32.66000
C  48.38400 19.05500 32.09100
C  48.22100 18.96100 30.56500
C  48.62500 20.39600 32.70500
C  47.47900 17.15600 33.69000
C  46.90200 17.26400 35.06500
H  46.60400 18.64500 35.56500
N  48.54500 18.51100 27.54800
C  49.45100 19.24000 28.37200
C  50.52600 19.77000 27.53800
C  50.15000 19.56800 26.19600
C  48.92400 18.71800 26.23400
C  51.71600 20.36600 28.10200
C  50.91800 19.91000 24.92700
O  50.49500 19.71700 23.81600
C  52.33200 20.49500 25.06400
N  46.24000 16.95200 26.18000
C  47.06500 17.35000 25.11500
C  46.58200 16.62800 23.78600
C  45.28200 15.89100 24.27200
C  45.21100 16.18500 25.76700
C  46.52600 17.60600 22.61100
C  45.29400 14.32500 23.95400
C  46.30200 13.42700 24.82200
N  45.08700 16.57400 28.69500
C  44.09000 15.96000 27.97800
C  42.99200 15.51900 28.86500
C  43.43000 15.94000 30.11800
C  44.67000 16.59900 29.96400
C  41.67000 14.92100 28.42200
C  43.10900 15.88500 31.61500
O  42.09000 15.53500 32.21800
C  44.23600 16.72200 32.29700
C  43.64700 17.96400 32.92000
O  43.40400 19.04300 32.40700
O  43.18300 17.59900 34.17400
C  42.36500 18.59600 34.87100
H  50.12100 19.83700 30.17400
H  48.75100 18.23100 24.29400
H  43.35900 15.15400 26.15700
H  46.45500 18.98000 33.15700
H  49.22700 18.41600 32.35400
H  47.77200 20.67900 33.32200
H  48.74500 21.03400 31.83000
H  49.45500 20.40100 33.41200
H  48.53500 16.88700 33.65000
H  47.06200 16.25200 33.24700
H  47.59600 16.77100 35.74600
H  45.92400 16.80700 34.92200
H  52.60500 19.75800 27.93600
H  51.72100 20.45700 29.18900
H  51.86700 21.31200 27.58100
H  52.94300 19.88600 25.73000
H  52.24700 21.55700 25.29500
H  52.81300 20.42100 24.08800
H  47.32200 15.85800 23.56700
H  44.39100 16.24600 23.75300
H  46.61100 18.58700 23.07700
H  45.55400 17.42600 22.15100
H  47.40400 17.37500 22.00800
H  45.83600 14.30900 23.00800
H  44.32100 13.84400 23.85400
H  46.80700 12.68500 24.20300
H  45.70700 12.88400 25.55600
H  47.14900 13.93900 25.27800
H  40.96100 14.99800 29.24600
H  41.81200 13.89600 28.07700
H  41.30500 15.38000 27.50200
H  44.70600 16.15500 33.10000
H  41.47700 18.02600 35.14200
H  42.05300 19.48200 34.31800
H  42.93900 18.87600 35.75500

