158

Mg 25.98600 0.50400 29.12000
C  28.01700 0.27000 32.03400
C  23.34700 1.17200 31.19400
C  24.09900 0.28200 26.43000
C  28.78200 -0.55800 27.19400
N  25.71500 0.54800 31.41700
C  26.71100 0.55700 32.35700
C  26.15000 0.91400 33.70800
C  24.63100 1.16300 33.41900
C  24.52300 0.90400 31.92000
C  23.52200 0.28500 34.18000
C  26.84900 2.18800 34.33300
C  26.10600 2.80700 35.51500
H  26.95900 3.16100 36.81100
N  23.97800 0.67300 28.87100
C  23.05300 1.09600 29.83700
C  21.77600 1.30500 29.17700
C  22.00800 1.14100 27.80600
C  23.41700 0.60400 27.60600
C  20.56000 1.62300 29.90700
C  21.02200 1.44600 26.64900
O  21.26200 1.10000 25.50100
C  19.76500 2.03500 26.84700
N  26.40200 -0.08800 27.16800
C  25.38900 -0.06300 26.20200
C  26.03800 -0.30600 24.75900
C  27.51100 -0.53400 25.05100
C  27.56100 -0.47200 26.55400
C  25.26900 -1.44800 24.00900
C  28.38100 0.38000 24.24400
C  28.30600 1.84500 24.39700
N  28.04600 0.12000 29.46500
C  29.00800 -0.44300 28.61100
C  30.23300 -0.59800 29.32600
C  29.83800 -0.33500 30.65400
C  28.50400 0.07600 30.69100
C  31.49200 -1.01600 28.82100
C  30.40600 -0.32000 31.95000
O  31.55300 -0.59000 32.26900
C  29.26200 0.14200 32.87000
C  29.09500 -0.83800 33.96400
O  28.71600 -1.98600 33.86300
O  29.45100 -0.28300 35.22800
C  29.25600 -1.14400 36.38300
H  22.51700 1.41000 31.86200
H  23.42300 0.16100 25.58100
H  29.60600 -0.71700 26.49600
H  26.39800 0.05700 34.33400
H  24.52100 2.23600 33.57300
H  23.83300 0.05800 35.20000
H  23.53700 -0.69800 33.71000
H  22.48900 0.62700 34.11400
H  26.98500 2.93300 33.54900
H  27.85900 1.91700 34.64000
H  25.37300 2.09000 35.88500
H  25.48500 3.64200 35.19300
H  19.73600 1.12400 29.39600
H  20.33300 2.68900 29.89400
H  20.61000 1.44700 30.98100
H  18.96800 1.31700 27.04000
H  19.62200 2.69800 25.99400
H  19.76800 2.75000 27.67100
H  25.92800 0.61400 24.18500
H  27.80500 -1.56700 24.86500
H  24.50800 -1.89500 24.64800
H  25.98500 -2.21700 23.71700
H  24.72600 -1.03500 23.15900
H  28.08300 0.20500 23.21000
H  29.39800 -0.01300 24.22500
H  27.64300 2.31300 23.66800
H  29.29100 2.22400 24.12500
H  28.01100 2.18100 25.39100
H  31.49500 -1.60900 27.90600
H  32.08700 -1.53000 29.57600
H  32.00400 -0.07600 28.61700
H  29.53000 1.03000 33.44300
H  29.58300 -2.12800 36.04900
H  28.21200 -1.19200 36.69300
H  29.88400 -0.74200 37.17800
Mg 16.66700 52.12100 26.39700
C  18.39400 50.64300 28.88300
C  14.26400 52.96700 28.69000
C  14.90500 53.39800 23.89200
C  19.07800 51.09900 24.09400
N  16.30700 51.62400 28.64600
C  17.29900 51.33500 29.43200
C  16.92500 51.34900 30.88600
C  15.37900 51.85400 30.82900
C  15.27800 52.18600 29.36300
C  14.27500 50.73800 31.33600
C  17.77100 52.22700 31.87900
C  17.86900 51.68200 33.27200
H  16.92100 52.33400 34.25400
N  14.96700 53.13000 26.38600
C  14.02600 53.29400 27.38600
C  12.83700 54.00300 26.85900
C  13.04900 54.28300 25.49300
C  14.33500 53.61600 25.19300
C  11.61000 54.28100 27.80700
C  12.21500 54.95600 24.41800
O  12.59700 55.18200 23.32200
C  10.90000 55.50400 24.81300
N  16.81700 51.94600 24.27900
C  15.96700 52.70100 23.53800
C  16.53100 52.78800 22.00500
C  17.97100 52.47900 22.25300
C  17.99300 51.88100 23.64700
C  15.68800 51.94000 21.03600
C  18.80400 53.79400 22.33600
C  19.83300 54.02100 21.22500
N  18.33900 50.97900 26.42100
C  19.25100 50.63000 25.42500
C  20.30200 49.92600 26.00700
C  19.99900 49.88300 27.34900
C  18.81000 50.59900 27.54700
C  21.56600 49.46800 25.31100
C  20.56800 49.46600 28.60300
O  21.62900 48.86100 28.85900
C  19.53400 50.01100 29.68000
C  19.25800 48.88300 30.61800
O  18.51100 47.93700 30.33700
O  19.78900 49.09100 31.80500
C  19.49900 48.26200 33.00000
H  13.54000 53.29800 29.43700
H  14.27600 53.84400 23.11900
H  19.87600 51.05800 23.35000
H  16.84500 50.31200 31.21300
H  15.30100 52.73700 31.46400
H  14.29300 50.32100 32.34300
H  14.51100 49.87800 30.70900
H  13.30700 51.09600 30.98700
H  17.24300 53.18000 31.90700
H  18.73500 52.44000 31.41800
H  18.91600 51.77000 33.56300
H  17.69200 50.60700 33.27000
H  11.34400 55.33500 27.73800
H  11.80200 54.05200 28.85600
H  10.67400 53.76000 27.60500
H  10.06100 54.80900 24.77500
H  10.58100 56.25400 24.08900
H  10.77000 55.93600 25.80600
H  16.45900 53.79900 21.60300
H  18.41600 51.89200 21.44900
H  14.95500 52.50100 20.45700
H  15.14500 51.17500 21.59300
H  16.34600 51.41000 20.34800
H  19.34900 53.80800 23.28000
H  18.19100 54.69500 22.33900
H  19.74200 55.00900 20.77300
H  19.74700 53.24500 20.46500
H  20.80500 54.00500 21.71700
H  21.63300 49.95600 24.33900
H  21.76200 48.40100 25.42300
H  22.42500 49.84000 25.86900
H  20.02100 50.79100 30.26500
H  19.90400 47.27500 32.77600
H  18.42900 48.11400 33.14600
H  20.12600 48.50600 33.85800

