158

Mg 17.28000 -1.53100 27.66800
C  16.36400 0.42600 30.40900
C  19.34100 -3.32400 29.85900
C  18.70800 -2.96200 24.98400
C  15.54700 0.76900 25.48700
N  17.77900 -1.43800 29.83700
C  17.16800 -0.60100 30.78300
C  17.62800 -0.89500 32.21100
C  18.89800 -1.83000 31.99900
C  18.65200 -2.26500 30.46900
C  20.32600 -1.23500 32.36200
C  16.57200 -1.51900 33.10700
C  16.42000 -1.07600 34.55300
H  17.13500 -2.13300 35.39800
N  18.65200 -3.14600 27.50200
C  19.42800 -3.71400 28.49500
C  20.24400 -4.72400 27.94500
C  19.99000 -4.69700 26.49700
C  19.11200 -3.53200 26.24500
C  20.83800 -5.79300 28.83800
C  20.53100 -5.58500 25.37600
O  20.08400 -5.50600 24.24100
C  21.59200 -6.69100 25.66700
N  17.00100 -1.18200 25.53700
C  17.68300 -1.95900 24.64100
C  17.50500 -1.49700 23.20400
C  16.25600 -0.44500 23.40200
C  16.26800 -0.25400 24.92000
C  18.74600 -0.87500 22.46800
C  14.89600 -0.86800 22.82800
C  13.75800 -1.26800 23.77200
N  16.13000 0.14600 27.86600
C  15.53800 1.00700 26.89300
C  14.85200 2.07200 27.55700
C  15.07900 1.83600 28.94000
C  15.90400 0.70100 29.08100
C  14.11200 3.12700 26.91100
C  14.70600 2.29900 30.32000
O  14.02000 3.22400 30.69600
C  15.60800 1.38800 31.23800
C  16.46400 2.30000 32.07300
O  17.37000 3.03200 31.69500
O  16.12800 2.19300 33.39000
C  16.92000 3.02600 34.32800
H  20.00200 -3.74600 30.61800
H  19.18100 -3.38800 24.09700
H  15.02100 1.48300 24.85000
H  17.89700 0.07700 32.62300
H  18.82800 -2.74600 32.58500
H  20.86100 -1.00600 31.44000
H  20.88200 -1.89800 33.02500
H  20.14800 -0.34100 32.95900
H  16.73400 -2.59700 33.07800
H  15.62700 -1.34000 32.59400
H  15.36400 -0.99300 34.81000
H  16.91000 -0.10300 34.55700
H  21.92800 -5.79000 28.81600
H  20.43500 -6.76400 28.55000
H  20.44200 -5.66800 29.84600
H  22.49500 -6.39600 26.20200
H  21.94600 -7.09700 24.71900
H  21.16400 -7.58000 26.13000
H  17.25100 -2.41500 22.67400
H  16.57800 0.41500 22.81600
H  19.36200 -1.54000 21.86300
H  19.35900 -0.40100 23.23500
H  18.35300 -0.04200 21.88500
H  15.05300 -1.73800 22.19100
H  14.40800 -0.11300 22.21100
H  13.50000 -0.34900 24.29700
H  14.22800 -1.95800 24.47300
H  12.96900 -1.75500 23.20000
H  14.82200 3.50100 26.17300
H  13.93600 4.01000 27.52400
H  13.15900 2.87300 26.44600
H  14.99700 0.77100 31.89700
H  17.80800 2.51100 34.69500
H  16.23300 3.25500 35.14300
H  17.32200 3.96100 33.93700
Mg 43.22400 4.02900 47.22800
C  41.05200 6.68000 47.25900
C  40.40900 1.85500 47.29900
C  45.30300 1.40900 46.95300
C  45.88800 6.19300 46.91000
N  41.01500 4.27500 47.43900
C  40.40200 5.47000 47.33900
C  38.82700 5.25800 47.24600
C  38.61700 3.70200 47.34500
C  40.09300 3.22000 47.53000
C  37.65400 3.22100 48.47700
C  38.08900 5.84700 46.01500
C  38.75900 5.49800 44.62400
H  38.30900 6.30400 43.28500
N  42.89900 1.97100 47.13300
C  41.69100 1.26600 47.11800
C  41.97800 -0.07700 46.90000
C  43.39700 -0.26800 46.80200
C  43.92300 1.09400 46.98700
C  40.85800 -1.12000 46.73600
C  44.12000 -1.58500 46.56900
O  43.52900 -2.64000 46.38400
C  45.53800 -1.70200 46.48500
N  45.29600 3.76000 46.75900
C  45.95000 2.62500 46.86800
C  47.45800 2.79400 46.64600
C  47.61500 4.35700 46.79100
C  46.16400 4.82000 46.73900
C  48.34700 1.82600 47.44700
C  48.51400 5.08300 45.74900
C  49.64600 4.20600 45.15100
N  43.53400 6.10600 47.01700
C  44.62300 6.88800 46.97200
C  44.31100 8.34300 46.91100
C  42.92700 8.25700 47.06600
C  42.49900 6.87500 47.17600
C  45.21400 9.57500 46.90900
C  41.75600 9.10800 47.29400
O  41.63200 10.33100 47.34600
C  40.47500 8.11800 47.28000
C  39.61700 8.51100 48.44900
O  39.77600 8.03200 49.56600
O  38.51200 9.23100 48.09000
C  37.40300 9.32600 49.09000
H  39.48800 1.26900 47.24900
H  46.07700 0.66000 46.76900
H  46.80400 6.78300 46.83200
H  38.30300 5.63300 48.12500
H  38.27200 3.22700 46.42600
H  38.03600 2.38000 49.05500
H  36.72900 2.93800 47.97500
H  37.35100 3.98200 49.19700
H  37.97400 6.93000 46.06100
H  37.13100 5.32800 46.04500
H  38.61700 4.42600 44.48400
H  39.83100 5.61300 44.78000
H  40.67200 -1.23100 45.66800
H  39.97800 -0.72800 47.24500
H  41.12600 -2.05000 47.23800
H  46.04500 -1.70100 47.45000
H  45.94600 -1.00500 45.75300
H  45.75000 -2.67000 46.03200
H  47.64400 2.59700 45.59000
H  47.97500 4.72300 47.75200
H  48.84300 1.13200 46.76700
H  47.78100 1.23000 48.16200
H  49.06000 2.43300 48.00500
H  49.07700 5.87500 46.24300
H  47.96300 5.44300 44.88000
H  50.53200 4.84100 45.13100
H  49.29100 3.82300 44.19500
H  49.93000 3.43500 45.86700
H  45.32000 10.03200 47.89300
H  44.74800 10.33300 46.28100
H  46.13500 9.21600 46.45000
H  40.04900 8.18900 46.27900
H  37.47300 10.30100 49.57200
H  37.49800 8.62100 49.91600
H  36.43300 9.26800 48.59700

