158

Mg 47.25100 25.48000 27.84100
C  47.98100 27.62900 30.32900
C  46.73100 23.12900 30.34600
C  46.43600 23.13700 25.45700
C  48.45200 27.58500 25.46300
N  47.01000 25.52700 30.16800
C  47.30000 26.58800 30.91800
C  47.19800 26.20200 32.46400
C  46.98000 24.62700 32.46800
C  46.84600 24.40700 30.90900
C  48.21400 23.77000 32.96200
C  46.24300 27.08300 33.26000
C  46.04400 26.38600 34.73700
H  46.23600 27.33600 35.87200
N  46.51000 23.41900 27.91300
C  46.43500 22.66500 29.03100
C  45.89800 21.34100 28.63100
C  45.59800 21.46000 27.22400
C  46.15500 22.73500 26.81300
C  45.67800 20.19500 29.64800
C  44.93700 20.46600 26.32000
O  44.73200 20.77000 25.15000
C  44.72500 19.03000 26.75200
N  47.46700 25.36000 25.72800
C  47.11600 24.29000 24.98600
C  47.34600 24.56800 23.51400
C  47.94300 26.03300 23.52900
C  47.87500 26.39000 24.98300
C  48.18400 23.55600 22.76800
C  47.10500 27.08800 22.67400
C  47.73600 27.61300 21.38000
N  48.15800 27.20200 27.81500
C  48.53300 28.00500 26.77400
C  49.16300 29.20400 27.27600
C  49.02400 29.06100 28.69900
C  48.37400 27.82700 28.97600
C  49.84500 30.18200 26.36000
C  49.26400 29.67500 29.96800
O  49.78000 30.69300 30.30700
C  48.48300 28.87200 31.07600
C  49.39200 28.59200 32.31100
O  50.43500 27.86300 32.16600
O  48.90600 29.34100 33.39900
C  49.60700 29.29100 34.70200
H  46.80700 22.30400 31.05800
H  46.21900 22.37800 24.70200
H  48.92300 28.15700 24.66100
H  48.13900 26.37000 32.98800
H  46.07900 24.31900 32.99900
H  48.05500 22.73800 33.27600
H  48.70000 24.32800 33.76300
H  49.00100 23.68100 32.21300
H  45.30700 27.02200 32.70400
H  46.57500 28.12000 33.21100
H  46.84800 25.65900 34.85500
H  45.03700 25.97100 34.77200
H  46.03400 19.24400 29.25300
H  44.61800 20.00500 29.81500
H  46.17100 20.28800 30.61500
H  44.23200 18.96400 27.72200
H  45.66800 18.48600 26.81000
H  44.06200 18.56100 26.02500
H  46.38700 24.51300 22.99900
H  48.98600 26.18800 23.25300
H  48.71900 22.81900 23.36700
H  48.95100 24.04700 22.16800
H  47.54100 22.98300 22.10000
H  46.78300 27.84900 23.38500
H  46.19300 26.62600 22.29700
H  47.26500 27.02700 20.59100
H  48.74700 27.20600 21.39000
H  47.57000 28.68000 21.23100
H  49.83500 29.99000 25.28700
H  50.90000 30.14900 26.63300
H  49.58200 31.22900 26.51300
H  47.66800 29.52600 31.38700
H  49.26200 30.07100 35.38000
H  50.69300 29.28800 34.61400
H  49.24000 28.33200 35.06900
Mg 30.85000 59.21300 40.03100
C  27.81200 57.57700 38.74900
C  32.61100 56.70900 38.67700
C  33.50600 61.04800 40.63100
C  28.72300 62.04500 40.59400
N  30.21800 57.40900 38.73400
C  29.00900 56.88100 38.45600
C  29.18600 55.45500 37.98600
C  30.68700 55.08800 38.20900
C  31.22200 56.47600 38.65300
C  31.03000 53.94100 39.22500
C  28.62600 55.24600 36.56000
C  29.33700 56.06200 35.42800
H  28.41800 56.61100 34.29500
N  32.85300 58.83600 39.81200
C  33.38900 57.70500 39.28500
C  34.85900 57.81600 39.35000
C  35.13100 59.05200 40.04900
C  33.81500 59.73200 40.18600
C  35.77300 56.76400 38.76500
C  36.49900 59.47300 40.41000
O  37.43100 58.76900 40.09500
C  36.74100 60.82000 41.08700
N  31.03400 61.29900 40.50800
C  32.28800 61.74300 40.78600
C  32.18200 63.31100 40.95700
C  30.66000 63.56300 41.19400
C  30.10200 62.26800 40.71400
C  33.06300 64.01000 42.02700
C  30.16400 64.73400 40.31900
C  29.14000 65.69400 41.07600
N  28.69900 59.77800 39.79000
C  28.07800 60.94900 40.06200
C  26.68000 60.78900 39.80800
C  26.58200 59.44600 39.34500
C  27.82300 58.88100 39.30100
C  25.51500 61.72000 40.06100
C  25.61600 58.47500 38.77600
O  24.37200 58.62700 38.65900
C  26.33200 57.15400 38.39800
C  25.90400 55.93400 39.10200
O  25.47400 55.86900 40.24500
O  25.89000 54.82400 38.28600
C  25.35400 53.61200 38.96000
H  33.27400 55.97000 38.22200
H  34.36300 61.68400 40.85900
H  28.08200 62.89500 40.83500
H  28.58900 54.81200 38.63200
H  31.18500 54.83400 37.27300
H  30.21200 53.49300 39.78900
H  31.65700 54.38900 39.99500
H  31.59700 53.25400 38.59700
H  27.54800 55.39300 36.49900
H  28.83300 54.18800 36.40100
H  30.12100 55.45400 34.97700
H  29.78600 56.93200 35.90700
H  35.40600 55.78200 38.46600
H  36.45700 56.49800 39.57100
H  36.28200 57.23100 37.92200
H  37.76200 60.72300 41.45600
H  36.06100 60.93500 41.93100
H  36.59400 61.65200 40.39800
H  32.47900 63.71300 39.98800
H  30.59000 63.76200 42.26400
H  32.50500 64.70400 42.65500
H  33.82800 64.58300 41.50300
H  33.51300 63.25300 42.66900
H  29.60600 64.37200 39.45600
H  31.04000 65.20100 39.87000
H  29.57600 66.68500 41.20400
H  29.02400 65.27300 42.07400
H  28.21800 65.74000 40.49700
H  25.74400 62.72700 39.71300
H  25.17700 61.72500 41.09800
H  24.68700 61.33900 39.46400
H  26.31200 57.07800 37.31100
H  25.35400 52.95300 38.09100
H  24.33600 53.83000 39.28200
H  26.01800 53.27400 39.75500

