158

Mg 49.07600 35.39300 27.52000
C  47.00700 33.67000 29.65700
C  49.33300 37.99500 29.83800
C  50.52100 37.36500 25.07800
C  48.36900 32.97300 25.13700
N  48.12900 35.81200 29.40300
C  47.47300 34.90700 30.17100
C  47.51000 35.25300 31.70800
C  47.82700 36.81500 31.60200
C  48.47800 36.92200 30.14500
C  46.60300 37.78900 31.84800
C  48.69000 34.40000 32.34800
C  48.55000 34.00700 33.85100
H  47.63500 34.80700 34.69600
N  49.88700 37.34700 27.46500
C  49.87200 38.18900 28.56500
C  50.62600 39.37200 28.22000
C  50.96900 39.31600 26.86300
C  50.46300 37.96800 26.37000
C  50.94100 40.42100 29.26800
C  51.77000 40.28200 25.95600
O  52.07000 40.04000 24.76700
C  52.36000 41.53200 26.57800
N  49.41600 35.13500 25.46300
C  50.08800 36.09700 24.64500
C  50.40100 35.55300 23.33400
C  49.95400 34.00300 23.37100
C  49.16700 34.00000 24.73500
C  49.78300 36.40700 22.17800
C  51.09100 32.92500 23.46100
C  50.95100 31.78200 22.39700
N  48.01100 33.60400 27.40600
C  47.78700 32.73200 26.36600
C  47.07900 31.49400 26.79600
C  46.64400 31.91800 28.04500
C  47.27100 33.12500 28.38300
C  46.62500 30.28100 26.15300
C  45.83800 31.50400 29.21800
O  45.21500 30.45300 29.50400
C  46.05200 32.59300 30.35500
C  46.51500 31.90100 31.55900
O  47.57000 31.27500 31.56700
O  45.69300 32.09200 32.60200
C  46.02200 31.21600 33.72900
H  49.42000 38.63900 30.71500
H  50.94500 37.99400 24.29300
H  48.31000 32.15800 24.41200
H  46.51300 35.06800 32.10900
H  48.55300 37.01100 32.39100
H  46.27000 38.19000 30.89100
H  46.85800 38.68300 32.41700
H  45.70200 37.34000 32.26800
H  49.54900 35.04500 32.16200
H  48.92500 33.53100 31.73400
H  49.56500 34.06900 34.24400
H  48.22500 32.96600 33.84400
H  50.16000 40.45800 30.02800
H  51.08400 41.43800 28.90300
H  51.85900 40.09500 29.75700
H  52.92500 41.37800 27.49700
H  51.57500 42.27100 26.73600
H  52.96900 42.00200 25.80600
H  51.48800 35.58500 23.40000
H  49.23600 33.71500 22.60300
H  49.10500 35.80100 21.57800
H  50.63900 36.64100 21.54400
H  49.36200 37.33100 22.57400
H  51.14900 32.41800 24.42400
H  52.06600 33.39700 23.33800
H  50.33300 32.22200 21.61500
H  50.59700 30.84200 22.82200
H  51.95700 31.54800 22.04900
H  45.66500 30.37100 25.64600
H  46.59300 29.43800 26.84300
H  47.40600 30.05300 25.42700
H  45.15100 33.12900 30.65400
H  45.66200 31.66600 34.65400
H  47.08100 30.98200 33.83800
H  45.53800 30.24500 33.62300
Mg 17.37600 53.51900 26.39100
C  19.23200 51.74100 28.81100
C  15.15400 54.29600 28.97700
C  15.39200 54.93400 24.02100
C  19.44500 52.20200 23.95700
N  17.20500 53.03900 28.65800
C  18.11500 52.35100 29.47200
C  17.88900 52.65500 30.91700
C  16.42100 53.15500 30.94400
C  16.26200 53.54000 29.39600
C  15.32200 52.22100 31.43100
C  18.95900 53.58600 31.56300
C  19.26000 53.34600 33.06200
H  18.10100 52.67900 33.87000
N  15.57500 54.57400 26.45800
C  14.84700 54.78300 27.62100
C  13.72600 55.55600 27.27000
C  13.74600 55.83100 25.88100
C  14.94500 55.15500 25.34300
C  12.69100 56.06200 28.40700
C  12.81400 56.60100 25.09800
O  12.92200 56.71400 23.89700
C  11.64700 57.34500 25.76900
N  17.28700 53.38200 24.23800
C  16.48500 54.19900 23.53500
C  16.89500 54.27200 22.03700
C  18.30900 53.53400 22.06900
C  18.34200 52.91000 23.51200
C  15.90900 53.74000 20.96900
C  19.58300 54.37600 21.70200
C  20.54600 53.85600 20.63800
N  18.97700 52.18500 26.36300
C  19.71900 51.82000 25.27400
C  20.80400 50.98000 25.79300
C  20.60200 50.87800 27.17800
C  19.49100 51.62700 27.44900
C  21.95400 50.52600 24.88000
C  21.15000 50.38700 28.37300
O  22.09000 49.64800 28.62100
C  20.29200 50.95800 29.44800
C  19.73300 49.93900 30.27200
O  18.97400 49.06700 29.87200
O  20.04500 50.10800 31.60400
C  19.66000 48.91900 32.41200
H  14.40000 54.62000 29.69800
H  14.99000 55.47800 23.16300
H  20.24800 51.97100 23.25400
H  17.84800 51.71600 31.46900
H  16.40800 54.05700 31.55600
H  15.04400 51.47600 30.68500
H  14.46800 52.80000 31.78200
H  15.82200 51.62900 32.19800
H  18.58400 54.60800 31.61800
H  19.88500 53.56100 30.98800
H  19.49000 54.32200 33.48800
H  20.14000 52.70900 32.96800
H  12.50000 57.12400 28.24800
H  12.96800 55.92800 29.45300
H  11.76800 55.48300 28.39000
H  12.05300 57.99300 26.54700
H  11.11900 56.54900 26.29300
H  11.05300 57.86200 25.01600
H  17.09500 55.33800 21.93100
H  18.30700 52.71700 21.34700
H  14.88100 53.71200 21.33000
H  16.24500 52.74900 20.66500
H  15.88600 54.39800 20.10000
H  20.23400 54.42600 22.57500
H  19.30600 55.42600 21.60800
H  21.49200 53.68200 21.15100
H  20.78300 54.58600 19.86500
H  20.12700 52.97300 20.15600
H  22.09600 51.10100 23.96500
H  21.87900 49.45300 24.70400
H  22.83500 50.58100 25.51900
H  20.90100 51.63700 30.04500
H  19.87500 49.05500 33.47200
H  20.14400 48.09400 31.89000
H  18.59100 48.71600 32.48200

