158

Mg 2.72100 0.15300 44.70200
C  5.63100 2.19900 43.96700
C  0.84600 2.24300 42.80800
C  0.30400 -2.05300 45.00600
C  5.03800 -2.28500 45.92400
N  3.22100 1.91400 43.39100
C  4.40000 2.59800 43.28500
C  4.30300 3.77600 42.30300
C  2.76900 4.05200 42.30200
C  2.22900 2.65900 42.85700
C  2.44100 5.34400 43.14900
C  4.98500 3.43200 40.92300
C  6.16300 4.28000 40.37700
H  6.36500 4.39800 38.87700
N  0.82900 0.16600 44.07600
C  0.15800 1.13200 43.37800
C  -1.26600 0.73200 43.35600
C  -1.50200 -0.35200 44.12400
C  -0.05300 -0.80900 44.44200
C  -2.20700 1.62800 42.56300
C  -2.84700 -0.95800 44.57800
O  -3.90100 -0.44400 44.20300
C  -2.97300 -2.13200 45.50000
N  2.74100 -1.88800 45.27800
C  1.54000 -2.56100 45.37800
C  1.76700 -4.04000 45.83100
C  3.28000 -4.06900 46.14100
C  3.70400 -2.64200 45.76700
C  0.78800 -4.55700 46.97100
C  4.08800 -5.18200 45.41200
C  4.99300 -5.98000 46.40300
N  4.88100 -0.03700 44.99200
C  5.58500 -1.02900 45.64300
C  6.98700 -0.55200 45.86900
C  7.03400 0.74200 45.22100
C  5.73000 0.97700 44.75300
C  8.06200 -1.35300 46.52700
C  7.87500 1.92800 44.97600
O  9.03800 2.18700 45.35000
C  7.01200 2.87200 44.08600
C  7.01100 4.22300 44.71000
O  7.87900 5.03500 44.53900
O  5.78500 4.43800 45.41200
C  5.60500 5.87000 45.83000
H  0.26700 2.93200 42.18900
H  -0.51800 -2.77200 44.98900
H  5.72300 -3.01300 46.36200
H  4.86200 4.59500 42.75400
H  2.47600 4.12000 41.25400
H  1.58600 5.17600 43.80400
H  2.13900 6.07800 42.40200
H  3.30500 5.77100 43.65700
H  4.28800 3.39800 40.08500
H  5.34200 2.40200 40.95000
H  7.07600 3.83200 40.76800
H  6.10600 5.29200 40.77800
H  -3.24500 1.32700 42.70300
H  -1.90500 1.72900 41.52100
H  -2.10900 2.61800 43.00700
H  -2.17400 -2.09000 46.24100
H  -2.75500 -2.96700 44.83400
H  -4.01300 -2.23900 45.80700
H  1.65000 -4.65200 44.93600
H  3.47400 -4.10300 47.21300
H  0.16700 -3.79000 47.43300
H  1.43400 -5.07500 47.68000
H  0.07700 -5.23800 46.50200
H  4.76900 -4.65600 44.74200
H  3.37800 -5.75900 44.82000
H  4.30900 -6.33500 47.17400
H  5.73100 -5.34200 46.88700
H  5.41700 -6.82000 45.85300
H  7.92400 -1.71100 47.54800
H  8.85700 -0.60900 46.57800
H  8.37300 -2.25800 46.00700
H  7.42000 3.03700 43.08900
H  6.52900 6.44800 45.84700
H  5.14200 5.92700 46.81500
H  5.00000 6.32400 45.04500
Mg 6.19900 56.65300 42.52800
C  4.90800 53.52300 41.73800
C  9.23400 55.69700 41.15300
C  7.09700 59.94300 42.19500
C  2.99600 57.57500 43.56400
N  6.92100 54.91300 41.36700
C  6.25100 53.70000 41.25100
C  7.15200 52.63200 40.68800
C  8.56200 53.28600 40.87900
C  8.24900 54.76500 41.15300
C  9.43200 52.67000 42.04900
C  6.88400 52.11200 39.15000
C  7.11400 50.61700 38.94700
H  6.46500 50.12600 37.77500
N  7.97600 57.67700 41.87600
C  9.08700 57.11900 41.47400
C  10.10700 58.12600 41.30200
C  9.55700 59.33000 41.69500
C  8.17400 59.00400 41.97900
C  11.52500 57.76200 40.96900
C  10.35500 60.62500 41.91300
O  11.48600 60.77000 41.56000
C  9.76300 61.72600 42.74000
N  5.22800 58.47500 42.80000
C  5.78500 59.74100 42.45400
C  4.71400 60.84800 42.57400
C  3.39400 60.05500 42.95000
C  3.85500 58.58400 43.12400
C  4.94200 62.11400 43.41900
C  2.10500 60.19000 41.98900
C  0.74800 60.62100 42.63000
N  4.34700 55.76900 42.81500
C  3.15200 56.23100 43.30500
C  2.20300 55.15600 43.46200
C  2.87500 54.02200 42.91500
C  4.12300 54.49800 42.40500
C  0.80800 55.23900 43.93900
C  2.74700 52.63100 42.61700
O  1.82600 51.81700 42.81300
C  4.11700 52.25100 41.89700
C  3.75100 51.64200 40.65100
O  3.65800 52.19600 39.60800
O  3.50100 50.28100 40.85600
C  3.11100 49.38800 39.73500
H  10.27600 55.42000 40.98200
H  7.37100 60.99500 42.08900
H  2.02700 57.91200 43.93600
H  7.06000 51.73600 41.30200
H  9.08500 53.24800 39.92300
H  8.89600 51.87600 42.57000
H  9.61200 53.50500 42.72600
H  10.34300 52.28800 41.58700
H  7.53200 52.64500 38.45400
H  5.90400 52.52600 38.91400
H  6.78000 50.08700 39.83900
H  8.20300 50.62800 38.90400
H  11.87400 58.57100 40.32800
H  11.64200 56.78600 40.49800
H  12.13600 57.72100 41.87100
H  9.08800 61.29400 43.47800
H  9.20900 62.43000 42.12000
H  10.53100 62.34200 43.20800
H  4.73300 61.24600 41.56000
H  3.14500 60.31500 43.97900
H  5.99800 62.28400 43.62800
H  4.44900 62.02900 44.38800
H  4.64900 63.02700 42.90100
H  2.05300 59.17100 41.60400
H  2.34400 60.96600 41.26200
H  -0.03000 59.85900 42.58600
H  0.33900 61.52300 42.17500
H  1.05600 60.86200 43.64800
H  0.16000 55.57000 43.12700
H  0.80100 56.02000 44.69900
H  0.46800 54.26700 44.29500
H  4.60800 51.49400 42.50900
H  3.02500 49.92000 38.78800
H  2.10800 49.02200 39.95200
H  3.89600 48.63400 39.66800

