158

Mg 1.54500 7.71400 25.00900
C  2.00700 9.56900 27.83400
C  1.57200 4.81100 26.89100
C  1.30100 5.92900 22.14600
C  1.49100 10.63700 23.05300
N  1.72200 7.22900 27.13700
C  1.89500 8.19500 28.13100
C  1.93600 7.45000 29.49900
C  1.99000 5.96900 29.15000
C  1.64000 5.96100 27.68300
C  3.27600 5.09100 29.49000
C  0.82400 7.84100 30.50100
C  1.18100 7.60600 31.99600
H  2.39600 6.70500 32.38600
N  1.53100 5.56900 24.57200
C  1.44200 4.56200 25.44600
C  1.32400 3.26600 24.73400
C  1.27300 3.61500 23.36300
C  1.42700 5.12900 23.25600
C  1.28400 1.95900 25.43400
C  1.25500 2.61800 22.20400
O  1.09300 2.90700 20.97700
C  1.29100 1.11200 22.39900
N  1.20600 8.24600 22.91500
C  1.28500 7.31800 21.95700
C  1.00900 7.98600 20.58300
C  0.76200 9.46500 20.95000
C  1.18200 9.43500 22.34500
C  2.12000 7.80200 19.48300
C  -0.69400 10.06400 20.80100
C  -0.82000 11.57500 20.76200
N  1.68800 9.66400 25.29700
C  1.68100 10.75400 24.40400
C  1.85700 11.98600 25.19500
C  2.03000 11.52400 26.50800
C  1.93300 10.13500 26.53100
C  1.84700 13.38200 24.67700
C  2.24500 12.07100 27.86200
O  2.50700 13.21000 28.23400
C  2.16100 10.77000 28.78300
C  3.26600 10.67600 29.80300
O  4.31500 10.02500 29.61800
O  2.94200 11.39300 30.94500
C  3.94300 11.13400 32.01300
H  1.55700 3.85600 27.42000
H  1.18200 5.43400 21.18000
H  1.64000 11.50000 22.40100
H  2.85900 7.70800 30.01800
H  1.07900 5.58000 29.60500
H  2.90500 4.14800 29.89200
H  3.99800 5.58400 30.14100
H  3.94500 4.85300 28.66300
H  -0.09700 7.32800 30.22400
H  0.69800 8.89500 30.25000
H  0.42300 6.95000 32.42400
H  1.25400 8.56200 32.51400
H  1.94000 1.26400 24.91000
H  0.23700 1.65600 25.45600
H  1.63000 2.05200 26.46400
H  2.32700 0.90100 22.66400
H  1.22700 0.64800 21.41500
H  0.65800 0.70700 23.18900
H  0.05500 7.56400 20.26800
H  1.44900 10.08000 20.36900
H  1.53000 7.62600 18.58400
H  2.71400 6.92600 19.74300
H  2.78900 8.64800 19.32700
H  -1.30500 9.74700 21.64500
H  -1.17100 9.59700 19.94000
H  -0.96300 11.93000 19.74100
H  0.11300 11.95900 21.17400
H  -1.53000 11.88600 21.52800
H  2.80400 13.87300 24.85200
H  1.11300 13.94800 25.25100
H  1.50200 13.47500 23.64700
H  1.23400 10.92700 29.33500
H  4.93900 11.37300 31.64000
H  3.81100 10.22500 32.60000
H  3.88100 11.94800 32.73500
Mg -10.55200 39.69000 41.50900
C  -9.48300 36.41000 40.86500
C  -7.59100 40.88300 40.17800
C  -11.99700 42.69700 41.36000
C  -13.58400 38.39300 42.70000
N  -8.76100 38.75600 40.71800
C  -8.59700 37.39800 40.45500
C  -7.22700 37.12100 39.70400
C  -6.50000 38.54200 39.71100
C  -7.66800 39.45600 40.23600
C  -5.18300 38.68600 40.49400
C  -7.36700 36.51100 38.24800
C  -6.17700 35.56200 37.87000
H  -5.22900 35.94800 36.74300
N  -9.83400 41.50000 40.96600
C  -8.52900 41.83700 40.54400
C  -8.46100 43.29700 40.43000
C  -9.75300 43.81400 40.71800
C  -10.62300 42.66600 41.03100
C  -7.28800 44.05300 39.83000
C  -9.98500 45.32400 40.92400
O  -9.03600 46.08600 40.83500
C  -11.33600 45.93700 41.25100
N  -12.59900 40.36900 41.79700
C  -12.89800 41.65100 41.72300
C  -14.38400 41.97500 42.07100
C  -14.89300 40.64500 42.65900
C  -13.65700 39.69000 42.30900
C  -14.67700 43.16200 43.00300
C  -16.26300 40.13300 42.08700
C  -17.58100 40.36600 43.00300
N  -11.43000 37.77100 41.79200
C  -12.55700 37.39200 42.41200
C  -12.53900 35.93700 42.53100
C  -11.37200 35.53000 41.92600
C  -10.73600 36.70600 41.47500
C  -13.72500 35.09400 42.95900
C  -10.55200 34.34700 41.64000
O  -10.71000 33.17200 41.92800
C  -9.24300 34.92200 41.01200
C  -8.01800 34.62000 41.82300
O  -7.77900 35.11700 42.92000
O  -7.15900 33.88800 41.14000
C  -5.86500 33.69500 41.72900
H  -6.68200 41.21100 39.67000
H  -12.39500 43.71400 41.32400
H  -14.31400 38.01100 43.41600
H  -6.67000 36.48000 40.38700
H  -6.31700 38.97900 38.73000
H  -4.52900 39.31200 39.88700
H  -4.77100 37.67900 40.57000
H  -5.16700 39.13900 41.48600
H  -7.38700 37.26600 37.46100
H  -8.34900 36.06000 38.10800
H  -6.64900 34.59400 37.69900
H  -5.55600 35.47900 38.76100
H  -6.53900 43.36400 39.44000
H  -6.84100 44.69200 40.59100
H  -7.71400 44.61200 38.99700
H  -11.97600 45.85800 40.37100
H  -11.17100 47.00900 41.35300
H  -11.68800 45.55200 42.20800
H  -14.79300 42.26700 41.10400
H  -14.93900 40.82300 43.73400
H  -13.80700 43.33600 43.63700
H  -15.56700 42.98200 43.60500
H  -14.85000 44.09700 42.47000
H  -16.23700 39.04300 42.08700
H  -16.50800 40.51800 41.09800
H  -18.50600 40.05900 42.51500
H  -17.80400 41.39900 43.26900
H  -17.56600 39.79800 43.93300
H  -13.79800 34.26000 42.26100
H  -14.65800 35.65500 42.91000
H  -13.51000 34.67200 43.94100
H  -9.07100 34.36200 40.09300
H  -6.07800 33.04000 42.57400
H  -5.48000 34.68900 41.95500
H  -5.12600 33.20400 41.09500

