158

Mg 29.93500 58.91000 39.88200
C  27.53900 56.59700 38.95400
C  32.39400 56.82500 38.67900
C  32.16700 61.50000 40.08600
C  27.22900 61.18800 40.66500
N  29.96500 56.92000 38.98900
C  28.81900 56.17800 38.69200
C  29.28400 54.77600 38.02300
C  30.81300 54.77200 38.23500
C  31.07500 56.27500 38.68100
C  31.36200 53.60300 39.03700
C  28.74000 54.75600 36.57500
C  27.93300 53.50200 36.12400
H  27.10400 53.85900 34.86900
N  32.05000 59.16600 39.44400
C  32.86000 58.13600 38.98700
C  34.21000 58.71600 38.81900
C  34.18500 60.08800 39.26700
C  32.73400 60.26000 39.63000
C  35.34500 57.92200 38.32100
C  35.33500 61.02300 39.29700
O  36.43300 60.59000 38.92600
C  35.36900 62.36000 40.07300
N  29.71100 61.04100 40.28200
C  30.85100 61.82200 40.41800
C  30.42000 63.24100 40.86800
C  28.89000 63.16000 41.11800
C  28.55000 61.74900 40.65100
C  31.28500 63.84100 41.97800
C  28.08900 64.23400 40.38100
C  27.09600 65.02500 41.30200
N  27.83100 58.92600 39.93600
C  26.92400 59.90800 40.15800
C  25.58200 59.37500 39.97500
C  25.77700 58.12400 39.45700
C  27.13200 57.90200 39.43800
C  24.29900 60.13600 40.19100
C  25.08400 57.01700 38.88100
O  23.87200 56.81900 38.63500
C  26.21700 55.93000 38.61100
C  25.99100 54.76000 39.45600
O  26.44700 54.63900 40.56500
O  25.15300 53.84800 38.87600
C  24.69800 52.58700 39.60300
H  33.17700 56.09000 38.48300
H  32.85200 62.33200 40.26000
H  26.46300 61.92700 40.91200
H  28.80200 53.92800 38.50900
H  31.29500 54.67600 37.26200
H  31.48700 53.92400 40.07100
H  32.26000 53.18300 38.58200
H  30.74400 52.70900 39.11600
H  29.49800 54.82500 35.79400
H  28.21800 55.70200 36.42900
H  27.22600 53.31700 36.93200
H  28.55000 52.64200 35.86700
H  35.02900 56.88000 38.28800
H  36.16200 57.96300 39.04000
H  35.67500 58.21400 37.32400
H  34.74900 62.25000 40.96400
H  34.83500 63.09800 39.47500
H  36.38100 62.66800 40.33500
H  30.55500 63.97300 40.07200
H  28.72800 63.27900 42.18900
H  32.23500 63.30800 42.01200
H  30.74900 63.69200 42.91500
H  31.37700 64.91300 41.80700
H  27.55700 63.78500 39.54200
H  28.77500 64.99800 40.01700
H  26.40000 65.51000 40.61800
H  27.55400 65.77300 41.95000
H  26.60000 64.27700 41.92000
H  24.18300 60.43700 41.23200
H  23.41000 59.61100 39.84200
H  24.50600 61.05900 39.64900
H  26.11000 55.60000 37.57800
H  25.05600 52.65500 40.63000
H  25.24800 51.72900 39.21600
H  23.62500 52.45500 39.46300
Mg 36.15100 48.78200 25.06500
C  36.28200 46.65600 27.85100
C  34.76600 51.20700 27.14600
C  35.38200 50.56600 22.25200
C  37.10600 46.04400 22.99700
N  35.37000 48.84700 27.25900
C  35.72400 47.86700 28.19400
C  35.51300 48.51700 29.61200
C  34.75000 49.86300 29.38400
C  34.99400 50.04500 27.89800
C  33.25800 49.82700 29.92900
C  36.87600 48.53100 30.35400
C  36.81600 48.79700 31.86400
H  35.44000 48.82900 32.62900
N  35.24700 50.63100 24.73700
C  34.85600 51.54400 25.72700
C  34.64200 52.81300 25.07700
C  34.71100 52.57900 23.69800
C  35.03400 51.20200 23.50600
C  34.41100 54.01500 25.88900
C  34.31300 53.57500 22.65300
O  34.11600 53.22500 21.44500
C  33.91800 54.99800 22.91100
N  36.08000 48.26400 23.00000
C  35.85800 49.28800 22.01900
C  36.25800 48.76000 20.58500
C  37.10000 47.47400 20.92000
C  36.79900 47.29600 22.39100
C  35.11400 48.47600 19.61700
C  38.61200 47.75400 20.93000
C  39.36000 47.50400 19.62000
N  36.61500 46.75200 25.28200
C  37.00900 45.73200 24.42000
C  37.25800 44.55300 25.16600
C  37.05900 44.87500 26.50500
C  36.52400 46.18600 26.49600
C  37.68400 43.17000 24.61400
C  37.04600 44.32800 27.77500
O  37.32300 43.21100 28.21600
C  36.69900 45.52200 28.78300
C  35.65900 45.02100 29.78200
O  34.49900 44.70600 29.57900
O  36.22600 44.94900 30.95600
C  35.22500 44.77700 32.06800
H  34.41100 51.96900 27.84200
H  35.24600 51.22100 21.38900
H  37.59200 45.31000 22.35200
H  34.81600 47.88400 30.16000
H  35.38900 50.61600 29.84500
H  32.48300 49.95300 29.17300
H  33.18700 50.68300 30.60000
H  33.04600 48.93300 30.51500
H  37.43300 49.39900 30.00200
H  37.55400 47.68500 30.24100
H  37.34200 49.70500 32.15800
H  37.24500 47.86200 32.22500
H  33.64600 54.66700 25.46800
H  35.25400 54.69000 25.74200
H  34.24300 53.82700 26.94900
H  32.94200 55.21700 23.34300
H  34.04300 55.41400 21.91100
H  34.69300 55.54800 23.44500
H  36.84400 49.54700 20.11200
H  36.93000 46.56700 20.34100
H  35.10300 47.40100 19.44100
H  35.40900 48.86500 18.64200
H  34.10700 48.77900 19.90400
H  39.14200 47.28200 21.75700
H  38.72000 48.82200 21.11900
H  38.78500 47.05600 18.81000
H  40.24800 46.90700 19.82400
H  39.62700 48.47300 19.19600
H  37.21900 43.08000 23.63200
H  37.29200 42.33700 25.19800
H  38.76300 43.04200 24.52800
H  37.62700 45.83200 29.26400
H  35.63700 45.34500 32.90200
H  35.00800 43.73400 32.30000
H  34.22400 45.13900 31.83200

