158

Mg 47.98900 16.45900 28.69200
C  45.74600 15.90600 31.34400
C  50.26900 17.77000 30.85300
C  49.95000 16.99800 26.06400
C  45.48400 15.16500 26.44100
N  47.92400 16.88500 30.78400
C  47.02000 16.40800 31.74400
C  47.41500 16.86700 33.14900
C  48.74700 17.75200 32.94100
C  49.05600 17.42300 31.46300
C  48.64900 19.30200 33.16200
C  47.61800 15.68600 34.18400
C  47.30500 15.74500 35.61200
H  47.24200 17.08000 36.31300
N  49.83200 17.37300 28.49000
C  50.69500 17.76600 29.53000
C  51.98100 18.08400 28.91000
C  51.88800 17.87600 27.49400
C  50.50900 17.48000 27.27000
C  53.09500 18.54700 29.75600
C  52.94600 18.16700 26.34900
O  52.65900 18.12400 25.17300
C  54.25000 18.50700 26.72400
N  47.75900 16.16300 26.56300
C  48.73900 16.46700 25.65600
C  48.33600 16.27800 24.24900
C  46.97500 15.46300 24.37800
C  46.70400 15.62400 25.87700
C  48.22800 17.55800 23.40000
C  47.13300 13.89100 24.01700
C  45.97800 13.43900 23.07900
N  45.99600 15.81000 28.78800
C  45.11300 15.31900 27.83800
C  43.83900 14.93700 28.44800
C  44.03300 15.11700 29.82700
C  45.36400 15.65300 29.98800
C  42.71800 14.25500 27.78200
C  43.46200 14.95200 31.17300
O  42.33200 14.58300 31.55700
C  44.53400 15.52000 32.16600
C  43.95900 16.73900 32.82100
O  43.63700 17.75800 32.22900
O  43.83900 16.53100 34.18300
C  43.33100 17.69900 34.93900
H  51.00400 17.95100 31.64000
H  50.70900 16.98300 25.27900
H  44.83500 14.59000 25.77800
H  46.67200 17.53000 33.59200
H  49.51900 17.41000 33.63200
H  47.59500 19.51400 33.34200
H  49.01200 19.76800 32.24600
H  49.29800 19.69100 33.94600
H  48.66500 15.49100 33.95200
H  47.19500 14.79100 33.72600
H  48.02400 15.08000 36.09000
H  46.33300 15.28500 35.78500
H  53.65600 19.28100 29.17800
H  53.73100 17.81200 30.25000
H  52.71800 19.20700 30.53700
H  54.61400 17.76800 27.43800
H  54.34600 19.53800 27.06400
H  54.93900 18.33200 25.89700
H  49.17200 15.66300 23.91700
H  46.20500 15.92800 23.76300
H  47.66100 17.34500 22.49300
H  49.23500 17.81000 23.06900
H  47.75400 18.35800 23.96900
H  46.95800 13.31400 24.92500
H  48.13300 13.64500 23.66100
H  46.39800 13.46000 22.07300
H  45.13300 14.12400 23.02100
H  45.70800 12.39400 23.23200
H  43.07800 13.35800 27.27900
H  42.10000 14.87300 27.13000
H  42.04100 13.83500 28.52600
H  44.73400 14.77600 32.93700
H  43.86300 17.67800 35.89000
H  42.25800 17.56200 35.07200
H  43.43900 18.60700 34.34600
Mg 49.30400 34.54800 27.36300
C  47.08900 33.61300 30.08000
C  49.92400 37.46900 28.97400
C  50.59900 35.72900 24.59000
C  48.38200 31.52000 25.80000
N  48.66100 35.27800 29.25100
C  47.76400 34.85200 30.25100
C  47.62500 35.88200 31.36700
C  48.40300 37.04400 30.81100
C  49.06800 36.53800 29.62100
C  47.53500 38.39500 30.51800
C  48.10000 35.45300 32.81200
C  47.00800 35.54700 33.85400
H  47.01600 36.83100 34.76400
N  50.15400 36.30600 26.90000
C  50.38300 37.42300 27.66200
C  50.97700 38.48700 26.83800
C  51.40100 37.92200 25.67100
C  50.63100 36.64500 25.64200
C  51.17300 39.90300 27.31300
C  52.27400 38.43600 24.64900
O  52.65500 37.80100 23.68700
C  52.91000 39.79900 24.79900
N  49.32800 33.71100 25.43900
C  50.09300 34.37500 24.55900
C  50.37200 33.47900 23.34200
C  49.80800 32.07800 23.72100
C  49.14900 32.43200 25.10400
C  49.90100 34.02200 22.04900
C  50.87500 31.04800 23.80900
C  50.85900 30.16000 22.52500
N  48.01200 32.89500 27.76500
C  47.68400 31.73400 27.02100
C  46.62100 30.91700 27.72300
C  46.41000 31.70100 28.89100
C  47.27200 32.79300 28.93800
C  46.01800 29.59700 27.25600
C  45.55300 31.73800 30.05100
O  44.59800 31.01900 30.34900
C  45.94800 32.98200 30.86800
C  46.08700 32.60400 32.30800
O  47.00300 31.93200 32.77200
O  44.89800 32.93100 32.92800
C  44.63700 32.28700 34.20200
H  50.04700 38.42600 29.48500
H  51.13600 36.05000 23.69500
H  48.22500 30.59000 25.25100
H  46.57400 36.17200 31.39500
H  49.25800 37.24000 31.45800
H  47.26200 38.41500 29.46300
H  48.05500 39.33100 30.71900
H  46.54000 38.47900 30.95500
H  48.96700 35.99200 33.19600
H  48.39200 34.40800 32.70600
H  46.92900 34.64800 34.46500
H  46.07300 35.66600 33.30700
H  50.65200 40.12000 28.24500
H  50.83000 40.56000 26.51400
H  52.23600 40.08600 27.47100
H  53.33200 39.94800 25.79300
H  52.09000 40.51400 24.74000
H  53.61300 39.98900 23.98800
H  51.45200 33.40900 23.20800
H  49.06900 31.83800 22.95600
H  48.90600 33.84900 21.64000
H  50.64500 33.69000 21.32400
H  49.92100 35.10500 22.16800
H  50.66600 30.35800 24.62600
H  51.88000 31.46800 23.77200
H  51.91000 29.96700 22.31300
H  50.48500 30.66100 21.63200
H  50.48000 29.14900 22.67400
H  46.00100 29.62100 26.16600
H  44.99600 29.43400 27.59800
H  46.56200 28.68800 27.51400
H  45.08200 33.61800 30.68800
H  43.66800 32.53400 34.63700
H  45.38900 32.61500 34.92000
H  44.65000 31.20400 34.08300

