158

Mg 49.72400 35.83900 27.38400
C  47.43800 34.27300 29.63200
C  50.11300 38.24500 29.72500
C  51.37200 37.51300 25.19500
C  49.04000 33.23800 25.10300
N  48.80900 36.20300 29.38700
C  48.06800 35.40700 30.16800
C  48.14800 35.69900 31.68400
C  48.64900 37.19600 31.54000
C  49.21500 37.21300 30.14600
C  47.68600 38.44100 31.76900
C  49.09600 34.71300 32.54400
C  49.67800 35.08400 33.95200
H  48.68900 35.85600 34.88400
N  50.67400 37.63100 27.41900
C  50.73500 38.47500 28.49600
C  51.55200 39.55500 28.18800
C  51.93900 39.41400 26.85400
C  51.28700 38.16700 26.41400
C  51.84400 40.57500 29.23600
C  52.71600 40.34300 25.90900
O  53.02800 40.15000 24.77900
C  53.19100 41.62100 26.53500
N  49.94300 35.46300 25.30100
C  50.85600 36.25700 24.68400
C  51.10100 35.73900 23.29700
C  50.65600 34.25600 23.35600
C  49.80900 34.27400 24.59100
C  50.47100 36.54200 22.18300
C  51.80000 33.21500 23.34000
C  52.43000 32.93600 24.70100
N  48.38600 34.19900 27.27300
C  48.28200 33.20900 26.31900
C  47.36300 32.18000 26.70400
C  46.97500 32.56100 27.99400
C  47.62300 33.75400 28.30200
C  47.02500 30.93200 26.02900
C  46.12200 32.19500 29.09000
O  45.31000 31.31300 29.26500
C  46.35300 33.37400 30.22700
C  46.62500 32.70200 31.53700
O  47.45300 31.80800 31.69600
O  45.76400 33.03100 32.53500
C  45.99500 32.32400 33.80800
H  50.24400 38.97700 30.52500
H  51.94800 38.01100 24.41300
H  48.89700 32.34200 24.49400
H  47.10400 35.75700 31.99500
H  49.55100 37.25600 32.14900
H  47.81700 38.79000 32.79300
H  46.66800 38.21900 31.44700
H  47.89000 39.20600 31.02000
H  49.95300 34.43800 31.92900
H  48.62200 33.75200 32.74700
H  50.57900 35.69400 33.88100
H  49.85500 34.12400 34.43600
H  52.06300 40.05800 30.17100
H  51.05200 41.27700 29.49700
H  52.80000 41.03800 28.99500
H  52.38400 42.11600 27.07600
H  53.55000 42.26000 25.72800
H  53.97600 41.49900 27.28200
H  52.18500 35.78800 23.19900
H  49.96300 34.04200 22.54100
H  50.05800 35.91600 21.39300
H  51.31200 37.04200 21.70200
H  49.83400 37.26900 22.68500
H  52.64200 33.36400 22.66400
H  51.31800 32.28500 23.03800
H  52.42200 33.63300 25.53900
H  53.46500 32.61700 24.57800
H  51.87600 32.06000 25.03400
H  46.11400 30.49100 26.43300
H  47.83400 30.20300 26.09200
H  46.84200 31.12400 24.97200
H  45.45100 33.98100 30.15400
H  47.04300 32.34300 34.10500
H  45.63200 31.30600 33.66600
H  45.43200 32.81900 34.59900
Mg -12.21200 37.45100 42.89000
C  -9.58100 35.19800 42.65600
C  -10.01700 39.88600 41.87800
C  -14.80100 39.52600 42.62800
C  -14.33600 34.75800 43.66500
N  -9.98100 37.57100 42.46300
C  -9.14200 36.51400 42.40100
C  -7.77200 36.89700 41.82500
C  -7.88800 38.49200 41.91400
C  -9.37200 38.67900 42.10900
C  -6.92200 39.14100 42.93500
C  -7.57900 36.40400 40.34200
C  -6.48600 35.35000 40.13600
H  -6.87000 34.42100 38.97400
N  -12.43700 39.40800 42.26700
C  -11.35400 40.27000 41.96900
C  -11.88600 41.55200 41.68500
C  -13.25000 41.50900 41.86100
C  -13.56900 40.13700 42.31700
C  -10.99300 42.72600 41.22400
C  -14.21100 42.70000 41.67500
O  -13.70200 43.80200 41.40900
C  -15.77500 42.58700 41.70600
N  -14.31100 37.13100 43.07100
C  -15.22800 38.19200 42.96800
C  -16.60800 37.74700 43.45700
C  -16.42200 36.27600 43.83000
C  -14.92800 36.03900 43.52900
C  -17.25700 38.58100 44.54500
C  -17.27700 35.33000 42.88800
C  -16.80600 34.86600 41.45700
N  -12.08400 35.39800 43.02300
C  -13.02100 34.41800 43.29500
C  -12.44200 33.13100 43.29100
C  -11.13500 33.35800 42.95700
C  -10.93300 34.76600 42.85900
C  -13.17000 31.87100 43.56800
C  -9.88300 32.73700 42.84100
O  -9.55600 31.55400 43.01700
C  -8.81100 33.85600 42.60700
C  -7.91300 33.83200 43.89700
O  -7.90900 34.61400 44.77800
O  -6.95300 32.88100 43.78900
C  -5.98900 32.74800 44.90400
H  -9.30200 40.68400 41.66600
H  -15.68100 40.14400 42.82000
H  -15.01000 33.98100 44.03000
H  -6.99200 36.50600 42.47800
H  -7.71800 38.92500 40.92800
H  -6.19300 38.44200 43.34600
H  -7.36400 39.57100 43.83400
H  -6.34600 39.92700 42.44800
H  -7.48300 37.22500 39.63100
H  -8.42800 35.76800 40.09300
H  -6.30000 34.72700 41.01100
H  -5.57200 35.91800 39.96300
H  -11.53800 43.28300 40.46200
H  -10.11700 42.36100 40.69000
H  -10.65100 43.37100 42.03400
H  -15.99700 41.72400 41.07800
H  -16.23100 43.48000 41.27700
H  -16.08300 42.44100 42.74100
H  -17.26600 37.80300 42.58900
H  -16.64600 36.13200 44.88700
H  -17.78900 38.03600 45.32400
H  -17.96900 39.19600 43.99300
H  -16.48800 39.25700 44.91800
H  -18.29500 35.69900 42.76300
H  -17.26300 34.45900 43.54400
H  -16.84000 33.77700 41.47600
H  -15.77800 35.09500 41.17400
H  -17.43200 35.27700 40.66500
H  -13.05600 31.76300 44.64600
H  -12.80000 31.00100 43.02600
H  -14.23200 31.98900 43.35400
H  -8.23900 33.58200 41.72100
H  -5.76900 31.68200 44.95300
H  -6.36400 33.18800 45.82800
H  -5.11200 33.25900 44.50700

