158

Mg 47.82800 34.35000 27.16800
C  46.06100 32.72500 29.82200
C  48.00800 37.17400 29.34500
C  48.57900 36.30900 24.52100
C  47.02600 31.74000 25.08100
N  46.95800 34.93600 29.38000
C  46.47100 33.97900 30.21200
C  46.63800 34.54500 31.68000
C  47.01700 36.01200 31.47800
C  47.36300 36.06900 29.92700
C  45.92600 37.02100 31.84000
C  47.58400 33.66900 32.58400
C  48.26000 34.27800 33.83600
H  47.39500 35.06400 34.82800
N  48.44600 36.30100 27.02500
C  48.44600 37.27000 28.00200
C  49.04100 38.46800 27.45200
C  49.40900 38.19000 26.08800
C  48.70900 36.90100 25.82600
C  49.39100 39.58600 28.27900
C  50.13200 39.10700 25.03000
O  50.33300 38.70000 23.91700
C  50.62200 40.39100 25.44900
N  47.71800 34.12400 25.04100
C  48.14400 35.04800 24.17500
C  48.38000 34.42700 22.79500
C  48.05200 32.90500 23.01300
C  47.62000 32.87300 24.46400
C  47.52600 35.15600 21.69400
C  49.25700 31.94900 22.75800
C  50.55200 32.31200 23.61100
N  46.95600 32.53600 27.37300
C  46.62200 31.62300 26.39100
C  45.84300 30.56500 26.95000
C  45.62500 30.98100 28.30100
C  46.25800 32.22100 28.47800
C  45.45000 29.16900 26.33300
C  45.01000 30.55400 29.51600
O  44.42100 29.53100 29.83100
C  45.06500 31.81100 30.45900
C  45.14600 31.40000 31.87500
O  45.64300 30.33100 32.28900
O  44.44500 32.21300 32.68300
C  44.51300 32.06200 34.16500
H  48.19800 37.84900 30.18200
H  48.86500 36.83600 23.60800
H  46.98800 30.81100 24.50800
H  45.62000 34.51800 32.07000
H  47.89200 36.20600 32.09800
H  45.71800 37.63400 30.96300
H  46.30400 37.69100 32.61200
H  45.00700 36.55200 32.19100
H  48.38600 33.20800 32.00800
H  46.96500 32.88800 33.02700
H  49.20600 34.74300 33.55700
H  48.54700 33.39100 34.40000
H  50.47200 39.72000 28.28100
H  48.99000 39.56700 29.29300
H  48.94400 40.46400 27.81200
H  51.43800 40.16600 26.13600
H  49.80000 41.01400 25.80300
H  51.03000 40.87800 24.56300
H  49.43000 34.56100 22.53600
H  47.21400 32.70600 22.34500
H  47.58500 34.63700 20.73800
H  47.81000 36.15900 21.37400
H  46.48400 35.12300 22.01000
H  49.46300 31.85900 21.69200
H  48.91500 30.93600 22.97200
H  51.49500 32.14300 23.09000
H  50.51000 31.72400 24.52700
H  50.55800 33.37600 23.84700
H  45.15200 28.49000 27.13200
H  46.31500 28.73900 25.82900
H  44.68600 29.25300 25.56000
H  44.12200 32.35700 30.44300
H  43.63400 31.59000 34.60400
H  44.63100 33.06500 34.57500
H  45.38900 31.48700 34.46600
Mg 36.68100 49.42900 24.97400
C  36.87700 47.62500 27.81900
C  35.30700 52.03400 26.75900
C  36.30600 51.12800 22.07400
C  37.36800 46.50400 23.14300
N  36.34200 49.84300 27.07300
C  36.55200 48.96900 28.07000
C  36.21800 49.52800 29.45900
C  35.65900 50.89200 29.05400
C  35.73100 50.92800 27.54100
C  34.29900 51.17000 29.73900
C  37.38000 49.51400 30.45800
C  37.06600 49.22800 31.92900
H  35.65900 49.26900 32.42300
N  35.92500 51.37800 24.51700
C  35.35900 52.23700 25.36000
C  34.96600 53.43000 24.64900
C  35.36300 53.19600 23.28100
C  35.86800 51.81600 23.25100
C  34.50000 54.63800 25.42300
C  35.22400 54.14700 22.03100
O  35.59800 53.86800 20.90300
C  34.48400 55.44700 22.08200
N  36.79000 48.87300 22.90200
C  36.75100 49.79200 21.94500
C  36.98400 49.23000 20.57900
C  37.52100 47.73800 20.94400
C  37.15400 47.65500 22.38000
C  35.77300 49.29300 19.62400
C  39.05800 47.53800 20.70300
C  40.09800 48.50100 21.36300
N  37.21600 47.48600 25.34800
C  37.48900 46.41100 24.52900
C  37.67400 45.18900 25.33300
C  37.53000 45.65200 26.64900
C  37.17000 47.02700 26.59000
C  37.88600 43.77100 24.88000
C  37.52900 45.34100 28.02800
O  37.80000 44.27200 28.59500
C  37.01200 46.52000 28.84100
C  35.72400 46.11800 29.41300
O  34.65500 46.10400 28.86400
O  35.86000 45.72300 30.73000
C  34.68800 45.15900 31.36600
H  34.85700 52.81500 27.37600
H  36.07300 51.65500 21.14700
H  37.75600 45.59700 22.67500
H  35.37300 48.93600 29.81100
H  36.39300 51.66400 29.28400
H  34.45300 52.08200 30.31500
H  34.01600 50.38600 30.44200
H  33.46000 51.30400 29.05600
H  38.02600 50.37900 30.31400
H  38.04800 48.75300 30.05400
H  37.64000 49.95500 32.50300
H  37.40700 48.19700 32.02900
H  33.75200 55.21200 24.87500
H  35.37500 55.24300 25.66000
H  33.91700 54.44900 26.32400
H  34.55500 55.96600 21.12600
H  34.96000 56.03200 22.87000
H  33.46200 55.20600 22.37500
H  37.73500 49.85900 20.10000
H  36.93400 47.00200 20.39400
H  34.87000 49.24200 20.23200
H  35.77200 48.44700 18.93700
H  35.95000 50.20100 19.04700
H  39.13000 47.38000 19.62700
H  39.31700 46.54000 21.05700
H  40.80600 48.80000 20.59000
H  40.63300 48.18600 22.25900
H  39.63600 49.47000 21.55400
H  37.63400 43.65500 23.82600
H  37.21400 43.09700 25.41000
H  38.90500 43.43800 25.07600
H  37.80800 46.74100 29.55200
H  33.78800 45.77400 31.38400
H  34.96800 45.18800 32.41900
H  34.40600 44.14600 31.07800

