158

Mg 26.79000 49.93300 26.67600
C  24.77700 51.27800 29.23800
C  29.08700 48.87700 29.04000
C  28.86900 49.24800 24.15000
C  24.46900 51.55600 24.37800
N  26.99600 50.15700 28.82100
C  25.95900 50.55100 29.64600
C  26.24600 50.21200 31.12800
C  27.64800 49.60900 31.08600
C  27.96600 49.46600 29.59200
C  28.78200 50.37700 31.90000
C  25.14800 49.28100 31.78100
C  24.39300 49.78800 33.01600
H  24.98600 49.55200 34.38100
N  28.70900 49.07000 26.64400
C  29.46300 48.71600 27.73200
C  30.71700 48.11000 27.23200
C  30.76100 48.33500 25.77500
C  29.39100 48.91800 25.47100
C  31.82100 47.49700 28.02800
C  31.82100 47.92100 24.76800
O  31.61300 48.02800 23.57100
C  33.12200 47.46400 25.25500
N  26.63400 50.29200 24.65300
C  27.64900 49.88200 23.75500
C  27.23200 50.18900 22.20800
C  25.84200 50.93500 22.41700
C  25.62500 50.93000 23.90900
C  28.23100 50.92800 21.34000
C  24.66300 50.27700 21.54100
C  24.29100 48.86700 22.00300
N  25.03300 51.21900 26.71400
C  24.12800 51.64700 25.71100
C  23.01400 52.33100 26.27000
C  23.23100 52.12700 27.67200
C  24.45700 51.50100 27.88900
C  21.87000 53.00500 25.58600
C  22.66300 52.36800 28.97900
O  21.58100 52.97100 29.20500
C  23.62300 51.85800 30.02200
C  24.10200 52.95700 30.93900
O  25.04000 53.80200 30.87700
O  23.31500 52.76500 32.03500
C  23.41800 53.68200 33.13800
H  29.77100 48.30900 29.67400
H  29.53800 49.22800 23.28700
H  23.80400 51.99900 23.63400
H  26.16000 51.16900 31.64300
H  27.69200 48.59600 31.48600
H  28.38400 51.24700 32.42200
H  29.63800 50.65300 31.28400
H  29.23600 49.83600 32.73100
H  25.56700 48.34800 32.15900
H  24.48600 48.98500 30.96700
H  23.31800 49.65100 32.90400
H  24.48500 50.87400 33.01400
H  31.54700 47.43700 29.08100
H  32.84100 47.88000 28.06100
H  31.93000 46.50600 27.59000
H  33.47100 48.25100 25.92400
H  33.71100 47.29100 24.35400
H  33.08900 46.50000 25.76200
H  27.05400 49.25700 21.67200
H  25.83300 51.93700 21.99000
H  29.18300 50.87600 21.86900
H  27.90400 51.91900 21.02600
H  28.26900 50.34000 20.42300
H  25.10300 50.13700 20.55300
H  23.85800 51.01000 21.49500
H  23.25900 48.71000 22.31700
H  24.89000 48.46800 22.82200
H  24.41000 48.11600 21.22200
H  22.18200 53.51500 24.67500
H  21.41500 53.76600 26.22100
H  21.14000 52.26200 25.26400
H  23.09500 51.14500 30.65500
H  24.13100 53.33900 33.88800
H  22.41400 53.71200 33.56300
H  23.60400 54.73200 32.91400
Mg -5.65600 25.51100 25.50400
C  -4.32300 26.75600 28.42100
C  -7.64000 23.40200 27.30000
C  -6.53800 23.93800 22.58200
C  -3.17800 27.37000 23.64400
N  -5.88200 25.05800 27.68800
C  -5.27000 25.76200 28.71200
C  -5.83500 25.31200 30.07800
C  -6.59600 23.96600 29.63300
C  -6.83200 24.17600 28.11500
C  -5.69600 22.72700 29.79400
C  -6.79200 26.25500 30.75200
C  -6.69300 26.16300 32.23400
H  -6.05300 24.95400 32.95000
N  -6.96400 23.89900 25.02100
C  -7.74700 23.29600 25.90100
C  -8.62200 22.44300 25.11700
C  -8.24900 22.52200 23.75800
C  -7.20600 23.48100 23.72400
C  -9.80300 21.61700 25.79400
C  -8.74000 21.68000 22.57600
O  -8.32100 21.84900 21.42400
C  -9.81700 20.70300 22.76100
N  -4.81900 25.52300 23.43800
C  -5.42300 24.85800 22.42400
C  -4.92200 25.28000 21.04100
C  -4.13600 26.57100 21.37000
C  -3.96500 26.46400 22.86200
C  -4.18400 24.07000 20.39900
C  -4.79100 27.93100 20.94900
C  -4.06800 28.61500 19.75800
N  -4.06500 26.83300 25.84600
C  -3.12900 27.50000 25.04700
C  -2.43400 28.49000 25.93000
C  -2.86200 28.13300 27.21400
C  -3.77300 27.09700 27.15600
C  -1.58300 29.62100 25.54800
C  -2.52100 28.46600 28.58400
O  -1.69200 29.23600 28.98900
C  -3.46300 27.54100 29.42800
C  -2.50000 26.67500 30.18400
O  -1.94100 25.70000 29.67500
O  -2.38500 27.10800 31.46400
C  -1.59800 26.31700 32.39900
H  -8.31000 22.79300 27.91000
H  -6.81700 23.45700 21.64200
H  -2.52700 28.05200 23.09200
H  -4.97800 25.21900 30.74400
H  -7.51500 23.76800 30.18500
H  -4.67800 22.95000 30.11300
H  -5.65200 22.28000 28.80200
H  -6.17000 22.05200 30.50700
H  -7.80300 25.89000 30.57200
H  -6.66500 27.28300 30.41100
H  -7.72800 26.19400 32.57400
H  -6.23500 27.06000 32.65100
H  -9.85500 21.68800 26.88100
H  -9.72400 20.55700 25.55300
H  -10.72500 22.08600 25.45100
H  -10.22300 20.30800 21.83000
H  -10.65900 21.22400 23.21700
H  -9.61900 19.80600 23.34700
H  -5.81000 25.37500 20.41700
H  -3.11100 26.48500 21.01100
H  -3.24700 24.47300 20.01700
H  -4.74800 23.66900 19.55700
H  -4.20600 23.23600 21.10100
H  -4.72900 28.67300 21.74500
H  -5.82500 27.77600 20.63900
H  -3.13000 28.14700 19.45900
H  -3.72300 29.61700 20.01400
H  -4.71100 28.44700 18.89400
H  -1.61900 29.82200 24.47700
H  -0.49600 29.58200 25.62500
H  -1.94000 30.52200 26.04600
H  -4.07100 28.10700 30.13400
H  -2.26000 26.04600 33.22200
H  -0.80700 26.89400 32.87800
H  -1.28200 25.40700 31.89000

