158

Mg 17.54900 -2.10100 28.37000
C  16.67800 0.23400 31.02800
C  19.52400 -3.70700 30.66000
C  18.90200 -3.70800 25.82200
C  15.83500 0.05800 26.21400
N  18.15200 -1.60800 30.52400
C  17.57800 -0.78000 31.44400
C  18.01000 -1.08200 32.86300
C  19.07300 -2.20600 32.62200
C  18.96000 -2.53900 31.13500
C  20.50800 -1.79300 32.96200
C  16.77700 -1.43300 33.83700
C  16.84100 -0.75700 35.24600
H  18.21500 -1.07000 35.82200
N  18.82400 -3.64300 28.30500
C  19.59800 -4.17200 29.30900
C  20.33600 -5.35600 28.84600
C  20.17000 -5.34500 27.40100
C  19.27000 -4.19800 27.10700
C  21.16100 -6.24800 29.71600
C  20.80000 -6.24500 26.27400
O  20.65200 -6.04400 25.08900
C  21.78400 -7.44300 26.56400
N  17.37500 -1.86100 26.28500
C  18.08400 -2.61300 25.45500
C  17.72300 -2.29900 23.99900
C  16.59800 -1.18000 24.06400
C  16.50500 -1.04800 25.59900
C  19.03200 -1.97000 23.14500
C  15.32800 -1.34000 23.31400
C  13.95600 -1.64000 24.06700
N  16.46300 -0.22300 28.50400
C  15.81200 0.51700 27.55500
C  15.17900 1.69400 28.10600
C  15.44800 1.62600 29.47400
C  16.25800 0.44500 29.70700
C  14.37200 2.63300 27.30800
C  15.20700 2.32700 30.71200
O  14.55300 3.31700 31.07600
C  16.00700 1.40000 31.82100
C  16.89600 2.40000 32.53100
O  18.08200 2.41900 32.44300
O  16.17400 3.27300 33.31400
C  17.04700 4.11200 34.17900
H  20.03500 -4.30500 31.41700
H  19.16900 -4.21600 24.89300
H  15.34200 0.64200 25.43400
H  18.52800 -0.18200 33.19400
H  18.91700 -3.05700 33.28400
H  20.53100 -0.71800 33.14100
H  21.23200 -2.15400 32.23100
H  20.78100 -2.13000 33.96200
H  16.69200 -2.50700 34.00000
H  15.79800 -1.20600 33.41500
H  16.23300 -1.24200 36.01000
H  16.66500 0.31700 35.31600
H  21.37000 -7.18600 29.20100
H  20.55100 -6.47900 30.58900
H  22.12400 -5.78300 29.92600
H  22.62000 -6.99700 27.10200
H  21.97600 -8.04400 25.67500
H  21.23800 -8.13800 27.20100
H  17.36100 -3.19400 23.49300
H  17.10500 -0.27400 23.73100
H  18.95500 -0.99700 22.65900
H  19.03500 -2.68400 22.32100
H  19.93700 -2.04800 23.74700
H  15.61300 -2.10200 22.58800
H  15.25800 -0.41200 22.74700
H  13.26600 -1.98100 23.29400
H  13.58600 -0.75000 24.57700
H  14.10700 -2.49200 24.72900
H  14.23500 3.61000 27.77100
H  13.42700 2.22200 26.95000
H  14.94300 2.93300 26.43000
H  15.35600 0.81700 32.47300
H  17.45800 3.53000 35.00400
H  16.37000 4.89100 34.53100
H  17.80900 4.61300 33.58200
Mg 42.92900 4.16000 47.64200
C  40.89700 6.98400 47.40900
C  40.07700 2.21600 47.60800
C  44.90800 1.44200 47.06800
C  45.71900 6.24500 47.33500
N  40.72300 4.55500 47.46500
C  40.11500 5.77300 47.49100
C  38.53300 5.63300 47.77900
C  38.39800 4.11500 47.85000
C  39.80500 3.58000 47.69500
C  37.77900 3.51100 49.13500
C  37.58600 6.33300 46.69900
C  38.04400 5.95500 45.26600
H  38.41400 7.03700 44.29600
N  42.52100 2.09500 47.48500
C  41.28400 1.50500 47.40400
C  41.38800 0.09100 47.11900
C  42.79600 -0.13300 46.91200
C  43.48700 1.14800 47.20500
C  40.32300 -0.93800 47.12500
C  43.37500 -1.55700 46.54700
O  42.69700 -2.51500 46.35600
C  44.91100 -1.75700 46.32200
N  45.01100 3.89300 47.19600
C  45.63600 2.63600 47.17700
C  47.16100 2.75600 47.25400
C  47.41400 4.25800 47.38900
C  45.97400 4.87400 47.38300
C  47.83400 1.87000 48.39400
C  48.47100 4.82900 46.37600
C  49.94300 4.97800 46.88000
N  43.26500 6.21600 47.31700
C  44.41000 6.86600 47.26100
C  44.14100 8.29800 47.21100
C  42.73700 8.39000 47.22500
C  42.27600 7.09000 47.31000
C  45.15600 9.41500 47.14200
C  41.60100 9.29500 47.22800
O  41.52500 10.54500 47.20900
C  40.32100 8.42000 47.31500
C  39.47400 8.99600 48.42400
O  39.45200 8.68400 49.64600
O  38.56600 9.88600 47.85600
C  37.66800 10.49300 48.76800
H  39.12200 1.68800 47.64600
H  45.60200 0.59900 47.06500
H  46.61600 6.86600 47.29300
H  38.33700 6.24600 48.65900
H  38.01600 3.68600 46.92400
H  37.40100 4.32300 49.75600
H  38.55400 3.11600 49.79200
H  36.91700 2.86700 48.96400
H  37.68800 7.41300 46.80400
H  36.56500 6.08200 46.98700
H  37.16400 5.40300 44.93600
H  38.82000 5.18900 45.24900
H  40.59700 -1.83700 47.67800
H  40.27900 -1.17300 46.06200
H  39.35500 -0.56400 47.45700
H  45.50200 -1.90100 47.22600
H  45.26900 -0.94500 45.68900
H  44.97700 -2.78400 45.96300
H  47.60200 2.38700 46.32800
H  47.63900 4.50100 48.42800
H  48.55900 2.46100 48.95500
H  48.41900 1.06900 47.94200
H  47.19900 1.43800 49.16700
H  48.00100 5.71700 45.95400
H  48.54400 4.14600 45.52900
H  50.01400 4.57900 47.89100
H  50.25900 6.01900 46.95700
H  50.62200 4.41800 46.23700
H  44.57200 10.30900 46.92300
H  45.93400 9.26300 46.39400
H  45.56500 9.58600 48.13700
H  39.79400 8.64200 46.38700
H  37.04500 9.81900 49.35700
H  36.93800 11.12400 48.26100
H  38.19600 11.10300 49.50100

