158

Mg -1.15000 17.60200 27.99700
C  -1.77300 15.29300 30.48600
C  -1.47800 20.11900 30.41500
C  -1.00000 19.80400 25.53700
C  -1.37400 15.00400 25.58700
N  -1.39800 17.71300 30.27600
C  -1.68900 16.56100 31.04700
C  -1.83200 16.99000 32.51800
C  -2.06900 18.53300 32.44000
C  -1.60700 18.87000 30.98100
C  -3.42000 19.12200 32.66800
C  -0.63500 16.62300 33.46500
C  -0.49200 17.45700 34.75300
H  0.12800 16.82100 36.00700
N  -1.10000 19.65500 27.96200
C  -1.25500 20.50600 29.05100
C  -1.04900 21.87900 28.58400
C  -0.80300 21.78500 27.19100
C  -0.92600 20.36800 26.79100
C  -1.18200 23.15600 29.43400
C  -0.66100 22.90200 26.20400
O  -0.52100 22.69700 25.00300
C  -0.43900 24.26200 26.70800
N  -1.23500 17.38700 25.91600
C  -1.09400 18.49100 25.09400
C  -1.05100 18.15400 23.55400
C  -0.89700 16.62500 23.66000
C  -1.13900 16.27400 25.10800
C  -2.34200 18.47100 22.81400
C  0.47100 16.11000 23.21800
C  1.61600 16.22500 24.20300
N  -1.46000 15.53900 28.02700
C  -1.54000 14.66200 26.92800
C  -1.81000 13.31300 27.45300
C  -1.81300 13.45400 28.81400
C  -1.67800 14.90600 29.12800
C  -1.97700 12.07600 26.52800
C  -1.92100 12.75100 30.14900
O  -2.15400 11.58400 30.40900
C  -2.02100 13.92700 31.19200
C  -0.93300 13.62400 32.18700
O  0.22700 13.79100 32.10700
O  -1.46200 13.02300 33.29600
C  -0.54200 12.61000 34.36000
H  -1.64400 21.00500 31.03200
H  -0.93300 20.36800 24.60400
H  -1.16600 14.37700 24.71700
H  -2.73400 16.45400 32.81200
H  -1.39200 19.10900 33.07200
H  -3.75900 19.55600 31.72700
H  -3.41300 19.95900 33.36700
H  -4.08300 18.37200 33.09800
H  0.26800 16.66000 32.85400
H  -0.87400 15.60400 33.76800
H  -1.46100 17.82400 35.09200
H  0.17100 18.30800 34.59500
H  -0.15500 23.50300 29.55100
H  -1.56500 23.01200 30.44500
H  -1.88500 23.85400 28.97900
H  -1.37000 24.75900 26.97900
H  0.00200 24.83200 25.89000
H  0.30900 24.18400 27.49700
H  -0.18600 18.58100 23.04800
H  -1.61000 16.01300 23.10700
H  -2.95700 17.57900 22.69300
H  -2.18400 18.98200 21.86400
H  -3.04200 19.15700 23.29100
H  0.76600 16.52000 22.25200
H  0.41800 15.03500 23.04500
H  1.83500 15.24500 24.62900
H  1.39500 17.03600 24.89600
H  2.47700 16.51500 23.60000
H  -1.78600 11.18300 27.12400
H  -1.27600 11.94400 25.70400
H  -2.98000 12.02300 26.10400
H  -3.05600 14.00600 31.52700
H  -0.37800 13.50700 34.95800
H  0.38200 12.18500 33.96900
H  -1.01400 11.84500 34.97600
Mg -1.20700 34.87000 27.47300
C  -2.89400 33.09800 29.95900
C  -0.05400 37.07500 29.81300
C  -0.12200 36.88100 24.97300
C  -2.52200 32.67300 25.06300
N  -1.57500 35.08900 29.71200
C  -2.17800 34.19500 30.52200
C  -2.06600 34.67000 32.00500
C  -1.30800 36.01300 31.82600
C  -0.87900 36.06000 30.38700
C  -2.12800 37.29400 32.31300
C  -1.32200 33.61900 32.91600
C  -1.92700 33.44700 34.31600
H  -0.97600 33.43300 35.46100
N  -0.07500 36.57800 27.43100
C  0.29500 37.32900 28.50200
C  1.10800 38.43300 28.04300
C  1.01400 38.51500 26.65100
C  0.30600 37.27100 26.28200
C  1.85300 39.36500 29.02400
C  1.70200 39.44300 25.62900
O  1.40300 39.44300 24.44400
C  2.96800 40.23700 25.98100
N  -1.27300 34.76400 25.35900
C  -0.82900 35.78000 24.49500
C  -1.34300 35.62600 23.10900
C  -1.77700 34.13900 23.16000
C  -1.89200 33.85000 24.60100
C  -2.56300 36.57400 22.87400
C  -0.98000 33.12900 22.31800
C  0.31700 32.55800 22.82800
N  -2.45900 33.27100 27.42600
C  -2.82400 32.40100 26.40700
C  -3.71900 31.41000 26.92200
C  -3.70400 31.51300 28.31900
C  -3.02000 32.74700 28.60100
C  -4.38500 30.35700 25.98800
C  -4.09300 30.94400 29.62200
O  -4.73100 29.89300 29.85100
C  -3.66800 31.95700 30.76900
C  -4.82400 32.41300 31.51000
O  -5.76600 33.09200 31.08500
O  -4.67800 31.99700 32.81100
C  -5.81500 32.42300 33.66200
H  0.30100 37.73100 30.61100
H  0.14700 37.59200 24.19000
H  -2.77900 31.98100 24.25900
H  -3.09800 34.77600 32.34000
H  -0.33600 36.04800 32.31800
H  -1.40900 37.99800 32.73200
H  -2.83400 37.05900 33.10900
H  -2.72400 37.72200 31.50700
H  -0.40300 34.14500 33.17400
H  -1.26900 32.68300 32.36000
H  -2.39200 32.46100 34.30400
H  -2.81500 34.07600 34.37500
H  2.93200 39.21700 29.07900
H  1.54400 39.08500 30.03100
H  1.58500 40.37100 28.70100
H  2.71500 40.90300 26.80500
H  3.32000 40.92300 25.21100
H  3.86500 39.71300 26.31300
H  -0.59800 35.85300 22.34700
H  -2.80800 34.01600 22.82600
H  -2.50000 37.42000 23.55900
H  -3.55300 36.11900 22.87900
H  -2.59600 37.03700 21.88800
H  -0.77300 33.55100 21.33400
H  -1.66300 32.29800 22.14300
H  0.76700 33.18700 23.59600
H  0.94000 32.47100 21.93800
H  0.06700 31.56300 23.19600
H  -4.50400 29.43600 26.55900
H  -3.76900 30.04300 25.14500
H  -5.32500 30.65800 25.52500
H  -2.93400 31.41500 31.36500
H  -6.58400 33.08200 33.26000
H  -5.37800 32.73200 34.61200
H  -6.33900 31.54300 34.03600

