158

Mg 8.53400 3.99400 27.85500
C  9.80900 2.03800 30.49600
C  6.72500 5.83700 30.02700
C  7.43000 5.56400 25.19400
C  10.12100 1.59800 25.77600
N  8.27400 3.90600 30.04900
C  9.05000 3.16200 31.00000
C  8.77600 3.54600 32.40200
C  7.77100 4.81000 32.13900
C  7.59800 4.90000 30.65800
C  6.48700 4.67600 32.94000
C  10.07000 3.92000 33.28600
C  9.84600 3.60100 34.77400
H  10.92900 3.97400 35.72600
N  7.20800 5.52000 27.64600
C  6.56100 6.17600 28.62200
C  5.79000 7.19900 28.07100
C  5.87300 7.08100 26.64700
C  6.84600 6.01400 26.42300
C  5.05900 8.20400 28.94900
C  5.25300 7.85100 25.54900
O  5.50500 7.71600 24.36300
C  4.22400 8.79400 25.92500
N  8.63800 3.47900 25.84200
C  8.19200 4.46200 24.96500
C  8.68200 4.19600 23.53700
C  9.48600 2.90400 23.64900
C  9.48600 2.64500 25.16800
C  7.47600 4.17000 22.52400
C  10.88800 3.00000 22.97200
C  11.26500 2.25000 21.68800
N  9.84000 2.22700 28.01900
C  10.30400 1.35900 27.08200
C  10.97900 0.29900 27.67000
C  10.93400 0.60500 28.98400
C  10.10600 1.70700 29.23100
C  11.62000 -0.87500 26.95800
C  11.37800 0.20200 30.24000
O  12.13300 -0.70400 30.56900
C  10.65700 1.18800 31.34000
C  9.75400 0.43200 32.25300
O  8.64400 -0.03500 31.98900
O  10.31700 0.38000 33.44900
C  9.47200 -0.20900 34.53600
H  6.11000 6.42300 30.71300
H  7.13800 6.06700 24.27000
H  10.70500 0.96600 25.10300
H  8.19800 2.75100 32.87200
H  8.28100 5.68500 32.54200
H  5.68600 4.07300 32.51300
H  5.98700 5.62600 33.12800
H  6.63600 4.29500 33.95000
H  10.21300 5.00000 33.27000
H  10.98400 3.43100 32.95200
H  9.67100 2.52900 34.87200
H  9.04900 4.29000 35.05300
H  5.10500 8.13800 30.03600
H  4.01200 8.19500 28.64700
H  5.40700 9.20800 28.70800
H  3.82800 9.22800 25.00700
H  4.51900 9.58700 26.61200
H  3.53500 8.11100 26.42300
H  9.35800 4.99400 23.22800
H  9.08100 1.97200 23.25500
H  6.54600 3.91000 23.02900
H  7.65400 3.42300 21.75000
H  7.30800 5.17000 22.12600
H  11.69000 2.80100 23.68200
H  11.18200 4.03100 22.77400
H  10.32700 1.81000 21.34800
H  12.02100 1.51900 21.97000
H  11.51600 2.92700 20.87000
H  12.64000 -0.58500 26.70500
H  11.01500 -1.11300 26.08300
H  11.53200 -1.74100 27.61400
H  11.41400 1.83800 31.77900
H  9.12000 -1.22900 34.38000
H  8.62200 0.46700 34.63200
H  10.09100 -0.01100 35.41100
Mg 36.59400 49.25500 25.81600
C  36.50500 47.04500 28.66700
C  35.72900 51.83900 28.14800
C  36.18700 51.23100 23.26900
C  37.03400 46.38200 23.83800
N  36.08500 49.44500 28.13400
C  36.19000 48.41800 29.09500
C  35.98100 48.89100 30.52600
C  35.53500 50.41100 30.28300
C  35.83600 50.61700 28.78100
C  34.01300 50.72700 30.70700
C  37.22800 48.87700 31.46200
C  36.81300 48.58200 32.97600
H  35.35500 48.75300 33.59200
N  36.23200 51.31500 25.71700
C  35.84600 52.19200 26.73700
C  35.74000 53.49200 26.15300
C  36.03900 53.37000 24.73100
C  36.14200 51.95700 24.49600
C  35.48100 54.86600 26.98500
C  36.26900 54.46900 23.74300
O  36.41800 54.18500 22.55600
C  36.32200 55.98600 24.16700
N  36.52100 48.79100 23.85600
C  36.37300 49.84200 22.93700
C  36.66900 49.35000 21.47400
C  37.17700 47.82200 21.71400
C  36.86300 47.66600 23.20700
C  35.49400 49.54800 20.52300
C  38.63700 47.46100 21.40000
C  38.85900 46.05800 20.75800
N  36.68200 47.15600 26.13200
C  36.83500 46.11000 25.22800
C  37.08900 44.87300 25.91600
C  37.01700 45.23400 27.28700
C  36.70400 46.60600 27.34100
C  37.32900 43.56300 25.28900
C  36.96700 44.65300 28.62700
O  37.27400 43.58500 29.08200
C  36.52500 45.80500 29.58300
C  35.28200 45.48300 30.31100
O  34.18300 45.90000 30.03100
O  35.56500 44.83600 31.42800
C  34.42100 44.56700 32.35100
H  35.50900 52.66900 28.82200
H  36.27600 51.93500 22.43900
H  37.56900 45.53200 23.40900
H  35.26600 48.22100 31.00400
H  36.15600 51.11000 30.84100
H  34.01200 51.48700 31.48800
H  33.44800 49.87700 31.09000
H  33.45700 51.20500 29.90000
H  37.81000 49.79100 31.34000
H  37.73500 48.08800 30.90700
H  37.46900 49.19000 33.59900
H  37.00900 47.51400 33.07100
H  35.08600 54.62200 27.97100
H  34.83400 55.58700 26.48400
H  36.50500 55.22300 27.08900
H  36.96400 56.20200 25.02100
H  35.28000 56.26600 24.31600
H  36.73700 56.54200 23.32500
H  37.58800 49.82500 21.13000
H  36.46600 47.13900 21.24900
H  35.26500 48.57900 20.07900
H  35.74300 50.15300 19.65100
H  34.67200 49.77000 21.20300
H  39.26200 47.40000 22.29100
H  39.18100 48.07300 20.68100
H  39.44800 46.16400 19.84700
H  37.91700 45.61300 20.43900
H  39.29900 45.44100 21.54100
H  36.53900 43.35100 24.56900
H  37.21800 42.78000 26.04000
H  38.32100 43.47900 24.84400
H  37.31300 45.92300 30.32600
H  34.69900 44.58700 33.40500
H  34.11600 43.52500 32.25100
H  33.52300 45.16300 32.18900

