158

Mg 1.62600 8.12500 24.72500
C  2.44000 9.71500 27.71000
C  2.38500 5.06100 26.24200
C  0.88100 6.58200 21.83700
C  1.31600 11.24400 23.20600
N  2.49600 7.48300 26.70900
C  2.47500 8.33100 27.85900
C  2.62600 7.51700 29.12600
C  2.81800 6.11200 28.62200
C  2.49700 6.18500 27.11500
C  4.23300 5.51200 28.88800
C  1.25200 7.71900 29.84600
C  1.24000 7.61100 31.35600
H  2.46700 6.90800 32.04700
N  1.51000 6.06700 24.19000
C  1.86300 4.96800 24.98100
C  1.63000 3.76700 24.24200
C  1.15600 4.20900 22.95000
C  1.17200 5.67800 22.91700
C  1.79900 2.37400 24.93800
C  0.54500 3.23100 21.90100
O  0.09200 3.62000 20.82500
C  0.52400 1.66500 22.21100
N  1.34900 8.81300 22.71000
C  0.97500 7.96400 21.75300
C  0.27500 8.72200 20.56700
C  0.24700 10.19000 21.08100
C  1.06000 10.12400 22.39600
C  1.08400 8.51500 19.26700
C  -1.15700 10.88600 21.11000
C  -1.90000 10.99300 19.72900
N  1.83500 10.21600 25.30900
C  1.70700 11.33600 24.56800
C  2.10300 12.49000 25.47700
C  2.28800 11.86900 26.74400
C  2.17800 10.51700 26.54100
C  2.28300 13.99100 25.05900
C  2.71700 12.14600 28.12300
O  3.10300 13.19600 28.61900
C  2.62400 10.74100 28.81300
C  3.79500 10.57800 29.70100
O  4.85900 10.10100 29.39800
O  3.52100 11.05300 30.95000
C  4.58700 10.84700 32.00700
H  2.76900 4.17700 26.75500
H  0.53800 6.12600 20.90500
H  1.07500 12.15300 22.65100
H  3.42900 7.82900 29.79400
H  2.12000 5.43600 29.11700
H  4.80300 5.70000 27.97800
H  4.21900 4.44700 29.12000
H  4.65000 6.05000 29.74000
H  0.50700 6.96600 29.58800
H  0.77200 8.66300 29.59100
H  0.33000 7.07900 31.63400
H  1.36600 8.61600 31.75800
H  2.44800 1.67500 24.41000
H  0.82000 1.90000 25.01800
H  2.07300 2.46000 25.99000
H  1.51100 1.20400 22.23500
H  -0.14900 1.22000 21.47800
H  -0.01100 1.51100 23.14900
H  -0.72600 8.29700 20.50000
H  0.91200 10.76500 20.43600
H  2.14400 8.36400 19.47100
H  0.85100 9.37000 18.63100
H  0.73600 7.61100 18.76600
H  -1.02900 11.87900 21.54000
H  -1.76500 10.35500 21.84200
H  -1.18400 10.73900 18.94700
H  -2.26900 12.01700 19.67500
H  -2.72900 10.28900 19.80200
H  1.31100 14.26000 24.64600
H  3.05600 13.95800 24.29100
H  2.65700 14.62700 25.86000
H  1.70100 10.85600 29.38100
H  4.29400 10.02300 32.65700
H  4.67000 11.83500 32.46100
H  5.57700 10.60300 31.62300
Mg 48.74500 44.97800 42.68500
C  45.22200 44.64700 42.60800
C  48.89000 41.50700 42.18400
C  52.04700 45.29900 42.39800
C  48.27200 48.42900 42.64600
N  47.06200 43.28900 42.31200
C  45.76800 43.39600 42.51500
C  45.13200 42.00400 42.46100
C  46.32000 40.98300 42.43000
C  47.50700 41.98300 42.24500
C  46.43900 40.08700 43.67200
C  44.22300 41.75200 41.19800
C  44.83300 42.09600 39.74000
H  44.88400 40.96900 38.72500
N  50.33000 43.58000 42.21500
C  50.14200 42.25000 42.07600
C  51.52100 41.69500 41.89500
C  52.41700 42.82500 41.85900
C  51.60700 43.98400 42.18000
C  51.76400 40.28000 41.61400
C  53.96900 42.82200 41.63000
O  54.56400 41.76400 41.34600
C  54.86500 44.04300 41.63300
N  49.98700 46.62800 42.29900
C  51.30900 46.44100 42.55300
C  52.01200 47.69800 43.01500
C  50.86200 48.71900 42.82700
C  49.60800 47.91300 42.58200
C  52.72200 47.56200 44.45900
C  51.01800 49.76000 41.59000
C  50.47800 51.10100 41.89200
N  47.15200 46.24600 42.69100
C  47.07200 47.64400 42.63400
C  45.70800 48.11200 42.71600
C  44.94500 46.94000 42.69100
C  45.86700 45.86500 42.65700
C  45.21600 49.55000 42.75600
C  43.66000 46.47900 42.68700
O  42.66900 47.14900 42.77600
C  43.73100 44.99900 42.62000
C  42.97700 44.24100 43.61300
O  41.96600 43.55700 43.38000
O  43.55800 44.43300 44.84600
C  42.90000 43.69400 46.02200
H  48.96900 40.41900 42.24200
H  53.10000 45.44100 42.65100
H  48.20700 49.47100 42.96800
H  44.50300 41.94100 43.35000
H  46.19500 40.31000 41.58200
H  46.09000 39.06400 43.53200
H  46.01600 40.50400 44.58600
H  47.52000 40.11200 43.80100
H  43.28500 42.30100 41.28000
H  43.83300 40.74800 41.36900
H  45.79100 42.55400 39.98800
H  44.23700 42.84500 39.21900
H  52.82900 40.04600 41.61200
H  51.30900 40.06900 40.64700
H  51.25500 39.63600 42.33200
H  54.53100 44.90500 41.05600
H  55.90200 43.76300 41.44800
H  54.87600 44.21600 42.70900
H  52.67800 48.00400 42.20900
H  50.78000 49.18700 43.80800
H  53.74400 47.93900 44.48800
H  52.69500 46.56200 44.89000
H  52.20300 48.16200 45.20700
H  50.66900 49.34800 40.64300
H  52.07000 50.02200 41.47500
H  51.20400 51.90800 41.99400
H  49.96900 50.93900 42.84300
H  49.80100 51.43800 41.10700
H  45.71200 50.06200 43.58100
H  44.13500 49.66300 42.84300
H  45.57300 49.98300 41.82200
H  43.22300 44.65200 41.72000
H  41.92400 43.30100 45.73600
H  42.74600 44.37500 46.85900
H  43.49900 42.83900 46.33600

