158

Mg 9.43300 3.90100 27.92100
C  10.90200 2.40600 30.73600
C  7.36100 5.64100 30.05800
C  7.75300 5.08100 25.32000
C  11.16000 1.78000 25.82000
N  9.17400 3.92300 30.20000
C  9.87600 3.31700 31.09100
C  9.59700 3.88200 32.45800
C  8.22100 4.65600 32.25200
C  8.20100 4.72400 30.72100
C  6.94700 4.14200 32.99400
C  10.78700 4.74900 33.15500
C  11.33900 4.10500 34.41400
H  11.64500 5.04000 35.61000
N  7.95600 5.31000 27.75300
C  7.22300 5.92000 28.73000
C  6.32500 6.86100 28.13900
C  6.51100 6.84700 26.76000
C  7.46100 5.69200 26.57200
C  5.46900 7.75100 28.94800
C  5.87300 7.70400 25.65700
O  6.11200 7.44400 24.45400
C  4.98900 8.86000 25.91400
N  9.40300 3.38200 25.76400
C  8.61800 4.06700 24.88900
C  8.79800 3.58900 23.41000
C  9.93900 2.55300 23.61200
C  10.20000 2.58200 25.10600
C  7.47400 2.93400 22.82500
C  11.18300 2.73400 22.69400
C  11.91900 1.45500 22.12500
N  10.80000 2.33500 28.18500
C  11.52100 1.60200 27.20600
C  12.38900 0.73700 27.87700
C  12.23800 1.07200 29.28400
C  11.20300 2.03500 29.39700
C  13.20800 -0.34700 27.16600
C  12.75300 0.75600 30.58300
O  13.53500 -0.06300 30.95500
C  11.92000 1.70100 31.57900
C  11.26000 0.79600 32.58000
O  10.16500 0.30100 32.37500
O  11.98700 0.67400 33.71700
C  11.43100 -0.06400 34.85500
H  6.72200 6.24800 30.70300
H  7.26800 5.53800 24.45500
H  11.82500 1.12300 25.25600
H  9.36800 3.00200 33.05800
H  8.28700 5.63600 32.72500
H  6.16500 3.76100 32.33800
H  6.43000 5.00100 33.42200
H  7.09700 3.32600 33.70100
H  10.38700 5.73500 33.39400
H  11.55200 4.68900 32.38100
H  12.28100 3.60100 34.19600
H  10.78200 3.25500 34.80700
H  5.40800 7.51900 30.01200
H  4.51300 7.70600 28.42600
H  5.93400 8.73500 28.87400
H  5.40700 9.55300 26.64300
H  4.11800 8.44000 26.41600
H  4.61900 9.34400 25.01000
H  9.13400 4.40600 22.77100
H  9.63800 1.52300 23.42100
H  6.60400 3.40300 23.28500
H  7.55900 1.85100 22.90700
H  7.33700 3.32500 21.81600
H  11.91600 3.22200 23.33600
H  10.88300 3.30000 21.81200
H  11.29200 1.00700 21.35400
H  12.03400 0.64600 22.84700
H  12.86200 1.82200 21.72000
H  12.53600 -1.19400 27.02600
H  14.15700 -0.65200 27.60500
H  13.47200 0.12800 26.22100
H  12.61100 2.40900 32.03800
H  11.05400 0.64600 35.59100
H  12.28900 -0.54700 35.32200
H  10.71200 -0.87600 34.75200
Mg -10.86500 16.05200 42.49100
C  -7.43300 15.73500 42.06000
C  -10.59000 19.45100 41.49000
C  -14.15500 16.22700 42.13500
C  -11.05000 12.62500 43.25600
N  -9.26000 17.36500 41.69500
C  -7.91400 17.02400 41.70600
C  -7.02500 18.20300 41.26700
C  -8.04900 19.38900 41.45400
C  -9.39800 18.74600 41.54500
C  -7.64500 20.27800 42.75100
C  -6.55200 17.94600 39.79000
C  -5.19900 18.51100 39.29700
H  -4.89100 18.79100 37.86700
N  -12.19700 17.62700 41.90600
C  -11.88900 18.91600 41.55700
C  -13.08000 19.61800 41.25800
C  -14.16300 18.70200 41.41800
C  -13.54200 17.41600 41.79100
C  -13.11600 21.04700 40.76400
C  -15.66800 19.04900 41.23600
O  -16.04100 20.20400 41.02000
C  -16.81700 18.06800 41.22800
N  -12.36100 14.62800 42.57300
C  -13.61000 14.96600 42.56200
C  -14.56800 13.76500 42.72300
C  -13.66300 12.81000 43.48500
C  -12.26300 13.38600 43.17800
C  -15.98300 13.98700 43.52600
C  -13.83400 11.30100 43.44100
C  -14.21900 10.61800 44.88700
N  -9.56700 14.37800 42.54500
C  -9.71600 13.04600 42.94300
C  -8.35700 12.33700 42.92200
C  -7.46000 13.41800 42.59800
C  -8.20000 14.58500 42.36800
C  -8.04000 11.01000 43.54700
C  -6.10500 13.76700 42.61100
O  -5.09000 13.16000 42.92700
C  -6.06000 15.29200 42.17000
C  -5.40300 16.18300 43.15600
O  -5.85100 16.47100 44.23600
O  -4.19100 16.53200 42.73800
C  -3.32500 17.13100 43.73200
H  -10.61200 20.53700 41.37500
H  -15.24300 16.28900 42.06300
H  -11.10600 11.64700 43.73700
H  -6.15200 18.29100 41.91300
H  -7.95000 20.11800 40.65000
H  -7.45700 21.27500 42.35400
H  -6.74400 19.88600 43.22300
H  -8.46700 20.20500 43.46300
H  -7.24500 18.46100 39.12500
H  -6.73900 16.89500 39.57000
H  -4.39100 17.87800 39.66400
H  -5.16800 19.48800 39.77900
H  -13.93900 21.03900 40.04900
H  -12.17700 21.18800 40.23000
H  -13.22200 21.71200 41.62200
H  -17.74600 18.51800 40.87700
H  -16.96600 17.58600 42.19400
H  -16.64400 17.29800 40.47600
H  -14.71500 13.30300 41.74700
H  -13.68700 13.12500 44.52800
H  -15.91900 14.94000 44.05200
H  -16.24100 13.25500 44.29100
H  -16.87900 14.14600 42.92600
H  -12.92600 10.77200 43.15300
H  -14.66300 11.06300 42.77500
H  -13.31900 10.50800 45.49200
H  -14.76500 9.68900 44.72100
H  -14.91600 11.31900 45.34600
H  -7.66500 11.21500 44.55000
H  -7.45300 10.44400 42.82400
H  -8.92600 10.39400 43.70200
H  -5.63900 15.55300 41.19900
H  -3.69700 18.14300 43.89000
H  -2.36600 17.16600 43.21500
H  -3.35500 16.55800 44.65800

