158

Mg 35.00700 48.53200 25.63500
C  35.50100 46.82500 28.76800
C  33.89300 51.15500 27.41500
C  34.09700 49.91000 22.70200
C  35.72200 45.53500 24.07400
N  34.86400 48.93700 27.82400
C  34.99900 48.09500 28.91000
C  34.71000 48.73300 30.27300
C  34.05400 50.10600 29.77700
C  34.24000 50.07800 28.25800
C  32.60900 50.30300 30.26800
C  35.96500 49.03700 31.19600
C  35.90200 48.52200 32.58300
H  35.83800 49.56700 33.69100
N  34.25100 50.36800 25.18100
C  33.92100 51.34500 26.00900
C  33.56900 52.54900 25.24700
C  33.68400 52.23600 23.85600
C  33.99800 50.72500 23.89000
C  33.14400 53.86000 25.94600
C  33.47500 53.07200 22.66000
O  33.82000 52.62700 21.58100
C  32.93500 54.48400 22.84400
N  34.86700 47.82800 23.63600
C  34.50400 48.59000 22.56000
C  34.48100 47.86500 21.24300
C  35.09100 46.52800 21.68900
C  35.24600 46.57100 23.20600
C  33.20700 47.75900 20.39700
C  36.43300 46.16100 21.05200
C  36.38500 45.24400 19.79600
N  35.55600 46.58900 26.26400
C  35.93800 45.54000 25.48000
C  36.45100 44.41300 26.28700
C  36.26700 44.88800 27.61000
C  35.75000 46.17200 27.53800
C  36.99900 43.12000 25.87400
C  36.39000 44.56800 28.98100
O  36.86000 43.55300 29.54700
C  35.82200 45.79400 29.80500
C  34.66900 45.33100 30.64100
O  33.50400 45.10500 30.33700
O  35.06700 45.24400 31.98600
C  34.10300 44.86100 33.05700
H  33.58700 52.04800 27.96500
H  34.01600 50.36400 21.71200
H  36.02200 44.62400 23.55200
H  33.95100 48.16100 30.80700
H  34.67000 50.95700 30.06700
H  32.59600 50.81100 31.23200
H  31.97200 49.41900 30.28100
H  32.02000 50.85800 29.53700
H  36.18500 50.10300 31.25700
H  36.82800 48.55300 30.74000
H  36.86800 48.02400 32.67000
H  35.13700 47.75900 32.72400
H  33.88500 54.61100 25.67400
H  33.12400 53.75400 27.03100
H  32.16400 54.07800 25.52200
H  32.88200 54.96400 21.86700
H  33.75100 55.01000 23.33900
H  32.01100 54.46400 23.42300
H  35.30200 48.29600 20.66900
H  34.37800 45.77800 21.34700
H  32.44400 48.21300 21.02900
H  32.88800 46.74900 20.14000
H  33.29700 48.30200 19.45600
H  37.10200 45.64800 21.74300
H  36.98400 47.08700 20.88800
H  36.69200 45.73300 18.87200
H  35.33600 44.99200 19.64200
H  37.07600 44.44000 20.04900
H  37.77200 43.28400 25.12300
H  36.22500 42.52400 25.39100
H  37.39400 42.55700 26.71900
H  36.59700 46.14300 30.48900
H  33.14100 44.53100 32.66400
H  33.88600 45.67500 33.75000
H  34.55600 44.05300 33.63100
Mg -1.94400 35.32100 27.12400
C  -3.98700 34.07600 29.67100
C  -1.02900 37.93900 29.07800
C  -0.34600 36.72500 24.41000
C  -3.15000 32.80400 24.97900
N  -2.46200 35.91400 29.23800
C  -3.27900 35.23100 30.06700
C  -3.30000 35.89400 31.48700
C  -2.40600 37.20700 31.23700
C  -1.95400 37.02100 29.72800
C  -3.13700 38.55900 31.44100
C  -2.68000 35.00000 32.65100
C  -3.30400 35.11300 33.99900
H  -2.70100 36.18700 34.85700
N  -0.93700 37.05400 26.77800
C  -0.67900 38.04100 27.69000
C  0.09500 39.12200 27.12800
C  0.27000 38.80500 25.73500
C  -0.32100 37.46800 25.59000
C  0.43100 40.36200 27.96000
C  0.95800 39.67600 24.66500
O  0.78700 39.46400 23.49400
C  1.82400 40.92700 25.04200
N  -1.76100 34.85600 24.95800
C  -0.97500 35.50600 24.12000
C  -0.86800 34.88200 22.73100
C  -1.91500 33.75300 22.87400
C  -2.28900 33.77700 24.36400
C  -0.93400 35.83800 21.47200
C  -1.42500 32.41700 22.35000
C  -2.14100 32.04600 21.03800
N  -3.14400 33.73100 27.25800
C  -3.59100 32.79100 26.34900
C  -4.54400 31.90400 26.92200
C  -4.64500 32.37800 28.24400
C  -3.81800 33.51200 28.39100
C  -5.28700 30.82100 26.21100
C  -5.23700 31.93700 29.48300
O  -5.92700 31.01200 29.84900
C  -4.75300 33.10000 30.44100
C  -5.95800 33.72700 31.02100
O  -6.53100 34.66900 30.50100
O  -6.28000 33.08300 32.17400
C  -7.46600 33.65800 32.78500
H  -0.81700 38.70400 29.82800
H  0.26700 37.14700 23.61100
H  -3.59300 31.99700 24.39100
H  -4.31200 36.26000 31.65900
H  -1.52700 37.16400 31.88100
H  -2.56900 39.10400 32.19500
H  -4.17300 38.41300 31.74500
H  -3.36900 39.07700 30.51000
H  -1.66200 35.28800 32.91400
H  -2.72200 33.96800 32.30200
H  -3.19800 34.15100 34.50100
H  -4.36600 35.27500 33.81900
H  1.41300 40.33400 28.43100
H  -0.36200 40.52400 28.68900
H  0.52200 41.25000 27.33500
H  2.36900 40.83900 25.98100
H  1.09000 41.72300 25.17100
H  2.55000 41.10700 24.24900
H  0.09900 34.38000 22.72900
H  -2.81300 34.16700 22.41700
H  -1.50000 36.74300 21.69700
H  -1.59600 35.35300 20.75600
H  0.05400 36.04300 21.05900
H  -1.74200 31.63400 23.03900
H  -0.36000 32.18800 22.29700
H  -2.97300 31.39400 21.30600
H  -1.36600 31.55500 20.44900
H  -2.42600 32.95400 20.50600
H  -6.20600 30.58400 26.74600
H  -4.83100 29.85300 26.00000
H  -5.57600 31.32900 25.29100
H  -4.28000 32.61800 31.29700
H  -8.16800 33.80700 31.96500
H  -7.21200 34.53700 33.37700
H  -8.02200 32.99500 33.44700

