158

Mg 40.64100 9.15600 29.17200
C  42.80300 10.68800 31.50500
C  38.66300 7.95000 31.69100
C  38.82500 7.58100 26.77800
C  42.88100 10.31200 26.64800
N  40.92800 9.05400 31.41100
C  41.66100 10.01600 32.08800
C  41.12600 10.21100 33.46200
C  39.97600 9.14500 33.54800
C  39.81300 8.66100 32.09600
C  40.19400 7.98300 34.55100
C  40.65400 11.65300 33.87300
C  39.99500 11.80500 35.29000
H  40.82100 12.64100 36.33700
N  39.02500 7.77000 29.25900
C  38.23600 7.53900 30.37300
C  37.10600 6.75500 29.96300
C  37.20000 6.69000 28.48600
C  38.40000 7.34000 28.11500
C  36.03600 6.11200 30.89900
C  36.19500 6.16600 27.42400
O  36.49800 5.80100 26.29900
C  34.75400 5.86300 27.86200
N  40.96400 8.84500 27.12900
C  39.91800 8.33200 26.35100
C  40.18600 8.65000 24.81400
C  41.52400 9.41100 24.82700
C  41.83000 9.55300 26.25600
C  40.04300 7.36900 23.98400
C  41.47800 10.69400 23.91800
C  40.86400 11.91000 24.61800
N  42.48800 10.27400 29.03600
C  43.23600 10.68500 27.96200
C  44.29900 11.50200 28.40300
C  44.15800 11.48700 29.77200
C  43.09100 10.72500 30.10100
C  45.37900 12.17700 27.50200
C  44.79800 12.02600 30.92100
O  45.79100 12.74400 30.97600
C  43.85200 11.63100 32.18200
C  44.49200 11.12400 33.30600
O  44.95100 9.97700 33.48400
O  44.47300 12.08400 34.34200
C  45.13700 11.54100 35.53300
H  38.03500 7.81200 32.57400
H  38.22300 7.17300 25.96300
H  43.44800 10.79600 25.85000
H  41.95000 9.95000 34.12500
H  39.03500 9.62000 33.82400
H  41.25900 7.84800 34.73800
H  39.74300 6.99900 34.42900
H  39.73400 8.31300 35.48300
H  39.91200 11.99300 33.15000
H  41.52900 12.29600 33.77500
H  39.86600 10.80700 35.71000
H  38.98300 12.20000 35.20700
H  36.38900 5.84300 31.89500
H  35.52900 5.27200 30.42500
H  35.24100 6.85600 30.95300
H  34.52300 6.60400 28.62800
H  34.78600 4.83800 28.23300
H  34.04800 5.96000 27.03800
H  39.46200 9.36600 24.42200
H  42.21400 8.65500 24.45200
H  39.00600 7.24200 23.67300
H  40.51100 6.59200 24.58900
H  40.63500 7.49600 23.07800
H  40.91500 10.55900 22.99400
H  42.53300 10.86400 23.70300
H  41.50300 12.79300 24.60600
H  40.76900 11.71100 25.68500
H  39.95000 12.26700 24.14400
H  44.95700 12.65400 26.61800
H  46.17500 11.48700 27.21900
H  45.87900 12.99200 28.02700
H  43.27500 12.51000 32.47000
H  46.18400 11.26800 35.40100
H  44.59900 10.65600 35.87300
H  45.21000 12.20900 36.39200
Mg 5.90000 56.18400 41.13100
C  3.97400 53.26800 40.77400
C  8.38200 54.67100 39.40400
C  7.17700 59.27100 40.48000
C  3.00200 57.82100 42.39100
N  6.13200 54.26900 40.00700
C  5.23700 53.22500 40.09800
C  5.78200 51.90400 39.48200
C  7.29300 52.33600 39.34200
C  7.32300 53.81300 39.66400
C  8.37200 51.49800 40.00400
C  5.15400 51.65500 38.14200
C  4.80600 50.12900 37.95500
H  5.17400 49.55000 36.57600
N  7.63700 56.86500 40.27900
C  8.59700 56.08700 39.58200
C  9.67700 56.89900 39.20000
C  9.38900 58.19000 39.67000
C  8.00200 58.16900 40.20300
C  10.98500 56.42000 38.60700
C  10.34600 59.39300 39.48300
O  11.41500 59.29900 38.86100
C  9.96800 60.76400 40.07800
N  5.16400 58.27600 41.32400
C  5.93700 59.31600 40.94400
C  5.13800 60.65100 41.23200
C  3.92200 60.18800 41.96000
C  3.96400 58.67600 41.80500
C  5.94100 61.76200 41.96300
C  2.62900 60.91800 41.53400
C  2.29200 62.19200 42.35900
N  4.05800 55.69900 41.76100
C  3.01600 56.43800 42.29900
C  1.93700 55.51100 42.76200
C  2.31100 54.27200 42.23100
C  3.49200 54.48500 41.52700
C  0.54200 55.89600 43.30600
C  1.91100 52.86600 42.12100
O  1.03600 52.14800 42.60800
C  3.00600 52.22700 41.14600
C  2.10500 51.96800 39.98000
O  1.47500 52.77100 39.29500
O  2.09700 50.63000 39.75100
C  0.96400 50.04300 39.05400
H  9.28000 54.24800 38.94800
H  7.66800 60.18000 40.12600
H  2.06600 58.26500 42.73400
H  5.51800 51.14500 40.21900
H  7.46600 52.50700 38.27900
H  9.10200 51.86900 40.72500
H  8.87800 51.04300 39.15300
H  7.91000 50.73700 40.63300
H  5.85800 51.88100 37.34100
H  4.27500 52.29600 38.06600
H  3.71600 50.15500 37.96500
H  5.25900 49.60700 38.79800
H  11.00700 56.94000 37.65000
H  10.96600 55.38600 38.26200
H  11.80200 56.67500 39.28200
H  10.74900 61.51300 40.20400
H  9.53600 60.48700 41.04000
H  9.28000 61.29300 39.41900
H  4.85000 60.89500 40.21000
H  3.93300 60.36700 43.03500
H  5.88100 62.57000 41.23400
H  6.96600 61.39400 41.91000
H  5.74700 61.97300 43.01500
H  1.80400 60.20600 41.56700
H  2.58200 61.16700 40.47400
H  2.04000 63.04800 41.73200
H  3.09300 62.45400 43.05000
H  1.38000 62.09100 42.94700
H  -0.13800 56.33600 42.57700
H  0.68900 56.58200 44.14000
H  0.05200 54.98300 43.64400
H  3.49800 51.35900 41.58600
H  0.22900 50.77300 38.71400
H  0.54900 49.21300 39.62700
H  1.33300 49.67800 38.09600

