158

Mg 49.05400 45.75600 43.01900
C  45.58800 45.63300 42.09900
C  49.20500 42.54200 42.38900
C  52.35600 46.21600 43.10900
C  48.73700 49.28800 43.24900
N  47.59700 44.27800 42.13500
C  46.25400 44.38700 42.02500
C  45.64700 42.98200 41.81800
C  46.74200 41.87300 42.17100
C  47.91900 42.92900 42.25300
C  46.52600 41.06400 43.45500
C  45.03300 42.59000 40.37400
C  45.65700 43.22700 39.22600
H  45.38700 42.68400 37.77900
N  50.57900 44.47900 42.74500
C  50.42500 43.16700 42.52600
C  51.75100 42.50500 42.47500
C  52.71000 43.57700 42.73500
C  51.90600 44.79500 42.86800
C  52.06200 40.97800 42.26500
C  54.21000 43.34800 42.79900
O  54.77700 42.28100 42.65100
C  55.10800 44.49800 43.18400
N  50.36000 47.52200 43.20200
C  51.69700 47.42300 43.32700
C  52.43100 48.77400 43.68900
C  51.27000 49.77600 43.71000
C  50.04500 48.84900 43.43500
C  53.31800 48.68600 44.97400
C  51.21000 51.03300 42.81700
C  50.84600 52.23400 43.64900
N  47.51500 47.22800 42.74900
C  47.54300 48.56900 42.93000
C  46.11200 49.10100 42.81400
C  45.36800 47.95800 42.49000
C  46.29700 46.81800 42.45600
C  45.58800 50.55000 42.99200
C  44.01100 47.57500 42.17600
O  43.07300 48.30600 42.02600
C  44.11900 46.06500 41.88700
C  43.03800 45.30000 42.58100
O  42.18600 44.59400 42.00500
O  43.04100 45.47200 43.93300
C  42.03500 44.69600 44.81500
H  49.30900 41.45800 42.31400
H  53.44200 46.33400 43.08500
H  48.43400 50.33700 43.23700
H  44.83400 42.95600 42.54500
H  46.89000 41.08400 41.43500
H  46.60900 40.00400 43.21600
H  45.55800 41.15000 43.94800
H  47.35100 41.11800 44.16500
H  43.99100 42.91000 40.33900
H  45.08800 41.50400 40.44200
H  46.74000 43.32000 39.30600
H  45.27500 44.24800 39.23400
H  53.02800 40.69200 42.68200
H  52.08100 40.60600 41.24100
H  51.32300 40.32900 42.73300
H  55.30100 45.19800 42.37100
H  56.05800 44.09700 43.53700
H  54.60000 44.88500 44.06600
H  53.22700 48.99200 42.97800
H  51.10100 50.12800 44.72800
H  53.65400 47.65400 45.07200
H  52.86100 49.16800 45.83800
H  54.22400 49.27100 44.81500
H  50.38100 50.79800 42.14900
H  52.07200 51.17700 42.16500
H  49.84000 52.26100 44.06700
H  50.97100 53.05700 42.94600
H  51.52200 52.20700 44.50400
H  44.51600 50.45500 43.16100
H  45.86700 51.24700 42.20200
H  46.18000 50.96700 43.80700
H  43.92000 45.91600 40.82600
H  42.67900 44.33800 45.61900
H  41.48300 43.87400 44.35900
H  41.31600 45.43200 45.17600
Mg 27.07700 50.12300 26.74500
C  24.99800 51.06700 29.51200
C  29.34700 49.07100 29.15100
C  29.05400 49.49600 24.20800
C  24.74200 51.57500 24.65700
N  27.15800 50.12300 29.12200
C  26.19900 50.60800 30.00500
C  26.65900 50.41900 31.42600
C  28.11200 49.85800 31.33700
C  28.20400 49.62000 29.81500
C  29.28600 50.80500 31.83500
C  25.74200 49.54100 32.39100
C  25.54400 50.18100 33.87700
H  25.44100 49.14600 34.99200
N  28.91400 49.39400 26.69900
C  29.69700 49.03000 27.74400
C  30.84700 48.39800 27.19100
C  30.89700 48.57900 25.79600
C  29.56300 49.12900 25.53900
C  32.04900 47.82700 28.00800
C  32.00500 48.45100 24.81700
O  31.89200 48.63200 23.65100
C  33.34700 48.05300 25.11500
N  27.02700 50.63600 24.76000
C  27.90300 50.17400 23.88500
C  27.58900 50.47200 22.50400
C  26.09400 50.96000 22.56200
C  25.93000 51.09500 24.06600
C  28.53500 51.50800 21.86900
C  25.06100 49.92500 21.93100
C  23.83200 50.38900 21.11700
N  25.23000 51.13300 26.99800
C  24.43300 51.69500 25.99100
C  23.30100 52.34200 26.64500
C  23.47300 52.09300 28.00000
C  24.60200 51.31100 28.18800
C  22.26900 53.12300 25.86700
C  22.84200 52.32400 29.25800
O  21.75700 52.81700 29.45200
C  23.84700 51.67900 30.34100
C  24.20300 52.70200 31.33200
O  25.20400 53.31600 31.36600
O  23.21000 52.72000 32.33000
C  23.52900 53.55300 33.45400
H  30.10400 48.72800 29.85800
H  29.65300 49.15700 23.36000
H  23.88500 51.74700 24.00300
H  26.69300 51.42300 31.84900
H  28.22100 48.96000 31.94600
H  29.94500 51.08800 31.01500
H  29.90400 50.32300 32.59200
H  28.98900 51.72300 32.34100
H  26.21500 48.57300 32.56100
H  24.82100 49.31000 31.85600
H  24.57500 50.67300 33.79100
H  26.12400 51.05100 34.18600
H  31.97000 47.92600 29.09100
H  32.93400 48.45200 27.89000
H  32.14700 46.76200 27.79800
H  33.27700 47.04300 25.52000
H  33.63500 48.76600 25.88700
H  33.97000 47.97400 24.22400
H  27.59700 49.59200 21.86000
H  26.00800 51.85600 21.94700
H  29.50400 51.45700 22.36400
H  28.11500 52.51400 21.88600
H  28.79700 51.13400 20.88000
H  24.67800 49.21300 22.66200
H  25.66200 49.41800 21.17400
H  23.78500 50.02000 20.09200
H  23.72400 51.47300 21.07600
H  22.92000 50.01400 21.58100
H  22.83600 53.71300 25.14700
H  21.75300 53.77800 26.56800
H  21.46500 52.52700 25.43400
H  23.30500 50.86400 30.82000
H  23.63400 54.60100 33.17400
H  24.43100 53.18200 33.94100
H  22.68000 53.60700 34.13600

