158

Mg 35.00600 3.07800 30.18000
C  32.69500 3.98300 32.80900
C  37.35300 3.18000 32.45600
C  37.07500 2.62800 27.63100
C  32.29200 3.45300 27.97500
N  34.99400 3.41400 32.37300
C  33.96100 3.60900 33.26100
C  34.41100 3.63900 34.71500
C  35.97000 3.68200 34.54100
C  36.15000 3.45600 33.02900
C  36.76100 4.97100 34.87800
C  33.91200 2.40800 35.46100
C  33.61400 2.56000 36.96200
H  34.34500 3.63900 37.78700
N  36.90400 2.84800 30.03600
C  37.79100 2.81600 31.09400
C  39.11200 2.63300 30.61300
C  39.04600 2.43300 29.19900
C  37.61000 2.58300 28.89000
C  40.25800 2.50900 31.54100
C  40.20200 2.06400 28.16000
O  40.03400 1.91200 26.94000
C  41.61900 1.85000 28.67300
N  34.76900 3.03000 28.07300
C  35.75800 2.79900 27.22100
C  35.25700 2.50900 25.79800
C  33.70100 2.72000 25.88900
C  33.54200 3.09600 27.40400
C  36.02100 3.33100 24.71000
C  32.80700 1.52800 25.50000
C  33.16400 0.15600 26.14700
N  32.99100 3.67100 30.28100
C  31.99800 3.76700 29.34600
C  30.82200 4.29500 29.93500
C  31.06400 4.31000 31.27800
C  32.39300 3.95700 31.47800
C  29.59400 4.57100 29.12900
C  30.35700 4.67500 32.47300
O  29.20700 5.11800 32.68500
C  31.41000 4.40600 33.61100
C  31.53900 5.61900 34.50700
O  31.92500 6.67400 34.13400
O  30.94800 5.36000 35.72000
C  30.65900 6.45100 36.69000
H  38.04300 2.99600 33.28200
H  37.76600 2.42300 26.81100
H  31.49200 3.50000 27.23200
H  34.27400 4.60100 35.21000
H  36.49400 2.97400 35.18400
H  37.76000 4.83500 35.29200
H  36.11800 5.54400 35.54500
H  36.92500 5.56700 33.98000
H  34.60600 1.60600 35.20900
H  32.96500 2.22700 34.95400
H  33.60000 1.62400 37.51900
H  32.56700 2.86200 36.98500
H  40.87100 3.41100 31.53000
H  40.86100 1.66000 31.22000
H  39.86600 2.37300 32.54900
H  42.27800 1.88500 27.80600
H  41.61300 0.85500 29.11800
H  41.93400 2.61200 29.38600
H  35.49800 1.47100 25.56800
H  33.40800 3.52200 25.21200
H  36.65600 4.08900 25.17000
H  35.35900 3.76200 23.95900
H  36.70800 2.59300 24.29700
H  32.89400 1.36600 24.42600
H  31.75000 1.66500 25.72900
H  32.40900 -0.31500 26.77600
H  34.02000 0.36700 26.78700
H  33.44700 -0.58900 25.40400
H  29.55500 3.96300 28.22500
H  29.53700 5.62700 28.86600
H  28.74100 4.37400 29.78000
H  31.05000 3.50800 34.11300
H  31.20700 6.32400 37.62300
H  29.64200 6.45500 37.08100
H  30.79600 7.42700 36.22300
Mg -2.07700 34.12600 27.08400
C  -3.69100 32.47800 29.73200
C  -0.25500 35.95500 29.31200
C  -0.69400 35.74700 24.44400
C  -3.84300 31.93100 24.80000
N  -2.04600 34.16900 29.27600
C  -2.79700 33.49400 30.19200
C  -2.25100 33.72000 31.66200
C  -1.34200 34.95400 31.50900
C  -1.16300 35.04000 29.91500
C  -1.73700 36.27900 32.20700
C  -1.53200 32.44000 32.16600
C  -0.92700 32.55800 33.62300
H  -1.61400 31.60400 34.64800
N  -0.68900 35.67000 26.90100
C  -0.00800 36.30700 27.90300
C  0.93900 37.31400 27.40600
C  0.82900 37.29200 26.01200
C  -0.25500 36.17200 25.72500
C  1.84600 38.11000 28.29700
C  1.59700 38.07000 24.95500
O  1.31800 37.96400 23.76300
C  2.64600 39.03600 25.36200
N  -2.52600 34.09400 24.87400
C  -1.62500 34.73200 24.02200
C  -1.70800 34.22200 22.58300
C  -2.51500 32.83700 22.78300
C  -3.03300 32.94900 24.21200
C  -2.33800 35.29900 21.60900
C  -1.69100 31.54200 22.56700
C  -0.27400 31.39300 23.13100
N  -3.60600 32.66200 27.19100
C  -4.19300 31.86400 26.18100
C  -4.98900 30.83900 26.82400
C  -4.81100 31.10600 28.19400
C  -3.96300 32.17200 28.39300
C  -5.90500 29.85500 26.17700
C  -5.20600 30.65000 29.49100
O  -5.92400 29.69300 29.80800
C  -4.50900 31.47900 30.53500
C  -5.59400 32.10300 31.32300
O  -6.29900 33.01900 30.94800
O  -5.83900 31.43600 32.49400
C  -7.03700 31.84700 33.22200
H  0.41000 36.42500 30.04000
H  -0.11400 36.30000 23.70200
H  -4.23800 31.05000 24.28900
H  -3.12100 33.91100 32.29100
H  -0.31700 34.74200 31.81400
H  -0.90700 36.82000 32.65900
H  -2.30300 35.90700 33.06100
H  -2.33900 37.00400 31.65900
H  -0.57600 32.36000 31.64800
H  -2.06100 31.51100 31.95300
H  -1.05400 33.56300 34.02500
H  0.15700 32.44100 33.61900
H  2.02000 39.10500 27.88800
H  2.81900 37.62000 28.27600
H  1.42700 38.16400 29.30200
H  2.12300 39.85200 25.85900
H  3.11500 39.41900 24.45600
H  3.42800 38.60200 25.98600
H  -0.72000 33.92300 22.23200
H  -3.30700 32.89700 22.03700
H  -1.56000 35.57800 20.89900
H  -2.73800 36.24000 21.98800
H  -3.17400 34.84400 21.07800
H  -1.59500 31.48400 21.48300
H  -2.28900 30.65000 22.75200
H  0.32700 31.37700 22.22200
H  -0.17400 30.36300 23.47600
H  0.00000 32.15400 23.86100
H  -6.89800 30.29400 26.27600
H  -5.78800 28.96100 26.79000
H  -5.75900 29.58200 25.13200
H  -3.95400 30.83600 31.21800
H  -6.67300 32.18700 34.19100
H  -7.78800 31.07400 33.38200
H  -7.64100 32.65400 32.80600

