158

Mg 17.42700 -1.41000 27.74100
C  16.36500 0.46200 30.41300
C  19.46600 -3.29100 29.96700
C  18.68300 -3.15800 25.15900
C  15.76000 0.57900 25.60000
N  17.78200 -1.46700 29.92700
C  17.15300 -0.61600 30.84200
C  17.61200 -0.91200 32.23800
C  18.69000 -2.03600 32.07500
C  18.67800 -2.25600 30.52000
C  20.16300 -1.65600 32.51000
C  16.42400 -1.17300 33.31800
C  16.56500 -0.43300 34.69700
H  17.75000 -0.82700 35.55900
N  18.73000 -3.06000 27.60100
C  19.45000 -3.71200 28.62100
C  20.00100 -4.98800 28.12200
C  19.81600 -4.91800 26.73500
C  19.03800 -3.68900 26.45900
C  20.64000 -6.12100 28.95600
C  20.37100 -5.79600 25.69700
O  20.28700 -5.61700 24.49800
C  21.10300 -7.09500 26.08600
N  17.32300 -1.18600 25.66900
C  17.92400 -2.04500 24.78500
C  17.73500 -1.63300 23.29600
C  16.60100 -0.55100 23.54300
C  16.56000 -0.37900 25.02500
C  19.07500 -1.07000 22.64500
C  15.25100 -0.78000 22.95400
C  14.62100 0.36500 22.12700
N  16.28100 0.23200 27.89900
C  15.63600 0.93800 26.93600
C  14.86100 2.03300 27.59200
C  15.13900 1.87200 29.02000
C  16.02100 0.81700 29.11700
C  13.98300 3.01100 26.97800
C  14.85600 2.40400 30.28200
O  14.18100 3.40200 30.60700
C  15.67500 1.51200 31.25000
C  16.69400 2.36300 31.82600
O  17.80700 2.54300 31.41900
O  16.23000 2.96500 32.94200
C  17.26500 3.60500 33.84400
H  20.05100 -3.94700 30.61500
H  19.00700 -3.80400 24.34100
H  15.31400 1.21000 24.82900
H  18.20600 -0.06900 32.59100
H  18.31200 -2.97700 32.47400
H  20.07800 -0.66600 32.95800
H  20.89900 -1.63500 31.70600
H  20.57200 -2.39800 33.19500
H  16.36200 -2.23400 33.56300
H  15.48100 -0.96400 32.81300
H  15.61100 -0.57500 35.20700
H  16.50100 0.62700 34.45300
H  20.08200 -7.03500 28.75200
H  20.69000 -5.90400 30.02300
H  21.65500 -6.19700 28.56600
H  22.04600 -6.83900 26.56900
H  21.44700 -7.70800 25.25300
H  20.49500 -7.66700 26.78700
H  17.22100 -2.36000 22.66800
H  16.99500 0.37900 23.13300
H  19.90200 -0.99700 23.35100
H  18.97200 -0.04000 22.30200
H  19.40300 -1.71800 21.83200
H  14.56200 -1.13400 23.72100
H  15.29600 -1.60100 22.23900
H  13.74400 0.82100 22.58500
H  14.32500 0.04500 21.12800
H  15.29900 1.20800 21.99200
H  14.54900 3.92200 26.78200
H  13.22500 3.21400 27.73500
H  13.49100 2.62400 26.08600
H  15.12700 1.13700 32.11400
H  16.94300 4.52300 34.33600
H  18.20600 3.90100 33.38100
H  17.41100 2.82200 34.58800
Mg -6.14900 25.85800 26.21800
C  -4.26300 27.30500 28.80200
C  -7.51100 23.76200 28.33500
C  -7.42600 24.48500 23.47000
C  -4.03400 27.92100 24.03100
N  -5.81300 25.51800 28.31000
C  -5.07900 26.26900 29.19600
C  -5.42300 25.87800 30.67200
C  -6.27300 24.50600 30.44900
C  -6.55600 24.61100 28.90500
C  -5.45900 23.34400 30.97100
C  -6.21200 27.05900 31.39800
C  -5.91500 27.26500 32.87100
H  -5.38500 26.12400 33.76700
N  -7.48000 24.34000 25.96100
C  -7.93500 23.59300 26.96300
C  -8.88400 22.62200 26.44900
C  -8.91600 22.84300 24.98100
C  -7.98400 23.97200 24.77000
C  -9.64700 21.54300 27.30900
C  -9.73500 22.20200 23.89100
O  -9.71600 22.57200 22.75000
C  -10.67800 21.15800 24.37500
N  -5.69800 26.13800 24.05000
C  -6.48200 25.40500 23.13500
C  -6.00600 25.61000 21.69000
C  -5.02500 26.84500 21.88200
C  -4.89500 27.02200 23.40400
C  -5.45500 24.38600 20.95500
C  -5.64900 28.06900 21.11800
C  -5.70500 27.93000 19.61700
N  -4.50600 27.29800 26.31300
C  -3.82100 28.07500 25.41400
C  -2.91000 29.01300 26.07400
C  -3.08500 28.75100 27.41600
C  -4.00000 27.66400 27.49400
C  -1.92100 29.93200 25.26200
C  -2.61500 29.11500 28.72200
O  -1.74700 29.85000 29.10500
C  -3.35400 28.14600 29.73200
C  -2.41400 27.28400 30.45100
O  -1.78800 26.33800 29.95800
O  -2.32800 27.71700 31.69900
C  -1.40900 27.17200 32.72700
H  -7.82600 23.03800 29.08900
H  -7.79300 23.93100 22.60300
H  -3.50800 28.64200 23.40200
H  -4.57200 25.65100 31.31500
H  -7.24300 24.62800 30.93200
H  -5.01300 22.71500 30.20100
H  -6.23500 22.86000 31.56300
H  -4.67300 23.57700 31.69000
H  -7.28900 26.91000 31.31400
H  -6.01500 28.00300 30.88900
H  -6.84700 27.64200 33.29200
H  -5.22300 28.10000 32.97600
H  -10.69300 21.37900 27.05000
H  -9.58000 21.80100 28.36600
H  -9.05000 20.63200 27.28600
H  -10.30000 20.27500 24.89000
H  -11.17200 20.79000 23.47700
H  -11.47500 21.60600 24.96800
H  -6.87600 26.04300 21.19600
H  -4.00500 26.61200 21.57600
H  -5.57900 23.50900 21.59000
H  -4.43000 24.49900 20.60300
H  -6.01500 24.21100 20.03600
H  -4.98600 28.93400 21.13200
H  -6.60800 28.43600 21.48400
H  -5.26100 26.96300 19.37900
H  -5.25700 28.74600 19.05100
H  -6.75700 27.93700 19.33200
H  -2.33400 30.93900 25.20200
H  -1.60700 29.41500 24.35500
H  -1.00400 30.14000 25.81300
H  -3.96900 28.74800 30.40200
H  -1.74400 27.06600 33.75800
H  -0.50700 27.78500 32.73100
H  -1.18800 26.12700 32.51000

