158

Mg -1.82900 16.92900 26.56800
C  -2.55000 14.75000 29.27100
C  -2.36000 19.54300 28.77800
C  -1.70900 18.97400 23.96100
C  -2.16000 14.26400 24.34600
N  -2.59200 17.06900 28.88600
C  -2.57300 16.09400 29.81100
C  -2.65800 16.73700 31.17300
C  -2.79700 18.24100 30.93500
C  -2.67700 18.30400 29.42000
C  -4.10900 18.77800 31.48300
C  -1.40200 16.32900 31.97100
C  -1.02700 17.08700 33.21200
H  -0.64200 16.25700 34.42300
N  -1.94700 19.00500 26.39700
C  -2.12000 19.89400 27.39600
C  -1.96400 21.23500 26.87600
C  -1.65300 21.06200 25.49600
C  -1.73000 19.63200 25.20800
C  -1.92200 22.48100 27.75000
C  -1.39800 22.11400 24.37200
O  -1.11200 21.77600 23.21500
C  -1.47200 23.57200 24.62600
N  -1.89100 16.66900 24.38500
C  -1.84200 17.64200 23.53600
C  -2.05900 17.12500 22.10300
C  -1.89300 15.60900 22.25700
C  -1.95200 15.46300 23.73900
C  -3.38500 17.49300 21.47500
C  -0.59500 14.99600 21.73800
C  -0.69100 13.91500 20.66300
N  -2.18500 14.87600 26.71700
C  -2.27600 13.96300 25.70300
C  -2.42000 12.62800 26.31600
C  -2.56000 12.93100 27.66500
C  -2.46700 14.29700 27.89200
C  -2.45600 11.36400 25.56600
C  -2.68700 12.32900 28.99900
O  -2.80500 11.17900 29.36300
C  -2.64600 13.47200 30.02600
C  -1.66000 13.23100 31.01300
O  -0.46100 13.49000 30.87900
O  -2.24400 12.61900 32.09000
C  -1.40000 12.35500 33.24800
H  -2.34900 20.32000 29.54500
H  -1.68800 19.53300 23.02300
H  -2.01800 13.41500 23.67300
H  -3.52700 16.29000 31.65800
H  -2.05000 18.89500 31.38400
H  -4.95400 18.09500 31.39600
H  -4.30300 19.63300 30.83600
H  -3.90500 19.14100 32.49000
H  -0.56800 16.32400 31.26800
H  -1.50600 15.27400 32.22300
H  -1.93100 17.66100 33.41600
H  -0.11800 17.60000 32.89800
H  -1.02200 23.04900 27.51100
H  -1.80900 22.28200 28.81600
H  -2.78000 23.13300 27.58700
H  -0.61000 23.99300 25.14200
H  -2.43100 23.72100 25.12300
H  -1.70500 24.12800 23.71800
H  -1.33700 17.58900 21.43100
H  -2.77600 15.11100 21.85500
H  -3.34600 17.53400 20.38600
H  -3.65800 18.46500 21.88500
H  -4.21800 16.80000 21.59900
H  0.01600 14.59000 22.54400
H  0.09800 15.73400 21.33300
H  -0.45900 14.33600 19.68500
H  -1.63500 13.37100 20.68500
H  0.02700 13.10500 20.79500
H  -1.68100 11.32200 24.80100
H  -3.46600 11.23300 25.17800
H  -2.18300 10.55200 26.24000
H  -3.64000 13.53900 30.46800
H  -1.36400 13.06100 34.07800
H  -0.38500 12.10300 32.94000
H  -1.78800 11.43500 33.68400
Mg -0.17000 7.57800 26.29400
C  0.67100 9.60700 28.93300
C  -0.33000 4.96100 28.44600
C  -0.60100 5.48800 23.58900
C  0.76500 10.09800 24.07200
N  0.22300 7.33000 28.51200
C  0.41700 8.33500 29.39200
C  0.31600 7.85300 30.83300
C  0.27500 6.25000 30.67700
C  0.09400 6.11000 29.13200
C  1.45700 5.38500 31.30200
C  -1.00900 8.38700 31.55200
C  -1.06000 8.37500 33.07500
H  0.09200 7.81600 33.86200
N  -0.43500 5.52600 26.07900
C  -0.51300 4.62400 27.10000
C  -0.89800 3.34300 26.65300
C  -0.98800 3.44200 25.24600
C  -0.70000 4.88600 24.87500
C  -1.04100 2.19800 27.56800
C  -1.29400 2.32400 24.23600
O  -1.23400 2.44600 22.98300
C  -1.45000 0.93900 24.72900
N  -0.08900 7.78600 24.12700
C  -0.29600 6.81400 23.24000
C  -0.22200 7.35600 21.79000
C  0.11400 8.85000 21.98800
C  0.31700 8.89100 23.44600
C  0.90800 6.67300 20.85600
C  -0.90900 9.90200 21.54600
C  -2.31300 10.04500 22.17600
N  0.51400 9.52100 26.38300
C  0.88900 10.40000 25.40800
C  1.12700 11.72600 26.05200
C  1.16500 11.39200 27.44300
C  0.79700 10.10600 27.57700
C  1.36000 13.10200 25.42500
C  1.32400 12.01300 28.80300
O  1.69900 13.19600 29.04200
C  1.04700 10.83500 29.79400
C  2.06300 10.65200 30.78500
O  3.19300 10.23000 30.55300
O  1.56600 11.00600 31.99400
C  2.56900 11.21800 33.02800
H  -0.50100 4.15100 29.15800
H  -0.80500 4.76500 22.79700
H  0.93800 10.89700 23.34800
H  1.21000 8.19500 31.35400
H  -0.62500 5.71800 30.98600
H  1.84900 4.68900 30.56100
H  0.94700 4.75200 32.02800
H  2.25000 6.04200 31.66000
H  -1.84400 7.80400 31.16400
H  -1.10700 9.45400 31.35000
H  -1.91500 7.87400 33.52900
H  -1.16900 9.42100 33.36100
H  -0.11200 1.62900 27.58000
H  -1.93000 1.64600 27.26200
H  -1.20500 2.44900 28.61600
H  -2.43300 0.99000 25.19700
H  -0.68400 0.78300 25.48800
H  -1.38600 0.24700 23.88900
H  -1.17400 7.20900 21.28000
H  1.06000 9.12800 21.52400
H  1.73500 7.36600 20.69900
H  0.42800 6.47100 19.89900
H  1.32100 5.77500 21.31500
H  -1.19800 9.43900 20.60200
H  -0.50600 10.90800 21.43000
H  -2.36700 11.00900 22.68200
H  -2.36200 9.36500 23.02700
H  -3.07700 9.84200 21.42600
H  2.42200 13.34600 25.46200
H  0.74400 13.80700 25.98300
H  0.99600 13.03000 24.40000
H  0.10300 11.22300 30.17600
H  3.29200 11.92000 32.61400
H  3.17300 10.35600 33.31300
H  2.26500 11.72400 33.94400

