158

Mg 35.20900 3.00600 29.19000
C  33.26800 4.01200 32.06900
C  37.95700 3.14100 31.36700
C  37.31400 2.65700 26.65200
C  32.52300 3.68900 27.21500
N  35.54200 3.53100 31.48600
C  34.58100 3.84400 32.42400
C  35.13700 3.93400 33.79300
C  36.68200 3.91500 33.50700
C  36.76200 3.54200 31.97600
C  37.54600 5.19700 33.76700
C  34.76700 2.61600 34.60600
C  34.51500 2.82800 36.10100
H  35.38500 3.68700 37.05500
N  37.30200 2.69000 29.02600
C  38.19900 2.68200 30.07100
C  39.51700 2.21200 29.55200
C  39.41400 2.07300 28.17100
C  37.95800 2.43900 27.87900
C  40.66900 1.80700 30.39400
C  40.29900 1.64100 27.11500
O  39.98700 1.62600 25.88400
C  41.73500 1.26600 27.47500
N  34.97200 3.26600 27.30400
C  35.96200 3.01200 26.35000
C  35.48400 3.15200 24.97800
C  33.93000 3.18200 25.09100
C  33.78100 3.37200 26.65800
C  36.10700 4.28900 24.14500
C  33.20900 1.92600 24.43200
C  32.72900 0.87800 25.40400
N  33.30200 3.76800 29.54200
C  32.19600 3.87100 28.60300
C  30.97000 4.10400 29.29500
C  31.35800 4.18500 30.68200
C  32.78200 3.99500 30.74200
C  29.65200 4.26300 28.48300
C  30.84400 4.33300 32.01600
O  29.74200 4.67600 32.42000
C  32.06000 4.19800 33.00300
C  32.28400 5.39400 33.79600
O  32.54500 6.50600 33.34200
O  32.01400 4.99700 35.09200
C  32.13900 6.00400 36.11500
H  38.82200 3.11900 32.03300
H  37.82700 2.53100 25.69700
H  31.69300 3.57500 26.51500
H  34.89000 4.86600 34.30100
H  37.28600 3.12300 33.94900
H  38.47700 4.91600 34.26000
H  37.05100 5.99000 34.32800
H  37.75200 5.58900 32.77100
H  35.68600 2.03100 34.63600
H  33.96500 1.94800 34.29300
H  34.47200 1.83500 36.54900
H  33.54100 3.27200 36.30700
H  40.75100 0.72600 30.28500
H  40.49000 2.13400 31.41900
H  41.52600 2.35700 30.00400
H  42.34100 2.07100 27.89100
H  42.19800 0.92700 26.54800
H  41.74400 0.38700 28.11900
H  35.84900 2.23900 24.50800
H  33.52200 4.02400 24.53300
H  35.41400 5.11500 23.98500
H  36.47100 3.88100 23.20300
H  36.92200 4.67400 24.75800
H  33.85600 1.49300 23.66900
H  32.39300 2.39300 23.88100
H  32.58600 -0.01800 24.80100
H  31.72200 1.02600 25.79400
H  33.38600 0.75000 26.26500
H  29.50300 5.34200 28.54200
H  28.94000 3.73900 29.12100
H  29.65500 3.97400 27.43200
H  31.95800 3.31000 33.62700
H  32.68000 5.58700 36.96400
H  31.15000 6.30700 36.46000
H  32.59100 6.93000 35.75900
Mg 41.25700 9.54900 28.84800
C  43.09000 10.83100 31.52300
C  39.00300 8.27400 31.10000
C  39.48400 8.45600 26.28000
C  43.82500 10.42600 26.66600
N  41.24500 9.37500 31.10200
C  42.00000 10.14200 31.95100
C  41.45300 9.99900 33.37800
C  40.28500 8.96100 33.24600
C  40.15800 8.85300 31.71900
C  40.53500 7.53900 33.75400
C  41.08500 11.34300 34.02200
C  40.62300 11.20100 35.48600
H  40.93800 12.39600 36.38400
N  39.47900 8.57200 28.71600
C  38.68200 8.16600 29.69200
C  37.50500 7.60600 29.15300
C  37.54500 7.67300 27.77500
C  38.85400 8.25900 27.53200
C  36.46900 6.90800 30.11000
C  36.54800 7.22600 26.80400
O  36.66100 7.20400 25.59800
C  35.20900 6.90600 27.31600
N  41.65300 9.46200 26.80600
C  40.76800 8.93300 25.93400
C  41.24600 9.02500 24.47700
C  42.72200 9.63300 24.60900
C  42.73900 9.92800 26.09400
C  41.13400 7.72800 23.67900
C  42.87200 10.88600 23.67700
C  42.30800 12.23100 24.26000
N  43.09100 10.46600 28.94500
C  44.06100 10.70900 28.01500
C  45.17400 11.39700 28.61900
C  44.82000 11.60200 29.98800
C  43.60800 10.88200 30.15000
C  46.43500 11.78700 27.94200
C  45.20300 12.26100 31.32300
O  46.12100 13.04000 31.60500
C  44.05500 11.77000 32.26800
C  44.76600 11.06900 33.37300
O  45.21000 9.88600 33.39900
O  44.64200 11.79100 34.53300
C  44.83300 11.01300 35.77500
H  38.33100 7.83800 31.84300
H  39.00100 8.15300 25.34900
H  44.66700 10.70200 26.02900
H  42.28200 9.70900 34.02400
H  39.38600 9.32300 33.74500
H  41.57900 7.41100 34.04000
H  40.24400 6.75900 33.05100
H  39.94100 7.29900 34.63600
H  40.27700 11.68000 33.37200
H  41.94800 12.00600 33.97100
H  41.03900 10.31000 35.95700
H  39.54000 11.14800 35.37500
H  36.73000 6.77900 31.16100
H  36.31900 5.89100 29.74900
H  35.52500 7.43700 29.98000
H  34.54500 6.75900 26.46400
H  34.82000 7.71600 27.93300
H  35.16700 5.99600 27.91600
H  40.57100 9.74100 24.00900
H  43.45400 8.85800 24.38100
H  40.79500 6.91400 24.32000
H  42.03300 7.26200 23.27500
H  40.50800 7.83700 22.79400
H  42.21100 10.61500 22.85300
H  43.91400 10.82200 23.36300
H  43.16900 12.73600 24.69700
H  41.52000 12.13300 25.00800
H  41.92500 12.80300 23.41500
H  46.75700 10.93800 27.33900
H  47.13100 12.03400 28.74500
H  46.33300 12.66600 27.30600
H  43.39500 12.56500 32.61600
H  44.17300 10.15200 35.88000
H  44.48100 11.60900 36.61700
H  45.90400 10.83600 35.87600

