158

Mg 9.62700 48.72600 26.49900
C  7.61500 48.77800 29.35600
C  12.38100 49.50500 28.49000
C  11.48100 48.82300 23.77100
C  6.76500 48.21900 24.53500
N  9.91400 49.10700 28.66200
C  8.96600 49.09900 29.64600
C  9.61900 49.36900 31.02500
C  11.05000 49.95800 30.65600
C  11.18700 49.44100 29.20400
C  11.13900 51.43600 30.86200
C  9.65800 48.08600 32.04200
C  9.05300 48.29500 33.44400
H  9.28500 47.11600 34.44900
N  11.59400 49.13100 26.21300
C  12.59600 49.32300 27.14800
C  13.88200 49.38400 26.49400
C  13.64600 49.08000 25.15500
C  12.17200 49.01900 24.99200
C  15.16700 49.67500 27.18700
C  14.73200 48.87200 24.02100
O  14.37500 48.65000 22.89600
C  16.12600 49.02000 24.29400
N  9.13200 48.76900 24.43000
C  10.07400 48.82500 23.47100
C  9.53100 48.51400 22.04200
C  7.98100 48.35800 22.31400
C  7.93000 48.38800 23.85000
C  9.94600 49.62700 21.06300
C  7.35400 47.02400 21.64200
C  6.06700 47.23700 20.93000
N  7.53500 48.52500 26.81200
C  6.47600 48.30100 25.92800
C  5.26100 48.10700 26.67200
C  5.65500 48.21200 28.03900
C  7.05900 48.50400 28.06300
C  3.87300 47.81000 26.03800
C  5.15400 48.10400 29.36900
O  3.97500 47.94100 29.75500
C  6.40400 48.36500 30.27300
C  6.42000 47.16300 31.11200
O  7.06000 46.16400 30.99200
O  5.76800 47.50800 32.30300
C  5.93100 46.53600 33.36900
H  13.24700 49.72000 29.11900
H  12.10100 48.72600 22.87800
H  5.83600 47.95400 24.02400
H  9.04100 50.14500 31.52600
H  11.92400 49.53000 31.14700
H  10.21300 51.90000 31.20000
H  11.35300 51.87400 29.88700
H  11.99800 51.74000 31.46100
H  10.67700 47.70400 32.09100
H  9.09900 47.32100 31.50400
H  7.98200 48.46400 33.33200
H  9.46600 49.20600 33.87700
H  15.83000 48.81200 27.24500
H  15.01900 49.89800 28.24300
H  15.79200 50.44600 26.73500
H  16.41900 50.01100 24.63900
H  16.78400 48.73300 23.47300
H  16.30600 48.37000 25.15100
H  9.96800 47.59000 21.66300
H  7.39700 49.22800 22.01400
H  10.62300 50.31000 21.57600
H  9.02000 50.11300 20.75600
H  10.29000 49.13600 20.15300
H  7.25800 46.22100 22.37300
H  8.11600 46.58600 20.99800
H  6.20600 46.96100 19.88400
H  5.81100 48.29400 21.00100
H  5.28400 46.63400 21.39000
H  3.75400 46.74100 26.21600
H  3.73300 48.02600 24.97900
H  3.07700 48.36500 26.53500
H  6.10600 49.25700 30.82500
H  4.91200 46.42400 33.74000
H  6.71100 46.71300 34.11000
H  6.03700 45.55000 32.91700
Mg -1.37300 34.64100 26.79800
C  -3.14500 33.06700 29.19900
C  -0.42600 37.06300 29.10700
C  -0.45600 36.70700 24.27600
C  -2.66900 32.28700 24.49700
N  -1.80000 35.05600 28.87500
C  -2.45300 34.14800 29.69500
C  -2.30000 34.54300 31.20600
C  -1.66000 35.92500 31.13500
C  -1.28300 36.00600 29.63900
C  -2.62400 37.14900 31.60000
C  -1.44200 33.50200 32.01000
C  -2.21700 32.73200 33.10800
H  -1.34400 32.62900 34.47200
N  -0.49500 36.55500 26.75300
C  -0.05000 37.34900 27.76700
C  0.64100 38.42400 27.26500
C  0.61300 38.45300 25.84200
C  -0.14000 37.16900 25.54000
C  1.38100 39.37600 28.25200
C  1.05700 39.45600 24.84300
O  0.99700 39.40900 23.62100
C  1.70400 40.65700 25.41100
N  -1.51900 34.52700 24.71000
C  -0.98500 35.44600 23.82600
C  -1.05600 34.96600 22.32600
C  -1.57600 33.42900 22.48100
C  -2.03200 33.41100 23.97200
C  -1.99900 35.98700 21.52100
C  -0.56600 32.29500 22.05500
C  0.50100 31.95600 23.02100
N  -2.54800 32.97700 26.82400
C  -3.02100 32.11600 25.80300
C  -3.83500 31.06600 26.34200
C  -3.90700 31.34100 27.72800
C  -3.18400 32.59800 27.92500
C  -4.60500 30.07000 25.54800
C  -4.41300 31.02400 28.97500
O  -5.04300 29.98000 29.27300
C  -3.99600 32.07200 29.94200
C  -5.17100 32.66300 30.68800
O  -5.91900 33.51200 30.26200
O  -5.30300 32.11600 31.91500
C  -6.53100 32.39800 32.65400
H  -0.07500 37.75400 29.87600
H  -0.06500 37.21000 23.38900
H  -3.18200 31.64100 23.78200
H  -3.29800 34.62000 31.63800
H  -0.79900 36.04400 31.79300
H  -3.67800 36.97700 31.81800
H  -2.58300 37.93300 30.84300
H  -2.19700 37.64900 32.46900
H  -0.52500 33.85900 32.47900
H  -1.01700 32.71800 31.38300
H  -2.43600 31.69200 32.86500
H  -3.13400 33.28900 33.29600
H  2.32000 39.66200 27.77700
H  1.58000 39.14800 29.30000
H  0.77300 40.27900 28.28300
H  1.64900 41.34800 24.57000
H  2.72600 40.33400 25.61300
H  1.15400 40.96700 26.30000
H  -0.09800 35.08300 21.82000
H  -2.43500 33.27900 21.82700
H  -2.90900 35.39400 21.43600
H  -1.57400 36.09300 20.52300
H  -2.21800 36.90600 22.06700
H  -0.11200 32.70300 21.15200
H  -1.13700 31.39000 21.84500
H  0.38000 32.50700 23.95400
H  1.43600 32.29000 22.57200
H  0.55000 30.88200 23.19700
H  -4.13000 29.76100 24.61700
H  -5.52800 30.55700 25.23500
H  -4.88100 29.24400 26.20300
H  -3.34300 31.70800 30.73500
H  -6.28400 32.94100 33.56600
H  -6.97700 31.53900 33.15500
H  -7.31300 32.78000 31.99700

