158

Mg -3.20400 16.99900 26.45400
C  -3.72400 14.80300 29.18800
C  -4.06400 19.54100 28.54600
C  -3.19800 18.99300 23.83300
C  -3.61200 14.19100 24.40700
N  -3.72100 17.12900 28.66500
C  -3.63100 16.09700 29.57800
C  -3.82600 16.65300 31.04400
C  -4.14400 18.16500 30.82900
C  -3.97400 18.31400 29.20600
C  -5.62700 18.53500 31.22800
C  -2.52700 16.21700 31.87700
C  -1.79600 17.26300 32.81500
H  -1.30100 16.85200 34.25200
N  -3.28400 18.96900 26.29400
C  -3.54000 19.89900 27.29700
C  -3.33400 21.23200 26.77000
C  -2.99200 21.01400 25.36300
C  -3.15500 19.59200 25.12600
C  -3.52200 22.50700 27.57900
C  -2.62100 22.14400 24.37200
O  -2.56300 21.90900 23.16500
C  -2.41700 23.51500 24.73400
N  -3.37400 16.57300 24.45400
C  -3.17800 17.61700 23.48800
C  -3.28200 16.97300 22.03900
C  -3.42500 15.48500 22.33500
C  -3.35500 15.38700 23.81700
C  -4.37700 17.60600 21.07200
C  -2.35400 14.57000 21.65000
C  -2.84600 14.11200 20.23500
N  -3.52200 14.94100 26.69400
C  -3.60000 13.97800 25.81400
C  -3.83100 12.71500 26.44500
C  -3.94400 13.01400 27.79800
C  -3.72300 14.36000 27.89900
C  -4.02400 11.42900 25.73900
C  -4.27900 12.40500 29.05000
O  -4.62700 11.24300 29.27300
C  -4.08200 13.54900 30.00500
C  -3.14300 13.14500 31.07800
O  -1.91300 13.05100 30.93100
O  -3.82500 12.98000 32.29400
C  -3.01900 12.54800 33.43500
H  -4.17000 20.45100 29.14100
H  -3.30300 19.64100 22.96000
H  -3.76900 13.31800 23.76900
H  -4.73900 16.23800 31.47100
H  -3.57200 18.87500 31.42700
H  -5.58300 19.00000 32.21300
H  -6.16400 17.61000 31.43900
H  -6.30500 19.14900 30.63600
H  -1.72200 15.82500 31.25600
H  -2.88300 15.44400 32.55800
H  -2.51400 18.06900 32.96700
H  -0.93500 17.78900 32.40400
H  -2.50400 22.77900 27.85700
H  -4.03600 22.26900 28.51100
H  -4.13300 23.23800 27.04900
H  -1.88100 24.07800 23.97000
H  -1.71000 23.45700 25.56200
H  -3.33200 24.04700 24.99200
H  -2.32100 17.29400 21.63700
H  -4.42800 15.14700 22.07200
H  -4.81200 18.58200 21.28500
H  -5.31000 17.06400 21.22500
H  -4.14500 17.46300 20.01700
H  -2.11100 13.75900 22.33600
H  -1.50300 15.24900 21.57900
H  -3.86800 14.39700 19.98500
H  -2.82600 13.02800 20.35300
H  -2.19400 14.37200 19.40100
H  -4.77200 10.85400 26.28500
H  -3.13900 10.80000 25.64800
H  -4.47700 11.70100 24.78600
H  -5.01500 13.82400 30.49700
H  -3.24500 11.48300 33.49800
H  -3.32900 13.14600 34.29200
H  -1.93400 12.64400 33.38300
Mg 35.06500 3.09500 30.20800
C  32.73400 3.94100 32.63800
C  37.40600 2.98200 32.61300
C  37.26100 2.48200 27.74600
C  32.53000 3.52800 27.73200
N  35.06800 3.40400 32.35500
C  33.97800 3.75400 33.14700
C  34.36000 3.75200 34.63100
C  36.00600 3.76200 34.51200
C  36.19500 3.46300 33.04800
C  36.76200 5.02100 35.04200
C  33.80700 2.55700 35.44000
C  33.45600 2.74700 36.92600
H  34.07500 3.90500 37.73000
N  37.13900 2.68200 30.23200
C  37.93000 2.59100 31.32000
C  39.20900 2.12400 30.98700
C  39.14700 1.91900 29.57200
C  37.80300 2.37200 29.10800
C  40.28800 1.72200 31.98100
C  40.23100 1.52400 28.60200
O  40.06500 1.30900 27.38500
C  41.60800 1.14700 29.14900
N  34.94600 3.17900 28.02800
C  35.97600 2.83000 27.26200
C  35.64800 2.76400 25.77700
C  34.12600 2.98900 25.77400
C  33.84700 3.22400 27.23400
C  36.44400 3.72300 24.89600
C  33.29500 1.81900 25.19000
C  32.88100 0.66000 26.18000
N  33.12500 3.76500 30.16000
C  32.20000 3.84900 29.07700
C  30.91300 4.11400 29.60800
C  31.11000 4.16200 30.97900
C  32.41700 3.91800 31.28800
C  29.66000 4.47900 28.77000
C  30.37600 4.48500 32.23200
O  29.24800 4.92000 32.44000
C  31.40500 4.15100 33.37600
C  31.33900 5.35400 34.26100
O  31.88500 6.40900 34.06900
O  30.69700 5.02600 35.50000
C  30.68700 6.22100 36.42000
H  38.19600 2.83400 33.35200
H  37.92600 2.08900 26.97400
H  31.72600 3.46000 26.99600
H  33.97200 4.70300 34.99600
H  36.52000 2.96500 35.04900
H  37.28900 4.77600 35.96400
H  35.97700 5.73800 35.28100
H  37.56600 5.41500 34.42000
H  34.65300 1.87000 35.45600
H  32.98300 2.06000 34.92800
H  33.71500 1.78600 37.37100
H  32.37600 2.81300 37.05500
H  41.21400 2.27300 31.82000
H  40.48200 0.65300 31.88600
H  39.93900 1.90800 32.99700
H  41.90700 2.02200 29.72600
H  42.31000 1.00700 28.32700
H  41.36900 0.22500 29.67900
H  35.86300 1.71100 25.59500
H  33.73800 3.90000 25.31800
H  35.91400 4.41100 24.23700
H  37.13300 3.20700 24.22700
H  37.11600 4.36600 25.46400
H  33.95000 1.52200 24.37000
H  32.34500 2.25100 24.87700
H  31.91900 0.26200 25.85400
H  32.88400 0.82500 27.25700
H  33.59100 -0.14500 25.98800
H  29.72200 5.52100 28.45400
H  28.91900 4.43000 29.56800
H  29.56600 3.69900 28.01400
H  31.11000 3.28100 33.96300
H  30.37800 7.22300 36.12100
H  31.62300 6.19600 36.97700
H  29.82100 6.07900 37.06700

