158

Mg 24.36900 -7.05000 47.94900
C  26.49000 -4.54800 46.83300
C  22.06800 -6.07100 45.48200
C  22.49100 -9.72000 48.74800
C  26.91600 -8.23100 50.04500
N  24.40200 -5.65300 46.13700
C  25.31900 -4.64300 46.03500
C  24.96500 -3.69000 44.95200
C  23.39700 -4.00500 44.62100
C  23.32900 -5.32300 45.38700
C  22.49500 -2.89000 45.07600
C  25.89600 -3.94600 43.76500
C  26.47600 -2.70500 43.16200
H  25.57800 -2.05700 42.08800
N  22.51600 -7.79200 47.18600
C  21.71500 -7.25700 46.19700
C  20.63300 -8.13700 45.93400
C  20.75200 -9.29200 46.74500
C  21.89100 -8.98000 47.67400
C  19.50200 -7.87100 44.90200
C  19.88100 -10.51900 46.81300
O  18.78900 -10.53600 46.21300
C  20.32200 -11.68500 47.58200
N  24.73800 -8.75100 49.10700
C  23.75300 -9.61000 49.40400
C  24.27000 -10.64800 50.48600
C  25.71200 -10.19600 50.81000
C  25.82300 -9.03300 49.95400
C  23.39300 -10.65400 51.74200
C  26.82200 -11.22200 50.50700
C  27.74200 -11.51000 51.72300
N  26.26200 -6.44400 48.45300
C  27.17600 -7.04100 49.27600
C  28.37900 -6.26500 49.19100
C  28.08700 -5.23900 48.27300
C  26.82900 -5.43400 47.79100
C  29.63300 -6.60000 49.98900
C  28.70600 -4.15300 47.61200
O  29.84800 -3.64700 47.72300
C  27.63100 -3.52200 46.75600
C  27.15500 -2.23600 47.08600
O  26.52300 -1.91900 48.08300
O  27.70600 -1.29000 46.18000
C  27.00300 -0.00600 46.29500
H  21.41700 -5.81200 44.64400
H  21.81300 -10.44500 49.20300
H  27.78900 -8.50900 50.64000
H  25.08600 -2.70000 45.38900
H  23.34600 -4.10200 43.53600
H  21.84700 -2.50000 44.29100
H  22.96800 -2.01300 45.51700
H  21.81600 -3.30500 45.82100
H  25.51600 -4.54700 42.94000
H  26.71200 -4.55100 44.16100
H  27.40000 -3.06300 42.70900
H  26.64500 -1.93500 43.91500
H  19.47700 -8.70000 44.19500
H  19.50400 -6.91800 44.37200
H  18.54000 -7.91200 45.41300
H  21.41000 -11.73500 47.61400
H  19.94300 -12.59500 47.11700
H  19.95100 -11.71800 48.60600
H  24.24900 -11.63400 50.02100
H  25.93600 -9.74800 51.77800
H  23.60000 -9.83400 52.43000
H  23.73900 -11.57600 52.20800
H  22.31700 -10.62000 51.56800
H  27.46300 -10.85500 49.70500
H  26.31200 -12.16400 50.30800
H  27.69900 -12.59700 51.79200
H  27.21500 -11.13600 52.60100
H  28.71900 -11.04200 51.59900
H  30.03100 -7.60000 49.81800
H  29.49000 -6.43200 51.05700
H  30.44300 -5.96100 49.63500
H  28.15300 -3.53000 45.79900
H  27.26200 0.58400 47.17500
H  25.91600 -0.03800 46.37300
H  27.31700 0.64600 45.48000
Mg -10.80800 17.24300 42.68100
C  -7.41600 16.53000 42.84900
C  -9.94800 20.53900 42.15900
C  -13.99000 17.74500 41.81900
C  -11.42400 13.62300 42.62900
N  -8.82800 18.38800 42.63700
C  -7.63000 17.90700 42.65200
C  -6.56000 19.00300 42.32700
C  -7.42700 20.29000 42.37000
C  -8.84800 19.71800 42.41800
C  -7.06200 21.34000 43.49300
C  -5.68000 18.77700 41.00300
C  -6.42300 18.24500 39.69500
H  -5.65300 18.07000 38.40700
N  -11.85300 18.89700 42.01800
C  -11.32300 20.17000 41.93400
C  -12.42200 21.07500 41.48300
C  -13.51400 20.22900 41.29300
C  -13.14200 18.84600 41.73000
C  -12.14300 22.58300 41.18600
C  -14.86400 20.75100 40.77400
O  -15.10000 21.95200 40.73900
C  -16.01100 19.75200 40.28500
N  -12.44800 15.88100 42.17100
C  -13.70300 16.40000 42.03300
C  -14.74700 15.29000 41.96700
C  -13.89200 13.99300 42.14700
C  -12.50100 14.50800 42.38700
C  -16.04400 15.49600 42.84800
C  -14.01800 12.91700 41.06100
C  -14.54000 11.45500 41.38200
N  -9.69100 15.41000 42.98800
C  -10.06700 14.05600 42.87900
C  -8.82600 13.22100 42.96800
C  -7.77400 14.13600 42.98100
C  -8.34300 15.45500 42.95500
C  -8.86800 11.71500 42.96300
C  -6.38100 14.27200 43.01500
O  -5.53300 13.38400 43.06500
C  -6.05100 15.80800 42.94900
C  -5.31800 16.33300 44.09700
O  -4.23400 16.91400 44.00300
O  -5.92500 15.87700 45.23600
C  -5.20600 16.07500 46.51800
H  -9.73700 21.61000 42.20100
H  -15.07200 17.89200 41.81500
H  -11.66100 12.56400 42.51200
H  -5.82000 19.05200 43.12600
H  -7.38300 20.75600 41.38500
H  -6.77500 22.31500 43.09900
H  -6.26600 20.91300 44.10400
H  -7.88000 21.50100 44.19500
H  -4.92300 18.01800 41.19900
H  -5.22900 19.74900 40.80100
H  -7.16700 19.01000 39.47000
H  -6.82100 17.24500 39.86800
H  -12.79600 23.00000 40.41900
H  -11.13400 22.64500 40.77900
H  -12.12200 23.17000 42.10400
H  -16.66600 19.57600 41.13900
H  -15.64900 18.77100 39.97900
H  -16.46000 20.18000 39.38800
H  -15.15700 15.35500 40.95900
H  -14.16800 13.58600 43.11900
H  -16.78300 16.01000 42.23400
H  -15.68500 16.06500 43.70600
H  -16.45000 14.52100 43.11800
H  -13.08900 12.59500 40.59300
H  -14.62600 13.28900 40.23600
H  -15.26000 11.17300 40.61300
H  -15.19000 11.39600 42.25500
H  -13.78400 10.67100 41.36000
H  -8.00600 11.26700 42.46900
H  -9.69300 11.31700 42.37100
H  -8.87500 11.42300 44.01400
H  -5.34700 15.93400 42.12600
H  -4.47100 15.27100 46.49500
H  -5.97000 15.75400 47.22700
H  -4.63400 16.96700 46.77100

