158

Mg -0.26900 7.50000 26.71100
C  0.85100 9.73400 29.05300
C  -0.63200 5.11600 29.28100
C  -1.03200 5.18200 24.43200
C  0.38300 9.78600 24.25400
N  0.12500 7.45400 28.81600
C  0.52500 8.50400 29.59000
C  0.42300 8.20700 31.05300
C  0.46000 6.64000 31.07100
C  -0.00300 6.37400 29.58600
C  1.83600 5.98200 31.41100
C  -0.86100 8.86900 31.78900
C  -0.88900 8.80000 33.33800
H  0.32300 8.36600 34.15300
N  -0.84200 5.40000 26.87700
C  -0.93500 4.63300 27.99100
C  -1.36200 3.21200 27.59300
C  -1.47800 3.25700 26.18600
C  -1.09200 4.59200 25.73500
C  -1.46000 2.00000 28.52600
C  -1.74900 2.03700 25.18900
O  -1.54900 2.12000 23.98600
C  -2.19900 0.71400 25.80600
N  -0.37600 7.52800 24.66100
C  -0.75000 6.44600 23.89900
C  -0.97000 6.81100 22.42100
C  -0.75700 8.39700 22.43100
C  -0.19000 8.59500 23.89300
C  -0.04900 6.11300 21.40800
C  -2.08200 9.22000 22.18700
C  -2.17800 10.08600 20.91300
N  0.52200 9.38700 26.63700
C  0.71700 10.19900 25.57500
C  1.27400 11.46800 25.95400
C  1.31400 11.41000 27.38500
C  0.90400 10.11300 27.68000
C  1.58600 12.55800 24.93600
C  1.64900 12.13200 28.62500
O  2.09100 13.22300 28.86100
C  1.32300 11.03700 29.74900
C  2.56000 10.80200 30.59300
O  3.50200 10.14800 30.20800
O  2.34100 11.37200 31.83800
C  3.43300 10.99300 32.71800
H  -0.62500 4.29400 30.00000
H  -1.36100 4.44700 23.69400
H  0.53900 10.57500 23.51500
H  1.24700 8.70700 31.56300
H  -0.38100 6.14600 31.55700
H  2.44800 5.64900 30.57300
H  1.63500 5.13700 32.07000
H  2.49300 6.67500 31.93700
H  -1.72300 8.30800 31.42800
H  -0.82300 9.89100 31.41100
H  -1.66400 8.06400 33.55400
H  -1.18300 9.76200 33.75700
H  -0.94400 1.06900 28.28800
H  -2.53700 1.83100 28.51800
H  -1.36800 2.20400 29.59300
H  -2.54300 0.13900 24.94600
H  -3.06800 0.77500 26.46100
H  -1.40400 0.22700 26.37000
H  -1.98500 6.58100 22.09900
H  -0.04800 8.81800 21.71800
H  0.91900 5.87500 21.84800
H  0.13100 6.90500 20.68200
H  -0.56800 5.22100 21.05800
H  -2.24800 9.92700 23.00000
H  -2.92700 8.55200 22.35400
H  -1.38400 9.89600 20.19000
H  -2.00500 11.12300 21.20000
H  -3.19100 10.05500 20.51100
H  0.89500 12.54900 24.09300
H  2.52900 12.22700 24.50100
H  1.53700 13.55000 25.38400
H  0.50300 11.40300 30.36600
H  3.47500 9.93900 32.99200
H  3.27400 11.60400 33.60700
H  4.43600 11.30000 32.41900
Mg -12.46300 38.48800 41.30500
C  -10.35900 35.74600 40.35500
C  -10.17900 40.56600 39.68100
C  -14.69700 40.87800 41.32500
C  -14.81900 36.05600 42.31400
N  -10.42600 38.19700 40.31700
C  -9.73600 36.99700 40.07800
C  -8.47200 37.18700 39.34000
C  -8.31000 38.73000 39.27100
C  -9.73800 39.23600 39.81700
C  -7.15200 39.39600 40.03200
C  -8.42100 36.44400 37.95700
C  -7.22200 35.47900 37.74700
H  -6.29600 35.82800 36.52700
N  -12.47000 40.57200 40.75700
C  -11.42100 41.21100 40.05600
C  -11.75700 42.64900 39.99700
C  -13.07100 42.75300 40.37600
C  -13.49300 41.36600 40.89800
C  -10.86700 43.63500 39.22100
C  -13.93100 43.95200 40.22300
O  -13.36900 45.01800 39.87600
C  -15.34700 43.88200 40.31100
N  -14.37100 38.43500 41.72200
C  -15.15900 39.59600 41.59200
C  -16.64400 39.41100 42.02200
C  -16.69900 37.81400 42.26800
C  -15.23600 37.37700 42.13600
C  -17.15800 40.32800 43.11600
C  -17.68900 37.07500 41.35400
C  -18.84400 36.13400 41.97100
N  -12.66100 36.34700 41.31100
C  -13.55500 35.52500 41.95300
C  -13.08600 34.12600 41.87100
C  -11.88200 34.20000 41.19000
C  -11.59200 35.56000 40.94900
C  -13.71000 32.95600 42.56500
C  -10.78000 33.45100 40.76000
O  -10.71400 32.18800 40.80000
C  -9.73200 34.38400 40.23300
C  -8.50600 34.16600 41.03200
O  -7.62300 33.47900 40.61400
O  -8.43200 34.88600 42.19900
C  -7.13700 34.86600 42.84200
H  -9.54700 41.09200 38.96200
H  -15.41000 41.70200 41.40900
H  -15.44700 35.26400 42.72600
H  -7.65800 36.90400 40.00800
H  -8.29500 39.03000 38.22300
H  -6.49600 38.69600 40.55100
H  -7.63600 40.01700 40.78600
H  -6.60400 39.94500 39.26700
H  -8.43300 37.16500 37.14000
H  -9.30500 35.82900 37.78400
H  -7.49800 34.46600 37.45200
H  -6.56800 35.46800 38.61900
H  -10.61800 44.42300 39.93100
H  -11.35700 44.05600 38.34300
H  -9.89500 43.22400 38.94900
H  -15.48100 44.10400 41.37000
H  -15.84000 43.02000 39.86100
H  -15.76400 44.76600 39.82900
H  -17.11300 39.62100 41.06100
H  -16.87300 37.61100 43.32500
H  -16.51700 41.05900 43.60900
H  -17.51800 39.75100 43.96700
H  -18.12300 40.69900 42.77000
H  -17.02100 36.45400 40.75700
H  -18.14300 37.86800 40.76000
H  -19.80800 36.54100 41.66700
H  -18.75500 36.14800 43.05700
H  -18.64200 35.16100 41.52300
H  -14.61400 32.50300 42.15900
H  -14.00800 33.31500 43.55000
H  -12.96800 32.18300 42.76500
H  -9.63100 34.06800 39.19500
H  -6.40500 35.48600 42.32400
H  -6.83300 33.86300 43.14200
H  -7.35100 35.49400 43.70700

