158

Mg 17.10200 52.36200 25.94400
C  19.04900 51.17400 28.53000
C  14.60900 52.97700 28.19400
C  15.41700 53.61900 23.39400
C  19.65900 51.38500 23.74800
N  16.83300 52.07900 28.10100
C  17.84600 51.72800 28.95800
C  17.39100 51.95000 30.44300
C  15.81800 52.12300 30.18900
C  15.70200 52.35300 28.71400
C  14.92100 51.07600 30.70100
C  17.90600 53.30100 30.99300
C  17.89500 53.55400 32.49300
H  16.70100 53.11100 33.41700
N  15.28500 53.20000 25.79300
C  14.40700 53.32500 26.82000
C  13.26700 54.10100 26.31600
C  13.46600 54.25500 24.94900
C  14.75400 53.66600 24.63900
C  12.16100 54.49900 27.20000
C  12.51800 54.86400 23.91600
O  12.84200 54.98400 22.73500
C  11.20300 55.35500 24.33600
N  17.39300 52.33000 23.83600
C  16.60700 52.98800 22.94200
C  17.11100 52.95800 21.53400
C  18.50500 52.22100 21.71800
C  18.58700 52.05600 23.24800
C  16.09900 52.31400 20.57100
C  19.68300 52.93900 21.03000
C  20.09800 54.22800 21.72600
N  18.81800 51.37100 26.02000
C  19.82600 51.02900 25.06100
C  20.92300 50.33800 25.65500
C  20.64700 50.39300 27.00000
C  19.38100 51.01400 27.18700
C  22.03800 49.63800 24.93500
C  21.26200 49.98000 28.23400
O  22.28900 49.36000 28.55800
C  20.30600 50.59500 29.31200
C  19.80400 49.60400 30.25300
O  19.24400 48.57600 29.93100
O  20.03100 50.04800 31.51700
C  19.49500 49.22600 32.57600
H  13.87300 53.35000 28.90900
H  14.95100 54.02700 22.49500
H  20.45400 51.10700 23.05300
H  17.57000 51.08800 31.08600
H  15.42900 53.01200 30.68400
H  15.46500 50.42500 31.38600
H  14.63800 50.48200 29.83200
H  14.04800 51.40800 31.26400
H  17.32000 54.14200 30.62300
H  18.94600 53.33500 30.66700
H  18.21300 54.55000 32.80100
H  18.64700 52.90400 32.94100
H  12.30600 54.16700 28.22800
H  11.19600 54.19400 26.79500
H  12.18200 55.56400 27.43000
H  10.58500 55.51300 23.45200
H  11.22800 56.33900 24.80400
H  10.64400 54.54300 24.80100
H  17.32600 53.95700 21.15700
H  18.60400 51.21600 21.30800
H  15.57100 53.15000 20.11300
H  15.39200 51.65400 21.07300
H  16.64400 51.71000 19.84500
H  19.28700 53.24700 20.06300
H  20.50400 52.25300 20.82000
H  21.18000 54.33200 21.81100
H  19.66900 54.23000 22.72800
H  19.54400 54.99500 21.18500
H  22.06300 48.56600 24.74000
H  22.90200 49.66600 25.59900
H  22.12600 50.06500 23.93600
H  20.82700 51.33500 29.92000
H  19.11100 49.79600 33.42200
H  20.42000 48.76200 32.91700
H  18.78500 48.41800 32.39700
Mg -6.00400 25.27300 26.58600
C  -4.53400 26.77200 29.38900
C  -8.02500 23.52500 28.56700
C  -6.93700 23.73700 23.82900
C  -3.36800 26.87200 24.62500
N  -6.12300 24.99900 28.75500
C  -5.53600 25.84500 29.67200
C  -6.09400 25.53000 31.05600
C  -7.20900 24.45500 30.82100
C  -7.12500 24.31700 29.30400
C  -6.96800 23.16700 31.53800
C  -6.64000 26.79500 31.74100
C  -6.54600 26.91900 33.25900
H  -5.89300 25.82700 34.13100
N  -7.47300 24.02300 26.19200
C  -8.21000 23.37200 27.15700
C  -9.22200 22.60300 26.52000
C  -8.87600 22.44600 25.15500
C  -7.73400 23.42000 24.94100
C  -10.47000 22.07700 27.29300
C  -9.45800 21.42300 24.18300
O  -9.02400 21.33000 23.04400
C  -10.48000 20.30500 24.63600
N  -5.19800 25.20900 24.52200
C  -5.81000 24.45700 23.60800
C  -5.19500 24.65300 22.17400
C  -4.07200 25.76200 22.42800
C  -4.24400 26.04500 23.99700
C  -4.73200 23.35100 21.51200
C  -4.16200 27.04700 21.45000
C  -3.11300 27.10200 20.35900
N  -4.25800 26.56600 26.88900
C  -3.33100 27.16400 26.01800
C  -2.43300 28.00600 26.75200
C  -2.92600 27.90800 28.07200
C  -3.97600 27.01500 28.09300
C  -1.41700 28.87900 26.20400
C  -2.65400 28.38600 29.49300
O  -1.76900 29.09900 29.99500
C  -3.71000 27.63300 30.35700
C  -2.96300 26.88300 31.36400
O  -2.24200 25.95900 31.11700
O  -3.00100 27.53400 32.55600
C  -2.11200 27.04400 33.61600
H  -8.82900 23.09200 29.16600
H  -7.46200 23.44800 22.91600
H  -2.63600 27.32500 23.95200
H  -5.29000 25.15700 31.69000
H  -8.20200 24.77500 31.13400
H  -7.83700 22.62000 31.90400
H  -6.29400 23.33600 32.37800
H  -6.38800 22.50700 30.89200
H  -7.70100 26.91900 31.52400
H  -6.22100 27.66500 31.23500
H  -7.48300 27.16500 33.75800
H  -5.87600 27.74400 33.50100
H  -11.36500 22.36400 26.74100
H  -10.61000 22.47400 28.29800
H  -10.48000 20.99200 27.40200
H  -9.93200 19.78900 25.42400
H  -10.61800 19.65100 23.77500
H  -11.48000 20.63400 24.91800
H  -5.87500 25.08800 21.44200
H  -3.12500 25.24000 22.29100
H  -3.65500 23.21200 21.59900
H  -5.07900 23.18100 20.49300
H  -5.08900 22.52600 22.12900
H  -4.16100 27.90600 22.12200
H  -5.15700 27.07500 21.00600
H  -2.31900 26.40000 20.61500
H  -2.81400 28.14000 20.21400
H  -3.63900 26.70900 19.48900
H  -1.27500 28.62100 25.15400
H  -0.51600 28.79400 26.81200
H  -1.82800 29.88800 26.20200
H  -4.31100 28.40000 30.84500
H  -1.87800 25.98700 33.49000
H  -2.52100 27.22300 34.61000
H  -1.12800 27.51300 33.58400

