158

Mg 43.75900 4.46800 46.71900
C  41.68100 7.11100 46.76500
C  41.19400 2.26200 46.32900
C  46.00800 1.80900 46.91100
C  46.61100 6.75500 46.74600
N  41.75200 4.68200 46.40200
C  41.09100 5.82800 46.65800
C  39.60000 5.66000 46.63000
C  39.46800 4.08400 46.68800
C  40.88200 3.66400 46.41000
C  38.96200 3.54300 48.06000
C  38.86200 6.29400 45.40100
C  39.62200 6.28800 44.03400
H  38.80300 5.94200 42.77500
N  43.63300 2.31000 46.47100
C  42.45300 1.65800 46.39200
C  42.73900 0.24000 46.28900
C  44.16100 0.09900 46.30600
C  44.69100 1.43500 46.63000
C  41.74700 -0.87300 46.20500
C  44.99700 -1.18000 46.00100
O  44.40200 -2.23700 45.86100
C  46.49200 -1.11800 45.82900
N  45.95000 4.24900 46.84300
C  46.56700 3.09200 47.02400
C  48.08500 3.28300 47.24700
C  48.17700 4.86300 47.40500
C  46.82100 5.38100 46.95300
C  48.55800 2.49500 48.43500
C  49.33200 5.37500 46.41300
C  50.76200 4.88800 46.52900
N  44.13300 6.52000 46.58900
C  45.29100 7.34000 46.67100
C  44.88000 8.72200 46.77800
C  43.47400 8.71200 46.78600
C  43.11600 7.34400 46.63400
C  45.94400 9.83600 46.92200
C  42.31800 9.49000 46.98700
O  42.20600 10.68700 47.19600
C  41.07500 8.45100 46.98100
C  40.26100 8.55500 48.21700
O  40.63100 8.36000 49.39900
O  38.97300 8.95900 47.87700
C  38.04400 9.10900 49.04600
H  40.35500 1.56900 46.23700
H  46.71800 0.99300 47.06500
H  47.34800 7.55900 46.78600
H  39.21100 6.05600 47.56900
H  38.67500 3.89900 45.96400
H  38.54700 4.32300 48.69800
H  39.76800 3.17700 48.69700
H  38.20900 2.76000 47.97600
H  38.64500 7.33600 45.63600
H  37.86300 5.88200 45.25800
H  40.53200 5.68900 44.08100
H  39.92800 7.31700 43.84500
H  40.77300 -0.47400 46.48700
H  41.92700 -1.70800 46.88300
H  41.80000 -1.32500 45.21500
H  46.93200 -1.23000 46.82000
H  46.87500 -0.19400 45.39500
H  46.80200 -1.93200 45.17300
H  48.66100 2.99400 46.36800
H  48.44300 5.22900 48.39700
H  48.09200 1.52900 48.62500
H  48.59100 3.06300 49.36500
H  49.60000 2.27100 48.20400
H  49.44900 6.35600 46.87400
H  48.91300 5.52000 45.41700
H  51.36900 5.74200 46.82700
H  51.09100 4.52000 45.55700
H  50.93700 3.99600 47.13100
H  46.67700 9.57600 46.15800
H  46.32400 9.77100 47.94200
H  45.59300 10.84100 46.68900
H  40.53700 8.69500 46.06500
H  38.38300 8.85000 50.04900
H  37.17600 8.53400 48.72200
H  37.68900 10.13900 49.04900
Mg 53.60900 23.78200 44.44800
C  50.84900 25.90000 44.05200
C  51.65300 20.98800 43.92800
C  56.35500 21.81200 44.28800
C  55.58000 26.58600 44.78200
N  51.54800 23.48900 44.00600
C  50.58900 24.52700 43.88700
C  49.18800 23.91700 43.73200
C  49.45700 22.37400 43.91700
C  50.99500 22.25000 43.99300
C  48.76600 21.81300 45.17800
C  48.46500 24.33900 42.38500
C  49.32000 24.12700 41.10200
H  48.66500 23.19900 40.00800
N  54.00300 21.66700 44.10400
C  53.07300 20.75300 43.87300
C  53.72600 19.46500 43.71100
C  55.11800 19.63000 43.76600
C  55.22300 21.08200 44.02000
C  52.93800 18.15900 43.40500
C  56.16100 18.50300 43.66200
O  55.77400 17.32900 43.63500
C  57.66000 18.77100 43.46800
N  55.63800 24.11900 44.43100
C  56.53100 23.11100 44.47000
C  57.97500 23.67100 44.42500
C  57.75300 25.25000 44.51200
C  56.23100 25.31800 44.65300
C  58.90300 23.04800 45.41700
C  58.35300 26.12200 43.35000
C  58.58800 27.64000 43.74700
N  53.34400 25.88600 44.51500
C  54.25400 26.84600 44.85500
C  53.60400 28.09300 45.07400
C  52.22400 27.79700 44.63600
C  52.12100 26.43000 44.39700
C  54.19300 29.40900 45.48600
C  50.88300 28.29900 44.40600
O  50.52900 29.48000 44.55700
C  49.92200 27.10100 44.04300
C  49.52200 27.47500 42.65000
O  50.24300 27.31300 41.65800
O  48.33600 28.06700 42.71600
C  47.63000 28.61800 41.55900
H  50.88600 20.22700 43.76700
H  57.19000 21.16400 44.56400
H  56.26300 27.38200 45.08700
H  48.66600 24.38800 44.56400
H  49.12800 21.82300 43.03600
H  48.35000 22.56000 45.85400
H  49.53100 21.23000 45.69200
H  47.97200 21.13600 44.86300
H  48.05900 25.34900 42.41800
H  47.53400 23.77600 42.32400
H  50.28200 23.64800 41.28400
H  49.57900 25.09800 40.67900
H  53.44400 17.56400 42.64400
H  51.88100 18.33200 43.20300
H  53.00400 17.38200 44.16600
H  57.95300 17.89300 42.89300
H  58.16100 18.68100 44.43200
H  57.76200 19.70800 42.92000
H  58.35200 23.55700 43.40900
H  58.12400 25.69100 45.43700
H  59.60500 23.78300 45.81200
H  59.53600 22.34200 44.87900
H  58.36400 22.50900 46.19600
H  57.66600 26.13200 42.50400
H  59.31500 25.70800 43.04900
H  59.36600 28.11300 43.14800
H  58.75700 27.71000 44.82200
H  57.69400 28.21300 43.50200
H  53.53900 30.20600 45.13000
H  55.20500 29.42200 45.08300
H  54.29100 29.44100 46.57100
H  49.14600 27.12100 44.80900
H  47.89900 27.89200 40.79100
H  48.04000 29.62300 41.46000
H  46.57400 28.40700 41.72400

