158

Mg 48.18900 34.91000 27.81900
C  46.29700 33.28500 30.22900
C  48.34800 37.66800 30.07400
C  49.37100 36.99900 25.39700
C  47.62700 32.44800 25.60800
N  47.39800 35.35200 29.92100
C  46.79400 34.45500 30.74600
C  46.86300 35.02800 32.20600
C  47.06000 36.50600 31.93300
C  47.68100 36.50600 30.55300
C  45.80600 37.41500 32.22300
C  48.14700 34.34800 32.87600
C  48.44700 34.51700 34.36700
H  47.54100 35.48600 35.20300
N  48.84800 36.98100 27.74900
C  48.90000 37.88900 28.81400
C  49.66300 39.02000 28.43500
C  49.91000 38.93600 27.02700
C  49.28500 37.61400 26.63200
C  49.95600 40.16800 29.39200
C  50.65100 39.92300 26.02900
O  50.80500 39.62700 24.86200
C  51.12300 41.29000 26.50800
N  48.22200 34.89100 25.73700
C  48.88300 35.74900 24.94400
C  48.99300 35.21900 23.51400
C  48.63900 33.69600 23.69900
C  48.16500 33.66900 25.12900
C  48.07500 36.07100 22.54600
C  49.83900 32.82700 23.33600
C  49.39400 31.58200 22.52900
N  47.23800 33.09500 27.87700
C  47.04300 32.17500 26.94100
C  46.41100 30.96700 27.43800
C  46.08600 31.36800 28.72900
C  46.58700 32.71900 28.95900
C  45.93600 29.69800 26.76000
C  45.31600 31.07100 29.99100
O  44.61800 30.08700 30.24500
C  45.38500 32.29200 30.93200
C  45.76200 31.74800 32.33100
O  46.66700 31.00500 32.59300
O  44.82400 32.12300 33.21900
C  45.11100 31.79400 34.62700
H  48.48500 38.39600 30.87600
H  49.75300 37.54700 24.53300
H  47.49000 31.71300 24.81100
H  45.98400 34.69200 32.75600
H  47.71000 36.95500 32.68400
H  44.92100 36.87200 32.55400
H  45.40600 38.05900 31.44100
H  45.91900 38.04400 33.10600
H  49.07500 34.66700 32.40100
H  48.18100 33.26400 32.77200
H  49.44700 34.89800 34.57300
H  48.43500 33.58200 34.92800
H  50.97000 40.54500 29.25400
H  49.92700 39.87900 30.44200
H  49.27100 41.00400 29.25300
H  50.43200 41.71800 27.23400
H  51.13300 41.91000 25.61100
H  52.13900 41.23400 26.89900
H  50.04000 35.34900 23.24000
H  47.75000 33.39600 23.14400
H  47.18400 35.44600 22.50300
H  48.47400 36.42300 21.59500
H  47.98200 37.00300 23.10400
H  50.34500 32.48400 24.23800
H  50.62300 33.38200 22.82000
H  48.82100 31.83200 21.63600
H  48.71800 31.02600 23.17800
H  50.18800 30.91400 22.19600
H  44.98200 29.56600 26.25000
H  45.73300 28.92700 27.50300
H  46.71400 29.35600 26.07700
H  44.44100 32.82700 31.03800
H  46.05300 31.28400 34.82800
H  44.25700 31.14100 34.80700
H  45.14400 32.74800 35.15400
Mg 0.07400 43.46200 26.34600
C  1.87900 43.41800 29.23800
C  -2.74500 42.86600 28.16400
C  -1.44600 42.65400 23.44500
C  3.04600 43.91400 24.47600
N  -0.33700 43.06100 28.48800
C  0.50800 43.22100 29.47900
C  -0.19600 43.03600 30.80200
C  -1.62700 42.50600 30.44600
C  -1.59700 42.91800 28.97300
C  -2.01300 41.06000 30.73300
C  -0.27100 44.41600 31.50900
C  0.33100 44.52800 32.88400
H  -0.02100 43.43400 33.97300
N  -1.80600 42.92300 25.88400
C  -2.87700 42.81600 26.75500
C  -4.07300 42.51200 25.98600
C  -3.76500 42.50800 24.55800
C  -2.27600 42.66900 24.57400
C  -5.42900 42.46300 26.75600
C  -4.60400 42.33500 23.33700
O  -4.15100 42.28400 22.20100
C  -6.07500 42.49700 23.59300
N  0.68500 43.37700 24.16900
C  -0.11200 42.96900 23.22500
C  0.57800 42.86600 21.93900
C  2.01000 43.52600 22.20800
C  1.95700 43.60700 23.76600
C  0.68800 41.40700 21.38900
C  2.08300 44.96100 21.52100
C  3.47500 45.30300 21.06600
N  2.05500 43.62500 26.72300
C  3.19800 43.82900 25.92400
C  4.36500 43.99500 26.73600
C  3.93600 43.83500 28.03300
C  2.50400 43.64300 27.97200
C  5.78100 44.20800 26.25200
C  4.28300 43.77400 29.40300
O  5.45000 43.88200 29.86900
C  2.95400 43.58400 30.26800
C  3.31300 42.45100 31.07300
O  3.42300 41.32200 30.68400
O  3.65900 42.89100 32.34100
C  3.98900 41.86100 33.30100
H  -3.58900 42.77400 28.85000
H  -1.82700 42.43000 22.44600
H  3.93300 43.97600 23.84200
H  0.32300 42.33400 31.45500
H  -2.37500 43.05800 31.01400
H  -1.16700 40.56800 31.21400
H  -2.29400 40.54800 29.81300
H  -2.77100 41.13900 31.51300
H  -1.29600 44.77300 31.60900
H  0.30100 45.05900 30.83900
H  -0.07800 45.44000 33.31900
H  1.41200 44.63500 32.79400
H  -6.03800 43.32000 26.46900
H  -5.35500 42.64000 27.82900
H  -5.90700 41.50000 26.57800
H  -6.63200 42.45400 22.65700
H  -6.11300 43.44400 24.13100
H  -6.45000 41.79100 24.33400
H  0.04100 43.47200 21.21000
H  2.81700 42.84900 21.93100
H  0.80300 40.66700 22.18100
H  1.67700 41.37900 20.93100
H  -0.23100 41.22800 20.83200
H  1.76500 45.69700 22.26000
H  1.44800 45.07800 20.64300
H  3.60600 44.74600 20.13900
H  4.23600 44.86300 21.71100
H  3.76200 46.35400 21.02600
H  6.36500 43.29100 26.17200
H  6.29200 44.80400 27.00900
H  5.85900 44.71300 25.28900
H  2.75500 44.47500 30.86400
H  4.63700 41.11400 32.84100
H  3.06400 41.37700 33.61300
H  4.39700 42.26700 34.22600

