158

Mg 3.04300 -0.99900 43.68100
C  6.45500 -0.18900 42.98000
C  2.16400 1.50300 41.55400
C  -0.18600 -2.16900 43.83800
C  4.19500 -3.72100 45.52000
N  4.19500 0.32700 42.23800
C  5.54300 0.50300 42.13500
C  5.84700 1.61400 41.14700
C  4.50300 2.32500 40.94100
C  3.53600 1.42400 41.71200
C  4.43000 3.84000 41.26800
C  6.58000 1.20500 39.78400
C  7.66300 2.15900 39.38100
H  7.46800 2.83500 38.04500
N  1.25100 -0.37300 42.93500
C  1.10900 0.72300 42.08400
C  -0.32900 1.02000 41.93700
C  -1.05400 0.01400 42.71000
C  -0.01100 -0.94000 43.18700
C  -0.90000 2.16600 41.12900
C  -2.64300 -0.06300 42.91900
O  -3.23300 0.83900 42.32400
C  -3.36900 -1.08800 43.86700
N  2.12600 -2.75600 44.42700
C  0.78100 -2.99900 44.47100
C  0.54400 -4.47900 44.85900
C  1.83400 -4.75800 45.66600
C  2.79300 -3.71000 45.16800
C  -0.88200 -4.75300 45.53900
C  2.43000 -6.23500 45.52600
C  1.73600 -7.32800 44.72200
N  4.85900 -1.75900 44.23600
C  5.20600 -2.87900 45.04200
C  6.67200 -2.90100 45.29700
C  7.07900 -1.78200 44.51100
C  6.00900 -1.21700 43.85000
C  7.46600 -3.86700 46.04600
C  8.30100 -1.09700 44.15600
O  9.47200 -1.38600 44.37500
C  7.97000 0.02400 43.23900
C  8.27600 1.25400 43.93500
O  7.61500 1.60600 44.90100
O  9.22900 1.95400 43.28800
C  9.56500 3.27100 43.81500
H  1.92600 2.36000 40.92100
H  -1.23300 -2.44900 43.97100
H  4.47400 -4.46200 46.27200
H  6.44500 2.28600 41.76300
H  4.07600 2.28500 39.93900
H  5.38000 4.37200 41.30300
H  3.90200 3.92200 42.21800
H  3.94100 4.42500 40.48900
H  5.89700 1.01600 38.95600
H  7.05000 0.22700 39.89600
H  8.55700 1.54300 39.28400
H  7.88400 2.96700 40.07800
H  -0.21200 2.73600 40.50500
H  -1.42800 2.81100 41.83100
H  -1.51100 1.74000 40.33300
H  -4.41800 -0.84600 44.03900
H  -2.91200 -1.07300 44.85700
H  -3.26400 -2.10100 43.47800
H  0.56100 -5.10300 43.96600
H  1.55200 -4.57200 46.70300
H  -0.80500 -5.18800 46.53500
H  -1.34900 -5.55300 44.96500
H  -1.49600 -3.85600 45.61600
H  2.49100 -6.66100 46.52700
H  3.38900 -6.22800 45.00900
H  1.97900 -8.29900 45.15300
H  2.05300 -7.41700 43.68300
H  0.67100 -7.15400 44.56500
H  6.84500 -4.61600 46.53700
H  8.13300 -3.36000 46.74300
H  8.00300 -4.36600 45.23900
H  8.53100 -0.01100 42.30500
H  9.16200 4.09400 43.22500
H  10.63900 3.30300 43.63300
H  9.36200 3.30900 44.88500
Mg 7.30200 54.80900 42.17000
C  6.51300 51.47100 41.48700
C  10.47500 54.21300 40.95700
C  7.71700 58.21000 41.87000
C  3.87000 55.28500 42.62100
N  8.28600 53.08700 41.22400
C  7.82700 51.78400 41.14500
C  9.00900 50.85200 40.67300
C  10.26600 51.71400 41.00100
C  9.62700 53.10300 40.99000
C  11.04400 51.29300 42.31500
C  8.97300 50.40000 39.20100
C  8.79700 51.45500 38.07900
H  7.53900 51.24000 37.23400
N  8.95900 55.99800 41.61500
C  10.17100 55.53400 41.21500
C  11.03600 56.63400 41.00700
C  10.28300 57.81900 41.34400
C  8.91400 57.38600 41.68400
C  12.48400 56.60400 40.44100
C  10.75700 59.25900 41.45000
O  11.90500 59.53600 41.08900
C  9.96300 60.51600 41.88000
N  5.95800 56.52700 42.17200
C  6.38400 57.81800 42.03300
C  5.26200 58.85300 42.29700
C  4.02200 57.85100 42.49700
C  4.66400 56.45700 42.46300
C  5.54200 59.76800 43.52600
C  2.83000 58.06800 41.47900
C  1.58000 58.83600 41.93200
N  5.54600 53.65800 42.23900
C  4.24900 53.98900 42.52800
C  3.47800 52.83100 42.72100
C  4.33800 51.82100 42.30400
C  5.57200 52.38300 42.00400
C  2.04000 52.70000 43.18300
C  4.37400 50.36100 42.08200
O  3.51500 49.45800 42.31400
C  5.83100 50.13500 41.52100
C  5.88700 49.22300 40.40700
O  5.42100 49.49300 39.28400
O  6.61700 48.07500 40.71200
C  6.94400 47.10800 39.70000
H  11.53600 53.99600 40.82000
H  7.99100 59.26700 41.84400
H  2.82500 55.45200 42.89100
H  8.85600 49.99400 41.32700
H  10.96800 51.41100 40.22500
H  10.43200 50.66400 42.96100
H  11.24900 52.21000 42.86800
H  11.97100 50.74500 42.14200
H  8.20200 49.63400 39.12100
H  9.93600 49.95100 38.95900
H  9.70000 51.29100 37.49200
H  8.76700 52.43000 38.56500
H  12.79600 55.60500 40.13700
H  13.03700 56.97200 41.30500
H  12.73200 57.23300 39.58600
H  9.32000 60.93300 41.10400
H  10.64700 61.33500 42.09900
H  9.56500 60.25200 42.85900
H  5.14600 59.46000 41.39900
H  3.56600 57.99400 43.47600
H  5.11100 59.29000 44.40600
H  5.19100 60.77500 43.30100
H  6.60300 59.81500 43.77100
H  2.52700 57.09200 41.10100
H  3.14900 58.66700 40.62600
H  0.85600 58.08700 42.25500
H  1.03000 59.43100 41.20300
H  1.91000 59.39700 42.80600
H  1.69300 51.73600 43.55600
H  1.44100 52.87400 42.29000
H  1.95600 53.52600 43.89000
H  6.45600 49.59000 42.22800
H  7.96100 47.03000 39.31700
H  6.34800 47.17800 38.79000
H  6.79000 46.15100 40.19800

