158

Mg 9.24700 48.53400 25.22900
C  7.09800 48.85400 28.07600
C  11.76300 49.74800 27.14600
C  11.16900 48.53600 22.46400
C  6.40000 47.82700 23.26700
N  9.31900 49.33700 27.34400
C  8.40700 49.24600 28.32200
C  8.97900 49.82300 29.69900
C  10.36000 50.37600 29.24400
C  10.51400 49.74700 27.79500
C  10.64600 51.97500 29.18900
C  9.06500 48.73100 30.83200
C  9.88900 49.01700 32.03200
H  9.38500 48.43500 33.34400
N  11.27200 49.05700 24.86000
C  12.13100 49.46800 25.83100
C  13.39700 49.52300 25.26200
C  13.30800 49.18000 23.84800
C  11.90800 48.91700 23.64800
C  14.54800 49.88300 26.18500
C  14.36600 49.04800 22.69700
O  14.01900 48.92900 21.49500
C  15.80500 49.07600 23.08900
N  8.83900 48.24600 23.20700
C  9.79200 48.29100 22.30500
C  9.30000 47.86400 20.90100
C  7.76200 47.45500 21.13900
C  7.63800 47.78200 22.63800
C  9.51300 48.87100 19.77400
C  7.38800 46.01300 20.67500
C  7.78600 44.77800 21.51000
N  7.18000 48.38100 25.56300
C  6.15200 48.13800 24.61900
C  4.83500 48.12200 25.28900
C  5.14900 48.37100 26.67400
C  6.60000 48.57200 26.77500
C  3.52100 47.77200 24.59400
C  4.63200 48.51400 28.03100
O  3.48700 48.39000 28.44800
C  5.80100 48.72700 28.96300
C  5.76700 47.57900 29.90300
O  6.37600 46.55200 29.83200
O  4.76700 47.80700 30.81900
C  4.42700 46.86800 31.82300
H  12.46900 50.27800 27.79000
H  11.66000 48.29900 21.51800
H  5.54900 47.68400 22.59900
H  8.38800 50.63500 30.12300
H  11.17600 49.97600 29.84500
H  11.07200 52.15000 28.20000
H  11.48600 52.15400 29.86100
H  9.72100 52.53100 29.33800
H  9.42400 47.84200 30.31400
H  8.02700 48.46300 31.03100
H  10.22800 50.04000 32.19500
H  10.85100 48.51300 31.94200
H  14.57700 50.95700 26.36900
H  15.54700 49.58300 25.86600
H  14.51600 49.33800 27.12800
H  16.36900 49.10500 22.15700
H  16.08600 48.26600 23.76200
H  15.94900 49.99500 23.65700
H  9.87000 46.96600 20.66200
H  7.10100 48.13600 20.60200
H  9.68900 49.89100 20.11400
H  8.58500 48.98900 19.21400
H  10.26600 48.48400 19.08800
H  7.76700 45.90300 19.65900
H  6.30000 45.96800 20.63100
H  6.99000 44.29500 22.07600
H  8.50100 45.04700 22.28700
H  8.27500 44.00500 20.91600
H  3.44800 46.69300 24.45700
H  3.61100 48.19100 23.59100
H  2.61900 48.19000 25.03800
H  5.70600 49.66900 29.50300
H  3.50400 47.29200 32.22000
H  5.23900 46.81000 32.54900
H  4.02200 45.95800 31.38200
Mg -11.45400 15.99900 41.67600
C  -8.51800 13.96100 41.12500
C  -9.97400 18.46400 40.11400
C  -14.40400 17.35100 41.75500
C  -12.99700 12.84200 42.77600
N  -9.52300 16.10700 40.69800
C  -8.46600 15.25400 40.61300
C  -7.23000 15.93900 39.90100
C  -7.73300 17.42800 39.76500
C  -9.19200 17.31500 40.18500
C  -6.93400 18.53000 40.42100
C  -6.75800 15.20700 38.62500
C  -5.24100 15.05900 38.47200
H  -4.64800 15.60900 37.15400
N  -12.14700 17.63500 40.97300
C  -11.35800 18.64800 40.46600
C  -12.10700 19.81700 40.30800
C  -13.42900 19.61900 40.80200
C  -13.39400 18.14700 41.17200
C  -11.46900 21.18800 39.86000
C  -14.55700 20.63600 40.91700
O  -14.40300 21.76600 40.46900
C  -15.91100 20.28800 41.59700
N  -13.53000 15.03200 41.77600
C  -14.50900 16.02000 42.06200
C  -15.85800 15.28900 42.21500
C  -15.40400 13.87000 42.68900
C  -13.90500 13.92900 42.43600
C  -16.83600 15.94700 43.32000
C  -15.97300 12.68700 41.86400
C  -16.62800 11.54200 42.70800
N  -10.84200 13.84400 42.12800
C  -11.59100 12.75200 42.60100
C  -10.68100 11.65200 42.78800
C  -9.47600 12.08700 42.31700
C  -9.59800 13.38200 41.80800
C  -10.99500 10.28100 43.38800
C  -8.08700 11.69500 42.15700
O  -7.47000 10.70400 42.52600
C  -7.39200 12.87500 41.26700
C  -6.33200 13.45800 42.08100
O  -6.44400 13.78900 43.25400
O  -5.12800 13.39500 41.40800
C  -3.89600 13.86600 41.91100
H  -9.48200 19.33200 39.67000
H  -15.36500 17.86000 41.85000
H  -13.44200 11.95200 43.22500
H  -6.43000 16.05500 40.63200
H  -7.64500 17.78000 38.73700
H  -6.76300 19.28600 39.65400
H  -6.07100 18.14900 40.96600
H  -7.45800 19.11900 41.17500
H  -7.06300 15.79200 37.75700
H  -7.13200 14.18400 38.58900
H  -4.92500 14.02100 38.57000
H  -4.79000 15.60300 39.30200
H  -11.10900 21.75600 40.71700
H  -12.14600 21.77200 39.23600
H  -10.60300 20.92600 39.25100
H  -16.37000 21.27100 41.69700
H  -15.66900 19.82000 42.55100
H  -16.60100 19.68400 41.00800
H  -16.34800 15.21900 41.24300
H  -15.50200 13.76800 43.77000
H  -16.57400 16.99200 43.48600
H  -16.89100 15.45400 44.29100
H  -17.83100 15.98400 42.87600
H  -15.16700 12.25000 41.27300
H  -16.74600 13.03500 41.17900
H  -16.38000 10.58700 42.24400
H  -17.70400 11.71500 42.70200
H  -16.26500 11.54700 43.73500
H  -10.08300 9.69800 43.51600
H  -11.65800 9.70700 42.74100
H  -11.51500 10.36700 44.34200
H  -7.02600 12.53500 40.29800
H  -3.27800 14.21800 41.08500
H  -3.35600 12.97100 42.22000
H  -3.93500 14.50900 42.79100

