158

Mg 44.18900 5.50900 48.68500
C  42.03400 8.16000 47.95900
C  41.63000 3.43700 47.49700
C  46.42000 2.90200 48.75800
C  46.85900 7.76000 48.65000
N  42.06600 5.74800 47.90900
C  41.40400 6.94500 47.76600
C  39.93400 6.71800 47.41400
C  39.86800 5.20300 47.16400
C  41.28800 4.76600 47.56300
C  38.68200 4.40100 47.87900
C  39.37800 7.70000 46.33900
C  40.23400 7.99000 45.12300
H  39.87600 7.34600 43.76000
N  43.97500 3.42800 48.40100
C  42.83300 2.80900 47.92700
C  43.13000 1.33600 47.77600
C  44.50200 1.21600 48.24100
C  45.00800 2.56000 48.49000
C  42.32400 0.41700 46.93300
C  45.18900 -0.09300 48.30900
O  44.60800 -1.12400 47.95900
C  46.59200 -0.29500 48.86800
N  46.40000 5.34700 48.56900
C  47.02600 4.15200 48.84100
C  48.53900 4.31000 48.81000
C  48.74500 5.91400 48.81400
C  47.24700 6.42500 48.70000
C  49.28800 3.60300 49.96600
C  49.80500 6.45600 47.76700
C  50.79600 7.54200 48.35500
N  44.44200 7.51600 48.57900
C  45.61700 8.32600 48.58400
C  45.29700 9.69900 48.37300
C  43.88300 9.67400 48.18400
C  43.41700 8.28900 48.21700
C  46.29700 10.85100 48.24700
C  42.76100 10.50800 47.92200
O  42.69300 11.70800 47.79500
C  41.49700 9.58400 47.81300
C  40.64400 9.81800 48.99400
O  40.68000 9.30400 50.10900
O  39.70600 10.81300 48.60900
C  38.77800 11.33400 49.71400
H  40.84900 2.73600 47.19500
H  47.23500 2.17600 48.71100
H  47.64400 8.51900 48.63800
H  39.45600 6.91700 48.37300
H  39.75400 4.96700 46.10600
H  37.91400 5.04900 48.30200
H  39.19000 3.90100 48.70400
H  38.28900 3.64600 47.19800
H  39.01500 8.62700 46.78300
H  38.47300 7.30400 45.87800
H  41.24600 7.62500 45.29600
H  40.19500 9.06600 44.95600
H  41.47500 0.81600 46.37800
H  41.90900 -0.37700 47.55400
H  43.08400 0.02400 46.25900
H  46.73500 -1.29900 49.26900
H  46.60700 0.52800 49.58300
H  47.29900 -0.20300 48.04300
H  48.83700 3.83400 47.87600
H  48.99400 6.26900 49.81400
H  48.63800 3.27300 50.77600
H  50.04300 4.30100 50.32700
H  49.91600 2.75700 49.68400
H  49.33700 6.84700 46.86300
H  50.36900 5.58000 47.44600
H  50.84700 7.61800 49.44100
H  50.61000 8.51500 47.90100
H  51.77500 7.14500 48.08600
H  46.77100 10.81400 47.26600
H  47.10800 10.87000 48.97500
H  45.80100 11.81100 48.39100
H  40.88800 9.61700 46.90900
H  39.03300 11.03000 50.73000
H  37.73500 11.15800 49.44900
H  38.86700 12.41900 49.77100
Mg 0.93300 43.54200 25.76700
C  3.08900 43.36500 28.43200
C  -1.68300 43.52700 28.02800
C  -1.04600 42.73900 23.32200
C  3.57600 43.96300 23.65700
N  0.73200 43.41900 27.97200
C  1.75700 43.31000 28.85000
C  1.29300 43.39200 30.29700
C  -0.30400 43.23700 30.16600
C  -0.38100 43.45300 28.64200
C  -0.94600 41.79900 30.50700
C  1.67900 44.66700 31.08300
C  1.76000 44.68200 32.65900
H  1.27100 43.46700 33.39200
N  -1.07000 43.31500 25.64300
C  -1.99600 43.38600 26.64100
C  -3.29700 43.16000 26.11400
C  -3.23700 42.77600 24.71400
C  -1.76600 42.92400 24.48300
C  -4.50100 43.12200 27.05800
C  -4.32800 42.22900 23.82400
O  -4.06700 41.79700 22.71700
C  -5.75000 42.06300 24.29500
N  1.22900 43.16300 23.67500
C  0.22400 42.89800 22.85900
C  0.81000 42.76800 21.40000
C  2.13000 43.66800 21.59900
C  2.35000 43.60700 23.07300
C  1.12100 41.24100 20.96800
C  2.02900 45.12000 21.23100
C  3.31000 45.72800 20.48100
N  2.92200 43.59000 25.95700
C  3.94300 43.85300 25.05100
C  5.26700 43.78900 25.65000
C  4.91400 43.49900 26.97500
C  3.57000 43.45500 27.11800
C  6.59800 43.89600 24.92900
C  5.49700 43.29800 28.26800
O  6.65000 43.10600 28.64900
C  4.25300 43.39200 29.31500
C  4.39000 42.17600 30.19500
O  4.06700 41.04700 29.82200
O  5.01000 42.43900 31.38400
C  5.07300 41.26900 32.24400
H  -2.43900 43.70200 28.79600
H  -1.67800 42.44000 22.48300
H  4.42800 44.19800 23.01600
H  1.83500 42.57400 30.77300
H  -0.86400 44.02000 30.67800
H  -1.56400 41.42900 29.68900
H  -1.63500 41.89200 31.34700
H  -0.08800 41.15600 30.70300
H  0.95100 45.45700 30.90000
H  2.68600 44.95600 30.78100
H  1.36300 45.60600 33.07800
H  2.79600 44.76100 32.98800
H  -5.24400 43.74000 26.55400
H  -4.36100 43.60100 28.02700
H  -4.89100 42.11100 27.17400
H  -5.79200 41.31000 25.08200
H  -6.27500 41.67800 23.42100
H  -6.10600 43.00900 24.70500
H  0.15400 43.23200 20.66400
H  2.91000 43.18400 21.01100
H  2.18700 41.11000 20.78300
H  0.48500 41.02600 20.10900
H  0.88700 40.52500 21.75600
H  1.65800 45.69900 22.07700
H  1.29100 45.21900 20.43600
H  3.24500 46.78900 20.72100
H  3.41500 45.49600 19.42100
H  4.19000 45.30200 20.96300
H  7.42100 43.56900 25.56500
H  6.69100 44.90700 24.53400
H  6.53900 43.27800 24.03300
H  4.50300 44.24000 29.95200
H  5.65600 40.54000 31.68200
H  4.04500 40.96100 32.43200
H  5.62500 41.61800 33.11700

