158

Mg -1.71800 16.74300 26.01100
C  -2.02100 14.57000 28.64400
C  -2.32500 19.48600 28.38900
C  -2.13500 18.88000 23.54000
C  -2.02500 14.02800 23.79200
N  -2.21900 16.94700 28.17700
C  -2.10600 15.89900 29.07900
C  -2.49500 16.38800 30.52200
C  -2.79400 17.84600 30.23200
C  -2.37000 18.13300 28.83600
C  -4.33600 18.17400 30.48200
C  -1.44900 16.07700 31.59100
C  -1.69400 16.90400 32.94200
H  -1.53300 16.33900 34.33800
N  -1.98100 18.86900 25.91600
C  -2.12800 19.83800 26.96100
C  -2.01100 21.11700 26.39900
C  -1.97300 20.97000 25.00400
C  -2.07200 19.50600 24.76800
C  -2.06400 22.37500 27.27700
C  -1.88100 22.07000 23.93300
O  -2.01700 21.83700 22.73700
C  -1.70200 23.45700 24.35400
N  -2.22500 16.47700 23.94900
C  -2.22400 17.53500 23.11100
C  -2.34900 17.05800 21.64000
C  -2.12400 15.56000 21.76400
C  -2.10600 15.36100 23.26800
C  -3.77500 17.39000 21.12800
C  -0.79600 15.10600 21.10000
C  0.47100 15.40400 21.91200
N  -1.89800 14.68800 26.09700
C  -1.98400 13.69800 25.13400
C  -1.87700 12.41900 25.75000
C  -1.83800 12.66800 27.12300
C  -1.87800 14.07700 27.28400
C  -1.76700 11.19800 25.05000
C  -1.79700 12.12700 28.44200
O  -1.59400 10.99100 28.80900
C  -1.98600 13.26500 29.48900
C  -0.89800 13.26000 30.42700
O  0.17400 13.77500 30.21300
O  -1.21500 12.55800 31.55500
C  -0.16200 12.50400 32.61600
H  -2.24000 20.33500 29.07000
H  -2.08700 19.55300 22.68100
H  -1.91800 13.18100 23.11200
H  -3.41000 15.85600 30.78300
H  -2.28600 18.54400 30.89800
H  -4.44900 19.00600 31.17700
H  -4.87700 17.49000 31.13500
H  -4.79800 18.35500 29.51100
H  -0.45200 16.26900 31.19300
H  -1.53600 15.06800 31.99300
H  -2.70800 17.29300 32.84600
H  -0.98100 17.72700 32.89200
H  -2.86600 23.06400 27.01300
H  -1.14100 22.94300 27.15600
H  -2.16900 22.17200 28.34200
H  -2.67900 23.88500 24.57700
H  -1.29400 23.96300 23.47900
H  -1.13000 23.66200 25.25900
H  -1.75600 17.63300 20.92800
H  -2.99200 15.00100 21.41600
H  -3.93600 18.34500 21.62800
H  -4.52500 16.73400 21.56900
H  -3.82200 17.44400 20.04100
H  -0.67700 15.38900 20.05400
H  -0.83200 14.01700 21.06400
H  0.22800 16.08700 22.72600
H  1.18800 15.94000 21.29100
H  0.94000 14.56000 22.41800
H  -0.81300 11.02100 24.55300
H  -2.60600 11.04200 24.37100
H  -1.77800 10.49400 25.88200
H  -2.95200 13.09800 29.96600
H  -0.42000 13.16100 33.44700
H  0.82100 12.71600 32.19600
H  -0.24900 11.47900 32.97600
Mg 35.72900 0.73300 29.29600
C  33.31600 2.23700 31.49400
C  37.97500 0.87800 31.87200
C  38.14800 -0.06100 27.18300
C  33.55900 1.17800 26.59700
N  35.66800 1.64700 31.39400
C  34.56700 1.98300 32.13000
C  34.92600 2.32100 33.57000
C  36.53500 2.18500 33.56300
C  36.77100 1.58000 32.15400
C  37.40000 3.56100 33.82800
C  34.20500 1.37700 34.56300
C  33.90300 2.04900 35.90000
H  34.81400 3.17200 36.38700
N  37.77100 0.31500 29.51900
C  38.50600 0.28800 30.67500
C  39.82200 -0.21000 30.45200
C  39.78700 -0.58900 29.05800
C  38.51900 -0.11900 28.53500
C  40.84200 -0.31200 31.50400
C  40.86700 -1.27300 28.29500
O  40.76600 -1.60600 27.12000
C  42.04900 -1.65800 29.06000
N  35.77500 0.42000 27.17600
C  36.94500 0.19900 26.57300
C  36.77300 0.27800 25.00900
C  35.24800 0.70800 24.86600
C  34.79000 0.69400 26.27800
C  37.63500 1.14300 24.08100
C  34.31500 -0.15700 23.94200
C  33.32400 0.54800 22.97700
N  33.75400 1.42700 29.10100
C  33.03100 1.54200 27.92600
C  31.69400 2.14500 28.31600
C  31.77500 2.45500 29.70600
C  33.02000 2.04800 30.12300
C  30.50400 2.27900 27.34000
C  31.10200 3.10300 30.84400
O  29.93600 3.56700 30.91800
C  32.09500 2.94200 32.05100
C  32.30400 4.23100 32.77000
O  32.73500 5.24200 32.30500
O  31.80800 4.10200 34.05700
C  31.75900 5.34000 34.86000
H  38.73900 0.82100 32.65000
H  38.85000 -0.30800 26.38300
H  33.05200 1.51500 25.69000
H  34.60100 3.33600 33.79900
H  36.99600 1.47400 34.24900
H  38.35100 3.23600 34.25000
H  36.83000 4.18600 34.51600
H  37.61600 4.04500 32.87600
H  34.93100 0.57400 34.69100
H  33.32200 0.93300 34.10200
H  33.92200 1.31000 36.70100
H  32.89600 2.42000 36.09100
H  41.22000 -1.31800 31.68700
H  40.48200 -0.18400 32.52500
H  41.64900 0.38600 31.27800
H  42.65300 -2.31200 28.43100
H  41.88400 -2.24700 29.96200
H  42.70200 -0.82100 29.30300
H  36.88400 -0.73600 24.62600
H  35.16400 1.74300 24.53300
H  37.19600 2.12300 23.89400
H  37.66200 0.58600 23.14500
H  38.62500 1.22300 24.53000
H  33.80500 -0.89000 24.56600
H  34.93500 -0.75900 23.27700
H  33.41900 1.63300 23.03000
H  32.28600 0.25200 23.12500
H  33.61400 0.31900 21.95100
H  29.70100 2.75200 27.90700
H  30.23700 1.31900 26.90100
H  30.92000 2.87000 26.52400
H  31.64700 2.30500 32.81400
H  30.75200 5.75600 34.82200
H  32.57200 5.99700 34.54900
H  31.98700 4.99500 35.86800

