158

Mg 40.40500 10.24000 30.15900
C  41.98300 11.74300 32.73100
C  38.05500 9.02300 32.34900
C  38.71100 8.86900 27.60500
C  42.89800 11.19100 27.94100
N  39.95000 10.48300 32.34000
C  40.86500 11.01400 33.22300
C  40.43400 10.84400 34.68200
C  39.23100 9.83100 34.52600
C  38.99200 9.82300 32.98000
C  39.62700 8.35800 35.06200
C  40.03300 12.08800 35.38300
C  40.70400 12.26100 36.75000
H  40.11900 13.24200 37.75400
N  38.62500 9.15500 30.01800
C  37.80800 8.67400 30.97500
C  36.73300 7.92400 30.41800
C  36.81900 8.01000 29.03200
C  38.07300 8.78000 28.78200
C  35.54800 7.27000 31.33300
C  35.90200 7.41600 27.95600
O  35.97400 7.57000 26.72200
C  34.62700 6.67300 28.46000
N  40.74400 10.12400 28.00300
C  39.91100 9.47400 27.19900
C  40.52100 9.40100 25.74300
C  41.75000 10.36800 25.86100
C  41.79400 10.59500 27.35300
C  40.95400 7.96100 25.28600
C  41.58100 11.64500 25.00000
C  40.75300 12.82300 25.54700
N  42.12500 11.19900 30.25500
C  43.03700 11.57300 29.29300
C  44.03200 12.44500 29.89200
C  43.58600 12.48200 31.25100
C  42.42900 11.80100 31.40200
C  45.22100 13.06800 29.24200
C  44.06500 12.96000 32.52200
O  45.06800 13.57000 32.84800
C  42.99200 12.56400 33.53600
C  43.64900 11.77100 34.61900
O  43.72600 10.57000 34.57900
O  44.03400 12.50100 35.70800
C  44.71300 11.80900 36.90000
H  37.44300 8.44300 33.04300
H  38.31200 8.29700 26.76500
H  43.61100 11.59500 27.21800
H  41.32000 10.36500 35.09800
H  38.41400 10.14500 35.17600
H  38.78300 7.88300 35.56200
H  40.48300 8.51200 35.71900
H  39.94100 7.61700 34.32700
H  38.94800 12.17200 35.44700
H  40.42500 12.94400 34.83300
H  41.69000 12.60800 36.43900
H  40.74800 11.31700 37.29200
H  34.58800 7.71400 31.07100
H  35.77700 7.49700 32.37500
H  35.55500 6.18600 31.21800
H  35.05800 5.78200 28.91900
H  33.96300 6.46900 27.62100
H  33.95400 7.26600 29.07900
H  39.77800 9.74000 25.02100
H  42.72000 10.04500 25.48500
H  40.66500 7.13700 25.93900
H  42.04100 7.92100 25.21800
H  40.52400 7.77100 24.30300
H  41.04600 11.30400 24.11400
H  42.53700 12.09200 24.73000
H  40.19600 13.30000 24.74100
H  41.55200 13.48000 25.89200
H  40.07900 12.57500 26.36700
H  44.89700 13.27700 28.22200
H  46.06200 12.37400 29.26000
H  45.50700 13.86300 29.93000
H  42.54600 13.48100 33.92100
H  45.30700 10.92900 36.65700
H  43.84100 11.53400 37.49400
H  45.35700 12.50200 37.44200
Mg 37.46500 50.29900 25.11200
C  37.40100 48.36900 27.98800
C  36.01600 52.73600 26.79100
C  37.21100 51.88100 22.13900
C  38.45600 47.33300 23.20700
N  36.86700 50.55100 27.16800
C  37.02000 49.64800 28.20300
C  36.52000 50.31200 29.46600
C  36.22400 51.74900 29.10200
C  36.36700 51.67200 27.60100
C  34.81100 52.31000 29.46700
C  37.55400 50.08100 30.72900
C  37.01400 49.46400 32.03300
H  35.44800 49.52200 32.13500
N  36.65500 52.08300 24.54300
C  36.07500 52.95200 25.37300
C  35.65300 54.14400 24.65200
C  35.95200 53.86500 23.30300
C  36.73800 52.57000 23.30200
C  34.84000 55.26400 25.33900
C  35.62000 54.70200 22.06400
O  36.10300 54.53300 20.88700
C  34.83500 56.07400 22.16000
N  37.78300 49.62500 22.93900
C  37.63000 50.57100 21.93600
C  37.90100 49.92600 20.55400
C  38.55600 48.55200 20.90500
C  38.25700 48.47900 22.39200
C  36.63900 49.85300 19.64400
C  40.02900 48.46200 20.61300
C  41.08300 48.84200 21.62400
N  37.91100 48.26900 25.47800
C  38.25700 47.19600 24.63400
C  38.49300 46.03800 25.48900
C  38.18000 46.44100 26.84000
C  37.79600 47.79400 26.76500
C  39.04600 44.79300 24.98000
C  38.18400 45.97400 28.16300
O  38.41700 44.86500 28.63400
C  37.61600 47.21700 29.01200
C  36.38600 46.74900 29.74900
O  35.19600 46.79500 29.41400
O  36.83300 46.05300 30.87800
C  35.83600 45.55200 31.85700
H  35.64700 53.50400 27.47500
H  37.09000 52.43400 21.20500
H  38.81000 46.46000 22.65400
H  35.60200 49.73500 29.58500
H  37.00800 52.36200 29.54600
H  34.54900 51.82900 30.40900
H  34.03600 52.06400 28.74100
H  34.68000 53.38000 29.63400
H  38.10300 50.99500 30.95500
H  38.41700 49.48400 30.43500
H  37.43500 49.91900 32.92900
H  37.25500 48.40200 31.99900
H  33.75800 55.14400 25.39700
H  35.19000 56.23900 25.00100
H  35.10300 55.36500 26.39200
H  33.84100 55.95600 22.59200
H  34.88900 56.49000 21.15400
H  35.40600 56.80300 22.73400
H  38.65800 50.65600 20.26600
H  38.12400 47.63500 20.50300
H  36.53700 48.82000 19.31100
H  36.86200 50.48400 18.78400
H  35.75500 50.15000 20.20900
H  40.28300 49.09500 19.76200
H  40.23400 47.47200 20.20500
H  40.77000 48.70200 22.65900
H  41.47500 49.84900 21.48100
H  41.92700 48.16300 21.50300
H  38.17100 44.32100 24.53300
H  39.26000 44.21300 25.87800
H  39.88100 45.08600 24.34400
H  38.32000 47.35400 29.83300
H  34.82500 45.55500 31.44800
H  35.81300 46.34400 32.60600
H  36.17400 44.65300 32.37200

