158

Mg 17.43300 -2.83100 27.95600
C  16.42400 -0.60800 30.41500
C  19.65000 -4.38400 30.27200
C  19.14200 -4.41300 25.43100
C  15.98900 -0.72600 25.56300
N  17.94200 -2.50900 30.05800
C  17.36200 -1.52800 30.87600
C  17.80300 -1.63300 32.38000
C  18.78500 -2.82100 32.24900
C  18.87500 -3.22700 30.73700
C  20.12600 -2.43800 32.84600
C  16.53400 -1.91900 33.30900
C  16.72600 -2.42600 34.79600
H  18.03700 -2.08400 35.48700
N  18.96500 -4.31900 27.86300
C  19.66600 -4.89000 28.88700
C  20.34300 -6.03600 28.36900
C  20.14700 -6.09500 26.98200
C  19.42000 -4.87900 26.70300
C  21.24600 -6.78700 29.23900
C  20.62200 -7.13200 26.01700
O  20.42800 -7.11500 24.79600
C  21.49700 -8.24900 26.51500
N  17.64900 -2.49700 25.83600
C  18.40800 -3.32600 25.03600
C  18.06700 -3.09600 23.49900
C  16.96700 -1.95400 23.60100
C  16.77900 -1.73200 25.10400
C  19.19400 -2.63100 22.48400
C  15.58400 -2.49300 22.99600
C  14.45100 -2.93400 23.87500
N  16.30800 -1.06400 27.87800
C  15.80200 -0.33400 26.87100
C  15.01800 0.75900 27.42600
C  15.21600 0.67000 28.80500
C  16.03000 -0.43500 29.05400
C  14.12100 1.64800 26.53300
C  14.94800 1.34100 30.07200
O  14.29300 2.33300 30.29200
C  15.80100 0.56700 31.13300
C  16.72100 1.55400 31.81400
O  17.81900 1.89500 31.42700
O  16.11600 2.00800 33.04500
C  16.89000 2.91200 33.87500
H  20.22400 -4.86400 31.06600
H  19.51600 -4.88000 24.51800
H  15.31300 -0.23500 24.85900
H  18.25800 -0.70300 32.72100
H  18.45400 -3.69300 32.81300
H  20.14700 -1.58700 33.52700
H  20.82500 -2.34000 32.01600
H  20.52800 -3.26900 33.42600
H  15.94600 -2.63500 32.73500
H  15.97600 -1.00900 33.52900
H  16.65600 -3.51400 34.82800
H  15.85900 -2.05800 35.34400
H  21.71400 -6.26000 30.07100
H  22.20100 -7.07200 28.79900
H  20.72800 -7.62800 29.69900
H  22.55200 -7.97600 26.47100
H  21.42200 -9.08400 25.81900
H  21.26300 -8.66700 27.49400
H  17.71000 -4.03100 23.06700
H  17.33700 -1.00100 23.22400
H  19.42500 -3.31400 21.66700
H  20.04000 -2.34300 23.10900
H  18.76400 -1.85100 21.85600
H  15.71100 -3.32300 22.30100
H  15.13000 -1.63700 22.49500
H  14.51700 -3.25400 24.91400
H  13.93400 -3.71900 23.32300
H  13.76300 -2.09700 23.75700
H  13.19900 1.94900 27.02900
H  13.84400 1.06800 25.65200
H  14.57700 2.62700 26.38500
H  15.09400 0.20900 31.88100
H  16.34900 3.82500 34.12400
H  17.90400 3.07400 33.51000
H  17.04100 2.35400 34.79900
Mg -5.67100 25.31600 26.34300
C  -4.09900 27.11900 28.90300
C  -6.76400 23.18300 28.75300
C  -6.87500 23.43700 23.86500
C  -4.06000 27.25000 24.03000
N  -5.37800 25.13000 28.50100
C  -4.95300 26.12000 29.29500
C  -5.44500 25.91600 30.71600
C  -5.97600 24.48800 30.67500
C  -6.04400 24.29700 29.19700
C  -5.19100 23.35200 31.41100
C  -6.40400 27.04500 31.05700
C  -6.50400 27.47200 32.54300
H  -6.00900 26.50800 33.57900
N  -6.73100 23.59400 26.30900
C  -7.11600 22.83700 27.38700
C  -7.96500 21.76600 26.97300
C  -8.08900 21.80700 25.51800
C  -7.16900 22.97200 25.16900
C  -8.83300 20.89700 27.86700
C  -8.81000 20.89300 24.51200
O  -8.84900 21.18000 23.30800
C  -9.56800 19.76700 24.84000
N  -5.39200 25.30900 24.24300
C  -6.09800 24.48300 23.44200
C  -5.72800 24.71100 21.92200
C  -5.05000 26.12500 22.02300
C  -4.79200 26.22400 23.49400
C  -4.82100 23.65100 21.33200
C  -5.90300 27.30700 21.47700
C  -5.84500 27.56200 19.97600
N  -4.26600 26.77100 26.40400
C  -3.73800 27.55900 25.39500
C  -2.87100 28.52300 25.92500
C  -3.01200 28.37900 27.34400
C  -3.86400 27.32300 27.55600
C  -2.17200 29.65700 25.15600
C  -2.61200 28.96100 28.58100
O  -1.93300 29.96800 28.74500
C  -3.41600 28.18700 29.75200
C  -2.50200 27.51500 30.74600
O  -1.70900 26.69100 30.41400
O  -2.71200 27.97600 32.01200
C  -1.97300 27.48000 33.11500
H  -7.05100 22.45100 29.51100
H  -7.45100 22.95300 23.07400
H  -3.50000 27.85400 23.31400
H  -4.58800 25.98200 31.38700
H  -6.94900 24.39700 31.15700
H  -5.94500 22.94700 32.08700
H  -4.49900 23.76100 32.14800
H  -4.72200 22.60700 30.76900
H  -7.38300 26.69000 30.73500
H  -6.18900 27.94400 30.48000
H  -7.57500 27.58500 32.71100
H  -5.90600 28.35500 32.76700
H  -8.70400 21.21600 28.90100
H  -8.54100 19.84800 27.81700
H  -9.90000 21.04300 27.69800
H  -9.86600 19.17700 23.97300
H  -10.49000 20.02900 25.35900
H  -8.90800 19.12700 25.42400
H  -6.59700 24.86400 21.28200
H  -4.20600 26.13700 21.33400
H  -4.75500 22.73800 21.92400
H  -3.81100 23.92700 21.03100
H  -5.34800 23.29700 20.44500
H  -5.57100 28.23000 21.95200
H  -6.98100 27.21600 21.61600
H  -5.24300 26.82800 19.44100
H  -5.45300 28.55900 19.77500
H  -6.81000 27.33000 19.52600
H  -1.43000 30.22100 25.72100
H  -2.84200 30.32400 24.61400
H  -1.62100 29.26900 24.29900
H  -4.13700 28.82300 30.26700
H  -1.18000 26.80000 32.80400
H  -2.68600 27.04000 33.81200
H  -1.46000 28.33500 33.55700

