158

Mg 46.94700 25.28200 28.70300
C  47.42800 27.55800 31.37700
C  45.67500 23.00500 31.04800
C  47.00800 22.79400 26.34800
C  48.37800 27.51800 26.41100
N  46.72300 25.26900 30.90800
C  46.81900 26.36000 31.78400
C  46.33300 25.93300 33.15800
C  45.89300 24.43500 33.03700
C  46.10700 24.23300 31.53200
C  46.79200 23.54600 34.01500
C  45.31100 26.92300 33.86200
C  45.73600 27.11600 35.38300
H  44.74400 27.32800 36.49900
N  46.35100 23.23300 28.73200
C  45.83300 22.47600 29.77200
C  45.49300 21.20300 29.32400
C  45.76400 21.09000 27.98400
C  46.39100 22.41500 27.62300
C  44.88100 20.16300 30.21500
C  45.51000 19.89900 27.07500
O  46.02700 19.87100 25.94400
C  44.76500 18.65900 27.68400
N  47.59100 25.18600 26.71700
C  47.55700 24.02000 25.97500
C  48.24600 24.24500 24.60200
C  48.54200 25.77900 24.58000
C  48.17900 26.16500 25.97900
C  49.46400 23.31600 24.28500
C  47.70000 26.59800 23.55400
C  46.25100 27.01200 23.94900
N  47.76800 27.10000 28.79200
C  48.30200 27.95700 27.77900
C  48.73400 29.15800 28.44200
C  48.32800 29.09600 29.76700
C  47.79700 27.78000 30.01900
C  49.38000 30.30500 27.73800
C  48.33200 29.80800 30.97600
O  48.68900 30.93400 31.26000
C  47.79300 28.86500 32.14500
C  48.88600 28.71900 33.15400
O  50.00200 28.29500 32.77400
O  48.61000 29.08100 34.46100
C  49.61200 28.88300 35.54600
H  45.31200 22.39000 31.87400
H  47.13100 22.03000 25.57800
H  48.75800 28.24500 25.68900
H  47.27200 26.11300 33.68000
H  44.88500 24.18900 33.37100
H  47.44200 23.03000 33.30800
H  46.22500 22.77900 34.54100
H  47.42100 24.06200 34.74100
H  44.31200 26.49400 33.77900
H  45.25200 27.91300 33.40900
H  46.22700 28.08200 35.26300
H  46.51100 26.43000 35.72600
H  45.02500 20.55100 31.22400
H  45.47900 19.25200 30.19800
H  43.81100 19.97200 30.13100
H  45.50800 18.18800 28.32800
H  44.44500 17.89800 26.97200
H  43.86600 19.00000 28.19700
H  47.54700 24.00300 23.80200
H  49.57400 25.92500 24.26100
H  49.17900 22.47300 23.65500
H  49.91800 22.86100 25.16600
H  50.23300 23.90400 23.78400
H  47.67400 26.00700 22.63900
H  48.31800 27.48500 23.42000
H  46.16900 26.57600 24.94500
H  45.54000 26.61700 23.22300
H  46.13400 28.08400 24.10500
H  49.72800 30.93800 28.55400
H  48.74000 30.87400 27.06300
H  50.22800 29.96500 27.14400
H  46.99000 29.38400 32.66800
H  49.24700 28.16800 36.28300
H  49.87800 29.81300 36.04900
H  50.54500 28.43300 35.20800
Mg 35.88200 49.83900 25.36300
C  35.40300 48.04500 28.36800
C  34.27600 52.55100 26.87700
C  35.85300 51.21900 22.41800
C  36.61500 46.75900 23.84900
N  34.85300 50.23500 27.36900
C  35.02400 49.36700 28.42500
C  34.49700 50.08100 29.72700
C  34.15200 51.56200 29.22200
C  34.46100 51.46500 27.71300
C  32.63900 52.04000 29.57200
C  35.56900 50.06900 30.93900
C  35.11600 49.36700 32.26400
H  33.62700 49.60200 32.58700
N  35.26100 51.58600 24.73700
C  34.56500 52.60300 25.51800
C  34.46700 53.83500 24.63300
C  34.85900 53.43600 23.33800
C  35.37200 52.03700 23.42200
C  33.96100 55.21500 25.13100
C  34.79500 54.18300 21.96200
O  35.12900 53.80600 20.85100
C  34.10900 55.56900 22.01100
N  36.27500 49.09500 23.45300
C  36.31900 49.92900 22.35400
C  36.80000 49.19900 21.04600
C  37.03200 47.77900 21.51600
C  36.60200 47.83500 23.01500
C  35.76600 49.25300 19.90000
C  38.47400 47.38700 21.36700
C  39.48200 48.20800 22.34400
N  36.05600 47.79300 25.89700
C  36.30700 46.69600 25.20100
C  36.34800 45.51500 26.05200
C  36.03000 46.02400 27.31800
C  35.81200 47.41900 27.15800
C  36.65000 44.15500 25.73600
C  35.84300 45.64300 28.68500
O  35.94200 44.53600 29.21300
C  35.30800 46.95500 29.43500
C  33.93400 46.60800 29.76200
O  33.05400 46.77200 28.89200
O  33.80800 46.06900 31.01500
C  32.44900 45.52600 31.32800
H  33.78100 53.38700 27.37400
H  35.76100 51.63800 21.41400
H  36.82300 45.81200 23.34600
H  33.57600 49.58300 30.03000
H  34.82700 52.34900 29.55800
H  32.02300 51.30600 30.09100
H  32.23100 52.25000 28.58400
H  32.64400 52.97200 30.13800
H  35.86400 51.08400 31.20600
H  36.50300 49.59600 30.63700
H  35.62700 49.83400 33.10600
H  35.31100 48.29500 32.23500
H  34.23200 56.07700 24.52100
H  34.38300 55.33800 26.12800
H  32.88300 55.06700 25.07600
H  34.80900 56.28400 22.44200
H  33.13200 55.59400 22.49300
H  33.84800 55.85000 20.99000
H  37.70300 49.66300 20.64900
H  36.47200 46.99800 21.00200
H  34.94800 49.95200 20.08000
H  35.34700 48.29200 19.60300
H  36.34100 49.65000 19.06400
H  38.76400 47.65500 20.35100
H  38.46700 46.31200 21.54900
H  40.11400 47.51500 22.90000
H  38.95100 48.87400 23.02500
H  40.17500 48.84400 21.79400
H  37.36000 43.70200 26.42700
H  37.12000 44.19200 24.75300
H  35.69400 43.63200 25.76500
H  35.87900 47.15800 30.34000
H  32.39600 44.50600 30.94800
H  31.62400 46.02300 30.81800
H  32.17200 45.64400 32.37500

