158

Mg 41.21300 6.57800 28.82300
C  42.77900 7.81700 31.66000
C  38.72300 5.30500 31.03100
C  39.64800 5.17300 26.22500
C  43.87600 7.62000 26.93800
N  40.68700 6.78600 31.12300
C  41.49400 7.30300 32.00800
C  40.97800 7.15400 33.41700
C  39.67700 6.31600 33.21300
C  39.65100 6.16200 31.71900
C  39.77200 4.97900 34.01900
C  40.86800 8.51000 34.15800
C  39.85000 8.55800 35.33200
H  40.22100 9.50200 36.45800
N  39.38000 5.56900 28.65700
C  38.53400 5.08800 29.64300
C  37.39600 4.43900 28.99500
C  37.51400 4.55900 27.64000
C  38.87000 5.17700 27.43400
C  36.27000 3.72400 29.77300
C  36.60900 4.15900 26.44000
O  36.88500 4.35700 25.26700
C  35.39700 3.45300 26.73600
N  41.75000 6.37100 26.86500
C  40.92500 5.65100 25.96800
C  41.45600 5.81200 24.55300
C  42.74000 6.71200 24.76200
C  42.87700 6.89800 26.27200
C  41.57600 4.46500 23.85000
C  42.78000 7.96600 23.87200
C  41.82500 9.15800 24.23300
N  42.93600 7.52500 29.14400
C  43.96100 7.91000 28.31900
C  44.98300 8.53500 29.08100
C  44.53000 8.53200 30.41700
C  43.32600 7.80400 30.43800
C  46.29100 9.07200 28.63700
C  44.93900 9.06300 31.71400
O  45.93100 9.58900 32.15300
C  43.72800 8.62400 32.54200
C  44.20500 7.82600 33.73100
O  44.49500 6.64600 33.69700
O  44.37400 8.63800 34.88000
C  44.75100 7.96500 36.12400
H  38.02000 4.80400 31.69900
H  39.17100 4.63800 25.40100
H  44.73900 7.97800 26.37400
H  41.85800 6.58900 33.72400
H  38.73900 6.84500 33.38700
H  39.15400 5.03300 34.91500
H  40.79900 4.81800 34.34600
H  39.42100 4.15000 33.40400
H  40.61200 9.29100 33.44200
H  41.84500 8.85100 34.50100
H  39.66600 7.54000 35.67700
H  38.86800 8.88600 34.99200
H  36.52300 3.58200 30.82300
H  36.24800 2.73200 29.32200
H  35.27600 4.17200 29.78800
H  34.69200 3.98300 27.37700
H  35.73100 2.54000 27.22800
H  34.85200 3.14900 25.84300
H  40.69200 6.39100 24.03400
H  43.61300 6.09100 24.56000
H  41.23200 3.55000 24.33200
H  42.63400 4.29000 23.65200
H  41.05800 4.46000 22.89100
H  42.41600 7.61100 22.90700
H  43.79900 8.35200 23.86200
H  41.17800 8.77200 25.02100
H  41.36500 9.43000 23.28300
H  42.39200 10.02800 24.56400
H  47.01000 8.90900 29.43900
H  46.19600 10.07000 28.20800
H  46.63700 8.45900 27.80400
H  43.42700 9.61100 32.89600
H  44.75500 6.87900 36.21800
H  44.06200 8.20600 36.93400
H  45.79800 8.18100 36.33400
Mg 8.95500 48.29800 27.71800
C  7.08600 47.89100 30.64900
C  11.65900 48.90900 29.78100
C  10.73800 49.33700 25.08100
C  6.05900 48.70400 25.95000
N  9.24800 48.67100 29.95800
C  8.42900 48.18400 30.91800
C  9.07600 48.26700 32.36800
C  10.49800 48.80900 32.12400
C  10.49000 48.74700 30.49200
C  10.85800 50.22500 32.65200
C  8.98700 46.98800 33.28000
C  8.40400 47.18100 34.67200
H  8.50100 45.94300 35.59000
N  10.94500 48.85300 27.46700
C  11.90400 48.91500 28.42000
C  13.18000 49.18300 27.82900
C  12.91100 49.31700 26.42000
C  11.48400 49.16800 26.23700
C  14.46200 49.37600 28.67200
C  13.92700 49.50600 25.31000
O  13.51400 49.66000 24.13100
C  15.35000 49.48900 25.63200
N  8.50800 48.91500 25.71300
C  9.44300 49.28300 24.83300
C  8.75100 49.78700 23.59600
C  7.23600 49.48800 23.87300
C  7.27300 48.93300 25.25100
C  9.11300 51.21800 23.06300
C  6.53100 48.56800 22.84500
C  6.86200 48.76400 21.33100
N  6.92100 48.11900 28.08000
C  5.83700 48.27700 27.25300
C  4.62000 48.01200 28.04000
C  5.05800 47.89900 29.38300
C  6.47800 47.91300 29.34400
C  3.25500 48.03900 27.51200
C  4.64000 47.78200 30.78600
O  3.51600 47.73300 31.31000
C  5.92800 47.68300 31.63200
C  5.87200 46.21400 32.21000
O  6.12500 45.12300 31.68800
O  5.47600 46.32500 33.52300
C  5.40800 45.09100 34.27100
H  12.47200 49.16400 30.46400
H  11.27300 49.58300 24.16100
H  5.14600 48.90300 25.38600
H  8.48000 49.04200 32.85100
H  11.26300 48.13200 32.50200
H  10.07000 50.60400 33.30300
H  11.00400 50.95500 31.85600
H  11.78900 50.23900 33.21900
H  9.96400 46.58700 33.54900
H  8.50900 46.14200 32.78600
H  7.40700 47.58700 34.50400
H  8.96000 47.98100 35.16000
H  14.57200 50.46000 28.64300
H  15.33600 49.02100 28.12600
H  14.39200 48.94700 29.67100
H  15.71300 50.18900 26.38500
H  15.84200 49.81000 24.71400
H  15.66400 48.49200 25.94000
H  8.99700 49.06400 22.81800
H  6.76000 50.46200 23.98800
H  8.23900 51.83700 23.26800
H  9.37100 51.30400 22.00800
H  9.85000 51.74300 23.67100
H  5.48500 48.87300 22.87100
H  6.68300 47.52300 23.11200
H  7.27400 49.76700 21.22100
H  5.93300 48.81000 20.76200
H  7.52300 47.99500 20.93200
H  3.22200 48.93100 26.88700
H  2.45800 48.03600 28.25600
H  3.20800 47.12600 26.91900
H  5.97100 48.42700 32.42700
H  4.62200 44.39700 33.97200
H  5.35300 45.37500 35.32200
H  6.32600 44.52800 34.10200

