158

Mg 7.20900 3.12600 27.49800
C  8.32400 1.93400 30.62200
C  5.12400 5.26500 29.21500
C  5.84800 4.13500 24.61800
C  8.96600 0.76900 25.92200
N  6.58000 3.32500 29.71200
C  7.27300 2.83800 30.77900
C  6.68400 3.31000 32.16500
C  5.58100 4.27500 31.59100
C  5.81100 4.37700 30.04700
C  4.05600 3.98800 31.96900
C  7.69600 3.99700 33.13900
C  7.22100 3.88700 34.62700
H  8.17400 3.66100 35.73900
N  5.90900 4.72800 26.96500
C  5.12000 5.43100 27.82000
C  4.29100 6.30900 27.14400
C  4.42100 5.96900 25.81700
C  5.36300 4.87100 25.72600
C  3.22900 7.19700 27.77000
C  3.75300 6.64000 24.59900
O  3.90400 6.26300 23.45500
C  2.88100 7.91700 24.70600
N  7.32700 2.51600 25.52000
C  6.71900 3.11600 24.44400
C  7.22400 2.53700 23.09100
C  8.28700 1.51800 23.57400
C  8.15500 1.55000 25.10700
C  5.98100 1.98000 22.26700
C  9.73000 1.84600 22.98900
C  10.55200 2.87000 23.74000
N  8.31900 1.48300 28.06900
C  9.13600 0.72500 27.32600
C  10.11600 -0.01000 28.16900
C  9.72500 0.38100 29.50200
C  8.72100 1.34500 29.36800
C  11.29100 -0.90100 27.80400
C  10.06900 0.15500 30.83600
O  10.98400 -0.58600 31.28800
C  9.17600 1.19600 31.70500
C  8.38100 0.44400 32.74400
O  7.26600 -0.01500 32.57400
O  8.99400 0.37500 33.99100
C  8.30500 -0.16900 35.12700
H  4.51700 5.96700 29.79100
H  5.37000 4.44600 23.68700
H  9.49700 0.02000 25.33100
H  6.18400 2.48200 32.66700
H  5.68600 5.26200 32.04300
H  3.97800 3.20200 32.72000
H  3.50100 3.84200 31.04100
H  3.59400 4.87300 32.40800
H  7.75600 5.03400 32.80600
H  8.71300 3.63100 32.99600
H  6.41300 3.16200 34.72700
H  6.86200 4.88500 34.87800
H  3.18500 7.25700 28.85800
H  2.19100 7.01800 27.49100
H  3.48000 8.19300 27.40700
H  3.54500 8.63500 25.18700
H  2.08800 7.79900 25.44500
H  2.44300 8.24300 23.76300
H  7.72200 3.28200 22.47000
H  8.02300 0.52200 23.22100
H  5.11300 2.23000 22.87700
H  6.02500 0.89500 22.17200
H  5.88600 2.53300 21.33200
H  9.81200 2.28300 21.99400
H  10.22100 0.88100 22.86400
H  11.40800 2.30500 24.11000
H  9.99600 3.35600 24.54200
H  10.85600 3.70800 23.11400
H  11.85600 -0.53600 26.94600
H  10.87900 -1.88400 27.57600
H  11.97500 -0.90500 28.65300
H  9.84400 1.85700 32.25800
H  8.36800 -1.25000 34.99900
H  7.33900 0.32700 35.22100
H  8.81200 -0.03800 36.08300
Mg -11.53600 38.41800 41.16300
C  -9.72300 35.35700 40.46300
C  -8.86000 40.13000 39.87200
C  -13.48300 41.17900 41.11200
C  -14.30700 36.41000 41.69500
N  -9.58000 37.77500 40.12300
C  -9.03100 36.44800 40.03700
C  -7.63900 36.47800 39.56300
C  -7.25000 38.01500 39.38900
C  -8.63600 38.70800 39.82600
C  -5.93400 38.45400 40.13400
C  -7.41900 35.77600 38.24000
C  -6.12800 34.87400 38.12500
H  -5.07700 35.42700 37.14500
N  -11.13200 40.38600 40.80100
C  -10.00100 40.93800 40.23700
C  -10.06100 42.38800 40.26800
C  -11.40000 42.71300 40.61300
C  -12.07500 41.37700 40.84500
C  -8.98800 43.31400 39.79600
C  -12.04200 44.07000 40.76300
O  -11.44900 45.08800 40.24200
C  -13.33500 44.25000 41.43800
N  -13.67500 38.73300 41.29200
C  -14.16700 39.95800 41.35200
C  -15.70500 39.92000 41.55800
C  -15.90500 38.44200 42.03400
C  -14.54400 37.78600 41.67800
C  -16.23200 41.04800 42.59800
C  -17.21300 37.83800 41.53700
C  -17.11500 37.19100 40.13300
N  -12.01000 36.35900 41.18300
C  -13.11600 35.66000 41.46600
C  -12.84200 34.19700 41.55200
C  -11.50600 34.05600 41.26600
C  -11.03500 35.38400 40.95500
C  -13.75000 33.20900 42.19800
C  -10.45100 33.04600 41.15500
O  -10.38900 31.83300 41.26600
C  -9.27900 33.92200 40.56000
C  -8.08500 33.58800 41.31700
O  -7.44400 32.57500 41.06700
O  -7.73100 34.62400 42.16800
C  -6.40800 34.60400 42.75300
H  -8.03300 40.78500 39.59100
H  -14.28000 41.91400 40.98400
H  -15.17200 35.81500 41.99300
H  -7.02700 36.16000 40.40700
H  -7.27100 38.33500 38.34700
H  -5.69200 37.89700 41.04000
H  -6.02600 39.50600 40.40100
H  -4.99900 38.45500 39.57400
H  -7.56700 36.38600 37.34900
H  -8.18300 35.00000 38.19900
H  -6.47500 33.87700 37.85500
H  -5.75900 34.75500 39.14400
H  -8.11100 42.84900 39.34600
H  -8.61900 43.99500 40.56300
H  -9.43300 43.96500 39.04300
H  -13.51500 43.59700 42.29200
H  -14.07600 44.20500 40.64000
H  -13.22500 45.26300 41.82600
H  -16.23300 39.98000 40.60600
H  -15.79800 38.49900 43.11700
H  -17.04700 40.66300 43.21000
H  -16.76000 41.79800 42.00800
H  -15.42200 41.50800 43.16300
H  -17.93700 38.65300 41.52700
H  -17.52700 37.17100 42.33900
H  -16.54600 37.70800 39.36000
H  -18.12200 37.23900 39.71700
H  -16.72500 36.17500 40.18900
H  -13.35000 32.20100 42.29800
H  -14.73800 33.34100 41.75600
H  -13.83000 33.59500 43.21500
H  -9.06100 33.59500 39.54300
H  -5.69800 34.95200 42.00300
H  -6.05400 33.65300 43.15200
H  -6.35300 35.28700 43.60000

