158

Mg 41.19500 6.74900 29.37300
C  42.68700 8.50300 32.25100
C  38.63300 5.87700 31.44400
C  39.86700 5.25500 26.84500
C  43.83600 7.91600 27.48900
N  40.77400 7.14000 31.52800
C  41.48900 7.86600 32.54300
C  40.73900 7.87700 33.89900
C  39.54800 6.93800 33.65900
C  39.65800 6.61000 32.09600
C  39.38500 5.72600 34.60700
C  40.27600 9.31200 34.39800
C  39.95500 9.35800 35.92800
H  40.62900 10.33100 36.80100
N  39.50400 5.61800 29.13000
C  38.55000 5.44500 30.06300
C  37.46200 4.73200 29.47100
C  37.83500 4.56000 28.07900
C  39.10400 5.12100 27.95500
C  36.27000 4.19100 30.20200
C  37.05200 3.92500 26.88400
O  37.57100 3.63000 25.81500
C  35.65300 3.54400 27.00000
N  41.78600 6.60000 27.44800
C  41.07400 5.82800 26.62400
C  41.72600 5.94500 25.17800
C  42.96300 6.88000 25.29000
C  42.85000 7.15400 26.83500
C  41.95800 4.60000 24.40900
C  42.81100 8.14700 24.34700
C  42.19800 9.42400 24.88200
N  42.86000 7.99900 29.68400
C  43.88300 8.39200 28.85000
C  44.93700 9.17600 29.47400
C  44.50000 9.29700 30.84900
C  43.22300 8.58300 30.91800
C  46.22500 9.69400 28.78300
C  44.81000 9.79500 32.07900
O  45.77000 10.45100 32.43400
C  43.73000 9.27000 33.09200
C  44.22800 8.32200 34.13800
O  44.91900 7.36500 33.93000
O  43.76000 8.68500 35.36700
C  44.10300 7.73200 36.44400
H  37.68900 5.86800 31.99300
H  39.60000 4.74300 25.91900
H  44.56800 8.27700 26.76400
H  41.25000 7.46600 34.77000
H  38.69000 7.57000 33.89000
H  40.18000 5.69600 35.35200
H  39.37700 4.81700 34.00600
H  38.45000 5.70600 35.16800
H  39.39800 9.59600 33.81700
H  41.09200 9.99200 34.15600
H  40.05600 8.34600 36.32100
H  38.94200 9.75800 35.97200
H  36.54900 3.93300 31.22400
H  35.94300 3.21400 29.84700
H  35.42600 4.87800 30.15300
H  34.99900 4.39500 27.19000
H  35.48200 2.68800 27.65400
H  35.38900 3.11400 26.03400
H  40.86600 6.40800 24.69300
H  43.90500 6.35700 25.12600
H  41.97500 3.72600 25.05900
H  42.91100 4.62500 23.88100
H  41.18300 4.39000 23.67100
H  42.13400 7.81000 23.56300
H  43.80600 8.37000 23.96100
H  42.90500 10.21900 24.64200
H  41.96200 9.37300 25.94400
H  41.30900 9.68100 24.30600
H  47.12500 9.26900 29.22900
H  46.13100 10.76000 28.99100
H  46.10500 9.39400 27.74200
H  43.18400 10.04600 33.62900
H  43.32700 6.96900 36.40400
H  44.10500 8.18500 37.43600
H  45.03200 7.16800 36.36300
Mg 6.52900 54.56800 40.96100
C  6.21300 51.01600 40.79100
C  9.74900 54.30400 40.10100
C  6.54000 57.97900 40.64800
C  2.95200 54.58400 41.29200
N  7.77500 52.87200 40.43600
C  7.50000 51.52400 40.50900
C  8.72200 50.72800 40.21700
C  9.84600 51.79500 40.23400
C  9.05900 53.10400 40.29000
C  10.79400 51.62100 41.49600
C  8.68700 49.95000 38.88200
C  8.50200 50.72800 37.51100
H  7.17400 50.65700 36.79500
N  7.89200 55.94200 40.41200
C  9.21400 55.64100 40.12000
C  9.93800 56.88900 39.94100
C  9.02400 57.89100 39.98600
C  7.72400 57.32200 40.35600
C  11.41800 56.82700 39.61700
C  9.26100 59.36000 39.64400
O  10.44200 59.76300 39.58400
C  8.19400 60.31500 39.31900
N  4.99100 56.07700 40.93200
C  5.25700 57.45100 40.98100
C  3.90100 58.20200 41.22200
C  2.80100 57.13500 41.16400
C  3.57600 55.79300 41.09300
C  4.08100 59.03000 42.46700
C  1.78200 57.26400 39.99400
C  0.32500 57.56400 40.38100
N  4.89500 53.13800 41.16300
C  3.52700 53.28000 41.37300
C  2.91400 51.98400 41.60300
C  3.97600 51.12400 41.47100
C  5.14000 51.81800 41.11600
C  1.45700 51.56300 41.90300
C  4.30400 49.74800 41.42700
O  3.57600 48.82900 41.72500
C  5.73800 49.55700 40.93600
C  5.65400 48.91200 39.57600
O  5.13100 49.42900 38.62000
O  6.28000 47.73800 39.67500
C  6.00900 47.02200 38.45600
H  10.83900 54.27400 40.03700
H  6.48500 59.07000 40.64100
H  1.91400 54.60900 41.62800
H  8.72700 50.09200 41.10300
H  10.41300 51.82800 39.30300
H  11.63300 51.03400 41.12300
H  10.26400 51.14200 42.32000
H  11.04900 52.57600 41.95600
H  8.08500 49.04900 38.99700
H  9.69900 49.59400 38.68500
H  9.13500 50.37200 36.69800
H  8.69700 51.79900 37.57000
H  12.10000 57.53200 40.09200
H  11.46700 57.08100 38.55800
H  11.80700 55.80900 39.65400
H  7.45300 59.68800 38.82200
H  8.50200 61.17000 38.71800
H  7.77000 60.76500 40.21600
H  3.83000 58.84700 40.34600
H  2.22400 56.99100 42.07700
H  4.21000 60.05600 42.12300
H  5.01700 58.77600 42.96400
H  3.18800 58.99200 43.09000
H  1.67900 56.26500 39.57000
H  2.12200 57.87500 39.15800
H  -0.10900 58.43600 39.89100
H  0.15300 57.61400 41.45700
H  -0.23700 56.66800 40.11900
H  1.32100 50.51700 42.17700
H  0.76800 51.65900 41.06400
H  1.21400 52.08800 42.82700
H  6.35200 48.86200 41.50900
H  5.04500 47.19300 37.97700
H  6.12600 46.01400 38.85300
H  6.86400 47.30200 37.84100

