158

Mg 35.58800 2.15800 29.90600
C  33.25300 3.08100 32.29700
C  37.95700 2.03600 32.41700
C  37.98000 1.43100 27.57300
C  33.25000 2.62400 27.43900
N  35.63000 2.67800 32.01600
C  34.48800 2.84700 32.86000
C  34.86900 2.69400 34.36500
C  36.42100 2.63700 34.33700
C  36.71000 2.43200 32.83000
C  37.18500 3.80900 34.97800
C  34.16500 1.44500 35.06500
C  33.63900 1.71700 36.46000
H  34.31900 2.73300 37.34000
N  37.71800 1.76300 29.98900
C  38.47800 1.79400 31.06500
C  39.88000 1.42700 30.70800
C  39.87700 1.19600 29.30500
C  38.46200 1.45500 28.87200
C  40.97800 1.49100 31.73400
C  41.14300 0.92000 28.34900
O  41.05500 0.69700 27.13900
C  42.48200 0.80300 28.94000
N  35.63100 2.08000 27.83100
C  36.76000 1.77600 27.04400
C  36.36600 1.80600 25.57300
C  34.88200 2.11200 25.57100
C  34.50800 2.22600 27.03800
C  37.22100 2.75300 24.79800
C  33.96100 1.04100 24.85300
C  33.35200 -0.22200 25.61700
N  33.60000 2.67700 29.86100
C  32.78300 2.78000 28.78500
C  31.51400 3.13200 29.27300
C  31.60600 3.24600 30.67700
C  32.91700 3.00200 30.93000
C  30.37900 3.65000 28.49000
C  30.93800 3.64000 31.81800
O  29.76500 3.91500 32.04600
C  32.00000 3.43800 32.97300
C  32.15300 4.78300 33.68900
O  32.39800 5.82700 33.18400
O  31.95900 4.70500 35.02100
C  32.19000 6.01500 35.71500
H  38.79100 2.03900 33.12200
H  38.74400 1.17300 26.83700
H  32.46000 2.81300 26.70900
H  34.53100 3.57700 34.90700
H  36.78300 1.74300 34.84500
H  37.94700 3.51100 35.69800
H  36.51900 4.40200 35.60500
H  37.60400 4.43600 34.19000
H  34.81200 0.57600 35.18400
H  33.33700 1.07800 34.45800
H  33.60300 0.80800 37.06000
H  32.61500 2.04900 36.29300
H  41.74300 0.71600 31.67600
H  40.62400 1.48400 32.76500
H  41.44200 2.47400 31.65400
H  42.58400 1.80200 29.36400
H  43.22400 0.66400 28.15400
H  42.57000 -0.01700 29.65400
H  36.69600 0.85100 25.16400
H  34.61400 3.07100 25.12800
H  36.73400 3.26800 23.97000
H  38.10200 2.21500 24.44700
H  37.57900 3.53500 25.46700
H  34.40800 0.80600 23.88700
H  33.02500 1.55800 24.64400
H  33.87000 -0.30900 26.57200
H  33.56900 -1.15600 25.09700
H  32.26500 -0.15800 25.65400
H  30.54000 3.68000 27.41200
H  30.17500 4.69000 28.74300
H  29.46800 3.05600 28.56500
H  31.60600 2.77100 33.73900
H  31.38600 6.74900 35.75900
H  33.07900 6.54900 35.38000
H  32.39700 5.85000 36.77200
Mg 46.33400 25.45900 28.04100
C  47.62300 27.64200 30.64500
C  46.55700 22.91900 30.34700
C  45.83800 23.34400 25.45100
C  47.24700 27.89700 25.74200
N  47.07200 25.31700 30.27800
C  47.36600 26.30700 31.15500
C  47.52200 25.85200 32.57900
C  47.33300 24.30700 32.45100
C  46.97400 24.11000 30.96900
C  48.50200 23.27300 32.89600
C  46.68900 26.51500 33.66300
C  46.50700 25.88800 35.06500
H  46.82600 26.68600 36.37400
N  45.93100 23.47800 27.95400
C  46.13000 22.59600 28.99300
C  45.91300 21.21600 28.47300
C  45.48700 21.39200 27.11100
C  45.69400 22.75400 26.73600
C  45.98000 19.92000 29.30400
C  45.24800 20.26300 26.09100
O  44.83000 20.52500 24.96300
C  45.33500 18.79800 26.40500
N  46.36900 25.67300 25.87500
C  46.15000 24.62700 25.06800
C  46.44300 24.96100 23.59500
C  46.63100 26.50600 23.72700
C  46.78600 26.73000 25.21300
C  47.70100 24.20700 23.13300
C  45.39500 27.37000 23.23100
C  45.83700 28.52500 22.38900
N  47.14800 27.44300 28.10700
C  47.46100 28.26300 27.10000
C  47.91500 29.46500 27.67300
C  47.98000 29.30800 29.03000
C  47.55600 28.02100 29.29800
C  48.35500 30.72200 26.97100
C  48.39700 29.89900 30.24100
O  48.79900 31.01900 30.46800
C  48.07200 28.91700 31.36800
C  49.25000 28.82900 32.37900
O  50.24900 28.10600 32.31900
O  49.02100 29.64300 33.45200
C  49.87500 29.58400 34.61200
H  46.53700 22.07300 31.03700
H  45.65800 22.74200 24.55800
H  47.50400 28.66200 25.00600
H  48.51600 26.10100 32.95100
H  46.38800 24.01600 32.90800
H  49.04200 22.85900 32.04400
H  47.95000 22.44300 33.33600
H  49.18000 23.66700 33.65300
H  45.74000 26.62900 33.13900
H  46.96900 27.56700 33.72400
H  47.01200 24.93000 35.19100
H  45.42000 25.81400 35.02800
H  46.15700 20.28900 30.31400
H  46.68500 19.17400 28.93700
H  44.96600 19.53900 29.18000
H  45.09900 18.26000 25.48700
H  44.66100 18.62800 27.24500
H  46.38400 18.66700 26.67400
H  45.53400 24.73700 23.03700
H  47.58700 26.75900 23.27000
H  47.71400 23.24900 23.65200
H  48.62300 24.77200 23.26600
H  47.61000 23.96700 22.07400
H  44.84600 27.79000 24.07400
H  44.69900 26.70000 22.72700
H  45.71000 28.35400 21.32100
H  46.80700 28.89500 22.72100
H  45.19200 29.39800 22.49500
H  47.82600 30.81300 26.02300
H  49.43400 30.69200 26.81800
H  48.18400 31.65700 27.50500
H  47.22200 29.38800 31.86300
H  49.48300 28.96000 35.41400
H  50.16900 30.56700 34.98100
H  50.88700 29.27200 34.35300

