158

Mg 24.51900 -5.28300 45.70600
C  26.59700 -3.29200 43.63700
C  21.86200 -4.64600 43.61300
C  22.99500 -8.26500 46.68600
C  27.42700 -6.37100 47.46100
N  24.34200 -4.34100 43.68400
C  25.28400 -3.42900 43.14000
C  24.64800 -2.63000 42.02000
C  23.11500 -2.80600 42.34500
C  23.07300 -4.03200 43.23000
C  22.42500 -1.57200 42.94200
C  25.33800 -3.18400 40.66100
C  25.79800 -2.04900 39.78300
H  25.63400 -2.37300 38.31600
N  22.63100 -6.23100 45.34700
C  21.69600 -5.73300 44.48800
C  20.48300 -6.46700 44.68800
C  20.79500 -7.61700 45.56300
C  22.17800 -7.41600 45.90600
C  19.19700 -6.02700 44.02700
C  19.79800 -8.66100 45.94200
O  18.70000 -8.62700 45.32600
C  20.03000 -9.78700 46.91700
N  25.16100 -7.03700 46.97400
C  24.28100 -8.15800 47.14800
C  25.04700 -9.28300 47.97800
C  26.22200 -8.45400 48.54100
C  26.35900 -7.28400 47.60400
C  24.22000 -10.14300 49.10400
C  27.54800 -9.23100 48.75900
C  28.55500 -8.82300 49.85000
N  26.55100 -4.86600 45.70500
C  27.59800 -5.31400 46.52700
C  28.82000 -4.67500 46.03700
C  28.46500 -3.90900 44.94500
C  27.09000 -4.09100 44.68600
C  30.18600 -4.94400 46.54100
C  28.95800 -3.04200 43.92100
O  30.10900 -2.75600 43.73900
C  27.80700 -2.63100 42.97500
C  27.89800 -1.15400 43.08900
O  27.67400 -0.51600 44.06100
O  28.39900 -0.59700 41.94700
C  28.75200 0.82000 41.90600
H  20.95800 -4.26100 43.13500
H  22.49300 -9.16700 47.04200
H  28.30200 -6.72200 48.01100
H  24.82800 -1.56300 42.15000
H  22.67800 -3.05000 41.37600
H  21.76000 -1.17400 42.17600
H  23.09000 -0.76000 43.23700
H  21.80200 -1.92400 43.76400
H  24.60100 -3.73600 40.07800
H  26.13600 -3.91300 40.79900
H  26.86800 -1.92200 39.94500
H  25.31200 -1.14300 40.14200
H  18.32100 -6.05600 44.67500
H  19.03500 -6.58900 43.10700
H  19.22200 -4.98100 43.71900
H  20.53100 -9.35800 47.78500
H  20.41300 -10.69700 46.45700
H  19.05800 -10.10500 47.29500
H  25.50300 -9.90500 47.20800
H  25.92200 -8.02000 49.49500
H  24.65200 -10.29200 50.09300
H  24.24800 -11.14500 48.67500
H  23.16400 -9.87200 49.12600
H  28.11200 -9.08200 47.83900
H  27.40800 -10.29500 48.94500
H  28.78800 -9.58200 50.59600
H  28.21700 -7.93800 50.39000
H  29.42500 -8.39900 49.34900
H  30.01000 -5.65400 47.34900
H  30.59500 -4.01200 46.93300
H  30.84100 -5.43700 45.82300
H  27.90300 -3.01200 41.95800
H  28.02100 1.49800 42.34700
H  28.62000 1.20200 40.89400
H  29.71500 1.07700 42.34600
Mg 41.04400 40.85400 26.99300
C  40.54600 43.20100 29.60700
C  42.16700 38.69400 29.27500
C  41.78700 38.71000 24.42900
C  40.40400 43.31200 24.68000
N  41.25700 40.94300 29.22100
C  40.95600 41.95900 30.04900
C  40.98600 41.51400 31.56900
C  41.56200 40.04200 31.39200
C  41.71500 39.85900 29.87700
C  42.89000 39.84800 32.17900
C  39.57600 41.56900 32.23800
C  39.41000 42.43800 33.51200
H  39.05800 41.88100 34.96900
N  41.82300 38.95500 26.88100
C  42.17600 38.25400 27.94900
C  42.62500 36.94400 27.49600
C  42.45500 36.84000 26.08800
C  41.98000 38.19000 25.79100
C  43.26300 35.97900 28.41900
C  42.60400 35.68500 25.20500
O  42.52100 35.87000 23.96900
C  42.88900 34.30000 25.66200
N  41.00600 40.88000 24.88700
C  41.35100 39.89100 23.98200
C  41.09200 40.20800 22.52100
C  40.81700 41.77700 22.62700
C  40.65400 41.99800 24.18500
C  42.17000 39.88500 21.39600
C  39.53900 42.29700 21.92500
C  39.88000 43.45600 21.00000
N  40.34000 42.79200 27.03000
C  40.12400 43.70900 26.02800
C  39.95200 44.97700 26.53800
C  39.95900 44.82300 27.87900
C  40.30600 43.48200 28.20000
C  39.74400 46.26700 25.78200
C  39.80900 45.51800 29.17600
O  39.40100 46.63500 29.42000
C  40.17300 44.49100 30.31200
C  41.31100 45.00400 31.17600
O  42.46600 45.08900 30.84800
O  40.84600 45.28300 32.45300
C  41.73900 45.98700 33.40500
H  42.49800 37.96000 30.01300
H  41.96300 38.02900 23.59400
H  40.20700 44.09900 23.94900
H  41.71300 42.10700 32.12500
H  40.76300 39.40200 31.76900
H  43.12800 40.78200 32.68800
H  43.69000 39.73200 31.44800
H  43.02000 39.02700 32.88500
H  39.12200 40.61600 32.50900
H  38.90500 42.03900 31.51900
H  38.56300 43.08800 33.29400
H  40.30200 43.03100 33.71500
H  42.58800 35.21800 28.81000
H  43.71000 36.44400 29.29800
H  44.03600 35.44000 27.87200
H  42.21400 34.10900 26.49600
H  43.92200 34.30100 26.00800
H  42.76100 33.58100 24.85200
H  40.16600 39.68400 22.28300
H  41.66900 42.41300 22.38500
H  42.62400 40.78000 20.97000
H  41.73400 39.25100 20.62400
H  42.97800 39.40500 21.94800
H  38.76300 42.64700 22.60600
H  39.16700 41.53800 21.23700
H  39.10100 44.20100 21.15900
H  39.93300 43.13700 19.95900
H  40.83500 43.95900 21.15000
H  39.15100 46.99800 26.33200
H  39.28000 46.11400 24.80800
H  40.72600 46.73300 25.70000
H  39.32700 44.23500 30.95000
H  42.72600 46.07900 32.95100
H  41.82500 45.31100 34.25600
H  41.19700 46.91600 33.58200

