158

Mg 2.13500 -0.25400 42.89600
C  5.66100 -0.03800 42.61400
C  1.82700 2.53400 40.93200
C  -1.08100 -0.98800 42.41800
C  2.67400 -3.46000 44.23600
N  3.55700 1.09500 41.87800
C  4.98300 1.03200 41.91800
C  5.57300 2.12700 41.06500
C  4.36800 3.12300 40.89700
C  3.20100 2.20100 41.18200
C  4.39500 4.37100 41.90500
C  6.04200 1.58500 39.67200
C  7.46300 2.06200 39.23800
H  7.55500 2.52200 37.77500
N  0.54200 0.69500 41.97000
C  0.64800 1.85000 41.23400
C  -0.70900 2.20000 40.83600
C  -1.59900 1.32600 41.38900
C  -0.74500 0.25900 41.93500
C  -1.04200 3.57100 40.03200
C  -3.21900 1.46400 41.41200
O  -3.75200 2.38100 40.87200
C  -4.07500 0.39500 42.00600
N  0.96200 -2.07400 43.14200
C  -0.36700 -2.04300 43.00100
C  -0.98000 -3.32400 43.52500
C  0.11700 -4.02200 44.31700
C  1.34800 -3.18100 43.85700
C  -2.26200 -3.08400 44.42200
C  0.41800 -5.54100 43.97500
C  -0.28200 -6.57300 44.87400
N  3.77600 -1.47300 43.47200
C  3.78000 -2.73200 43.96500
C  5.21400 -3.22800 44.06700
C  5.98100 -2.13800 43.58800
C  5.04500 -1.13700 43.26200
C  5.71500 -4.58700 44.61200
C  7.28300 -1.68700 43.35400
O  8.34000 -2.31900 43.52900
C  7.14100 -0.29200 42.67900
C  7.80100 0.76500 43.54800
O  7.71500 0.82600 44.76300
O  8.59000 1.65000 42.77700
C  9.11400 2.85800 43.42400
H  1.71000 3.43000 40.31800
H  -2.14000 -1.23300 42.31600
H  2.84500 -4.39000 44.78200
H  6.33400 2.70100 41.59300
H  4.22800 3.50500 39.88600
H  5.44900 4.64200 41.95500
H  3.97200 3.96100 42.82300
H  3.83800 5.23900 41.55300
H  5.28400 1.80500 38.92000
H  5.99200 0.49800 39.73300
H  8.25800 1.34100 39.42900
H  7.75900 2.91800 39.84600
H  -0.17500 4.04600 39.57300
H  -1.44600 4.22200 40.80700
H  -1.79400 3.55100 39.24300
H  -5.13900 0.54100 41.82200
H  -3.86500 0.29200 43.07100
H  -3.91600 -0.58200 41.55100
H  -1.33600 -3.84100 42.63400
H  0.13000 -3.73000 45.36700
H  -2.29500 -2.01400 44.62600
H  -2.15400 -3.63800 45.35500
H  -3.13900 -3.42200 43.87100
H  1.46800 -5.83300 43.96900
H  0.05100 -5.72200 42.96500
H  -1.06900 -5.97600 45.33600
H  0.31900 -7.05300 45.64700
H  -0.80500 -7.29500 44.24800
H  4.98500 -5.29600 45.00200
H  6.44400 -4.42300 45.40600
H  6.26800 -5.08000 43.81200
H  7.69100 -0.33200 41.73900
H  8.61200 3.72000 42.98400
H  10.15600 2.95500 43.11800
H  9.10700 2.78200 44.51100
Mg 44.28900 4.10700 48.20800
C  42.06700 6.84700 47.69000
C  41.43900 2.04100 47.93600
C  46.31100 1.39800 48.00400
C  47.01100 6.24200 48.02300
N  42.01800 4.42300 48.03200
C  41.34000 5.65500 47.74400
C  39.85000 5.47100 47.54400
C  39.74500 3.94500 47.69800
C  41.17400 3.38500 47.91300
C  38.71500 3.49300 48.77800
C  39.45200 5.92800 46.12100
C  37.99200 6.44100 46.07500
H  37.28700 6.37500 44.71500
N  43.96500 2.02400 48.05200
C  42.73900 1.43400 47.91600
C  42.97500 -0.03600 47.71600
C  44.40200 -0.17700 47.62500
C  44.92800 1.09400 47.92500
C  41.96400 -1.15000 47.51700
C  45.11400 -1.49400 47.33200
O  44.58600 -2.61800 47.31600
C  46.57900 -1.55700 46.96800
N  46.32200 3.85200 47.77100
C  46.94200 2.64100 47.98900
C  48.41600 2.82900 48.21200
C  48.67400 4.32800 47.72200
C  47.25800 4.81200 47.92300
C  48.80100 2.46000 49.71800
C  49.26900 4.58400 46.33500
C  50.73700 5.09800 46.34000
N  44.56400 6.17500 48.03100
C  45.71700 6.91800 47.98500
C  45.42300 8.32400 48.03300
C  43.99600 8.34600 47.87100
C  43.48700 7.01500 47.85100
C  46.37800 9.42400 48.32900
C  42.80200 9.19500 47.76600
O  42.73900 10.42000 47.74000
C  41.52000 8.27900 47.66600
C  40.63900 8.60000 48.81200
O  40.84100 8.30700 49.96900
O  39.55600 9.35100 48.37000
C  38.55100 9.72200 49.40600
H  40.51400 1.46500 47.86200
H  47.03700 0.58400 48.06600
H  47.91800 6.84500 47.94100
H  39.23600 5.94800 48.30800
H  39.33900 3.35900 46.87300
H  37.89700 4.21400 48.79600
H  39.20500 3.62700 49.74300
H  38.40000 2.45100 48.72300
H  39.44800 5.00000 45.54900
H  40.06300 6.69400 45.64200
H  37.98500 7.49100 46.36900
H  37.31400 5.98500 46.79700
H  41.86700 -1.45200 46.47400
H  40.99100 -0.71300 47.74100
H  42.13000 -1.98300 48.20000
H  47.09400 -1.54700 47.92800
H  46.91100 -0.70400 46.37600
H  46.73100 -2.42900 46.33100
H  48.86500 2.08700 47.55200
H  49.36700 4.66300 48.49400
H  47.89000 2.46400 50.31800
H  49.45500 3.23800 50.11100
H  49.26100 1.47200 49.72600
H  48.66700 5.38200 45.90100
H  49.25800 3.71700 45.67400
H  50.80300 6.18400 46.39900
H  51.06500 4.82400 45.33700
H  51.39300 4.61800 47.06600
H  46.57900 9.42600 49.40000
H  46.08200 10.43700 48.05900
H  47.28700 9.19400 47.77400
H  41.03300 8.62900 46.75600
H  37.69200 10.01100 48.80000
H  39.01300 10.52700 49.97800
H  38.31300 8.87300 50.04700

