158

Mg 49.31700 45.14900 43.22800
C  46.39600 46.35900 41.84200
C  49.04800 42.18600 41.28900
C  52.62800 44.29500 43.76700
C  50.00400 48.43900 44.27800
N  47.97100 44.36200 41.77200
C  46.78000 45.09000 41.35300
C  46.12300 44.22700 40.26600
C  46.94200 42.92700 40.18500
C  48.05800 43.18700 41.17400
C  46.12500 41.55100 40.49600
C  45.97700 45.02400 38.90300
C  44.53800 45.21700 38.41000
H  44.42600 44.55500 37.00500
N  50.62000 43.39100 42.81800
C  50.31000 42.33300 41.95200
C  51.39400 41.43100 41.97500
C  52.42000 41.99500 42.77600
C  51.88100 43.25800 43.26600
C  51.35900 40.14100 41.24200
C  53.84300 41.34000 43.06500
O  54.10900 40.22700 42.62700
C  54.78100 41.98600 43.91200
N  51.04100 46.21900 44.02800
C  52.30500 45.61100 44.08800
C  53.36400 46.70200 44.40300
C  52.41000 47.93900 44.74600
C  51.05300 47.48500 44.29000
C  54.34300 46.24000 45.48800
C  52.91200 49.36000 44.20400
C  52.92800 50.49700 45.16400
N  48.31000 46.95000 43.33300
C  48.64600 48.20500 43.88000
C  47.51000 49.07500 43.80300
C  46.63500 48.39000 43.02300
C  47.12800 47.11500 42.74100
C  47.40200 50.50500 44.35500
C  45.32100 48.45600 42.36800
O  44.42600 49.24800 42.44000
C  45.21300 47.15900 41.49200
C  44.00500 46.38500 41.89800
O  42.95700 46.40700 41.32700
O  44.18600 45.58300 43.02800
C  42.95600 44.85700 43.56700
H  48.98300 41.42100 40.51200
H  53.71300 44.22300 43.86700
H  50.26900 49.46400 44.54500
H  45.17300 44.01700 40.75700
H  47.40000 42.88800 39.19700
H  45.05000 41.71100 40.57500
H  46.41500 41.03700 41.41200
H  46.26000 40.98600 39.57400
H  46.56400 44.60700 38.08500
H  46.37800 46.03000 39.02500
H  44.20400 46.25400 38.38200
H  43.92200 44.68000 39.13100
H  50.34900 39.76500 41.07800
H  51.74100 39.31900 41.84800
H  51.85100 40.27800 40.28000
H  54.33800 42.50300 44.76300
H  55.41600 42.70800 43.39900
H  55.42200 41.16400 44.23100
H  53.98600 46.86000 43.52200
H  52.24900 47.93400 45.82400
H  54.06300 45.25600 45.86400
H  54.33100 46.87400 46.37500
H  55.35500 46.35000 45.10000
H  52.20500 49.68600 43.44100
H  53.89400 49.28600 43.73600
H  52.49400 51.37900 44.69400
H  53.94000 50.69300 45.51900
H  52.36200 50.38900 46.08900
H  47.78500 51.15500 43.56800
H  48.08000 50.60600 45.20200
H  46.39800 50.81100 44.65200
H  45.13200 47.46700 40.44900
H  42.22900 45.58700 43.92200
H  43.24100 44.19300 44.38300
H  42.52200 44.29400 42.74100
Mg -9.66000 40.27400 39.30300
C  -8.87900 36.99900 38.43500
C  -6.44100 41.15400 38.27200
C  -10.68400 43.54600 39.07100
C  -13.04600 39.36700 39.67200
N  -7.93200 39.20500 38.33700
C  -7.82700 37.84100 38.16700
C  -6.39000 37.50800 37.65500
C  -5.60200 38.80500 37.90200
C  -6.70800 39.80700 38.22100
C  -4.48200 38.63500 38.93800
C  -6.36700 36.93000 36.17800
C  -7.14900 37.75600 35.18900
H  -8.29400 37.00700 34.46200
N  -8.65800 42.04000 38.82500
C  -7.34100 42.23700 38.49600
C  -7.02000 43.64000 38.32900
C  -8.23300 44.35900 38.59700
C  -9.30000 43.30000 38.83200
C  -5.60300 44.03100 38.20300
C  -8.28900 45.85600 38.68900
O  -7.36800 46.58200 38.39100
C  -9.50600 46.61000 39.27600
N  -11.61500 41.31300 39.36100
C  -11.77900 42.67100 39.30800
C  -13.31200 43.11400 39.46800
C  -13.99300 41.73000 39.57700
C  -12.84500 40.71800 39.48300
C  -13.60100 44.18800 40.57200
C  -15.19100 41.34900 38.65900
C  -16.65100 41.28100 39.35600
N  -10.79300 38.58000 39.29100
C  -12.13900 38.36400 39.46600
C  -12.35100 36.94600 39.47100
C  -11.10800 36.39400 39.16700
C  -10.14600 37.42200 38.97300
C  -13.61900 36.26400 39.37400
C  -10.38300 35.15100 38.84500
O  -10.85500 33.97000 38.90200
C  -8.93100 35.46700 38.32500
C  -7.87900 34.74700 39.11300
O  -8.02100 34.32500 40.25500
O  -6.82800 34.45400 38.23900
C  -5.73600 33.81600 38.91300
H  -5.40100 41.39300 38.03900
H  -11.04200 44.57100 38.95500
H  -14.07600 39.03300 39.81300
H  -6.17800 36.73800 38.39600
H  -5.12900 39.25700 37.03000
H  -4.26900 37.58300 39.12700
H  -4.78400 39.12600 39.86300
H  -3.50500 38.99000 38.61000
H  -6.72200 35.90500 36.28200
H  -5.38000 36.80900 35.73000
H  -6.33400 38.01100 34.51100
H  -7.63600 38.67600 35.51200
H  -5.36300 45.08100 38.03500
H  -5.08500 43.42800 37.45800
H  -5.12900 43.83400 39.16400
H  -9.77600 45.97000 40.11500
H  -10.31200 46.70600 38.54800
H  -9.15700 47.54300 39.71900
H  -13.61100 43.49100 38.49000
H  -14.37500 41.60400 40.58900
H  -12.71500 44.77500 40.81700
H  -13.98500 43.69800 41.46700
H  -14.35700 44.91100 40.26400
H  -15.04000 40.37100 38.20100
H  -15.27700 42.04100 37.82200
H  -17.12300 40.37700 38.97000
H  -17.29700 42.02500 38.88900
H  -16.56500 41.22300 40.44100
H  -14.46100 36.94900 39.27600
H  -13.78700 35.66400 40.26900
H  -13.67900 35.67900 38.45600
H  -8.95000 35.09000 37.30300
H  -5.92800 32.77100 39.15600
H  -5.35300 34.38300 39.76200
H  -4.91400 33.93300 38.20700

