158

Mg 24.47100 -7.04500 47.38300
C  27.18700 -4.96400 46.34800
C  22.69700 -5.59100 44.88000
C  22.22800 -9.47500 47.70900
C  26.76400 -8.74500 49.38200
N  24.83100 -5.34800 45.94100
C  26.01400 -4.79600 45.58600
C  25.78500 -3.74500 44.50200
C  24.22600 -3.68300 44.31200
C  23.89500 -4.96700 45.05300
C  23.45200 -2.44600 44.80700
C  26.51100 -4.13000 43.11100
C  27.05800 -2.91100 42.37200
H  26.88700 -2.83700 40.84500
N  22.64700 -7.43200 46.54300
C  22.12500 -6.71100 45.48600
C  20.78500 -7.16100 45.26700
C  20.54300 -8.33600 46.11400
C  21.89600 -8.46600 46.81700
C  19.76300 -6.45900 44.35300
C  19.36200 -9.18500 46.24800
O  18.33900 -8.95600 45.59100
C  19.26700 -10.37700 47.14900
N  24.49000 -8.82100 48.47300
C  23.43100 -9.66700 48.45200
C  23.64800 -10.86200 49.37700
C  25.12600 -10.65300 49.83100
C  25.49500 -9.37300 49.22500
C  22.66200 -10.98000 50.58300
C  26.12400 -11.80300 49.55400
C  27.00500 -12.00700 50.78100
N  26.52500 -6.88200 47.88000
C  27.30600 -7.60900 48.71600
C  28.55900 -7.05100 48.81700
C  28.59600 -5.98800 47.93200
C  27.33500 -5.90000 47.38900
C  29.71300 -7.63600 49.66200
C  29.38300 -4.88900 47.35800
O  30.46800 -4.45800 47.67500
C  28.53100 -4.23200 46.31600
C  28.47400 -2.76400 46.64100
O  28.18100 -2.26600 47.70500
O  28.76300 -2.03800 45.50900
C  28.66600 -0.61500 45.71000
H  22.14700 -5.12000 44.06200
H  21.61000 -10.32800 47.99500
H  27.57600 -9.25800 49.90000
H  26.12800 -2.75300 44.79500
H  23.94000 -3.79700 43.26700
H  23.01100 -1.89200 43.97800
H  24.07900 -1.91300 45.52100
H  22.50700 -2.75600 45.25300
H  25.84000 -4.68200 42.45200
H  27.38100 -4.78500 43.15200
H  28.10100 -2.81900 42.67500
H  26.50500 -2.07400 42.79900
H  19.14900 -7.15400 43.78000
H  20.33300 -5.81200 43.68600
H  19.14800 -5.79500 44.96000
H  20.00800 -11.12000 46.85500
H  18.29000 -10.81800 46.95200
H  19.44300 -10.02700 48.16600
H  23.62600 -11.79700 48.81700
H  25.22600 -10.47800 50.90200
H  23.23800 -10.96500 51.50900
H  22.18300 -11.94200 50.40400
H  21.96000 -10.14600 50.59700
H  26.65700 -11.49200 48.65600
H  25.66100 -12.76800 49.34500
H  27.71500 -12.77000 50.46300
H  26.39800 -12.49400 51.54400
H  27.38200 -11.07800 51.20900
H  30.53700 -6.93200 49.78100
H  30.03000 -8.48500 49.05500
H  29.43600 -8.05200 50.63100
H  28.93200 -4.41900 45.32000
H  29.29200 -0.34600 46.56100
H  27.67800 -0.15700 45.75900
H  29.21100 -0.14100 44.89400
Mg 6.87900 53.44300 40.82800
C  6.52200 50.04100 40.46700
C  10.36600 52.99100 40.50100
C  7.29300 56.77800 40.32600
C  3.41800 53.82700 40.84700
N  8.19300 51.75700 40.37500
C  7.83600 50.40200 40.37300
C  9.05200 49.49500 40.27600
C  10.26000 50.42600 40.51700
C  9.58400 51.83700 40.52100
C  11.10300 50.07400 41.83800
C  9.22600 48.70700 38.96200
C  9.10000 49.29300 37.56000
H  7.97900 48.81200 36.62600
N  8.56200 54.72500 40.59000
C  9.87300 54.31900 40.42400
C  10.71100 55.49400 40.21200
C  9.80100 56.59300 40.10600
C  8.48400 56.08300 40.33600
C  12.24400 55.52100 40.06400
C  10.18700 57.98800 39.65800
O  11.37800 58.17800 39.56400
C  9.20600 59.16100 39.42500
N  5.53700 55.04500 40.60600
C  5.99300 56.33200 40.54400
C  4.81000 57.33000 40.41500
C  3.57400 56.45200 40.98700
C  4.14000 55.03300 40.78000
C  4.90400 58.66000 41.20400
C  2.20600 56.77600 40.25200
C  0.89400 56.79200 41.06100
N  5.24500 52.18400 40.80700
C  3.94500 52.46600 40.89500
C  3.28000 51.22900 41.16800
C  4.22100 50.23100 41.04700
C  5.37800 50.89100 40.67300
C  1.72000 51.05400 41.36600
C  4.43200 48.82800 40.99800
O  3.67600 47.91100 41.19500
C  5.93600 48.66900 40.53200
C  5.80800 47.95900 39.18600
O  5.35400 48.44700 38.16500
O  6.08800 46.62400 39.29300
C  5.50200 45.84400 38.14400
H  11.44600 52.84100 40.56100
H  7.23400 57.84100 40.08200
H  2.35600 53.97400 41.05500
H  8.98100 48.74500 41.06400
H  11.09400 50.31900 39.82300
H  11.15100 50.97700 42.44500
H  12.15700 49.90600 41.61600
H  10.68700 49.34300 42.53200
H  8.39400 48.00900 39.04800
H  10.15700 48.16600 39.13200
H  9.99600 49.10100 36.96900
H  9.06700 50.37600 37.68400
H  12.59800 55.90700 39.10800
H  12.64000 54.51000 40.15800
H  12.72800 56.10600 40.84700
H  8.61200 58.94700 38.53700
H  9.70000 60.07700 39.09900
H  8.68600 59.20400 40.38100
H  4.72300 57.63500 39.37300
H  3.43700 56.71400 42.03700
H  5.78200 58.62800 41.84900
H  4.01500 58.86800 41.80000
H  5.01500 59.46900 40.48200
H  2.03800 56.09200 39.42000
H  2.25500 57.76700 39.80200
H  0.28900 57.65100 40.77100
H  1.09900 56.66800 42.12500
H  0.35000 55.89900 40.75300
H  1.18700 51.45200 40.50200
H  1.28500 51.57300 42.22000
H  1.49500 49.98900 41.41800
H  6.38700 48.08200 41.33200
H  5.98300 44.87200 38.02800
H  5.57800 46.25800 37.13900
H  4.44200 45.68700 38.34700

