158

Mg -2.79100 17.75300 26.86900
C  -3.35700 15.47500 29.49100
C  -3.18800 20.27800 29.14300
C  -2.36000 19.78900 24.37600
C  -2.82000 14.91400 24.68100
N  -3.11600 17.80600 29.00200
C  -3.20500 16.81500 29.89100
C  -3.22700 17.27700 31.36600
C  -3.44300 18.77000 31.18800
C  -3.22200 18.97400 29.65800
C  -4.83400 19.24800 31.72400
C  -1.92100 16.90900 32.04100
C  -1.50300 17.77600 33.31200
H  -1.08700 16.98400 34.63500
N  -2.76500 19.79700 26.80100
C  -2.85800 20.64400 27.80700
C  -2.81000 21.99000 27.29200
C  -2.38500 21.85000 25.93000
C  -2.48500 20.45900 25.66100
C  -3.09500 23.23200 28.16000
C  -1.86000 22.89700 24.99700
O  -1.54100 22.68100 23.80400
C  -1.62500 24.30300 25.44700
N  -2.78400 17.43300 24.76100
C  -2.41100 18.42500 23.98400
C  -2.32000 17.94200 22.50300
C  -2.24400 16.36300 22.59700
C  -2.64100 16.18000 24.06400
C  -3.42000 18.46100 21.62000
C  -0.77000 15.88100 22.32500
C  0.17100 15.80700 23.55700
N  -3.14700 15.62300 26.95500
C  -3.15200 14.64100 26.03800
C  -3.44200 13.33800 26.65300
C  -3.47100 13.58500 27.99400
C  -3.25800 14.94600 28.15500
C  -3.59600 11.98500 26.04400
C  -3.58100 12.99500 29.24000
O  -3.76800 11.87300 29.59300
C  -3.56900 14.18400 30.28600
C  -2.47700 13.84400 31.20600
O  -1.27500 13.79100 30.98000
O  -3.08700 13.40000 32.41900
C  -2.13600 12.90500 33.42200
H  -3.14500 21.13900 29.81300
H  -2.19400 20.38400 23.47600
H  -2.74200 14.07500 23.98700
H  -4.04900 16.77600 31.87800
H  -2.78400 19.44400 31.73600
H  -5.17100 18.67700 32.58900
H  -5.60800 19.14900 30.96300
H  -4.70600 20.31800 31.88900
H  -1.08100 16.95100 31.34700
H  -1.87000 15.89800 32.44500
H  -2.37500 18.40600 33.48900
H  -0.76300 18.53100 33.04700
H  -3.98000 23.02000 28.76000
H  -3.37000 24.11100 27.57800
H  -2.27900 23.48100 28.83700
H  -2.49200 24.95100 25.57100
H  -0.94200 24.75600 24.72900
H  -1.07100 24.16200 26.37500
H  -1.42700 18.46500 22.16000
H  -2.87500 15.80400 21.90600
H  -4.42800 18.13900 21.88200
H  -3.42500 17.97700 20.64300
H  -3.30900 19.54600 21.60600
H  -0.30900 16.48600 21.54500
H  -1.01700 14.88700 21.95200
H  -0.32000 15.97500 24.51600
H  1.00400 16.49300 23.40400
H  0.64600 14.83100 23.64800
H  -2.74400 11.40300 26.39500
H  -3.61700 11.99000 24.95500
H  -4.53800 11.61300 26.44700
H  -4.48900 14.31500 30.85600
H  -1.31300 12.38300 32.93200
H  -2.63900 12.23100 34.11500
H  -1.85400 13.80000 33.97500
Mg 42.66200 41.48300 26.80600
C  41.62800 43.69100 29.35700
C  43.96200 39.47600 29.26500
C  44.18200 39.81800 24.42300
C  41.79800 44.03400 24.46600
N  42.66200 41.51000 29.01300
C  42.03900 42.41300 29.82800
C  42.18300 42.09800 31.32200
C  42.92100 40.76700 31.28300
C  43.21200 40.53900 29.74400
C  44.28400 40.69800 32.08100
C  40.78600 41.99700 32.07500
C  40.99700 41.66800 33.57900
H  40.05800 42.42100 34.54200
N  43.86900 39.86500 26.85400
C  44.13000 39.03600 27.91300
C  44.83300 37.85000 27.37600
C  44.86500 37.87200 25.96000
C  44.34400 39.26300 25.72800
C  45.25300 36.80300 28.28700
C  45.46500 36.84800 24.87000
O  45.51700 37.11500 23.66400
C  46.02500 35.47200 25.33400
N  43.03200 41.84800 24.71500
C  43.52200 40.94900 23.98700
C  43.44300 41.28100 22.47100
C  42.58600 42.51800 22.54800
C  42.43800 42.85900 24.00700
C  44.77800 41.44800 21.72200
C  41.17600 42.24100 21.92500
C  40.14100 41.34400 22.67800
N  41.74400 43.40800 26.83800
C  41.50600 44.36200 25.80800
C  41.11700 45.58500 26.40500
C  41.17300 45.38100 27.80000
C  41.51000 44.05300 28.00700
C  40.71700 46.82000 25.72500
C  40.92400 46.02000 29.07500
O  40.49100 47.11000 29.38200
C  41.10300 44.91900 30.13900
C  42.05000 45.35600 31.23600
O  43.15000 45.82100 31.00400
O  41.37500 45.24800 32.40600
C  42.07000 45.86500 33.49800
H  44.36300 38.83800 30.05500
H  44.45900 39.18900 23.57500
H  41.57000 44.82300 23.74600
H  42.81300 42.82800 31.82900
H  42.25600 39.96900 31.61400
H  44.12000 41.28600 32.98400
H  45.10400 41.25900 31.63300
H  44.59900 39.68000 32.31100
H  40.18700 41.19600 31.64000
H  40.10800 42.83500 31.91000
H  42.01500 41.88000 33.90500
H  40.84600 40.60600 33.77200
H  46.29400 36.50800 28.15500
H  44.66900 35.97500 27.88600
H  45.13600 37.00200 29.35200
H  46.37100 35.01100 24.40900
H  45.35300 34.83600 25.91000
H  46.93500 35.75400 25.86200
H  42.85300 40.52700 21.95000
H  42.92700 43.40600 22.01500
H  45.70200 41.52800 22.29500
H  44.68200 42.34100 21.10500
H  45.06300 40.65900 21.02600
H  41.24000 41.89300 20.89400
H  40.62800 43.18300 21.91600
H  40.45000 41.06800 23.68600
H  39.95000 40.46700 22.06000
H  39.17700 41.84700 22.75300
H  40.11500 46.55300 24.85600
H  41.59700 47.41300 25.48000
H  40.18700 47.38900 26.48900
H  40.09700 44.73400 30.51600
H  42.87200 46.56400 33.26000
H  42.68700 45.03900 33.85300
H  41.46700 46.17500 34.35200

