158

Mg 45.83900 3.66500 47.07500
C  43.49300 6.27300 46.52800
C  43.21300 1.42300 46.92300
C  48.00700 1.08600 46.95300
C  48.31100 5.90900 46.78300
N  43.65200 3.87800 46.77700
C  42.90400 5.00000 46.55100
C  41.42800 4.72300 46.45800
C  41.34200 3.27400 46.98200
C  42.82400 2.77800 46.91400
C  40.78700 3.18400 48.42000
C  40.84800 4.81800 44.91400
C  39.67700 5.78900 44.66700
H  39.81000 6.86600 43.62000
N  45.60000 1.49400 47.04400
C  44.45300 0.79100 47.05500
C  44.73000 -0.60700 47.23800
C  46.16200 -0.68800 47.20900
C  46.67300 0.66300 47.06200
C  43.69000 -1.66500 47.24200
C  46.91600 -1.90600 47.48800
O  46.32300 -2.97000 47.79700
C  48.41700 -1.95300 47.56000
N  47.80000 3.53400 46.66700
C  48.49700 2.39800 46.78800
C  50.01600 2.58700 46.85800
C  50.08100 4.20200 46.76300
C  48.63500 4.56400 46.62200
C  50.62100 2.30400 48.21600
C  51.02100 4.73900 45.65800
C  52.24800 5.48200 46.08200
N  45.94400 5.64700 46.68500
C  47.07500 6.48700 46.77900
C  46.73700 7.92100 46.68800
C  45.26500 7.87700 46.59400
C  44.87900 6.48800 46.66700
C  47.61000 9.19000 46.59900
C  44.07300 8.64900 46.53500
O  43.86100 9.87600 46.58400
C  42.78100 7.64400 46.59800
C  42.04700 7.73900 47.92700
O  42.30600 7.23000 49.00300
O  41.10000 8.68200 47.77100
C  40.10500 8.95500 48.84400
H  42.45500 0.65700 47.10000
H  48.89400 0.46000 47.06800
H  49.14700 6.60900 46.71400
H  40.84500 5.44500 47.03000
H  40.74000 2.68200 46.29200
H  40.46800 4.17400 48.74400
H  41.61400 2.86700 49.05600
H  39.96400 2.47500 48.51100
H  40.52900 3.81700 44.62400
H  41.63700 5.12000 44.22600
H  39.27900 6.30000 45.54300
H  38.75600 5.27300 44.39800
H  43.87000 -2.57200 46.66600
H  42.76000 -1.21700 46.89200
H  43.43300 -2.01500 48.24200
H  48.78000 -2.96600 47.73400
H  48.83000 -1.46200 48.44100
H  48.80400 -1.53200 46.63200
H  50.52500 2.06100 46.05000
H  50.39000 4.66000 47.70300
H  51.33800 3.09500 48.43700
H  51.17300 1.36500 48.19400
H  49.96600 2.35000 49.08600
H  50.27100 5.25700 45.05900
H  51.37000 3.83600 45.15600
H  52.39600 5.59000 47.15700
H  52.40400 6.48200 45.67800
H  53.10000 5.04800 45.55900
H  48.62300 8.82900 46.42500
H  47.46300 9.68000 47.56200
H  47.35400 9.79700 45.73100
H  42.07100 7.84600 45.79600
H  40.14000 10.00900 49.12000
H  40.42700 8.57200 49.81200
H  39.10500 8.61800 48.57300
Mg 47.13200 35.10600 26.46900
C  45.36800 33.44300 28.91400
C  47.65700 37.77800 28.71000
C  48.74500 36.82000 24.02400
C  45.97500 32.83600 24.00000
N  46.67900 35.49700 28.56500
C  46.15900 34.51300 29.40600
C  46.12700 35.02300 30.78300
C  46.34200 36.59600 30.64300
C  46.97600 36.64500 29.24200
C  44.99000 37.36900 30.87300
C  47.19400 34.25900 31.65100
C  46.92000 34.45700 33.19100
H  45.79400 35.35100 33.80700
N  48.13700 36.94700 26.37600
C  48.21500 37.89900 27.43300
C  49.04300 38.98400 26.99200
C  49.35600 38.78500 25.64000
C  48.84700 37.41900 25.30400
C  49.42100 40.18600 27.83000
C  50.11300 39.69500 24.56000
O  50.38200 39.27300 23.49800
C  50.66700 41.07700 24.98800
N  47.18300 34.91100 24.31100
C  48.08100 35.64300 23.56400
C  48.30600 34.99000 22.14300
C  47.36800 33.80700 22.11600
C  46.84000 33.84700 23.52100
C  48.14200 35.97400 20.92900
C  47.90400 32.48200 21.65800
C  46.99800 31.81300 20.63600
N  45.93300 33.49600 26.44500
C  45.54600 32.65400 25.34300
C  44.76500 31.60800 25.88100
C  44.61500 31.90900 27.30400
C  45.32900 33.03800 27.54200
C  44.28100 30.36600 25.17600
C  44.02000 31.43300 28.58700
O  43.37400 30.43700 28.77100
C  44.36900 32.60200 29.63200
C  44.96300 31.84600 30.79600
O  45.92500 31.07600 30.72100
O  44.25400 32.09800 31.93800
C  44.75400 31.29300 33.10900
H  47.81300 38.54800 29.46800
H  49.33400 37.17700 23.17600
H  45.62700 32.02600 23.35500
H  45.11600 34.79800 31.12300
H  47.07400 37.05700 31.30600
H  44.13800 36.71700 31.06300
H  44.79800 37.85800 29.91700
H  45.14400 38.11500 31.65200
H  48.17600 34.69800 31.47400
H  47.23800 33.18500 31.47000
H  47.87700 34.84700 33.53700
H  46.83400 33.44400 33.58300
H  50.49800 40.07700 27.95400
H  48.98200 40.13200 28.82700
H  49.08400 41.09400 27.33000
H  51.12400 40.99700 25.97400
H  50.02300 41.95400 24.92400
H  51.36800 41.35300 24.20100
H  49.32600 34.60500 22.13900
H  46.52000 34.13300 21.51300
H  47.53400 35.45400 20.18800
H  49.09700 36.27600 20.49900
H  47.61200 36.88900 21.19400
H  48.15500 31.79200 22.46400
H  48.82000 32.83000 21.18100
H  47.50800 32.04900 19.70200
H  45.97600 32.18500 20.56500
H  47.03500 30.74400 20.84500
H  43.22400 30.47100 24.93200
H  44.39100 29.63400 25.97700
H  44.91000 30.20500 24.30100
H  43.52900 33.19700 29.99000
H  44.10900 31.45900 33.97200
H  45.75800 31.66700 33.30800
H  44.61600 30.22000 32.97600

