158

Mg 45.51200 4.32700 47.47300
C  43.23900 6.98700 47.01600
C  42.84900 2.09800 47.10300
C  47.82100 1.81700 47.49600
C  48.10400 6.70500 47.41100
N  43.28100 4.54500 47.22200
C  42.59100 5.69700 46.97400
C  41.09100 5.48500 46.65100
C  40.91700 3.93300 46.81200
C  42.44500 3.45600 47.13200
C  39.81700 3.56200 47.94300
C  40.72100 5.94000 45.20700
C  39.29800 6.48200 45.15200
H  38.45200 6.13800 43.97000
N  45.33700 2.19600 47.19200
C  44.17800 1.44300 47.19500
C  44.52700 0.12900 47.07100
C  45.95100 0.04200 47.18700
C  46.51200 1.36800 47.30900
C  43.48000 -0.93700 46.86200
C  46.69500 -1.29800 47.10400
O  46.09000 -2.32700 46.79800
C  48.20000 -1.33300 47.18000
N  47.64900 4.25700 47.34600
C  48.33100 3.11800 47.52300
C  49.83300 3.31800 47.74100
C  49.92300 4.86500 47.61700
C  48.44700 5.30600 47.39800
C  50.28600 2.76200 49.07500
C  51.00600 5.37000 46.55600
C  52.37600 5.83800 47.06300
N  45.74200 6.44500 47.22800
C  46.83400 7.25400 47.30200
C  46.46500 8.64700 47.21900
C  45.07400 8.58100 47.05700
C  44.61800 7.22200 47.12500
C  47.36100 9.91500 47.31500
C  43.91900 9.42300 47.00000
O  43.81500 10.61700 46.96400
C  42.64600 8.42600 46.86500
C  41.62700 8.72700 47.89300
O  41.45000 8.07900 48.91200
O  40.93500 9.86500 47.61100
C  40.54100 10.59000 48.86100
H  42.08900 1.37800 46.79300
H  48.67000 1.13100 47.47800
H  48.93600 7.40900 47.46900
H  40.43400 5.96300 47.37700
H  40.56900 3.53000 45.86100
H  39.30500 2.68100 47.55600
H  39.00800 4.28600 48.03800
H  40.19200 3.19600 48.89900
H  40.89500 5.07500 44.56700
H  41.49600 6.67600 44.99200
H  39.34200 7.57100 45.18400
H  38.78000 6.31200 46.09600
H  43.73800 -1.55500 46.00100
H  42.45800 -0.60600 46.67800
H  43.53700 -1.62000 47.71000
H  48.55000 -2.35900 47.06300
H  48.54300 -1.11400 48.19100
H  48.66000 -0.78700 46.35700
H  50.30900 2.82900 46.89100
H  50.16000 5.19200 48.62900
H  49.48400 2.29600 49.64800
H  50.85000 3.45800 49.69500
H  51.06100 2.01100 48.91600
H  50.64700 6.20300 45.95100
H  51.16300 4.63400 45.76800
H  53.13800 5.25100 46.55100
H  52.39500 5.75300 48.14900
H  52.46400 6.90300 46.84800
H  47.02100 10.56900 48.11800
H  47.29800 10.49700 46.39600
H  48.41600 9.64300 47.32400
H  42.15800 8.70800 45.93300
H  41.42500 10.52900 49.49600
H  39.57200 10.28800 49.26000
H  40.55800 11.65000 48.60900
Mg 54.26900 24.38000 44.03900
C  51.60300 26.42100 43.27100
C  52.29800 21.65400 43.36800
C  57.04800 22.35500 43.87000
C  56.20400 27.05600 44.78900
N  52.25600 24.07200 43.25400
C  51.33900 25.05300 43.10900
C  49.94800 24.50400 42.83500
C  50.09400 23.01600 43.20900
C  51.64300 22.89900 43.38300
C  49.40100 22.55900 44.53600
C  49.64000 24.59800 41.25600
C  48.16000 24.45800 40.85000
H  47.77800 24.22400 39.41600
N  54.67200 22.26300 43.67600
C  53.64900 21.34500 43.41600
C  54.25500 20.04900 43.32200
C  55.68600 20.17000 43.44400
C  55.91000 21.60800 43.69900
C  53.50800 18.72900 42.98000
C  56.78100 19.04000 43.29800
O  56.51000 17.90100 43.00300
C  58.16000 19.44900 43.56300
N  56.29300 24.60700 44.26600
C  57.30900 23.74500 44.20500
C  58.58900 24.25800 44.86400
C  58.30400 25.74800 45.13200
C  56.86600 25.81000 44.67500
C  59.04400 23.50900 46.06300
C  59.30800 26.76700 44.38800
C  60.21800 27.48700 45.38900
N  54.00200 26.35100 43.99800
C  54.83300 27.33100 44.46100
C  54.17200 28.63500 44.52400
C  52.90100 28.36600 44.01100
C  52.85900 26.90600 43.71500
C  54.91700 29.88200 44.99900
C  51.61300 28.87800 43.70900
O  51.10700 30.01700 43.77700
C  50.72300 27.62600 43.22400
C  50.46800 28.11700 41.85000
O  51.33700 28.13400 40.97300
O  49.11400 28.39300 41.73400
C  48.68700 28.72600 40.36000
H  51.58400 20.82800 43.36200
H  57.98100 21.82900 44.08300
H  56.71300 27.89100 45.27500
H  49.24100 25.00500 43.49600
H  49.78000 22.42800 42.34500
H  49.44500 23.37300 45.26000
H  50.06200 21.75600 44.86200
H  48.33900 22.32100 44.48700
H  50.30200 23.86100 40.80200
H  49.88100 25.57200 40.83000
H  47.75300 25.44000 41.09000
H  47.71900 23.79500 41.59500
H  52.61700 18.71700 43.60600
H  54.10400 17.83000 43.13800
H  53.09900 18.70500 41.97000
H  58.49600 20.13600 42.78600
H  58.74300 18.53200 43.63800
H  58.23000 19.84500 44.57600
H  59.36800 24.14300 44.11100
H  58.23500 25.93800 46.20300
H  59.80800 22.85200 45.64900
H  58.21500 22.94300 46.48900
H  59.41400 24.25700 46.76500
H  58.71900 27.39700 43.72200
H  59.99100 26.21800 43.74100
H  61.19900 27.24700 44.98000
H  60.09900 27.33500 46.46100
H  60.10000 28.56200 45.24800
H  54.75800 29.80300 46.07400
H  54.33400 30.76300 44.73000
H  55.91500 29.94000 44.56500
H  49.75200 27.55100 43.71400
H  49.34900 28.44400 39.54200
H  48.72400 29.79300 40.57900
H  47.67400 28.37600 40.15700

