158

Mg 17.07800 -1.24600 27.04500
C  16.33300 0.84400 29.80600
C  18.75300 -3.31600 29.31200
C  18.71100 -2.73400 24.41200
C  15.91000 1.09200 24.99100
N  17.45100 -1.22200 29.36700
C  16.94300 -0.34300 30.28100
C  17.34900 -0.72300 31.74900
C  18.27200 -1.97000 31.47500
C  18.17000 -2.21700 29.95000
C  19.70100 -1.79100 31.92800
C  16.11400 -0.92600 32.72400
C  16.09400 -0.09600 34.02800
H  17.35800 0.33000 34.79200
N  18.35600 -2.98900 26.87500
C  18.93200 -3.65300 27.92100
C  19.79200 -4.71000 27.39700
C  19.73900 -4.62000 25.99100
C  18.98400 -3.40100 25.70200
C  20.61700 -5.62400 28.23600
C  20.41800 -5.47100 24.86500
O  20.31900 -5.34500 23.65500
C  21.20700 -6.65100 25.28200
N  17.40600 -0.72100 25.05900
C  17.92400 -1.61200 24.16900
C  17.83900 -1.05300 22.72200
C  16.89000 0.09600 22.94900
C  16.65000 0.18800 24.39000
C  19.21600 -0.70600 22.15800
C  15.56900 0.11200 22.04500
C  15.26000 1.29600 21.14200
N  16.21700 0.52700 27.27500
C  15.71700 1.34100 26.36500
C  15.01800 2.43200 27.03200
C  15.22200 2.34500 28.35300
C  15.95500 1.19200 28.46000
C  14.13700 3.36200 26.36900
C  15.00400 2.99600 29.67900
O  14.57200 4.10000 29.98700
C  15.68200 1.92500 30.62300
C  16.54400 2.63300 31.55200
O  17.79700 2.77300 31.52900
O  15.65600 3.13700 32.51000
C  16.17900 3.95800 33.52100
H  19.33700 -3.98900 29.94200
H  19.07800 -3.26300 23.52900
H  15.43300 1.85800 24.37700
H  17.88100 0.17300 32.06800
H  17.90200 -2.92100 31.85900
H  20.20200 -1.40000 31.04200
H  20.17200 -2.74600 32.16200
H  19.70700 -1.02500 32.70500
H  15.96700 -1.98300 32.94900
H  15.25200 -0.55600 32.16900
H  15.76500 -0.89800 34.68900
H  15.36100 0.70600 34.11000
H  20.41400 -5.74200 29.30000
H  21.65100 -5.29800 28.12000
H  20.54800 -6.65400 27.88500
H  22.14700 -6.44500 25.79500
H  21.52800 -7.15700 24.37200
H  20.57900 -7.31000 25.88100
H  17.36100 -1.76700 22.05100
H  17.49800 0.96100 22.68400
H  19.71900 -0.10600 22.91700
H  19.27400 -0.11900 21.24200
H  19.80600 -1.61500 22.04600
H  14.65400 0.08000 22.63600
H  15.55900 -0.80500 21.45500
H  14.30300 1.72100 21.44300
H  15.40500 0.95400 20.11700
H  15.99300 2.06700 21.37800
H  14.61400 4.26100 25.98000
H  13.36600 3.70100 27.06200
H  13.58500 2.90600 25.54700
H  14.98400 1.35700 31.23700
H  17.14700 3.62700 33.89400
H  15.39300 4.08700 34.26600
H  16.24200 4.96800 33.11400
Mg 16.56700 51.82000 26.40800
C  18.47500 50.83000 29.20200
C  14.08400 52.75000 28.46900
C  14.85900 52.82100 23.65900
C  19.21300 50.86600 24.34800
N  16.33900 51.85000 28.55100
C  17.22000 51.40000 29.53700
C  16.65500 51.58100 30.93500
C  15.15000 51.89000 30.61000
C  15.19400 52.17800 29.10800
C  14.05500 50.82300 30.99500
C  17.40600 52.65500 31.78600
C  17.80800 52.21000 33.15600
H  16.80700 52.70100 34.20100
N  14.78000 52.75700 26.15200
C  13.84300 53.01400 27.12800
C  12.72300 53.73100 26.54200
C  12.91000 53.74600 25.14100
C  14.19800 53.02900 24.95400
C  11.54600 54.30300 27.39400
C  12.07200 54.36700 24.02600
O  12.39100 54.37300 22.87900
C  10.68200 54.95200 24.31800
N  16.89000 51.68500 24.29100
C  16.05700 52.24700 23.36900
C  16.68800 52.29300 21.95500
C  18.08200 51.65900 22.20900
C  18.12600 51.47800 23.69500
C  15.84400 51.67300 20.85400
C  19.33100 52.50600 21.75200
C  20.29300 51.90500 20.72900
N  18.39000 50.82500 26.65600
C  19.38200 50.54700 25.72500
C  20.55100 49.92000 26.39100
C  20.24300 50.07800 27.76400
C  18.90900 50.58900 27.86200
C  21.85100 49.44200 25.81900
C  20.72000 49.88000 29.11300
O  21.84000 49.52300 29.49400
C  19.56400 50.20000 30.13000
C  19.14100 48.94000 30.83800
O  18.65400 47.95600 30.31100
O  19.21700 49.14900 32.16700
C  18.73800 48.05500 33.08600
H  13.32800 53.08200 29.18400
H  14.37300 53.07200 22.71400
H  20.10900 50.60100 23.78400
H  16.74000 50.60500 31.41200
H  14.85300 52.79700 31.13800
H  13.47000 51.12400 31.86500
H  14.59200 49.87700 31.05500
H  13.36600 50.67900 30.16200
H  16.90200 53.62100 31.79600
H  18.37200 52.83200 31.31300
H  18.77900 52.63500 33.41100
H  17.90800 51.12700 33.22800
H  10.62500 53.87600 26.99700
H  11.55200 55.38700 27.28600
H  11.57900 53.99300 28.43800
H  10.20500 55.09100 23.34800
H  10.89200 55.76800 25.00900
H  10.07600 54.11300 24.66100
H  16.83600 53.35300 21.75300
H  18.15300 50.67400 21.74700
H  16.19200 50.73600 20.41800
H  15.73400 52.50800 20.16200
H  14.92000 51.35200 21.33600
H  19.86100 52.92900 22.60500
H  18.96400 53.40500 21.25600
H  21.18100 52.53600 20.75900
H  19.81500 51.99900 19.75400
H  20.44400 50.83400 20.86900
H  21.72600 48.51600 25.25800
H  22.59800 49.36900 26.61000
H  22.07100 50.15300 25.02200
H  20.07200 50.83300 30.85600
H  17.68700 48.29900 33.24000
H  19.23300 48.06600 34.05700
H  18.88300 47.06200 32.66200

