158

Mg 24.01400 -6.62300 46.70200
C  26.20000 -4.38000 45.09500
C  21.45500 -5.50200 44.83000
C  22.48600 -9.58500 47.13000
C  27.04000 -8.04700 48.08900
N  23.92800 -5.19700 45.19300
C  24.89900 -4.37100 44.68100
C  24.26800 -3.30700 43.78600
C  22.75500 -3.42400 44.02200
C  22.64300 -4.82700 44.76200
C  21.94400 -2.22500 44.75100
C  24.61600 -3.60600 42.28900
C  25.18400 -2.34700 41.52900
H  24.75600 -2.28300 40.07800
N  22.04900 -7.36400 46.23100
C  21.15800 -6.69100 45.49700
C  19.97700 -7.41900 45.46500
C  20.21300 -8.67300 46.20000
C  21.61400 -8.58800 46.58900
C  18.72000 -6.95500 44.74600
C  19.12000 -9.66000 46.51300
O  17.98600 -9.52200 46.05000
C  19.29100 -10.64400 47.66900
N  24.64200 -8.53800 47.60700
C  23.81100 -9.62100 47.62000
C  24.45100 -10.86300 48.32700
C  25.89200 -10.31700 48.68900
C  25.84600 -8.86700 48.11100
C  23.58000 -11.38200 49.45300
C  27.15300 -11.10900 48.25200
C  28.41500 -11.07900 49.14000
N  26.19700 -6.19600 46.81700
C  27.28700 -6.84300 47.41600
C  28.43500 -6.06300 47.23900
C  28.09900 -5.10300 46.22600
C  26.73300 -5.24300 45.99300
C  29.74500 -6.30500 47.86800
C  28.62800 -4.05900 45.38300
O  29.75000 -3.58600 45.16600
C  27.37000 -3.53600 44.57200
C  27.27900 -2.05700 44.76700
O  27.51300 -1.23600 43.86000
O  26.71300 -1.69000 45.99800
C  26.83500 -0.22600 46.23800
H  20.57300 -5.18400 44.27100
H  22.07500 -10.59400 47.05100
H  27.92900 -8.54000 48.48600
H  24.68100 -2.35700 44.12500
H  22.37800 -3.48300 43.00100
H  21.28700 -1.84100 43.97000
H  22.61800 -1.41700 45.03700
H  21.31800 -2.57500 45.57100
H  23.88100 -4.17800 41.72300
H  25.47900 -4.26300 42.18700
H  26.26600 -2.33900 41.65800
H  24.71300 -1.47500 41.98300
H  18.10700 -7.71100 44.25600
H  19.01000 -6.26000 43.95800
H  18.11100 -6.33400 45.40300
H  19.88400 -10.25000 48.49400
H  19.78400 -11.50800 47.22300
H  18.33600 -10.99400 48.06000
H  24.64000 -11.70200 47.65600
H  26.00000 -10.18900 49.76600
H  23.18900 -12.37700 49.24500
H  22.71600 -10.72000 49.50900
H  24.04400 -11.27300 50.43300
H  27.31500 -10.83900 47.20800
H  26.80400 -12.13900 48.31900
H  29.31800 -11.10700 48.53000
H  28.33800 -12.08400 49.55600
H  28.45200 -10.31500 49.91600
H  30.30000 -7.01800 47.25800
H  29.67900 -6.49800 48.93900
H  30.22100 -5.34800 47.65100
H  27.57700 -3.67900 43.51100
H  27.79000 0.24800 46.00900
H  26.80700 -0.03600 47.31100
H  25.98900 0.29800 45.79400
Mg -1.61900 34.77000 26.33400
C  -3.02000 33.00200 29.04400
C  -0.55700 37.17500 28.56100
C  -0.97200 36.75700 23.76100
C  -2.92400 32.33700 24.10500
N  -1.76900 35.04000 28.56500
C  -2.29200 34.15100 29.48900
C  -2.04900 34.64700 30.86000
C  -1.28800 36.00200 30.71900
C  -1.10500 36.08000 29.15900
C  -2.14200 37.28600 31.32400
C  -1.30000 33.52000 31.60200
C  -2.19900 32.96600 32.78500
H  -1.56100 32.82400 34.18800
N  -0.74000 36.59400 26.17100
C  -0.35300 37.41300 27.20200
C  0.24300 38.63500 26.66300
C  0.17600 38.49000 25.25200
C  -0.56400 37.29500 24.96100
C  0.85100 39.65800 27.58700
C  0.79300 39.41500 24.15300
O  0.66100 39.14000 23.00800
C  1.63300 40.53500 24.39500
N  -2.04300 34.58600 24.21600
C  -1.50600 35.52200 23.38400
C  -1.32900 34.96400 21.88800
C  -1.93600 33.56900 22.00600
C  -2.37100 33.48900 23.52700
C  -1.95100 35.88000 20.84400
C  -1.02600 32.32200 21.78100
C  0.04600 31.88500 22.87000
N  -2.77900 33.09300 26.54400
C  -3.11500 32.13800 25.52500
C  -3.81400 31.01300 26.10900
C  -3.84600 31.31700 27.51900
C  -3.18400 32.58600 27.71900
C  -4.43600 29.85000 25.38200
C  -4.32400 30.91500 28.80500
O  -5.13700 30.03700 29.10000
C  -3.73400 31.89800 29.84300
C  -4.78600 32.43900 30.74300
O  -5.46500 33.45800 30.61900
O  -4.97500 31.49400 31.81400
C  -6.05000 31.85000 32.77400
H  -0.25300 37.97300 29.24200
H  -0.53700 37.32600 22.93700
H  -3.19900 31.52600 23.42900
H  -3.07100 34.84700 31.18300
H  -0.31400 36.07800 31.20100
H  -2.83200 37.77300 30.63500
H  -1.39400 38.02000 31.62400
H  -2.58000 36.82400 32.20900
H  -0.31800 33.82500 31.96300
H  -1.06800 32.72000 30.89900
H  -2.53200 31.95700 32.54000
H  -3.12700 33.50900 32.96500
H  1.80200 39.39300 28.05000
H  0.17500 39.80900 28.42900
H  0.68400 40.62600 27.11400
H  2.65600 40.21700 24.59200
H  1.30400 41.19300 25.20000
H  1.64700 41.23400 23.55900
H  -0.28000 34.86100 21.61100
H  -2.80100 33.45800 21.35200
H  -1.94500 36.92200 21.16400
H  -2.97200 35.53600 20.67700
H  -1.47500 35.80300 19.86700
H  -0.40700 32.31300 20.88400
H  -1.63000 31.42700 21.63400
H  -0.31900 30.96400 23.32400
H  0.12200 32.70500 23.58300
H  1.02500 31.67200 22.44100
H  -4.53000 28.98900 26.04500
H  -3.89000 29.54600 24.49000
H  -5.43100 30.15000 25.05200
H  -3.09700 31.19900 30.38600
H  -6.91200 32.36400 32.34900
H  -5.65500 32.42100 33.61400
H  -6.51300 30.91500 33.09000

