158

Mg 24.54600 1.61300 29.04200
C  26.84300 1.40000 31.67800
C  22.05300 1.81200 31.27600
C  22.54500 1.45400 26.44300
C  27.31700 1.00400 26.89800
N  24.57100 1.65700 31.16300
C  25.60800 1.65000 32.09100
C  25.08400 1.69700 33.51700
C  23.60400 1.69200 33.38400
C  23.35600 1.76300 31.86400
C  22.74800 0.50500 33.96600
C  25.66600 2.86000 34.33700
C  26.33700 2.62500 35.75900
H  26.28900 3.62300 36.87200
N  22.51600 1.63600 28.86200
C  21.65400 1.70900 29.90100
C  20.37200 1.81500 29.41000
C  20.44800 1.63100 27.97700
C  21.85600 1.51300 27.65700
C  19.21500 2.01600 30.33600
C  19.29900 1.55200 26.98900
O  19.49600 1.41700 25.80700
C  17.90300 1.74600 27.41600
N  24.95800 1.35500 26.97000
C  23.89200 1.43900 26.12500
C  24.37100 1.51900 24.62700
C  25.96500 1.35200 24.76800
C  26.11900 1.25500 26.24200
C  23.83200 0.31000 23.79000
C  26.75600 2.50400 24.16600
C  26.60800 3.86200 24.71100
N  26.67800 1.30600 29.18600
C  27.65200 1.00600 28.27800
C  28.89600 0.81200 28.90900
C  28.65300 0.97800 30.28800
C  27.27300 1.27000 30.38600
C  30.18500 0.59500 28.33900
C  29.31400 1.01100 31.56100
O  30.45800 0.87700 31.84000
C  28.10900 1.33300 32.57100
C  28.16600 0.31800 33.60400
O  27.44900 -0.68700 33.75600
O  29.18700 0.61000 34.50400
C  29.25800 -0.23300 35.68300
H  21.21300 1.96800 31.95600
H  21.85500 1.36800 25.60100
H  28.13700 0.93600 26.18000
H  25.31300 0.76700 34.03700
H  23.14200 2.59200 33.79000
H  22.09200 -0.05800 33.30100
H  22.14700 0.82400 34.81800
H  23.42800 -0.30800 34.22000
H  24.89800 3.57500 34.63200
H  26.24800 3.54600 33.72200
H  27.40600 2.43600 35.66300
H  25.87900 1.72300 36.16500
H  18.46200 2.63800 29.85100
H  19.38200 2.31900 31.36900
H  18.67000 1.07800 30.44600
H  17.54800 1.16900 28.27100
H  17.23500 1.33800 26.65800
H  17.95900 2.82500 27.56200
H  23.97900 2.45800 24.23500
H  26.34900 0.42300 24.34700
H  23.48300 -0.43500 24.50400
H  24.51600 -0.23900 23.14200
H  23.05900 0.66200 23.10700
H  26.49600 2.63200 23.11500
H  27.80700 2.23700 24.27000
H  26.06300 3.93700 25.65100
H  26.30300 4.56200 23.93300
H  27.59600 4.21400 25.01000
H  30.99200 1.06300 28.90400
H  30.23100 1.08900 27.36900
H  30.47200 -0.45700 28.34800
H  28.23800 2.25600 33.13600
H  29.25800 -1.29200 35.42400
H  28.32900 0.06400 36.17000
H  29.98000 0.07700 36.43800
Mg -12.06700 16.30600 41.34900
C  -9.18400 14.37300 40.93100
C  -10.17600 18.98100 40.04400
C  -14.83200 17.98700 40.86000
C  -13.87800 13.41200 42.46200
N  -9.96300 16.71100 40.63600
C  -8.94900 15.71300 40.54400
C  -7.71300 16.30300 40.00300
C  -7.88900 17.86400 40.00400
C  -9.41300 17.90600 40.21500
C  -7.15200 18.70400 41.15000
C  -7.42100 15.75300 38.52300
C  -6.16900 15.03400 38.17700
H  -5.43700 15.57800 36.85700
N  -12.48000 18.28800 40.66700
C  -11.59400 19.15200 40.15900
C  -12.25600 20.34900 39.77700
C  -13.63200 20.15600 40.05900
C  -13.71500 18.74500 40.55400
C  -11.49300 21.57100 39.15600
C  -14.76100 21.05000 39.63700
O  -14.65300 21.97700 38.86200
C  -16.20100 20.75000 39.99100
N  -14.13400 15.72900 41.44800
C  -15.08800 16.63400 41.22200
C  -16.48300 15.99400 41.46600
C  -16.17400 14.64400 42.24000
C  -14.62400 14.56300 42.04800
C  -17.60800 16.93900 42.07100
C  -16.97400 13.32200 41.83600
C  -17.44500 12.56300 43.06300
N  -11.56700 14.28400 41.76700
C  -12.44900 13.21600 42.16400
C  -11.60700 11.98800 42.23700
C  -10.32600 12.38200 41.71100
C  -10.35700 13.81200 41.52400
C  -12.05600 10.55700 42.70300
C  -8.97300 11.98300 41.31500
O  -8.47900 10.88300 41.22900
C  -8.15300 13.29200 41.00600
C  -7.14400 13.64200 41.98800
O  -7.31100 13.88400 43.14300
O  -5.95200 13.50800 41.35700
C  -4.79800 13.88500 42.21500
H  -9.61600 19.89200 39.82000
H  -15.69700 18.65300 40.88700
H  -14.43500 12.54000 42.81000
H  -6.95500 16.02200 40.73400
H  -7.80300 18.39000 39.05300
H  -6.29900 18.10900 41.47900
H  -7.80700 18.94700 41.98700
H  -6.74800 19.62800 40.73700
H  -7.42600 16.62900 37.87500
H  -8.26400 15.14300 38.19700
H  -6.43300 13.97700 38.13800
H  -5.48100 15.25500 38.99300
H  -12.23800 22.36700 39.17400
H  -11.21500 21.34300 38.12700
H  -10.64300 21.93700 39.73200
H  -16.83500 21.60400 39.75400
H  -16.21200 20.70000 41.08000
H  -16.59400 19.91000 39.41800
H  -16.85800 15.68600 40.49000
H  -16.54200 14.86000 43.24300
H  -18.12900 16.41700 42.87400
H  -18.41500 17.38000 41.48500
H  -17.19600 17.79900 42.59800
H  -16.34400 12.64000 41.26600
H  -17.78600 13.63600 41.18000
H  -18.24200 13.16700 43.49800
H  -16.62700 12.51900 43.78200
H  -17.75300 11.52300 42.95300
H  -12.30800 9.78400 41.97800
H  -12.90400 10.57500 43.38900
H  -11.23100 10.22700 43.33400
H  -7.66600 13.15200 40.04100
H  -4.36100 14.86600 42.03200
H  -4.14800 13.07700 41.87800
H  -4.92000 13.72600 43.28700

