158

Mg 47.60100 25.33800 29.06100
C  48.57600 27.52100 31.62900
C  46.60200 23.15100 31.48000
C  47.18900 23.18000 26.63100
C  48.93300 27.65800 26.72400
N  47.76100 25.34700 31.33500
C  48.11800 26.35000 32.16100
C  47.63300 26.14200 33.60900
C  47.24400 24.62000 33.51400
C  47.13900 24.39100 32.06500
C  48.24800 23.62200 34.11100
C  46.48600 27.10700 34.11800
C  46.84600 27.75900 35.45300
H  45.69700 27.78800 36.53400
N  46.83000 23.46900 29.06500
C  46.43100 22.65800 30.17900
C  45.84900 21.47200 29.63700
C  46.00000 21.47600 28.19800
C  46.72100 22.69500 27.89700
C  45.23200 20.41700 30.61000
C  45.63100 20.46300 27.20900
O  45.78600 20.59200 26.00800
C  44.93000 19.18200 27.60000
N  48.33400 25.37200 27.04100
C  47.87200 24.35800 26.22400
C  48.18100 24.65300 24.71600
C  48.52900 26.18800 24.70600
C  48.56700 26.43600 26.25200
C  49.23000 23.75200 23.99000
C  47.47900 27.13000 24.05900
C  48.09000 28.16700 23.10300
N  48.65500 27.15900 29.12600
C  49.04500 28.01700 28.11600
C  49.59100 29.28400 28.64500
C  49.39500 29.11400 30.03500
C  48.82100 27.78300 30.22600
C  50.16900 30.40900 27.86800
C  49.55200 29.78400 31.26200
O  49.92500 30.90900 31.44500
C  49.17600 28.71900 32.32300
C  50.32800 28.43500 33.17400
O  51.25400 27.69700 32.85200
O  50.24400 29.09200 34.41000
C  51.27400 28.86200 35.38600
H  46.02600 22.53600 32.17500
H  46.79100 22.71000 25.72900
H  49.26700 28.40300 25.99900
H  48.59200 26.22000 34.12200
H  46.33700 24.45300 34.09600
H  49.13900 24.11500 34.49800
H  48.69100 23.07100 33.28100
H  47.71600 22.95600 34.79000
H  45.59400 26.52300 34.34500
H  46.24100 27.87600 33.38600
H  47.03500 28.79500 35.17300
H  47.75600 27.36700 35.90600
H  44.31500 20.04200 30.15500
H  45.13500 20.72200 31.65200
H  45.86500 19.53500 30.70100
H  44.64700 18.60400 26.72100
H  44.00200 19.32000 28.15500
H  45.65900 18.62200 28.18600
H  47.16700 24.49300 24.34900
H  49.54500 26.16700 24.31200
H  50.04700 24.23500 23.45400
H  48.70300 23.14000 23.25800
H  49.67000 23.00300 24.64800
H  46.82400 27.52000 24.83900
H  46.84400 26.47300 23.46500
H  49.14800 27.99900 22.90200
H  47.96100 29.16800 23.51500
H  47.53400 28.16100 22.16600
H  49.73200 30.42500 26.86900
H  51.24500 30.33600 27.70900
H  49.86200 31.37900 28.25800
H  48.40400 29.22300 32.90400
H  50.78900 28.26800 36.16000
H  51.63400 29.79000 35.83100
H  52.17400 28.34300 35.05700
Mg -1.88600 34.34900 27.46500
C  -3.95300 32.70300 29.71100
C  -0.72100 36.32100 29.97700
C  -0.64400 36.62500 25.13600
C  -3.79900 32.89500 24.84100
N  -2.35100 34.49600 29.60900
C  -3.18600 33.66700 30.31800
C  -3.03900 33.91800 31.85900
C  -2.03300 35.14600 31.98100
C  -1.72600 35.40600 30.39000
C  -2.62500 36.36400 32.71800
C  -2.47500 32.61100 32.53500
C  -3.17900 32.14100 33.86000
H  -2.34700 32.05400 35.12400
N  -0.67300 36.08000 27.52500
C  -0.24200 36.64200 28.68300
C  0.76600 37.56500 28.41800
C  0.85000 37.75000 26.97100
C  -0.19300 36.79400 26.47900
C  1.66500 38.14300 29.49300
C  1.82900 38.51400 26.11900
O  1.79300 38.51800 24.90200
C  2.88900 39.30900 26.75200
N  -2.35200 34.77500 25.34600
C  -1.58000 35.68800 24.65600
C  -1.90400 35.63100 23.11500
C  -2.55900 34.18600 22.99600
C  -2.90700 33.90300 24.46100
C  -2.89900 36.78600 22.75000
C  -1.69600 32.98800 22.50000
C  -0.37100 32.74300 23.22600
N  -3.39000 32.94600 27.29200
C  -4.06300 32.47700 26.15400
C  -5.06800 31.49000 26.56400
C  -4.99400 31.50100 27.95700
C  -4.04200 32.45800 28.32600
C  -5.83500 30.57500 25.68900
C  -5.53100 30.92200 29.15800
O  -6.37400 30.09300 29.36700
C  -4.85200 31.65500 30.34500
C  -5.83800 32.36500 31.20700
O  -6.37600 33.41800 30.85800
O  -5.91600 31.78200 32.49700
C  -7.11400 32.25600 33.20000
H  -0.36700 36.95600 30.79200
H  -0.14900 37.32900 24.46400
H  -4.35800 32.38100 24.05700
H  -4.04000 34.14300 32.22600
H  -1.06300 34.80400 32.34100
H  -1.88500 37.16000 32.80300
H  -2.68900 36.20800 33.79500
H  -3.51000 36.79000 32.24500
H  -1.40500 32.67500 32.73100
H  -2.62700 31.79600 31.82800
H  -3.64500 31.15900 33.77700
H  -3.87300 32.94100 34.11800
H  1.73600 37.42600 30.31200
H  1.08700 38.92600 29.98400
H  2.67300 38.49800 29.27700
H  2.44200 39.90200 27.54900
H  3.49600 39.92100 26.08400
H  3.57300 38.64300 27.27800
H  -1.00500 35.74200 22.51000
H  -3.52100 34.24800 22.48800
H  -3.09500 37.33300 23.67200
H  -3.91000 36.57200 22.40000
H  -2.49200 37.31200 21.88600
H  -1.57800 33.08000 21.42100
H  -2.13500 31.99100 22.52500
H  -0.00600 31.71900 23.14700
H  -0.27900 33.09300 24.25500
H  0.39100 33.35700 22.74800
H  -6.87700 30.89600 25.71200
H  -5.71400 29.57300 26.09900
H  -5.51900 30.54700 24.64700
H  -4.29600 30.88200 30.87700
H  -7.07500 33.30200 33.50400
H  -6.97300 31.68400 34.11700
H  -8.03400 32.16200 32.62200

