158

Mg 24.71800 1.49300 29.53800
C  26.44800 1.14900 32.53600
C  21.83300 1.99300 31.37800
C  23.00500 1.36000 26.69400
C  27.75900 0.63500 27.78600
N  24.19800 1.56300 31.70700
C  25.11900 1.56400 32.69600
C  24.44300 1.87700 34.05400
C  22.94000 2.11200 33.70700
C  22.94200 1.77400 32.18400
C  22.02600 1.19800 34.45700
C  25.00300 3.11500 34.80700
C  25.46500 2.89300 36.20700
H  25.40900 4.03900 37.14100
N  22.70800 1.76100 29.12300
C  21.68800 1.97700 29.98000
C  20.47800 2.03100 29.27900
C  20.78200 1.91000 27.87500
C  22.24400 1.74900 27.84500
C  19.21300 2.33700 29.96400
C  19.79700 1.94100 26.71000
O  20.16100 1.68200 25.52800
C  18.40800 2.16300 26.81200
N  25.36700 1.21200 27.54700
C  24.41000 1.16800 26.54200
C  24.99500 0.66700 25.27300
C  26.48400 0.82100 25.56200
C  26.58700 0.92000 27.02000
C  24.46900 -0.73600 24.99100
C  27.16500 2.01700 24.76800
C  26.48300 3.40400 24.94000
N  26.74600 1.03000 29.99600
C  27.84100 0.76100 29.18900
C  28.98700 0.60100 30.05300
C  28.49200 0.78000 31.34000
C  27.11400 1.04800 31.28600
C  30.37000 0.25000 29.65900
C  28.90200 0.77500 32.67100
O  30.00900 0.66700 33.16400
C  27.61200 0.99600 33.50100
C  27.46100 -0.18200 34.42300
O  26.70700 -1.14900 34.35000
O  28.43600 -0.10300 35.39500
C  28.43400 -1.02800 36.50700
H  21.02900 2.30700 32.04700
H  22.44000 1.13600 25.78700
H  28.67400 0.45100 27.21900
H  24.59300 0.98000 34.65300
H  22.67000 3.13800 33.95600
H  21.57700 0.54500 33.70800
H  21.25600 1.73700 35.00800
H  22.63300 0.57800 35.11700
H  24.32900 3.97100 34.76200
H  25.87000 3.38600 34.20400
H  26.45600 2.44000 36.24600
H  24.89200 2.08900 36.66800
H  19.12100 2.46700 31.04200
H  18.56300 1.54300 29.59500
H  18.80700 3.25500 29.54000
H  18.26100 2.88300 27.61600
H  18.00300 1.18300 27.06600
H  17.88000 2.56200 25.94700
H  24.78800 1.32300 24.42700
H  27.00400 -0.09100 25.26900
H  23.74700 -0.54600 24.19600
H  24.02500 -1.18600 25.87900
H  25.16200 -1.42600 24.51000
H  27.18400 1.72400 23.71800
H  28.19700 2.22600 25.04800
H  25.75900 3.46600 25.75200
H  25.97500 3.68100 24.01600
H  27.25300 4.12600 25.21300
H  30.56500 0.47300 28.61000
H  30.62400 -0.80100 29.79100
H  31.03800 0.78800 30.33300
H  27.74600 1.84100 34.17600
H  27.59700 -0.68800 37.11700
H  29.28200 -1.04800 37.19200
H  28.25800 -2.06000 36.20400
Mg 47.62400 35.59100 27.97100
C  46.33700 33.62200 30.47300
C  48.09700 38.10800 30.31800
C  49.21200 37.28900 25.60800
C  47.37800 32.87500 25.76700
N  47.21300 35.87300 30.15500
C  46.92900 34.83000 31.00800
C  47.35000 35.12300 32.41900
C  47.54300 36.73000 32.40600
C  47.55900 36.96800 30.88000
C  46.35700 37.48500 33.20000
C  48.55600 34.21600 32.87500
C  49.17500 34.47200 34.27400
H  48.28000 35.29500 35.28300
N  48.35400 37.54600 27.90300
C  48.39600 38.42600 28.94800
C  49.05500 39.68900 28.47600
C  49.44000 39.49300 27.12900
C  48.96000 38.02900 26.79600
C  49.28800 40.78500 29.46400
C  50.13800 40.34900 26.16300
O  50.58300 39.95600 25.08200
C  50.50300 41.76500 26.53800
N  48.09100 35.15600 25.87800
C  48.75600 36.03500 25.13800
C  49.23300 35.42000 23.84000
C  48.55400 34.00700 23.86300
C  47.92300 33.99300 25.19900
C  48.89100 36.27800 22.53400
C  49.55300 32.90000 23.54000
C  50.06600 32.90600 22.09700
N  46.86100 33.66700 27.95900
C  46.88000 32.67100 27.04400
C  46.22700 31.53200 27.61700
C  46.01900 31.89500 28.95800
C  46.35300 33.22200 29.09800
C  46.07500 30.08500 27.02600
C  45.40900 31.33400 30.18800
O  44.95400 30.25300 30.46500
C  45.49400 32.46400 31.13600
C  45.82600 32.06300 32.51400
O  46.70100 31.36700 32.89700
O  44.82400 32.66100 33.27600
C  44.66900 32.36500 34.67600
H  48.40300 38.89800 31.00800
H  49.78100 37.83900 24.85500
H  47.35700 31.95600 25.17700
H  46.44100 34.93000 32.98800
H  48.55800 36.99500 32.70300
H  46.73900 38.27200 33.85000
H  45.77200 36.90000 33.91000
H  45.67300 37.93900 32.48300
H  49.33400 34.49400 32.16400
H  48.40700 33.17300 32.59600
H  50.03900 35.09700 34.05000
H  49.46100 33.45300 34.53300
H  49.31200 41.79200 29.04800
H  50.19700 40.63100 30.04600
H  48.39100 40.78100 30.08200
H  49.64400 42.23100 27.02200
H  50.86900 42.23500 25.62600
H  51.26300 41.67100 27.31400
H  50.30400 35.22400 23.80300
H  47.75700 34.07700 23.12300
H  48.51200 37.26000 22.81500
H  48.04700 35.76200 22.07700
H  49.67500 36.39400 21.78500
H  49.14200 31.89600 23.64900
H  50.33300 32.82000 24.29700
H  49.95900 31.89500 21.70500
H  51.11100 33.20600 22.16600
H  49.61000 33.64500 21.43900
H  46.29100 29.93500 25.96800
H  45.09800 29.72400 27.34900
H  46.75700 29.41700 27.55300
H  44.49500 32.89300 31.22000
H  43.63100 32.03100 34.67200
H  44.75200 33.34000 35.15600
H  45.47000 31.74600 35.07900

