158

Mg 44.00500 4.69700 47.38600
C  42.09500 7.57400 47.36700
C  41.13800 2.74500 47.17900
C  45.96100 1.89700 46.66900
C  46.85800 6.60400 47.46700
N  41.85000 5.18700 47.07500
C  41.33000 6.39900 47.32400
C  39.77900 6.30500 47.58600
C  39.54500 4.73700 47.68500
C  40.89700 4.14700 47.33000
C  38.86200 4.37900 49.06300
C  38.94400 7.00900 46.46600
C  39.23000 6.58300 45.01400
H  39.11300 7.63000 43.92900
N  43.57600 2.60000 46.98000
C  42.31100 2.05100 47.05800
C  42.40100 0.61500 46.81200
C  43.77200 0.39000 46.48200
C  44.51400 1.65300 46.64200
C  41.19200 -0.39500 47.03700
C  44.44400 -1.00600 45.98400
O  43.72200 -2.00100 45.90900
C  45.91900 -1.19300 45.48500
N  46.10400 4.25400 47.03400
C  46.69500 3.05600 46.86500
C  48.23100 3.05200 46.93600
C  48.42100 4.58500 47.25700
C  47.02300 5.23400 47.24900
C  48.93700 1.97900 47.75700
C  49.36300 5.24300 46.23200
C  50.83100 5.42400 46.65600
N  44.48600 6.68200 47.40200
C  45.65800 7.35100 47.44900
C  45.37600 8.76700 47.46700
C  44.04200 8.87800 47.47700
C  43.51800 7.60800 47.36600
C  46.40500 9.84300 47.40900
C  42.96700 9.84500 47.34800
O  42.99400 11.05800 47.13000
C  41.62500 8.94200 47.32800
C  40.89100 9.29400 48.53100
O  40.95400 8.70700 49.58200
O  40.14900 10.45700 48.33900
C  39.40400 10.95700 49.47500
H  40.20300 2.18200 47.21200
H  46.66400 1.11300 46.38000
H  47.77100 7.18500 47.61300
H  39.59500 6.77900 48.55000
H  38.90100 4.36900 46.88700
H  38.55900 5.27800 49.60000
H  39.39900 3.72100 49.74600
H  37.91900 3.92700 48.75500
H  38.90200 8.09800 46.46200
H  37.91600 6.75400 46.72400
H  38.60600 5.72200 44.77200
H  40.25100 6.21300 44.91800
H  40.21500 0.06200 47.19100
H  41.49300 -0.90800 47.95100
H  41.12100 -0.90000 46.07400
H  46.68300 -1.18300 46.26200
H  46.09500 -0.35500 44.80900
H  46.04600 -2.14100 44.96200
H  48.49200 2.93200 45.88400
H  48.83200 4.57500 48.26700
H  48.25200 1.29200 48.25300
H  49.47500 2.52500 48.53300
H  49.53300 1.32400 47.12300
H  48.98300 6.25700 46.11400
H  49.40200 4.77600 45.24800
H  51.11800 5.03400 47.63300
H  50.83800 6.49500 46.85800
H  51.52000 5.17100 45.85000
H  47.43100 9.48700 47.31500
H  46.33600 10.50000 48.27600
H  46.24400 10.39600 46.48300
H  40.95000 9.22600 46.52100
H  38.57700 11.61700 49.21200
H  40.04700 11.34100 50.26700
H  38.82600 10.11000 49.84400
Mg 40.40500 10.24000 30.15900
C  41.98300 11.74300 32.73100
C  38.05500 9.02300 32.34900
C  38.71100 8.86900 27.60500
C  42.89800 11.19100 27.94100
N  39.95000 10.48300 32.34000
C  40.86500 11.01400 33.22300
C  40.43400 10.84400 34.68200
C  39.23100 9.83100 34.52600
C  38.99200 9.82300 32.98000
C  39.62700 8.35800 35.06200
C  40.03300 12.08800 35.38300
C  40.70400 12.26100 36.75000
H  40.11900 13.24200 37.75400
N  38.62500 9.15500 30.01800
C  37.80800 8.67400 30.97500
C  36.73300 7.92400 30.41800
C  36.81900 8.01000 29.03200
C  38.07300 8.78000 28.78200
C  35.54800 7.27000 31.33300
C  35.90200 7.41600 27.95600
O  35.97400 7.57000 26.72200
C  34.62700 6.67300 28.46000
N  40.74400 10.12400 28.00300
C  39.91100 9.47400 27.19900
C  40.52100 9.40100 25.74300
C  41.75000 10.36800 25.86100
C  41.79400 10.59500 27.35300
C  40.95400 7.96100 25.28600
C  41.58100 11.64500 25.00000
C  40.75300 12.82300 25.54700
N  42.12500 11.19900 30.25500
C  43.03700 11.57300 29.29300
C  44.03200 12.44500 29.89200
C  43.58600 12.48200 31.25100
C  42.42900 11.80100 31.40200
C  45.22100 13.06800 29.24200
C  44.06500 12.96000 32.52200
O  45.06800 13.57000 32.84800
C  42.99200 12.56400 33.53600
C  43.64900 11.77100 34.61900
O  43.72600 10.57000 34.57900
O  44.03400 12.50100 35.70800
C  44.71300 11.80900 36.90000
H  37.44300 8.44300 33.04300
H  38.31200 8.29700 26.76500
H  43.61100 11.59500 27.21800
H  41.32000 10.36500 35.09800
H  38.41400 10.14500 35.17600
H  38.78300 7.88300 35.56200
H  40.48300 8.51200 35.71900
H  39.94100 7.61700 34.32700
H  38.94800 12.17200 35.44700
H  40.42500 12.94400 34.83300
H  41.69000 12.60800 36.43900
H  40.74800 11.31700 37.29200
H  34.58800 7.71400 31.07100
H  35.77700 7.49700 32.37500
H  35.55500 6.18600 31.21800
H  35.05800 5.78200 28.91900
H  33.96300 6.46900 27.62100
H  33.95400 7.26600 29.07900
H  39.77800 9.74000 25.02100
H  42.72000 10.04500 25.48500
H  40.66500 7.13700 25.93900
H  42.04100 7.92100 25.21800
H  40.52400 7.77100 24.30300
H  41.04600 11.30400 24.11400
H  42.53700 12.09200 24.73000
H  40.19600 13.30000 24.74100
H  41.55200 13.48000 25.89200
H  40.07900 12.57500 26.36700
H  44.89700 13.27700 28.22200
H  46.06200 12.37400 29.26000
H  45.50700 13.86300 29.93000
H  42.54600 13.48100 33.92100
H  45.30700 10.92900 36.65700
H  43.84100 11.53400 37.49400
H  45.35700 12.50200 37.44200

