158

Mg 26.35700 -0.04300 29.41600
C  28.16500 -0.31500 32.41900
C  23.48200 0.23600 31.27500
C  24.71800 -0.20500 26.62400
C  29.35200 -0.45400 27.67800
N  25.88900 0.08400 31.59200
C  26.81300 0.00200 32.64100
C  26.15200 0.01400 34.05100
C  24.58200 0.08000 33.59400
C  24.64400 0.05800 32.07600
C  23.74700 -1.13900 34.15900
C  26.62400 1.30200 34.83300
C  25.84100 1.89200 36.00600
H  26.62200 2.39100 37.20800
N  24.34400 0.03200 28.92200
C  23.35500 0.35800 29.83700
C  22.13100 0.69000 29.10500
C  22.40000 0.44900 27.69400
C  23.83900 -0.04100 27.71800
C  20.82800 1.01600 29.81600
C  21.54400 0.79100 26.45700
O  22.04000 0.80500 25.31600
C  20.06900 1.15000 26.60800
N  26.98000 -0.40200 27.42800
C  26.10500 -0.37900 26.45600
C  26.84200 -0.41300 25.08400
C  28.33200 -0.08300 25.45800
C  28.19700 -0.31800 26.95500
C  26.63600 -1.79600 24.31700
C  28.65500 1.40600 25.14800
C  29.65500 1.63100 23.96700
N  28.33300 -0.29700 29.86700
C  29.43600 -0.52900 29.09300
C  30.55400 -0.87800 29.91900
C  30.12000 -0.83500 31.24500
C  28.77400 -0.42000 31.16400
C  31.90400 -1.28900 29.53200
C  30.53800 -0.89000 32.67000
O  31.66900 -1.04400 33.17200
C  29.27400 -0.44000 33.45100
C  29.05600 -1.44600 34.51700
O  28.57900 -2.56200 34.44000
O  29.41700 -0.88400 35.69900
C  29.39500 -1.75500 36.86800
H  22.59100 0.40200 31.88300
H  24.22600 -0.09000 25.65600
H  30.20600 -0.49100 26.99900
H  26.50400 -0.89100 34.54700
H  24.14200 1.00100 33.97700
H  22.84800 -0.80600 34.67800
H  24.36300 -1.70700 34.85600
H  23.50400 -1.79600 33.32400
H  26.89500 2.08100 34.12100
H  27.59500 1.05000 35.25900
H  25.05900 1.23200 36.37900
H  25.29300 2.78400 35.70300
H  20.14800 0.25500 29.43300
H  20.52700 2.02100 29.52300
H  20.79000 0.95000 30.90300
H  19.55400 1.24900 25.65300
H  19.98100 2.11000 27.11800
H  19.49800 0.45000 27.21800
H  26.32900 0.30600 24.44500
H  29.00300 -0.83500 25.04500
H  27.57000 -2.26700 24.00900
H  25.95600 -1.57000 23.49700
H  26.22400 -2.56000 24.97700
H  29.22400 1.83500 25.97300
H  27.76300 2.01300 24.99100
H  30.61700 1.80700 24.44900
H  29.31200 2.46400 23.35300
H  29.73500 0.79300 23.27500
H  32.09600 -1.34100 28.46000
H  32.01400 -2.27300 29.98700
H  32.58200 -0.61000 30.04800
H  29.40800 0.52700 33.93700
H  29.37600 -2.84200 36.78900
H  28.47900 -1.50000 37.40100
H  30.22600 -1.38700 37.47000
Mg 8.98500 47.75700 24.56500
C  6.91900 47.96900 27.33900
C  11.61500 48.68300 26.42300
C  10.89000 47.35200 21.69700
C  6.09100 47.50300 22.59300
N  9.23300 48.24000 26.68800
C  8.25900 48.24200 27.68300
C  8.93700 48.56700 29.00400
C  10.28200 49.29700 28.53700
C  10.41100 48.74700 27.09500
C  10.13900 50.91300 28.65700
C  9.25700 47.32100 29.97900
C  9.30800 47.66700 31.51700
H  8.59900 46.85900 32.54100
N  10.89500 47.98500 24.15500
C  11.88700 48.31600 25.07100
C  13.20300 48.13100 24.51800
C  12.97600 47.82300 23.14000
C  11.53400 47.74400 22.91600
C  14.47500 48.48400 25.30500
C  13.97400 47.69900 22.03700
O  13.65900 47.48900 20.84600
C  15.41700 47.73100 22.33800
N  8.53700 47.60300 22.37700
C  9.54200 47.24200 21.52100
C  8.89800 46.41300 20.41500
C  7.37000 46.73300 20.47000
C  7.29000 47.34500 21.86800
C  9.45900 46.76200 18.99500
C  6.44700 45.54000 20.34600
C  5.23400 45.61500 19.40400
N  6.94500 47.82900 24.84600
C  5.92900 47.68900 23.97400
C  4.73700 47.57800 24.70000
C  5.05600 47.68000 26.07300
C  6.44100 47.77700 26.06500
C  3.38900 47.36100 24.19600
C  4.50200 47.79000 27.47400
O  3.38100 47.67800 27.85900
C  5.73500 47.92800 28.33000
C  5.67700 46.78900 29.19400
O  6.09900 45.69800 29.02200
O  4.97800 47.07900 30.32200
C  4.63400 45.92800 31.18400
H  12.43100 48.91400 27.11100
H  11.44100 46.70200 21.01400
H  5.19500 47.22400 22.03500
H  8.30100 49.26100 29.55400
H  11.14000 48.98200 29.13000
H  10.88600 51.26600 29.36700
H  9.18800 51.25700 29.06300
H  10.28300 51.37500 27.68000
H  10.24500 47.04000 29.61400
H  8.62400 46.46800 29.73500
H  8.98700 48.70100 31.64800
H  10.35700 47.77000 31.79600
H  14.34800 48.55400 26.38500
H  14.88200 49.42300 24.93000
H  15.18900 47.66100 25.28800
H  15.53200 46.87300 23.00000
H  15.44700 48.74400 22.73800
H  15.89900 47.57400 21.37300
H  9.08400 45.34700 20.54500
H  6.96000 47.58400 19.92500
H  10.24400 47.51800 18.98100
H  8.74500 47.29000 18.36200
H  9.91000 45.87400 18.55200
H  6.09300 45.14900 21.30000
H  7.07600 44.71200 20.01900
H  5.22700 44.74500 18.74800
H  5.33700 46.41000 18.66500
H  4.31300 45.71400 19.98000
H  3.33800 46.50000 23.52900
H  2.99400 48.23500 23.67800
H  2.67800 47.07200 24.97100
H  5.70500 48.89000 28.84200
H  4.22500 45.19500 30.48900
H  3.87300 46.34500 31.84300
H  5.54400 45.61900 31.69700

