158

Mg 24.27200 -6.59100 46.18000
C  26.72900 -4.32000 45.04400
C  22.03500 -5.10500 43.96100
C  22.20200 -9.35900 46.44700
C  26.69900 -8.23400 47.87300
N  24.44600 -5.03400 44.64400
C  25.51400 -4.12300 44.47300
C  25.10600 -3.02100 43.47400
C  23.54300 -3.12000 43.52400
C  23.32200 -4.53200 44.07800
C  22.90500 -2.01600 44.45500
C  25.77400 -3.37300 42.08700
C  26.27500 -2.22800 41.13300
H  25.53100 -2.11000 39.73700
N  22.34000 -7.13800 45.42700
C  21.54500 -6.29800 44.62400
C  20.20200 -6.77900 44.57500
C  20.23000 -8.06400 45.21800
C  21.65600 -8.27200 45.72500
C  19.11100 -6.10800 43.70500
C  19.04200 -9.06700 45.15500
O  17.95600 -8.68400 44.70800
C  19.19400 -10.46700 45.57600
N  24.48900 -8.55700 46.83300
C  23.48600 -9.49200 46.89900
C  24.02000 -10.77300 47.62500
C  25.25400 -10.23100 48.44500
C  25.53000 -8.96000 47.62500
C  23.09900 -11.61200 48.50100
C  26.40600 -11.28600 48.52500
C  26.69900 -11.83700 49.88100
N  26.36100 -6.32200 46.59100
C  27.16000 -7.07600 47.26800
C  28.52900 -6.49600 47.29800
C  28.37800 -5.36100 46.43600
C  27.05000 -5.36100 46.02800
C  29.70200 -7.12300 47.91800
C  29.07500 -4.24200 45.77800
O  30.19700 -3.82400 45.80900
C  28.04000 -3.57300 44.79400
C  27.99100 -2.10300 44.91100
O  28.51900 -1.33000 44.10700
O  27.37300 -1.71800 46.09300
C  27.22600 -0.29100 46.22400
H  21.34500 -4.49800 43.36900
H  21.48800 -10.16500 46.62700
H  27.42800 -8.73900 48.51000
H  25.38300 -1.99700 43.72200
H  23.08700 -2.92900 42.55300
H  23.70100 -1.44500 44.93300
H  22.52300 -2.45600 45.37600
H  22.35700 -1.28400 43.86100
H  25.04100 -4.03100 41.62200
H  26.62400 -4.02200 42.30000
H  27.34100 -2.28900 40.91500
H  25.97100 -1.35300 41.70800
H  18.80400 -5.12900 44.07400
H  18.18200 -6.60200 43.42100
H  19.52100 -5.83100 42.73300
H  19.39400 -10.70800 46.62000
H  20.00000 -10.82300 44.93400
H  18.31100 -10.99400 45.21400
H  24.40300 -11.40200 46.82100
H  24.95500 -9.80100 49.40100
H  22.39800 -10.86800 48.87900
H  23.55200 -12.15400 49.33100
H  22.45300 -12.25200 47.90000
H  27.36300 -10.79500 48.34700
H  26.24500 -12.07700 47.79200
H  25.78900 -12.06200 50.43700
H  27.44700 -11.19600 50.34600
H  27.08800 -12.84300 49.72700
H  29.80200 -8.10700 47.46000
H  29.68100 -7.22600 49.00300
H  30.56300 -6.48300 47.72800
H  28.29100 -3.73000 43.74500
H  26.37800 0.06100 45.63700
H  28.09900 0.31200 45.97400
H  26.91900 0.00600 47.22700
Mg 30.77700 58.75800 40.91700
C  27.92400 56.91500 39.92900
C  32.73300 56.26400 39.53000
C  33.51900 60.74500 41.34700
C  28.68600 61.43100 41.70300
N  30.34300 56.91000 39.72700
C  29.13600 56.32400 39.57600
C  29.22700 54.80100 39.05200
C  30.79800 54.65500 39.10400
C  31.30800 56.03500 39.45200
C  31.39300 53.37800 39.96600
C  28.60100 54.68900 37.67500
C  28.40700 55.90800 36.80800
H  28.09600 55.68400 35.36400
N  32.80700 58.51700 40.61000
C  33.38400 57.37300 40.03400
C  34.78700 57.60700 40.05400
C  35.07200 58.79700 40.71700
C  33.80000 59.40700 41.02700
C  35.76000 56.60100 39.34900
C  36.49700 59.39000 40.93600
O  37.51100 58.84200 40.49400
C  36.70300 60.55100 41.88300
N  31.05700 60.84500 41.37300
C  32.27200 61.39300 41.44300
C  32.12900 62.92100 41.60300
C  30.60500 63.10200 41.92300
C  30.05200 61.69300 41.68500
C  33.12900 63.62000 42.57600
C  30.05200 64.21400 41.02000
C  28.87600 65.06400 41.52500
N  28.70000 59.20300 40.85100
C  27.99400 60.27300 41.24400
C  26.58000 59.98900 41.12100
C  26.53200 58.66900 40.59000
C  27.82600 58.23200 40.49500
C  25.54900 61.01900 41.42200
C  25.60900 57.54400 40.24800
O  24.37900 57.46000 40.24100
C  26.52100 56.35500 39.80000
C  26.34300 55.20800 40.71800
O  26.86900 55.10700 41.79900
O  25.41400 54.44800 40.07300
C  24.88500 53.31900 40.88500
H  33.30400 55.41300 39.15300
H  34.36900 61.40400 41.15900
H  28.17700 62.38300 41.86600
H  28.72300 54.08800 39.70500
H  31.22300 54.45900 38.12000
H  30.61700 52.66400 40.24100
H  31.96300 53.53300 40.88100
H  32.19700 52.95100 39.36700
H  27.55400 54.39400 37.75300
H  29.12000 53.94200 37.07500
H  29.34100 56.46800 36.76100
H  27.54500 56.51300 37.09000
H  36.18000 57.22500 38.56000
H  35.27500 55.69400 38.98800
H  36.52200 56.20700 40.02100
H  36.87100 61.53200 41.43800
H  37.57000 60.38900 42.52200
H  35.91000 60.73900 42.60600
H  32.53900 63.31900 40.67500
H  30.46600 63.30100 42.98500
H  33.61800 64.44600 42.06000
H  33.89300 62.92300 42.92300
H  32.65300 63.95000 43.49900
H  29.71400 63.90700 40.03000
H  30.89900 64.89000 40.91000
H  28.11700 65.15000 40.74700
H  29.34100 66.04400 41.63500
H  28.49300 64.76800 42.50100
H  25.88100 62.05600 41.37400
H  25.10000 60.69800 42.36200
H  24.79200 60.89200 40.64800
H  26.45900 55.95700 38.78700
H  24.27300 53.55200 41.75700
H  25.68800 52.60400 41.06600
H  24.21700 52.76400 40.22800

