158

Mg 48.08200 44.81600 41.66100
C  44.65600 44.13000 41.59600
C  48.63100 41.30500 41.30400
C  51.37900 45.23300 41.32500
C  47.41000 48.11200 41.43500
N  46.80100 42.95400 41.30000
C  45.37400 42.95500 41.40800
C  44.84200 41.54400 41.45600
C  46.10600 40.72800 41.36100
C  47.29400 41.68700 41.39800
C  46.19400 39.65600 42.44600
C  43.80900 41.17800 40.32300
C  43.89200 41.84800 38.95700
H  43.64500 41.15600 37.66100
N  49.78100 43.44400 41.30000
C  49.79100 42.12000 41.19600
C  51.15000 41.64900 41.09900
C  52.00200 42.73700 41.33100
C  51.06900 43.87000 41.34800
C  51.46800 40.15700 41.19300
C  53.44500 42.66500 41.75100
O  54.05700 41.60000 41.66800
C  54.28700 43.90600 42.08400
N  49.24100 46.43600 41.26200
C  50.59200 46.41600 41.31500
C  51.13600 47.87800 41.17500
C  49.89000 48.76300 41.29900
C  48.78100 47.71400 41.30900
C  52.34800 48.32300 42.08500
C  49.77600 49.93800 40.23100
C  49.30700 51.28800 40.85700
N  46.39800 45.97800 41.67500
C  46.28500 47.30300 41.62200
C  44.92300 47.74500 41.79500
C  44.19700 46.50800 41.82500
C  45.14200 45.48700 41.68700
C  44.43800 49.16300 41.87200
C  42.86000 45.87000 41.87500
O  41.74000 46.31000 42.13500
C  43.14000 44.26800 41.77400
C  42.51700 43.48700 42.84900
O  41.39900 42.85500 42.73200
O  43.35300 43.38500 43.92600
C  42.93500 42.38600 44.93100
H  48.88000 40.24900 41.42700
H  52.45700 45.39200 41.24700
H  47.04200 49.13200 41.30800
H  44.43300 41.37900 42.45300
H  46.09500 40.16800 40.42600
H  45.22100 39.31900 42.80300
H  46.77600 39.81300 43.35400
H  46.51400 38.69400 42.04600
H  42.80100 41.25700 40.73000
H  43.91900 40.13300 40.03200
H  44.80500 42.44400 38.93400
H  43.08700 42.58400 38.96000
H  51.72800 39.99000 42.23900
H  52.30800 39.72600 40.64900
H  50.68900 39.54400 40.74000
H  54.28900 44.50700 41.17500
H  55.36000 43.73100 42.16400
H  53.71800 44.40000 42.87100
H  51.60000 47.88300 40.18900
H  50.00600 49.10200 42.32800
H  53.29100 48.49700 41.56700
H  52.54100 47.51700 42.79300
H  52.18500 49.19900 42.71300
H  49.17000 49.69000 39.35900
H  50.80200 50.08200 39.89300
H  48.26600 51.36400 40.54400
H  49.96200 52.10400 40.55200
H  49.21200 51.31400 41.94300
H  43.41700 49.24900 42.24300
H  44.41100 49.48500 40.83100
H  45.02600 49.76300 42.56700
H  42.65600 43.87700 40.88000
H  43.76700 42.17500 45.60400
H  42.70100 41.41800 44.48800
H  42.17400 42.78900 45.59700
Mg 7.01300 53.42800 41.25200
C  6.50400 49.75500 41.11400
C  10.11900 52.81900 40.34700
C  7.01400 56.53500 40.44900
C  3.67100 53.52500 42.40400
N  8.20300 51.35500 40.75700
C  7.82900 50.07000 40.74600
C  9.06600 49.14400 40.59200
C  10.24400 50.18300 40.52100
C  9.53800 51.60600 40.59500
C  11.37900 49.90700 41.57000
C  9.05900 48.08800 39.44500
C  8.78900 48.66600 38.05800
H  7.69700 48.17900 37.11800
N  8.32600 54.50700 40.40000
C  9.59300 54.09400 40.19100
C  10.40800 55.21100 39.85700
C  9.52400 56.30600 39.72600
C  8.22600 55.80700 40.14900
C  11.90800 55.20200 39.71600
C  9.93000 57.73600 39.27100
O  11.09800 57.97000 38.99700
C  8.87000 58.89200 39.18400
N  5.50600 54.82300 41.46400
C  5.78900 56.08000 41.09800
C  4.64200 57.03900 41.58500
C  3.65700 56.13400 42.40700
C  4.27500 54.78100 42.04500
C  5.25900 58.31700 42.28900
C  2.10200 56.18500 42.20300
C  1.36800 57.49000 42.52700
N  5.41400 52.04600 41.67700
C  4.13600 52.24400 42.18400
C  3.44900 50.95500 42.35300
C  4.34100 49.98600 41.93500
C  5.53500 50.71400 41.54700
C  2.14300 50.76100 43.01600
C  4.46500 48.50000 41.79600
O  3.66100 47.58200 42.04600
C  5.88100 48.30600 41.18700
C  5.61900 47.55400 39.95400
O  5.34700 48.08400 38.91000
O  5.52600 46.14600 40.20100
C  4.83200 45.42600 39.13000
H  11.19900 52.66000 40.32900
H  7.06800 57.60000 40.21800
H  2.69100 53.66700 42.86500
H  9.24100 48.58300 41.51000
H  10.72100 50.02100 39.55400
H  12.28200 49.41800 41.20500
H  10.95800 49.27100 42.34800
H  11.55900 50.84200 42.10100
H  8.28800 47.33800 39.62300
H  9.95300 47.46500 39.44400
H  9.76200 48.60600 37.57200
H  8.59500 49.73500 38.14700
H  12.26600 56.22700 39.80800
H  12.08800 54.79600 38.72100
H  12.47900 54.55400 40.38100
H  7.95000 58.56500 38.69800
H  9.07800 59.82400 38.66000
H  8.69200 59.10700 40.23700
H  4.14700 57.33300 40.66000
H  3.78600 56.24300 43.48400
H  5.23500 59.17400 41.61600
H  6.31200 58.20300 42.54700
H  4.63700 58.53900 43.15600
H  1.67100 55.49100 42.92400
H  1.87100 55.86700 41.18600
H  0.89200 57.32900 43.49400
H  0.71800 57.81000 41.71200
H  2.01700 58.33500 42.75900
H  1.39400 50.80400 42.22500
H  1.92900 51.56700 43.71800
H  2.22900 49.80700 43.53500
H  6.56100 47.75000 41.83300
H  4.98000 45.82400 38.12600
H  3.75900 45.39800 39.31900
H  5.32700 44.45900 39.03700

