158

Mg -1.93400 17.11600 26.80400
C  -2.38200 14.95500 29.57900
C  -2.17300 19.73100 28.96400
C  -1.90900 19.23500 24.13600
C  -2.01300 14.35500 24.63300
N  -2.11200 17.34200 29.03400
C  -2.26200 16.29200 29.93200
C  -2.42800 16.85600 31.28700
C  -2.65900 18.37800 31.07100
C  -2.32100 18.52900 29.59800
C  -3.96500 19.12500 31.58500
C  -1.18200 16.60000 32.22800
C  -1.49800 16.37700 33.72200
H  -0.42900 16.54600 34.76200
N  -1.84700 19.17900 26.60600
C  -1.92500 20.06700 27.66300
C  -1.90100 21.40300 27.10400
C  -1.83200 21.31100 25.65400
C  -1.88900 19.81800 25.40100
C  -1.74200 22.67600 27.91700
C  -1.66800 22.42000 24.58100
O  -1.51100 22.10800 23.37800
C  -1.59100 23.85300 25.08400
N  -2.08800 16.77700 24.65300
C  -1.91100 17.84700 23.77900
C  -1.77600 17.23800 22.35300
C  -1.48000 15.74700 22.55100
C  -1.88400 15.60400 24.02400
C  -2.92500 17.62300 21.39300
C  0.00600 15.34100 22.29000
C  1.03800 15.82000 23.35000
N  -2.23600 15.05200 26.97900
C  -2.17300 14.06000 26.02700
C  -2.29700 12.80500 26.71700
C  -2.35700 13.09600 28.07900
C  -2.32400 14.49200 28.21300
C  -2.30000 11.39400 26.12600
C  -2.52800 12.52100 29.35700
O  -2.60500 11.29000 29.67300
C  -2.40300 13.64700 30.42600
C  -1.19100 13.35900 31.19400
O  -0.03400 13.64500 30.93900
O  -1.57100 12.72500 32.35400
C  -0.54500 12.58000 33.43000
H  -2.28500 20.60000 29.61600
H  -1.97900 19.84100 23.23000
H  -1.82800 13.51700 23.95700
H  -3.26600 16.34800 31.76500
H  -1.97900 18.93800 31.71300
H  -4.24800 19.86500 30.83600
H  -3.72800 19.76500 32.43400
H  -4.73600 18.38400 31.80000
H  -0.49000 17.42500 32.05600
H  -0.60800 15.77700 31.80100
H  -1.81900 15.33700 33.78000
H  -2.31900 17.07000 33.90600
H  -1.78700 22.42100 28.97600
H  -2.52400 23.32700 27.52700
H  -0.74800 23.08700 27.74300
H  -1.46500 24.50800 24.22200
H  -0.65800 23.81600 25.64700
H  -2.50300 24.10300 25.62400
H  -0.86800 17.72100 21.99300
H  -2.19800 15.11900 22.02400
H  -3.82400 17.81800 21.97700
H  -3.13400 16.71700 20.82300
H  -2.66700 18.50400 20.80400
H  0.30500 15.81500 21.35500
H  -0.02200 14.25600 22.19600
H  0.60900 16.40500 24.16300
H  1.73500 16.45400 22.80200
H  1.59400 14.96500 23.73600
H  -1.98700 11.47600 25.08500
H  -3.27900 10.91400 26.13100
H  -1.63000 10.72600 26.66600
H  -3.30900 13.77900 31.01800
H  0.43300 12.99100 33.17900
H  -0.34400 11.54600 33.71100
H  -0.94500 13.03800 34.33500
Mg 6.34900 55.52200 41.25000
C  3.54100 53.46100 40.83600
C  8.33600 53.18900 40.12200
C  8.76100 57.94800 41.13100
C  4.06700 57.93300 42.31500
N  5.88100 53.64100 40.47900
C  4.70600 52.97900 40.27600
C  5.05000 51.66100 39.56200
C  6.54100 51.43100 39.89900
C  7.02700 52.81400 40.21700
C  6.93500 50.42400 40.97000
C  4.71800 51.83300 38.05300
C  3.93400 50.64300 37.49800
H  4.74100 49.95500 36.35500
N  8.26400 55.58400 40.58800
C  8.92800 54.50500 40.14300
C  10.25300 54.87600 39.87000
C  10.42800 56.22200 40.15900
C  9.10100 56.65400 40.66100
C  11.28200 53.99500 39.38700
C  11.73500 57.06600 39.94100
O  12.86600 56.59400 39.70200
C  11.76000 58.59800 40.04600
N  6.38200 57.69000 41.49100
C  7.57900 58.40400 41.58500
C  7.37600 59.80100 42.33900
C  5.76000 59.80600 42.47200
C  5.34700 58.36300 42.06000
C  8.07900 59.85600 43.68200
C  5.05700 60.92500 41.60300
C  3.87000 61.63800 42.31000
N  4.29500 55.64800 41.71600
C  3.51900 56.68700 42.20200
C  2.15500 56.23800 42.45500
C  2.13600 55.00700 41.90000
C  3.41300 54.70900 41.42500
C  0.96000 57.01700 42.97400
C  1.19800 53.92200 41.64600
O  -0.03500 53.76400 41.75900
C  2.15900 52.84700 40.88400
C  1.51300 52.64400 39.50100
O  1.43500 53.45300 38.59800
O  0.96100 51.35500 39.61300
C  0.26100 50.85000 38.45600
H  9.12100 52.47100 39.87500
H  9.60900 58.60000 41.35000
H  3.38100 58.72100 42.63300
H  4.50300 50.77800 39.89100
H  7.11200 51.14800 39.01400
H  6.03700 50.10500 41.50000
H  7.57500 50.85900 41.73700
H  7.52400 49.57000 40.63500
H  5.60500 51.88900 37.42200
H  4.14800 52.75400 37.93100
H  2.99700 51.04100 37.10900
H  3.61400 49.89200 38.22100
H  10.84600 53.07200 39.00500
H  12.03100 53.64400 40.09700
H  11.80900 54.38400 38.51700
H  12.50500 59.07600 39.41100
H  12.01700 58.71700 41.09900
H  10.80000 59.05200 39.80000
H  7.67000 60.61500 41.67700
H  5.53200 60.00400 43.51900
H  7.99700 58.81300 43.98900
H  7.50600 60.49000 44.35800
H  9.06200 60.28700 43.49200
H  4.66900 60.39300 40.73400
H  5.85500 61.62100 41.34400
H  3.78400 61.29900 43.34200
H  2.95500 61.43000 41.75500
H  4.09800 62.70200 42.25100
H  1.41500 57.96300 43.26500
H  0.59700 56.51300 43.86900
H  0.27900 57.09900 42.12700
H  2.07400 51.88500 41.39000
H  -0.65700 50.49100 38.92100
H  0.78800 50.03000 37.96800
H  0.13500 51.65000 37.72700

