158

Mg 0.78500 42.57200 26.62900
C  2.72800 42.87200 29.60900
C  -1.76200 41.42400 28.68900
C  -0.81500 41.57500 23.89600
C  3.51000 43.58800 24.80800
N  0.55400 42.31700 28.88500
C  1.40500 42.54500 29.91800
C  0.83600 42.34300 31.34000
C  -0.51600 41.62700 30.94600
C  -0.59900 41.79800 29.43400
C  -0.68400 40.09500 31.48400
C  0.57300 43.66700 32.14400
C  1.01800 43.73700 33.62400
H  0.64400 42.52200 34.48600
N  -0.98800 41.71000 26.27500
C  -1.97700 41.37800 27.27300
C  -3.12100 40.87000 26.63400
C  -2.86700 40.87000 25.22300
C  -1.46200 41.33300 25.06200
C  -4.27100 40.39800 27.46500
C  -3.85800 40.47700 24.09100
O  -3.56800 40.39800 22.88300
C  -5.24600 40.19000 24.44300
N  1.32500 42.57700 24.65700
C  0.50100 42.11900 23.70100
C  1.20400 42.25500 22.27900
C  2.46500 43.08000 22.57900
C  2.43800 43.16600 24.03000
C  1.54600 40.92400 21.59000
C  2.49700 44.56300 21.98600
C  1.46200 45.57800 22.47300
N  2.74400 43.14400 27.10100
C  3.71400 43.49600 26.23100
C  4.93000 43.76400 26.98900
C  4.61100 43.51300 28.36900
C  3.30500 43.13700 28.32100
C  6.21400 44.14600 26.31800
C  5.10800 43.43400 29.67200
O  6.27300 43.53900 30.06700
C  3.83500 43.11900 30.57900
C  4.22200 41.84400 31.22900
O  4.59300 40.88100 30.60500
O  4.02200 41.89500 32.62300
C  4.24800 40.65900 33.42500
H  -2.68600 41.24900 29.24300
H  -1.25700 41.32200 22.93000
H  4.33700 44.05200 24.26700
H  1.48900 41.76600 31.99400
H  -1.34400 42.17400 31.39600
H  -1.02300 39.35900 30.75500
H  -1.24900 39.98600 32.40900
H  0.31800 39.71500 31.68600
H  -0.44700 44.01900 31.99000
H  1.20100 44.38700 31.61900
H  0.59700 44.55600 34.20700
H  2.10500 43.73300 33.55500
H  -3.98900 39.58100 28.12900
H  -5.19000 40.23700 26.90300
H  -4.56900 41.21400 28.12300
H  -5.85900 39.99200 23.56400
H  -5.73400 41.00700 24.97600
H  -5.35400 39.29300 25.05300
H  0.53500 42.84100 21.64900
H  3.39100 42.51900 22.45400
H  2.08400 40.36200 22.35400
H  2.11700 41.18700 20.70000
H  0.62400 40.43300 21.27800
H  2.46700 44.57000 20.89600
H  3.49200 44.90400 22.27400
H  0.77900 45.96600 21.71700
H  2.06200 46.36000 22.93800
H  0.84200 45.19500 23.28400
H  6.06100 44.50000 25.29900
H  6.78200 43.21800 26.38400
H  6.72200 44.86400 26.96300
H  3.65800 43.86900 31.35000
H  5.20500 40.58900 33.94100
H  4.18800 39.74600 32.83200
H  3.39900 40.55300 34.09900
Mg -11.97300 16.58400 41.20900
C  -8.93100 14.57400 40.84400
C  -10.34900 19.11800 39.62100
C  -14.89500 18.01500 40.77200
C  -13.51300 13.68000 42.43200
N  -9.85800 16.79000 40.41900
C  -8.78200 15.95700 40.36900
C  -7.52400 16.59500 39.75400
C  -7.95600 18.08000 39.52000
C  -9.53500 18.00800 39.81300
C  -7.06900 19.22000 40.14200
C  -7.03300 15.92300 38.47400
C  -5.55100 15.46600 38.41900
H  -4.90200 16.02400 37.15300
N  -12.51900 18.41400 40.33500
C  -11.73300 19.29600 39.78000
C  -12.47000 20.48100 39.36200
C  -13.85700 20.23000 39.82700
C  -13.83900 18.86700 40.33400
C  -11.80700 21.67700 38.70400
C  -14.99600 21.22800 39.76400
O  -14.96000 22.33100 39.30900
C  -16.34200 20.83100 40.45800
N  -13.87400 15.92800 41.57700
C  -14.94800 16.72500 41.33000
C  -16.22800 16.13200 41.76200
C  -15.76800 14.83300 42.37900
C  -14.30100 14.77900 42.14700
C  -17.04500 16.99100 42.78600
C  -16.46000 13.49800 41.78200
C  -17.36400 12.75800 42.81900
N  -11.36100 14.57200 41.61600
C  -12.10600 13.49000 42.14000
C  -11.33600 12.38300 42.32100
C  -10.04100 12.78100 41.88100
C  -10.11100 14.10700 41.41700
C  -11.70400 11.01100 42.88100
C  -8.62000 12.27700 41.71900
O  -7.99900 11.27500 41.94000
C  -7.83900 13.50500 41.00800
C  -6.88500 13.94800 42.00100
O  -7.20500 14.48800 43.07300
O  -5.58800 13.60700 41.67900
C  -4.51200 14.34500 42.38900
H  -9.74300 19.90000 39.15800
H  -15.89600 18.44700 40.83400
H  -13.94500 12.74600 42.79900
H  -6.73600 16.51700 40.50300
H  -7.89600 18.27300 38.44900
H  -6.38800 18.79800 40.88000
H  -7.72200 19.93000 40.65000
H  -6.55300 19.71000 39.31600
H  -7.21400 16.48800 37.55900
H  -7.63200 15.01600 38.38700
H  -5.45200 14.38200 38.35400
H  -5.06200 15.84700 39.31600
H  -11.39200 21.37900 37.74200
H  -11.09600 22.05600 39.43900
H  -12.56000 22.46000 38.61700
H  -17.01100 21.69100 40.42800
H  -16.23000 20.60600 41.51800
H  -16.78000 19.94600 39.99500
H  -16.75000 16.04300 40.80900
H  -15.85600 14.80400 43.46500
H  -17.42900 16.45400 43.65300
H  -17.96900 17.33900 42.32500
H  -16.42600 17.78800 43.19900
H  -15.72800 12.83700 41.31900
H  -16.95400 13.81900 40.86500
H  -17.01100 11.73000 42.73100
H  -18.37400 12.70900 42.41200
H  -17.26600 13.15000 43.83100
H  -11.78000 11.09200 43.96600
H  -10.94600 10.24600 42.71100
H  -12.67000 10.70600 42.47900
H  -7.31800 13.11800 40.13200
H  -4.88000 15.27700 42.81900
H  -3.71500 14.58300 41.68400
H  -4.15700 13.67600 43.17400

