158

Mg 1.14600 8.57900 26.81900
C  1.73000 10.46100 29.71500
C  1.06800 5.66800 28.81800
C  1.16800 6.71600 24.05300
C  1.54300 11.38600 24.81900
N  1.70900 8.14100 29.00500
C  1.64100 9.10100 29.99800
C  1.47400 8.39700 31.37800
C  1.56400 6.81200 31.08300
C  1.52000 6.80900 29.49800
C  2.83200 5.94400 31.65500
C  0.18800 8.85000 32.11900
C  0.44000 9.05000 33.65900
H  1.57900 8.33000 34.41800
N  1.12700 6.50800 26.47800
C  0.97700 5.48500 27.39800
C  0.54800 4.25100 26.70100
C  0.62700 4.58000 25.29200
C  0.97700 5.98100 25.25700
C  0.18200 2.99100 27.45800
C  0.29900 3.67100 24.07600
O  0.23600 4.00700 22.88600
C  -0.04800 2.24600 24.26500
N  1.13100 8.99500 24.73100
C  1.23600 8.05000 23.79200
C  1.38800 8.69600 22.36600
C  1.08000 10.12600 22.72600
C  1.13100 10.22900 24.17200
C  2.83000 8.52100 21.85800
C  -0.14100 10.76000 22.12600
C  -1.42600 10.85300 22.90400
N  1.55600 10.55200 27.13700
C  1.71400 11.56500 26.23800
C  2.00100 12.81200 26.96700
C  2.03100 12.46000 28.28800
C  1.71500 11.05200 28.34700
C  2.26800 14.14300 26.32800
C  2.20900 12.91400 29.66300
O  2.36200 14.07300 30.02800
C  1.93400 11.62000 30.61000
C  3.10400 11.40800 31.56300
O  4.13300 10.82500 31.36900
O  2.89700 12.07200 32.72100
C  3.91300 11.90500 33.77100
H  0.87400 4.75600 29.38700
H  1.17400 6.21500 23.08300
H  1.66700 12.31500 24.26000
H  2.30100 8.66500 32.03500
H  0.65800 6.35400 31.48000
H  2.46700 5.47800 32.57000
H  3.74800 6.51500 31.80400
H  3.05100 5.17000 30.92000
H  -0.62100 8.12300 32.04200
H  -0.10400 9.83400 31.75200
H  -0.50000 8.77600 34.14000
H  0.58900 10.12200 33.78300
H  -0.83100 2.84000 27.08400
H  0.08300 3.12600 28.53500
H  0.93100 2.21100 27.32300
H  0.77300 1.75100 24.78300
H  -0.21800 1.85200 23.26200
H  -1.00400 2.15400 24.78100
H  0.66100 8.25300 21.68500
H  1.89100 10.79200 22.43200
H  3.55900 8.29600 22.63600
H  3.16300 9.39600 21.29900
H  2.95000 7.63000 21.24200
H  -0.28900 10.40300 21.10700
H  0.14400 11.79300 21.93000
H  -1.80400 11.87200 22.98600
H  -1.36100 10.41900 23.90100
H  -2.27800 10.36500 22.43000
H  1.49000 14.22100 25.56900
H  3.19800 14.10500 25.76000
H  2.25100 14.95700 27.05300
H  1.01100 11.77600 31.16800
H  4.10800 12.82100 34.33000
H  4.86300 11.46900 33.46200
H  3.55000 11.24700 34.56100
Mg 47.30500 35.04700 26.04000
C  45.48500 33.76200 28.73200
C  47.81200 37.88500 27.82400
C  48.74200 36.34300 23.36600
C  46.22400 32.18500 24.16300
N  46.62800 35.68600 27.96100
C  46.08200 34.97100 28.97100
C  46.10200 35.71900 30.28700
C  46.51900 37.15500 29.78600
C  46.96600 36.92800 28.41200
C  45.29600 38.15700 29.82700
C  47.24700 35.12000 31.26200
C  47.01400 34.93000 32.76700
H  46.01300 35.93100 33.35000
N  48.40300 36.71100 25.76100
C  48.50000 37.82900 26.59300
C  49.38600 38.75600 26.04600
C  49.54600 38.42000 24.69800
C  48.84700 37.12300 24.50900
C  49.88200 39.97200 26.79300
C  50.20900 39.20400 23.50400
O  50.40000 38.68500 22.39600
C  50.77100 40.59400 23.63000
N  47.17600 34.47000 23.98800
C  48.03800 35.14500 23.14100
C  48.06000 34.45200 21.73600
C  47.52400 33.00800 22.04300
C  46.95100 33.21100 23.49900
C  47.23600 35.19900 20.65900
C  48.50600 31.80200 21.98100
C  48.16300 30.56000 21.07300
N  45.91600 33.39100 26.31600
C  45.62500 32.32700 25.46900
C  45.05900 31.32200 26.18800
C  44.75400 31.90200 27.46300
C  45.43300 33.11500 27.52100
C  44.68000 29.97200 25.72300
C  44.20300 31.63000 28.70200
O  43.57700 30.68300 29.08500
C  44.52800 32.88200 29.59900
C  45.11300 32.30500 30.87600
O  46.20500 31.78200 30.95900
O  44.13300 32.36100 31.83300
C  44.51900 31.54400 33.04500
H  47.92200 38.83300 28.35400
H  49.26400 36.69000 22.47300
H  45.84100 31.33200 23.59800
H  45.06000 35.71000 30.60500
H  47.19500 37.70800 30.43800
H  44.59100 37.88400 30.61200
H  44.69700 38.12500 28.91700
H  45.67000 39.17400 29.94200
H  48.07500 35.82400 31.34900
H  47.67000 34.19900 30.86200
H  47.91600 35.17700 33.32800
H  46.74200 33.95500 33.17000
H  50.93700 40.17300 26.61000
H  49.87900 39.88400 27.87900
H  49.25800 40.85000 26.62400
H  51.46000 40.62200 24.47400
H  50.01400 41.36900 23.74600
H  51.38000 40.76000 22.74100
H  49.11900 34.44200 21.47700
H  46.63000 32.77600 21.46400
H  46.74100 36.10200 21.01600
H  46.36600 34.68900 20.24700
H  47.89000 35.47600 19.83200
H  48.61200 31.43600 23.00200
H  49.47800 32.12800 21.61100
H  47.33300 30.79200 20.40500
H  47.74700 29.89500 21.82900
H  49.01000 30.16400 20.51200
H  44.32700 29.36300 26.55600
H  45.59500 29.54800 25.30800
H  43.81800 30.03200 25.06000
H  43.51100 33.25900 29.71100
H  45.55700 31.72500 33.32400
H  44.56300 30.47400 32.83800
H  43.86500 31.85000 33.86100

