158

Mg 8.30900 3.33300 27.73400
C  9.65300 2.15800 30.70900
C  6.47300 5.69200 29.67700
C  6.95200 4.46600 24.93800
C  9.88300 0.83800 26.01200
N  7.94000 3.62700 30.02600
C  8.78700 3.18700 30.99800
C  8.53500 3.84300 32.37400
C  7.34200 4.77600 31.97600
C  7.23000 4.69800 30.47200
C  5.96000 4.77200 32.73200
C  9.69500 4.52700 33.09600
C  10.04600 4.04100 34.56100
H  10.46700 5.06200 35.60400
N  6.90600 4.82800 27.41300
C  6.24500 5.66100 28.27700
C  5.45000 6.61400 27.41800
C  5.61500 6.27800 26.04000
C  6.56500 5.18700 26.09800
C  4.65000 7.75800 28.12800
C  5.02100 6.88200 24.87300
O  5.28100 6.64100 23.65600
C  3.85300 7.89100 25.04300
N  8.47900 2.76700 25.65600
C  7.76300 3.34400 24.74600
C  8.16000 2.80500 23.38900
C  9.40400 1.92400 23.67000
C  9.24500 1.79100 25.20100
C  7.00500 2.17700 22.59400
C  10.70200 2.67000 23.29300
C  11.04600 2.48400 21.83800
N  9.48700 1.67900 28.22400
C  10.09700 0.85000 27.39800
C  10.92800 -0.02400 28.21700
C  10.81400 0.49300 29.55200
C  9.89700 1.48700 29.47500
C  11.85400 -1.01700 27.60000
C  11.26300 0.29200 30.86500
O  12.00300 -0.52400 31.37900
C  10.61900 1.43900 31.64500
C  9.78900 0.79700 32.75100
O  8.56100 0.62100 32.79900
O  10.65000 0.60200 33.82600
C  9.95800 0.28500 35.06200
H  6.19300 6.42100 30.44100
H  6.48000 4.79600 24.01100
H  10.51200 0.16700 25.42200
H  8.05300 3.07300 32.97600
H  7.68500 5.79000 32.18200
H  5.16300 4.21600 32.23900
H  5.55700 5.77300 32.88200
H  6.06500 4.25700 33.68700
H  9.49300 5.59500 33.01500
H  10.58900 4.33500 32.50300
H  10.92300 3.42900 34.34700
H  9.19700 3.50200 34.98100
H  3.65200 7.32000 28.10200
H  4.60000 8.62200 27.46400
H  5.09800 7.96900 29.09900
H  3.09300 7.73400 25.80900
H  3.35500 7.85900 24.07400
H  4.40700 8.81700 25.20000
H  8.37600 3.53400 22.60700
H  9.34500 0.98900 23.11300
H  6.04800 2.24500 23.11100
H  7.25900 1.15600 22.30800
H  6.78200 2.75800 21.69900
H  11.46100 2.36000 24.01100
H  10.48000 3.70600 23.55100
H  10.78400 3.33800 21.21400
H  10.66600 1.55800 21.40600
H  12.12300 2.31900 21.78900
H  12.31200 -0.65100 26.68100
H  11.31600 -1.90700 27.27400
H  12.55600 -1.13600 28.42500
H  11.40300 2.12700 31.96000
H  10.58900 0.43000 35.93900
H  9.63700 -0.75600 35.10000
H  9.11800 0.97400 35.14800
Mg 16.81200 52.07100 26.83800
C  19.00500 50.73200 29.18800
C  14.56900 52.67000 29.37700
C  14.65300 53.10500 24.57200
C  18.95100 50.81300 24.33700
N  16.75300 51.63600 28.98100
C  17.87400 51.30500 29.77600
C  17.58100 51.43000 31.25200
C  16.07500 51.67500 31.31700
C  15.75800 52.03300 29.80900
C  15.28100 50.45300 31.79100
C  18.41000 52.67700 31.85300
C  19.01800 52.34000 33.19200
H  18.11300 51.75400 34.19700
N  14.94300 53.00200 26.95600
C  14.16800 53.07100 28.07500
C  12.94100 53.75400 27.74900
C  12.88600 53.88600 26.34500
C  14.20100 53.35300 25.87100
C  11.85500 54.18800 28.76600
C  11.72900 54.39300 25.44600
O  11.60500 54.17600 24.23400
C  10.54200 55.21500 25.99700
N  16.90700 52.06900 24.72100
C  15.85100 52.59100 24.05300
C  16.18700 52.66500 22.51900
C  17.54800 51.87600 22.39700
C  17.86300 51.58000 23.89000
C  15.15100 52.09100 21.48700
C  18.75100 52.51700 21.66000
C  19.46200 53.69100 22.37100
N  18.58800 50.98100 26.73200
C  19.25400 50.46100 25.68200
C  20.45100 49.71800 26.13200
C  20.36700 49.77200 27.50500
C  19.19600 50.51600 27.82500
C  21.58600 49.15400 25.31100
C  21.07800 49.43800 28.75900
O  22.10300 48.81700 28.91100
C  20.23300 50.11100 29.84000
C  19.90600 49.12700 30.91400
O  19.11500 48.19700 30.76300
O  20.64700 49.30700 32.01500
C  20.33800 48.43100 33.10800
H  13.77700 52.75200 30.12500
H  13.93200 53.46600 23.83400
H  19.71300 50.52300 23.61000
H  17.84200 50.48000 31.71700
H  15.79700 52.55800 31.89200
H  15.87700 49.81400 32.44300
H  14.93000 49.76100 31.02500
H  14.42100 50.78100 32.37500
H  17.82800 53.59700 31.80400
H  19.18300 52.89900 31.11800
H  19.38000 53.28200 33.60400
H  19.84500 51.63400 33.11500
H  11.59800 55.21100 28.49200
H  12.19700 54.19300 29.80100
H  11.14100 53.40900 28.49900
H  9.90200 54.68500 26.70200
H  9.88400 55.45500 25.16200
H  11.06700 56.08200 26.39900
H  16.26800 53.73400 22.32300
H  17.34900 50.86700 22.03500
H  14.45900 52.87200 21.17400
H  14.47400 51.36000 21.92900
H  15.60300 51.66000 20.59300
H  18.48400 52.84600 20.65500
H  19.41600 51.65700 21.58200
H  20.44500 53.42300 22.75900
H  18.82000 54.08200 23.16000
H  19.47500 54.49600 21.63600
H  21.27100 48.42000 24.57000
H  22.38200 48.70500 25.90500
H  21.89200 50.06800 24.80300
H  20.81100 50.92500 30.27800
H  20.88500 47.50900 32.91400
H  19.30500 48.11800 33.26100
H  20.58200 48.92000 34.05200

