158

Mg 8.99200 3.00000 27.09200
C  10.36000 1.49200 30.00600
C  7.01700 4.96600 29.35100
C  7.23900 4.20000 24.49200
C  10.02100 0.26100 25.19300
N  8.70900 3.13100 29.43600
C  9.51500 2.56200 30.35900
C  9.27100 3.10400 31.73300
C  8.01600 4.04900 31.51100
C  7.81000 4.05200 30.00900
C  6.68500 3.64500 32.13900
C  10.50000 3.84100 32.45500
C  10.93200 3.36700 33.86000
H  11.22100 4.46700 34.93400
N  7.48900 4.47000 26.96500
C  6.86800 5.16400 27.93500
C  6.02300 6.12700 27.27000
C  6.20200 6.05700 25.84800
C  6.96700 4.86400 25.73200
C  5.07400 7.07500 28.06200
C  5.80300 6.92400 24.69900
O  5.98700 6.63900 23.53200
C  5.07900 8.17300 25.01000
N  8.79600 2.43000 25.14300
C  8.06400 3.12200 24.22800
C  8.21200 2.53400 22.86200
C  9.07800 1.30300 23.05900
C  9.34800 1.32600 24.57300
C  6.89900 2.24600 22.16500
C  10.35100 1.31200 22.25600
C  10.46900 0.13800 21.26000
N  10.03000 1.26200 27.47700
C  10.46400 0.31300 26.58200
C  11.32500 -0.57300 27.26500
C  11.29500 -0.16500 28.65200
C  10.53000 0.96200 28.71200
C  11.83700 -1.97400 26.64200
C  11.64800 -0.61900 29.93400
O  12.33100 -1.58100 30.22300
C  11.06900 0.49900 30.89800
C  10.17300 -0.11400 31.88800
O  8.95100 -0.29300 31.78500
O  10.98200 -0.28500 33.06000
C  10.24200 -0.56300 34.28000
H  6.42800 5.60700 30.01100
H  6.84100 4.50800 23.52300
H  10.36600 -0.56500 24.56600
H  9.08200 2.22000 32.34300
H  8.30600 5.00600 31.94400
H  6.60700 4.42100 32.90100
H  6.65500 2.70100 32.68400
H  5.88000 3.69200 31.40700
H  10.28400 4.90900 32.44700
H  11.39200 3.73100 31.83700
H  11.82900 2.75900 33.74500
H  10.06600 2.82200 34.23800
H  5.48900 8.08000 27.99100
H  4.95200 6.81800 29.11500
H  4.12400 7.13200 27.53200
H  5.69000 8.66100 25.76900
H  4.08900 7.96600 25.41600
H  4.99800 8.82200 24.13800
H  8.80600 3.30200 22.36600
H  8.57100 0.34000 23.00700
H  6.04300 2.59600 22.74400
H  6.71700 1.17300 22.10500
H  6.84200 2.79900 21.22700
H  11.19800 1.13100 22.91800
H  10.61600 2.26100 21.79100
H  9.50900 -0.18700 20.85800
H  11.00100 -0.73000 21.65000
H  11.00800 0.55700 20.41100
H  12.92400 -2.02900 26.70800
H  11.63800 -1.91600 25.57200
H  11.37200 -2.84600 27.10100
H  11.89700 1.02800 31.36900
H  9.17200 -0.66800 34.09900
H  10.53300 0.11300 35.08300
H  10.60300 -1.51900 34.66000
Mg 6.87800 54.38200 40.25500
C  7.02100 50.72400 39.70000
C  10.15000 54.42800 39.61700
C  6.60000 57.70000 40.43900
C  3.37100 53.92700 40.43000
N  8.46100 52.67700 39.43000
C  8.27000 51.34800 39.42700
C  9.60500 50.70000 39.11100
C  10.66500 51.84700 39.49600
C  9.72100 53.08500 39.44900
C  11.42800 51.68300 40.85200
C  9.78300 50.29200 37.65800
C  9.31800 51.18200 36.51000
H  7.83700 51.11300 36.09900
N  8.21500 55.85600 40.03100
C  9.53400 55.67400 39.71600
C  10.18500 57.00500 39.81100
C  9.18700 57.91900 40.12600
C  7.90300 57.20600 40.18900
C  11.60600 57.24000 39.64000
C  9.42900 59.42700 40.40100
O  10.55500 59.91700 40.40700
C  8.27200 60.30600 40.72800
N  5.21300 55.63400 40.18800
C  5.36100 56.92100 40.54800
C  4.02200 57.60200 40.93300
C  2.99000 56.48300 40.71100
C  3.91000 55.23700 40.46300
C  4.01100 58.42400 42.34100
C  2.10300 56.76400 39.55300
C  0.60500 56.44300 39.83200
N  5.41700 52.71200 40.12900
C  4.09300 52.73200 40.26500
C  3.61200 51.38200 40.37000
C  4.75500 50.55300 40.23900
C  5.83500 51.40200 39.99800
C  2.30400 50.92200 40.70000
C  5.24400 49.24600 40.30700
O  4.62400 48.26100 40.70000
C  6.67500 49.24200 39.72600
C  6.61100 48.60000 38.24400
O  5.66400 48.63900 37.48800
O  7.74800 47.75500 38.00600
C  7.76000 47.06500 36.68200
H  11.22300 54.43500 39.41400
H  6.40900 58.72200 40.77200
H  2.28600 53.80500 40.43800
H  9.63700 49.82300 39.75700
H  11.37200 52.11800 38.71300
H  11.59500 52.62000 41.38300
H  12.39000 51.36100 40.45400
H  11.00900 50.84800 41.41200
H  9.36300 49.31400 37.42200
H  10.86600 50.18300 37.58800
H  9.83000 50.82800 35.61500
H  9.60600 52.22400 36.64900
H  11.66600 58.14300 39.03300
H  12.06200 56.38800 39.13600
H  12.12400 57.33300 40.59500
H  8.59000 61.28000 41.09800
H  7.87200 59.92300 41.66700
H  7.55200 60.39600 39.91400
H  3.98100 58.43200 40.22600
H  2.47500 56.22100 41.63500
H  3.62600 59.44100 42.26100
H  5.04800 58.43700 42.67800
H  3.45700 57.95400 43.15300
H  2.40400 56.17500 38.68700
H  2.22400 57.78100 39.18100
H  0.51400 55.89600 40.77100
H  0.09700 55.95400 39.00200
H  0.10000 57.40200 39.94600
H  1.89800 50.73900 39.70600
H  1.78400 51.74300 41.19400
H  2.33000 50.01900 41.31100
H  7.36700 48.68700 40.35900
H  8.02600 46.02000 36.83800
H  8.57500 47.54200 36.13700
H  6.84300 47.25400 36.12300

