158

Mg 25.70700 -0.15400 29.52700
C  27.50400 -0.32100 32.48400
C  22.78500 0.05100 31.50500
C  23.86400 0.07400 26.76400
C  28.61100 -0.60800 27.75000
N  25.18900 -0.24700 31.75700
C  26.16200 -0.19500 32.71200
C  25.46800 -0.14400 34.13300
C  23.96900 -0.20500 33.84100
C  23.97400 -0.11300 32.29600
C  23.15500 -1.38900 34.43200
C  25.91800 0.85900 35.18000
C  24.90400 1.61300 36.02300
H  25.37500 2.23700 37.34200
N  23.65300 0.03000 29.17400
C  22.61600 0.14900 30.13200
C  21.37200 0.17000 29.39600
C  21.67200 0.12600 28.00400
C  23.09600 0.13700 27.92000
C  20.04600 0.19100 30.06100
C  20.65000 0.22700 26.85900
O  20.97200 0.15500 25.66300
C  19.22500 0.38400 27.23100
N  26.13300 -0.35000 27.58700
C  25.24000 -0.11200 26.63900
C  25.89200 -0.19600 25.24000
C  27.39400 -0.13100 25.57300
C  27.38600 -0.32900 27.10800
C  25.39300 -1.37100 24.34800
C  28.17100 1.22600 25.24700
C  29.45500 0.95000 24.57000
N  27.67600 -0.55000 29.91800
C  28.83900 -0.69500 29.11200
C  30.01100 -0.86300 29.84600
C  29.57700 -0.63200 31.21700
C  28.15500 -0.55000 31.21900
C  31.34900 -0.97600 29.37400
C  29.96900 -0.48300 32.60400
O  31.10500 -0.43400 33.04400
C  28.63700 -0.28200 33.50300
C  28.50800 -1.31200 34.46800
O  28.21100 -2.46200 34.20500
O  28.87200 -0.83700 35.68800
C  28.91200 -1.78300 36.78500
H  21.90300 -0.03900 32.14300
H  23.25000 0.42800 25.93300
H  29.40900 -0.62300 27.00500
H  25.69500 -1.07800 34.64700
H  23.41400 0.71200 34.03800
H  22.49100 -1.03600 35.22100
H  23.91000 -2.05700 34.84500
H  22.58600 -1.94000 33.68300
H  26.48400 1.57600 34.58500
H  26.64200 0.46200 35.89200
H  24.14300 0.88300 36.30100
H  24.35200 2.36000 35.45300
H  19.53500 -0.75200 29.86700
H  19.46400 1.07000 29.78500
H  20.14600 0.28300 31.14200
H  19.03900 -0.51300 27.82200
H  18.49300 0.35800 26.42300
H  19.18800 1.31400 27.79700
H  25.60400 0.75900 24.80100
H  27.90800 -0.97000 25.10400
H  25.17500 -1.09000 23.31800
H  24.50400 -1.87200 24.73200
H  26.15100 -2.14100 24.49000
H  28.35400 1.75000 26.18500
H  27.53400 1.97000 24.76800
H  30.28300 1.08600 25.26600
H  29.51300 1.59600 23.69400
H  29.59100 -0.06700 24.19900
H  31.83200 -1.72100 30.00700
H  31.87800 -0.03800 29.54500
H  31.43700 -1.23400 28.31900
H  28.56900 0.71200 33.94600
H  29.29700 -2.74000 36.43200
H  27.93000 -1.79600 37.25800
H  29.49200 -1.43100 37.63800
Mg 35.60700 1.66600 30.12300
C  33.24200 2.79500 32.30500
C  37.82300 1.61100 32.72900
C  38.02900 0.98500 27.98100
C  33.41800 2.29300 27.50600
N  35.56600 2.19800 32.23600
C  34.47700 2.62000 32.92700
C  34.71200 2.76000 34.45000
C  36.26400 2.60000 34.54700
C  36.62400 2.15400 33.10300
C  36.96200 3.93400 34.96300
C  34.01900 1.65800 35.32800
C  33.43100 2.08300 36.66200
H  34.06600 3.30700 37.40800
N  37.63500 1.23000 30.30400
C  38.33100 1.17000 31.47700
C  39.63100 0.59700 31.20300
C  39.70700 0.40200 29.78100
C  38.45000 0.93500 29.21700
C  40.61600 0.31900 32.36300
C  40.92700 -0.13000 29.00900
O  40.90500 -0.23800 27.76400
C  42.07300 -0.74700 29.72800
N  35.66700 1.68400 27.99200
C  36.78200 1.31500 27.40500
C  36.53400 1.01000 25.91300
C  35.08000 1.56800 25.69400
C  34.65000 1.86300 27.13300
C  37.57600 1.61600 24.91300
C  34.15000 0.48700 25.05200
C  33.59800 -0.77000 25.81300
N  33.67900 2.37100 29.92000
C  32.91500 2.45500 28.80100
C  31.59700 2.81600 29.19200
C  31.65300 2.96200 30.51500
C  32.95400 2.65100 30.92900
C  30.38200 3.00900 28.24800
C  30.90000 3.36500 31.66900
O  29.76200 3.74600 31.72000
C  31.87600 3.15400 32.93600
C  31.90900 4.46200 33.69100
O  32.49100 5.46700 33.29400
O  31.34900 4.40100 34.96300
C  31.09500 5.73600 35.59100
H  38.54000 1.64800 33.55200
H  38.75300 0.64100 27.24000
H  32.70400 2.47700 26.70000
H  34.42100 3.77200 34.73200
H  36.62500 1.85500 35.25600
H  36.35600 4.83700 34.89600
H  37.79600 4.13900 34.29200
H  37.37400 3.92200 35.97300
H  34.77100 0.90600 35.56700
H  33.29700 1.10100 34.73100
H  33.37400 1.26400 37.37800
H  32.47700 2.29900 36.18000
H  40.26400 0.67500 33.33200
H  41.55700 0.84200 32.19500
H  40.80400 -0.75400 32.39700
H  42.79100 -1.13700 29.00700
H  41.60900 -1.49400 30.37300
H  42.60100 0.03400 30.27400
H  36.42300 -0.06200 25.74900
H  35.06200 2.43000 25.02700
H  38.21800 2.38400 25.34400
H  37.17500 2.04300 23.99300
H  38.28800 0.84700 24.61400
H  34.53000 0.19200 24.07300
H  33.22100 1.03900 24.90700
H  34.02700 -0.75000 26.81500
H  33.94900 -1.66800 25.30400
H  32.51500 -0.89000 25.80700
H  30.28200 2.18700 27.53900
H  30.48000 3.91100 27.64400
H  29.44400 3.08100 28.79900
H  31.53300 2.34000 33.57500
H  32.04100 6.27500 35.53400
H  30.81800 5.64300 36.64100
H  30.31500 6.32600 35.11100

