158

Mg 47.14900 24.77800 28.84900
C  47.76100 26.97600 31.49000
C  45.66600 22.62400 31.17300
C  46.43400 22.56400 26.38500
C  48.84500 26.80700 26.72600
N  46.89400 24.75200 31.13300
C  47.11100 25.84900 31.94500
C  46.73800 25.58300 33.38100
C  46.14000 24.18100 33.26200
C  46.17600 23.84200 31.79700
C  46.91700 23.12700 34.16300
C  45.64800 26.64800 33.91100
C  46.03200 27.48600 35.13900
H  45.11500 27.48800 36.43000
N  46.17000 22.84500 28.79000
C  45.65400 22.12500 29.80900
C  45.02600 20.89200 29.31300
C  45.21200 20.91200 27.89700
C  45.99000 22.14000 27.61600
C  44.18400 19.92300 30.21800
C  44.72000 19.98300 26.80800
O  44.93600 20.09700 25.56300
C  43.70700 18.91300 27.18900
N  47.46400 24.73600 26.90600
C  47.18800 23.72600 26.04800
C  47.69900 23.94900 24.63600
C  48.13600 25.41100 24.72800
C  48.19900 25.64100 26.21400
C  48.77600 22.94400 24.06600
C  47.19200 26.45300 23.96700
C  45.79200 26.53200 24.55600
N  48.10200 26.50600 29.00500
C  48.77500 27.28300 28.05400
C  49.29400 28.51600 28.64800
C  48.93600 28.41200 30.01200
C  48.22100 27.12600 30.21200
C  50.00600 29.65100 27.91100
C  48.92200 29.09700 31.23800
O  49.26400 30.19000 31.44200
C  48.19500 28.19600 32.29200
C  49.22100 27.96100 33.34100
O  50.09700 27.09500 33.32200
O  49.12500 28.95800 34.30200
C  50.05500 28.82600 35.44200
H  45.22000 21.91100 31.87000
H  46.33200 21.91100 25.51600
H  49.41100 27.42100 26.02300
H  47.65900 25.61400 33.96500
H  45.10300 24.20300 33.59800
H  46.92200 22.16400 33.65200
H  46.35400 23.02700 35.09000
H  47.91300 23.49200 34.41400
H  44.64400 26.23800 34.01800
H  45.64900 27.33200 33.06200
H  45.92200 28.51800 34.80500
H  47.08000 27.29400 35.37200
H  43.23900 19.75000 29.70400
H  43.90300 20.36900 31.17300
H  44.71900 18.98500 30.36400
H  42.84100 19.24900 27.75900
H  44.18400 18.04100 27.63700
H  43.26100 18.55800 26.26000
H  46.83200 23.83700 23.98500
H  49.16800 25.43800 24.37700
H  48.56200 21.94900 24.45700
H  49.82000 23.23200 24.18700
H  48.57900 22.94500 22.99400
H  47.01100 26.01100 22.98700
H  47.71100 27.41100 23.96700
H  45.82600 27.30600 25.32300
H  45.44100 25.55500 24.88900
H  45.10800 26.88700 23.78500
H  49.78000 29.67700 26.84500
H  51.08600 29.56800 28.03400
H  49.70600 30.61900 28.31100
H  47.38000 28.79400 32.69800
H  49.67600 28.06800 36.12800
H  50.19000 29.78500 35.94200
H  51.05700 28.51700 35.14500
Mg -1.47000 34.17400 25.70000
C  -3.15500 32.37400 28.41300
C  -0.19700 36.28200 28.09900
C  -0.16100 35.91200 23.18800
C  -2.99200 32.08500 23.50200
N  -1.74600 34.27500 28.02200
C  -2.33300 33.39100 28.89600
C  -1.94200 33.79900 30.30700
C  -1.07500 35.08900 30.18700
C  -1.02400 35.25100 28.67300
C  -1.54800 36.46400 30.88600
C  -1.28400 32.60000 31.09800
C  -1.71400 32.47900 32.63400
H  -0.75800 32.27300 33.78000
N  -0.24300 35.87400 25.70900
C  0.16300 36.55900 26.77900
C  1.01200 37.69300 26.34400
C  1.07300 37.55900 24.86900
C  0.25200 36.38700 24.51800
C  1.67900 38.72300 27.20700
C  1.76000 38.46300 23.87600
O  1.87900 38.23000 22.68200
C  2.42400 39.80200 24.29200
N  -1.62100 34.00300 23.65900
C  -0.99600 34.84300 22.78700
C  -1.40900 34.46300 21.34700
C  -1.85500 33.03900 21.53500
C  -2.14700 32.99700 23.02200
C  -2.29100 35.48700 20.58200
C  -0.79500 31.91300 21.09200
C  0.60300 32.02800 21.64800
N  -2.91500 32.65800 25.87000
C  -3.45900 31.94300 24.85400
C  -4.42800 31.02700 25.40300
C  -4.37700 31.15800 26.79300
C  -3.36500 32.12200 27.03300
C  -5.35400 30.17000 24.55100
C  -4.98500 30.81100 28.02700
O  -5.97700 30.17700 28.36000
C  -4.20700 31.48500 29.15300
C  -5.19500 32.13200 30.08200
O  -5.92400 33.06600 29.76300
O  -5.34100 31.42000 31.27100
C  -6.38400 31.90500 32.22400
H  0.16000 36.94200 28.89300
H  0.20600 36.45500 22.31500
H  -3.49400 31.47700 22.74600
H  -2.91700 34.05100 30.72400
H  -0.09000 34.90000 30.61300
H  -0.66700 37.07300 31.08800
H  -2.14200 36.40000 31.79800
H  -2.15100 37.06700 30.20700
H  -0.20600 32.75200 31.03800
H  -1.45100 31.68000 30.53800
H  -2.33900 31.58700 32.65300
H  -2.39700 33.29900 32.85500
H  1.38300 38.54100 28.24000
H  1.34600 39.75900 27.15100
H  2.76300 38.65900 27.11300
H  2.56700 40.41100 23.39900
H  3.35300 39.58400 24.81900
H  1.72000 40.28300 24.97100
H  -0.46800 34.46000 20.79600
H  -2.72100 32.87900 20.89200
H  -1.77700 35.81500 19.67900
H  -2.32200 36.33300 21.26900
H  -3.25500 35.06700 20.29600
H  -0.72000 31.93100 20.00400
H  -1.18800 30.95600 21.43500
H  1.29200 32.66400 21.09200
H  1.02600 31.03000 21.76400
H  0.45400 32.46800 22.63400
H  -5.16000 29.11100 24.71900
H  -5.29600 30.41300 23.49000
H  -6.37900 30.46500 24.77600
H  -3.69100 30.67800 29.67400
H  -5.73700 32.46300 32.90000
H  -6.91800 31.06900 32.67500
H  -7.13900 32.62200 31.90200

