158

Mg 40.71800 7.36100 29.80600
C  42.66600 8.81900 32.70000
C  38.50600 6.38200 32.11400
C  39.37600 5.70100 27.33900
C  43.42800 8.12900 27.76900
N  40.69700 7.55200 32.22900
C  41.41000 8.29300 33.10500
C  40.80900 8.33600 34.42500
C  39.52100 7.46400 34.21000
C  39.57800 7.05800 32.75100
C  39.29800 6.25700 35.09400
C  40.54300 9.85000 34.75400
C  39.66300 10.14700 36.05300
H  40.17900 11.12500 37.06900
N  39.11400 6.21400 29.75500
C  38.29800 5.93300 30.82000
C  37.09600 5.25000 30.20000
C  37.22300 5.33800 28.77700
C  38.62500 5.78100 28.56300
C  35.90100 4.85700 31.01100
C  36.34000 5.01700 27.71700
O  36.56400 5.12100 26.52900
C  34.92600 4.48300 28.08200
N  41.47100 6.82100 27.84700
C  40.63000 6.20700 26.96400
C  41.07400 6.29300 25.53000
C  42.21700 7.39700 25.69000
C  42.44400 7.36800 27.17100
C  41.46900 4.89200 25.06900
C  41.86300 8.80100 25.02600
C  42.88500 9.31500 24.09400
N  42.66700 8.24800 30.15000
C  43.55500 8.55500 29.18900
C  44.59100 9.27300 29.67600
C  44.35500 9.32800 31.09500
C  43.13800 8.72300 31.29800
C  45.68900 9.92300 28.83600
C  44.89600 9.89000 32.34500
O  45.94800 10.51700 32.48900
C  43.84800 9.56500 33.44800
C  44.31800 8.73100 34.53300
O  45.03100 7.78400 34.47100
O  43.88200 9.27500 35.71200
C  44.03600 8.49000 36.97300
H  37.61000 6.33700 32.73700
H  38.91200 5.19200 26.49100
H  44.18900 8.61200 27.15300
H  41.57600 7.98100 35.11400
H  38.70100 8.14300 34.44100
H  39.17200 5.26900 34.65100
H  38.35800 6.46900 35.60300
H  39.98900 6.20200 35.93600
H  40.11500 10.40100 33.91700
H  41.46800 10.42400 34.80100
H  39.32100 9.20700 36.48600
H  38.83800 10.73700 35.65300
H  35.63900 3.80900 30.86700
H  34.99900 5.39200 30.71500
H  36.04100 5.24600 32.02000
H  34.99000 3.58700 28.69900
H  34.36800 4.20500 27.18800
H  34.47800 5.36000 28.55100
H  40.28500 6.69400 24.89300
H  43.12300 7.00600 25.22900
H  40.82600 4.21300 25.62900
H  42.49800 4.70500 25.37500
H  41.25300 4.72200 24.01400
H  41.79400 9.55600 25.81000
H  40.93800 8.75900 24.45100
H  43.62700 8.52700 23.96600
H  43.34100 10.19200 24.55400
H  42.65700 9.52200 23.04900
H  45.31000 10.35900 27.91100
H  46.37000 9.08600 28.68500
H  46.07800 10.77900 29.38800
H  43.50000 10.51100 33.86200
H  43.66400 9.09800 37.79700
H  45.11900 8.38300 37.04100
H  43.57500 7.50200 36.96300
Mg 46.61400 24.43900 28.78300
C  47.27200 26.75600 31.37400
C  45.57300 22.17300 31.08300
C  46.57600 22.04400 26.27100
C  47.95600 26.73000 26.49700
N  46.36700 24.50400 30.99600
C  46.76200 25.48300 31.84300
C  46.25000 25.16100 33.26200
C  45.69300 23.72900 33.13700
C  45.97700 23.39900 31.68800
C  46.33600 22.68400 34.08800
C  45.30800 26.22000 33.86100
C  44.46400 25.81900 35.05900
H  44.46400 26.56500 36.40500
N  46.09100 22.35900 28.72400
C  45.69900 21.59800 29.78400
C  45.43400 20.27800 29.27500
C  45.77900 20.18300 27.86900
C  46.17000 21.55500 27.55600
C  44.82000 19.13600 30.24900
C  45.81200 19.03300 26.90700
O  46.09200 19.08600 25.74700
C  45.36400 17.71000 27.34700
N  47.09800 24.35100 26.69400
C  46.86800 23.32900 25.85000
C  47.30500 23.70800 24.40100
C  47.78400 25.16200 24.56800
C  47.68200 25.42400 26.06500
C  48.42200 22.74900 23.80600
C  46.92800 26.21000 23.65200
C  45.43000 26.38200 23.96500
N  47.39600 26.38600 28.80500
C  47.88900 27.18000 27.82400
C  48.28000 28.42700 28.39600
C  48.17500 28.27600 29.79100
C  47.51500 27.02800 29.96500
C  48.96600 29.48300 27.50500
C  48.30700 28.95800 31.06200
O  48.72300 30.08800 31.37600
C  47.71800 27.96800 32.14800
C  48.54700 27.70600 33.28300
O  49.45400 26.90700 33.28000
O  48.37300 28.65700 34.17800
C  49.25900 28.72100 35.37900
H  45.26000 21.40900 31.79800
H  46.53500 21.33500 25.44100
H  48.31600 27.41400 25.72600
H  47.21200 25.13900 33.77500
H  44.61800 23.69400 33.31700
H  45.58800 21.91700 34.28700
H  46.63600 23.20500 34.99700
H  47.28200 22.24900 33.76400
H  44.66500 26.73900 33.15000
H  46.00000 26.93700 34.30100
H  44.70400 24.76800 35.22400
H  43.43700 25.84600 34.69500
H  44.74300 19.47700 31.28100
H  45.45900 18.25400 30.29300
H  43.82200 18.91000 29.87200
H  44.30400 17.70300 27.59900
H  46.08000 17.39200 28.10500
H  45.32700 17.10100 26.44400
H  46.43600 23.51700 23.77200
H  48.81900 25.29900 24.25500
H  48.79700 22.07600 24.57700
H  49.16200 23.45100 23.42000
H  48.05900 22.16800 22.95800
H  47.14100 26.09300 22.58900
H  47.37400 27.18900 23.82500
H  45.10800 27.37300 24.28400
H  45.22900 25.71300 24.80100
H  44.88800 26.07300 23.07100
H  48.56200 29.54100 26.49400
H  50.01500 29.20100 27.41700
H  48.93600 30.40300 28.08800
H  46.78800 28.44900 32.45200
H  48.86400 27.95900 36.05100
H  49.26700 29.63000 35.98100
H  50.29700 28.41800 35.23500

