158

Mg 16.90800 -0.57600 27.27600
C  15.93500 1.07000 30.02600
C  19.23800 -2.40500 29.24200
C  18.15500 -1.92400 24.47700
C  15.17600 1.93400 25.26300
N  17.62200 -0.58500 29.33200
C  16.95100 0.11600 30.30200
C  17.38500 -0.31600 31.72200
C  18.59300 -1.32900 31.40100
C  18.51000 -1.42500 29.89500
C  20.01200 -0.94200 31.78000
C  16.14600 -0.84400 32.62200
C  16.07600 -0.40100 34.12000
H  17.36400 0.19700 34.78600
N  18.31500 -2.18800 26.97600
C  19.06700 -2.84000 27.90000
C  19.79900 -3.93500 27.21300
C  19.45400 -3.84800 25.83400
C  18.60300 -2.65700 25.68500
C  20.80800 -4.80700 27.90000
C  19.70300 -4.81600 24.72100
O  19.19100 -4.55900 23.62300
C  20.43100 -6.15800 24.94600
N  16.61400 -0.07100 25.15300
C  17.35200 -0.75800 24.18400
C  17.32100 0.01400 22.84100
C  16.24400 1.13500 23.06800
C  15.94200 0.97000 24.55500
C  18.70000 0.59900 22.39300
C  14.98500 1.06100 22.08300
C  14.82800 2.06700 20.97000
N  15.63100 1.10800 27.51800
C  15.02200 2.03500 26.67000
C  14.22500 2.98300 27.48500
C  14.55900 2.65600 28.81100
C  15.43200 1.53700 28.81900
C  13.37000 4.14600 27.03700
C  14.40400 3.04000 30.23200
O  13.75800 4.02100 30.61000
C  15.28800 2.04200 31.03200
C  16.31900 2.83600 31.86000
O  17.30800 3.37500 31.34200
O  15.75600 2.97000 33.11300
C  16.48400 4.04500 33.87400
H  19.99300 -2.98000 29.78300
H  18.74900 -2.11400 23.58100
H  14.54900 2.72100 24.84000
H  17.72300 0.55100 32.28900
H  18.46900 -2.25600 31.96200
H  20.54400 -1.83300 32.11400
H  20.01400 -0.14600 32.52500
H  20.59400 -0.57600 30.93400
H  16.11700 -1.93200 32.55800
H  15.28400 -0.34800 32.17500
H  15.90900 -1.34700 34.63400
H  15.15200 0.16100 34.25000
H  20.51300 -5.85200 27.80600
H  20.85700 -4.74300 28.98700
H  21.76600 -4.59200 27.42600
H  21.51400 -6.06400 25.02900
H  20.20000 -6.84000 24.12900
H  20.08500 -6.46300 25.93400
H  17.07700 -0.50800 21.91600
H  16.62800 2.13600 22.87400
H  19.47900 0.42500 23.13600
H  18.51700 1.64000 22.12800
H  19.09500 0.09200 21.51300
H  14.12500 1.17300 22.74400
H  14.75700 0.07700 21.67400
H  14.11400 2.86600 21.16900
H  14.54700 1.54900 20.05300
H  15.79400 2.57100 20.97100
H  13.48900 5.12000 27.51100
H  12.31800 3.94800 27.24200
H  13.35100 4.33400 25.96300
H  14.61100 1.54100 31.72400
H  16.46800 5.00200 33.35200
H  17.53900 3.88000 34.09000
H  16.04000 4.16700 34.86200
Mg 44.78900 4.84000 47.06400
C  42.84500 7.72300 46.96700
C  41.84400 3.00600 46.28800
C  46.61300 1.98500 46.51400
C  47.69500 6.75300 47.21900
N  42.61600 5.36900 46.50000
C  42.03700 6.59700 46.57900
C  40.51100 6.52800 46.61000
C  40.19600 5.02900 46.28100
C  41.63700 4.45000 46.29500
C  39.28600 4.27700 47.32100
C  39.75000 7.58100 45.66400
C  40.40000 8.11300 44.38800
H  40.07200 7.37500 43.07700
N  44.30600 2.76000 46.52700
C  43.05100 2.19500 46.29000
C  43.19100 0.80100 46.13500
C  44.58000 0.48500 46.19500
C  45.26500 1.73900 46.39800
C  42.03100 -0.18500 45.83700
C  45.19400 -0.87700 46.09100
O  44.39000 -1.78300 45.92700
C  46.69000 -1.16300 45.85100
N  46.83500 4.48600 46.61400
C  47.31000 3.20400 46.63600
C  48.84900 3.12700 46.92600
C  49.17600 4.67300 47.22000
C  47.84100 5.36800 47.00400
C  49.27700 2.10500 48.06400
C  50.32000 5.29500 46.36900
C  51.31500 6.17700 47.08500
N  45.24000 6.84000 47.13200
C  46.47400 7.47200 47.15200
C  46.22900 8.90500 47.39900
C  44.82200 8.98200 47.38300
C  44.31200 7.73600 47.18100
C  47.21900 9.98600 47.70300
C  43.71500 9.94600 47.48500
O  43.81100 11.15200 47.73100
C  42.37100 9.15400 47.26900
C  41.52700 9.16600 48.50500
O  41.37400 8.22900 49.28000
O  40.64900 10.21000 48.41800
C  39.58100 10.26900 49.48400
H  40.96400 2.41700 46.02400
H  47.34600 1.17600 46.50600
H  48.57700 7.34200 47.47700
H  40.32900 6.70600 47.67000
H  39.82800 4.70500 45.30800
H  39.95500 3.70500 47.96400
H  38.62500 3.66200 46.71000
H  38.68700 5.00200 47.87100
H  39.49400 8.36300 46.37800
H  38.81300 7.05000 45.49900
H  41.48600 8.02300 44.40400
H  40.33900 9.19500 44.26800
H  42.27200 -0.83300 44.99500
H  41.08900 0.31300 45.60400
H  41.86900 -0.80700 46.71700
H  46.91400 -2.14600 45.43600
H  47.21200 -1.09300 46.80500
H  47.17100 -0.45900 45.17200
H  49.40500 2.81900 46.04100
H  49.40100 4.69400 48.28600
H  48.41400 1.53400 48.40800
H  49.73100 2.70400 48.85300
H  50.03000 1.38200 47.75100
H  49.92400 5.80000 45.48800
H  50.85500 4.41700 46.00700
H  52.30200 5.72000 47.01000
H  51.10800 6.27100 48.15100
H  51.33100 7.19200 46.68800
H  48.02800 9.71500 48.38100
H  46.80400 10.90600 48.11400
H  47.77300 10.20100 46.79000
H  41.72900 9.62300 46.52300
H  39.60700 11.25800 49.94200
H  39.53500 9.49700 50.25200
H  38.72200 10.32800 48.81600

