158

Mg 48.29500 15.94800 28.07800
C  46.11200 15.98900 30.94500
C  50.45700 17.85900 29.71700
C  49.87900 16.16100 25.16500
C  45.32400 14.68800 26.28600
N  48.18700 16.94700 30.06800
C  47.35800 16.65800 31.14600
C  47.98100 17.17700 32.42500
C  49.16500 18.05400 31.91400
C  49.30600 17.55500 30.52300
C  48.83300 19.54400 31.81600
C  48.36100 15.99600 33.34600
C  47.94600 16.15800 34.82700
H  47.28100 17.42500 35.41700
N  50.08500 16.71000 27.59700
C  50.80500 17.50000 28.38900
C  51.94200 18.01700 27.64000
C  51.82500 17.45800 26.33300
C  50.57600 16.65900 26.28500
C  52.95400 19.10600 28.16100
C  52.69000 17.64600 25.10000
O  52.46500 17.00200 24.07200
C  53.83200 18.49900 25.11200
N  47.64500 15.52500 26.03800
C  48.63800 15.56300 25.11300
C  48.07300 15.06600 23.79800
C  46.63300 14.61200 24.12300
C  46.48300 15.00400 25.52300
C  48.18900 16.17400 22.72700
C  46.45700 13.06500 23.92500
C  45.70600 12.65600 22.73400
N  46.14000 15.45200 28.44800
C  45.11700 14.93600 27.63100
C  44.02900 14.49900 28.45700
C  44.33900 14.84100 29.74800
C  45.63600 15.49800 29.70600
C  42.70200 13.91300 27.95100
C  43.94400 14.71600 31.12700
O  43.06100 14.09400 31.63900
C  45.07100 15.46700 31.94500
C  44.36600 16.50800 32.83300
O  44.51200 17.71900 32.85900
O  43.57500 15.83800 33.77900
C  43.07500 16.59200 34.98700
H  51.15300 18.53100 30.22400
H  50.38200 16.20200 24.19700
H  44.63300 14.06900 25.71100
H  47.26900 17.85300 32.90000
H  50.04000 17.86300 32.53500
H  48.00700 19.75300 31.13700
H  49.70400 20.12100 31.50500
H  48.60400 19.92600 32.81100
H  49.39900 15.67400 33.42200
H  47.94600 15.09500 32.89300
H  48.80400 16.00500 35.48200
H  47.39100 15.24900 35.05700
H  53.48100 19.64900 27.37700
H  53.79700 18.60900 28.64200
H  52.48600 19.77800 28.88000
H  53.60300 19.53000 25.38300
H  54.24100 18.42800 24.10400
H  54.52600 18.05300 25.82300
H  48.69800 14.23500 23.46800
H  45.86100 15.23500 23.66900
H  47.33400 16.08100 22.05800
H  48.91100 15.87000 21.96900
H  48.29600 17.18500 23.12000
H  46.10500 12.63700 24.86400
H  47.42500 12.58200 23.79100
H  45.31800 11.63800 22.77800
H  46.39900 12.80600 21.90600
H  44.89100 13.36000 22.56700
H  42.28900 14.68000 27.29600
H  42.05300 13.74600 28.81100
H  42.87600 13.03100 27.33400
H  45.55700 14.80700 32.66400
H  42.14000 16.07700 35.20500
H  42.73800 17.61200 34.80300
H  43.69300 16.46900 35.87700
Mg 26.83500 51.50300 26.32700
C  24.88400 52.28500 28.98800
C  29.42100 50.64300 28.60300
C  28.89800 50.65200 23.73000
C  24.55200 52.61900 24.13000
N  27.13700 51.56400 28.49800
C  26.12500 51.78400 29.41200
C  26.49200 51.42200 30.85500
C  27.93800 51.07100 30.66300
C  28.20100 51.04600 29.17300
C  28.93800 52.10600 31.40800
C  25.64800 50.32800 31.55700
C  25.04800 50.83000 32.90100
H  25.95100 50.79300 34.15000
N  28.85500 50.80100 26.22400
C  29.75600 50.49200 27.23400
C  31.02500 50.01100 26.77300
C  30.81400 49.81700 25.39700
C  29.45800 50.38800 25.06800
C  32.17600 49.80900 27.71400
C  31.68700 48.99100 24.45900
O  31.44900 48.96300 23.22700
C  32.84600 48.21000 24.83700
N  26.81700 51.73600 24.09700
C  27.77200 51.29300 23.24300
C  27.25700 51.36500 21.80400
C  25.83000 51.95700 21.92300
C  25.73600 52.16500 23.46200
C  28.31900 52.14300 20.92100
C  24.66700 51.24000 21.30000
C  24.22500 49.99800 22.01100
N  25.13400 52.44800 26.48300
C  24.26900 52.77300 25.49500
C  23.02500 53.30100 26.07100
C  23.20300 53.10900 27.43300
C  24.54600 52.59400 27.65700
C  21.80500 53.72900 25.30700
C  22.62700 53.24500 28.69800
O  21.53200 53.65100 28.96700
C  23.64700 52.68800 29.75000
C  23.94800 53.85100 30.61800
O  24.75500 54.70800 30.36100
O  23.20700 53.80300 31.81500
C  23.62500 54.75100 32.91600
H  30.23500 50.23500 29.20600
H  29.49900 50.29700 22.89100
H  23.71400 52.92700 23.50000
H  26.47500 52.29000 31.51300
H  28.15600 50.07400 31.04500
H  29.28800 52.78300 30.62900
H  29.67000 51.54800 31.99200
H  28.54800 52.81300 32.14100
H  26.20100 49.42500 31.81500
H  24.76200 50.10400 30.96200
H  24.05000 50.40400 33.00600
H  24.79200 51.87000 32.69700
H  33.07000 50.10200 27.16500
H  32.15100 48.77200 28.04900
H  32.04200 50.54200 28.50900
H  33.47800 48.81800 25.48500
H  33.37600 48.10800 23.89000
H  32.54000 47.28700 25.32900
H  27.25900 50.34600 21.41800
H  25.67700 52.96500 21.53600
H  28.54100 51.56900 20.02100
H  29.23100 52.30800 21.49500
H  27.89600 53.08900 20.58100
H  24.84700 50.93100 20.27000
H  23.77600 51.86700 21.28000
H  24.43100 49.21500 21.28100
H  23.14800 50.11200 22.13600
H  24.71700 49.75400 22.95200
H  21.00500 53.75000 26.04700
H  21.62300 53.05100 24.47300
H  21.99800 54.74200 24.95400
H  23.04300 51.96300 30.29600
H  23.85900 55.75100 32.55200
H  24.60600 54.49400 33.31400
H  22.85600 54.88400 33.67700

