158

Mg 17.50800 -1.33300 28.70400
C  16.51600 0.62500 31.38400
C  19.21300 -3.23800 30.92200
C  19.41000 -2.63400 26.10900
C  16.26200 0.96200 26.48900
N  17.80700 -1.25700 30.84200
C  17.32200 -0.35800 31.77000
C  17.61200 -0.79200 33.24900
C  18.77400 -1.79400 32.95900
C  18.60500 -2.07800 31.51000
C  20.22900 -1.28900 33.21700
C  16.32100 -1.39200 33.92200
C  15.94200 -0.75900 35.22500
H  16.89400 -0.16900 36.22000
N  18.78700 -3.00000 28.54300
C  19.43200 -3.62100 29.59400
C  20.21700 -4.78600 29.04000
C  20.22200 -4.64700 27.61600
C  19.46400 -3.39500 27.34800
C  20.83700 -5.87000 29.94100
C  20.91800 -5.48600 26.55400
O  20.82300 -5.23900 25.36500
C  21.70600 -6.62200 26.99700
N  17.80400 -0.85900 26.62700
C  18.63300 -1.51000 25.82100
C  18.68700 -0.96100 24.39100
C  17.57400 0.16600 24.46900
C  17.23400 0.10800 25.98000
C  20.10700 -0.56000 23.79200
C  16.35500 -0.13600 23.54500
C  16.07900 1.02400 22.53100
N  16.44600 0.38300 28.89000
C  15.94200 1.17900 27.86500
C  14.98200 2.08900 28.40500
C  15.17700 1.94900 29.85000
C  16.14900 0.89500 30.02300
C  14.12500 3.20000 27.66700
C  14.81900 2.43500 31.23400
O  14.14500 3.33500 31.54000
C  15.72200 1.58100 32.18400
C  16.50500 2.50400 33.02900
O  17.59300 2.97600 32.80100
O  15.83200 2.87500 34.17000
C  16.35100 3.79700 35.18100
H  19.74900 -3.79600 31.69200
H  20.20000 -2.86400 25.39100
H  15.87100 1.78200 25.88500
H  17.93400 0.04500 33.86900
H  18.61100 -2.73600 33.48200
H  20.69500 -1.00600 32.27300
H  20.85600 -2.05600 33.67000
H  20.26000 -0.44200 33.90200
H  16.64100 -2.36700 34.28900
H  15.39700 -1.47800 33.35100
H  15.47000 -1.51200 35.85800
H  15.05800 -0.13400 35.10100
H  20.54500 -6.87500 29.63700
H  20.53300 -5.84900 30.98800
H  21.92200 -5.82900 29.84600
H  21.13900 -7.29400 27.64000
H  22.50700 -6.14900 27.56500
H  22.24700 -7.22000 26.26300
H  18.48800 -1.79500 23.71800
H  18.00700 1.15100 24.29800
H  20.33600 -1.04300 22.84200
H  20.78100 -0.79700 24.61500
H  19.99900 0.51200 23.62800
H  15.45600 -0.43200 24.08500
H  16.64400 -0.97500 22.91200
H  15.23900 0.88300 21.85100
H  16.89900 1.06600 21.81500
H  15.93700 1.95600 23.07900
H  14.40600 3.47800 26.65200
H  14.33500 4.07800 28.27900
H  13.07000 2.99600 27.85200
H  15.13600 1.03200 32.92100
H  16.13300 4.82800 34.90200
H  17.44000 3.84200 35.18500
H  15.96400 3.58400 36.17700
Mg 35.91800 1.43400 29.71600
C  33.88300 2.66800 32.18000
C  38.62700 1.42600 31.96300
C  37.88800 0.76100 27.17100
C  33.27600 2.05700 27.38500
N  36.20600 2.07800 31.74500
C  35.21500 2.42300 32.62600
C  35.79700 2.60700 34.04000
C  37.33300 2.31100 33.89800
C  37.39800 1.88600 32.41500
C  38.29500 3.56800 34.07700
C  35.02300 1.99900 35.25100
C  35.83000 1.45000 36.47700
H  36.15100 2.44700 37.58400
N  38.02100 0.96700 29.62100
C  38.92500 1.06000 30.66100
C  40.17200 0.63500 30.12900
C  40.03500 0.45200 28.75100
C  38.59300 0.72700 28.44400
C  41.47400 0.44100 30.95500
C  41.05300 0.01600 27.59500
O  40.68700 -0.06100 26.43200
C  42.42100 -0.35100 27.91200
N  35.62300 1.41100 27.60900
C  36.63900 1.03100 26.77600
C  36.14400 0.92700 25.26500
C  34.57000 1.22000 25.43900
C  34.49500 1.53200 26.91900
C  36.89600 1.90600 24.29600
C  33.61500 0.17600 24.97100
C  33.21000 -0.96000 25.93100
N  33.94600 2.09300 29.72900
C  33.06100 2.37800 28.72800
C  31.73200 2.78800 29.33500
C  32.06700 2.93500 30.68900
C  33.40100 2.49800 30.85800
C  30.49000 2.99700 28.54800
C  31.51800 3.30500 31.97700
O  30.35300 3.61200 32.23400
C  32.66800 3.12500 32.99000
C  32.83300 4.51800 33.60900
O  33.65000 5.35600 33.20100
O  32.05400 4.49600 34.74100
C  32.21700 5.72600 35.52500
H  39.39700 1.56400 32.72400
H  38.55400 0.54200 26.33400
H  32.46300 2.18300 26.66700
H  35.63900 3.65900 34.27900
H  37.65200 1.44600 34.48000
H  37.80000 4.34600 34.65800
H  38.79100 3.96500 33.19200
H  39.11000 3.25000 34.72700
H  34.64500 1.08100 34.80000
H  34.19900 2.60600 35.62500
H  36.78600 1.03400 36.16000
H  35.30900 0.63100 36.97300
H  42.15500 1.24600 30.67700
H  42.01100 -0.47400 30.70700
H  41.08000 0.59700 31.95900
H  43.03700 -0.53300 27.03100
H  42.37400 -1.32300 28.40300
H  42.85100 0.51700 28.41300
H  36.22700 -0.07300 24.83900
H  34.23300 2.09700 24.88700
H  36.12700 2.53000 23.84000
H  37.48300 1.33400 23.57800
H  37.61200 2.47100 24.89200
H  34.04100 -0.25500 24.06600
H  32.71300 0.71900 24.69000
H  32.13000 -1.07800 25.84800
H  33.43500 -0.95100 26.99800
H  33.46800 -1.87400 25.39700
H  30.56100 2.34200 27.68000
H  30.16500 4.00900 28.31000
H  29.74800 2.48700 29.16300
H  32.33300 2.39100 33.72200
H  31.72900 6.47400 34.90100
H  33.25800 6.01700 35.66600
H  31.72800 5.40700 36.44600

