158

Mg 40.15900 10.59900 29.59800
C  42.12100 11.63900 32.25300
C  38.12400 8.93300 31.75600
C  38.56500 9.19300 26.89700
C  42.75300 11.63400 27.46900
N  40.18000 10.28800 31.80000
C  40.88000 11.06100 32.68900
C  40.32600 10.83600 34.12400
C  39.18500 9.78800 33.95200
C  39.21100 9.61500 32.39700
C  39.28400 8.46500 34.78700
C  39.87400 12.26500 34.72200
C  39.26500 12.34800 36.18100
H  39.95800 13.22800 37.24900
N  38.62500 9.19700 29.36400
C  37.87000 8.65300 30.41600
C  36.78200 7.83200 29.85400
C  36.83400 8.03600 28.40800
C  38.02000 8.82700 28.17500
C  35.88300 7.08700 30.76000
C  35.84300 7.54200 27.42300
O  35.92900 7.67800 26.21700
C  34.66200 6.77400 27.90200
N  40.68800 10.30700 27.53200
C  39.77700 9.87500 26.59800
C  40.17100 10.28000 25.17700
C  41.39200 11.24300 25.39700
C  41.62400 11.05900 26.93300
C  40.49600 8.91300 24.45000
C  41.23200 12.81200 25.10800
C  39.82700 13.50900 25.25400
N  42.07600 11.54400 29.73900
C  43.07500 11.82000 28.81100
C  44.26100 12.34300 29.45600
C  43.90600 12.37000 30.77500
C  42.64600 11.71300 30.92200
C  45.56800 12.71300 28.96600
C  44.38200 12.66800 32.13800
O  45.43300 13.11600 32.62000
C  43.23300 12.32600 33.12100
C  43.81800 11.51600 34.24300
O  44.74400 10.76000 34.23100
O  43.01300 11.71400 35.36000
C  43.30200 10.93300 36.52600
H  37.39000 8.58300 32.48500
H  37.98700 8.80300 26.05700
H  43.52400 12.07400 26.83300
H  41.24000 10.42500 34.55300
H  38.26400 10.28700 34.25300
H  40.19500 8.26900 35.35100
H  39.29000 7.64300 34.07100
H  38.41900 8.35200 35.44100
H  39.18800 12.70100 33.99600
H  40.76900 12.88700 34.69200
H  39.17900 11.32300 36.54200
H  38.23400 12.63900 35.98000
H  36.28600 6.88300 31.75200
H  35.72900 6.09100 30.34600
H  34.88300 7.51800 30.71600
H  34.00700 7.34100 28.56400
H  35.01500 5.89700 28.44500
H  34.04700 6.37300 27.09700
H  39.29000 10.74600 24.73400
H  42.29200 10.81300 24.95800
H  39.60700 8.60400 23.90100
H  40.66700 8.10200 25.15700
H  41.33100 9.10100 23.77400
H  41.61800 12.97700 24.10200
H  41.95500 13.30500 25.75800
H  39.14500 12.82500 25.75900
H  39.47200 13.82700 24.27400
H  39.97400 14.34700 25.93400
H  45.53000 12.63900 27.87900
H  46.26200 11.93600 29.28700
H  45.81500 13.73700 29.24700
H  42.87400 13.24900 33.57800
H  43.94600 11.45200 37.23600
H  43.67100 9.95300 36.22200
H  42.36300 10.66200 37.00900
Mg 47.44100 17.31500 28.73200
C  45.38300 17.31700 31.62200
C  49.74300 19.08500 30.42800
C  49.04700 17.59400 25.80400
C  44.65400 15.75500 27.02600
N  47.42000 18.36200 30.78900
C  46.56800 18.00200 31.81600
C  47.10800 18.47400 33.17400
C  48.48800 19.12000 32.71500
C  48.63400 18.80400 31.25200
C  48.61400 20.60700 33.16900
C  47.36200 17.39200 34.21300
C  46.92700 17.72500 35.62500
H  46.97600 19.19800 36.10900
N  49.15200 18.19300 28.22100
C  50.02800 18.84200 29.07000
C  51.20000 19.34700 28.33700
C  50.97600 18.85600 27.01400
C  49.73100 18.12300 26.96800
C  52.32200 20.24100 28.95300
C  51.90500 18.97500 25.78900
O  51.64700 18.49700 24.68700
C  53.20400 19.75100 25.90300
N  47.05100 16.48800 26.78000
C  47.86300 16.89200 25.71600
C  47.22500 16.52100 24.34400
C  45.90400 15.67600 24.81400
C  45.82300 16.03100 26.30100
C  46.81300 17.71500 23.50300
C  46.14200 14.16100 24.62100
C  45.14500 13.49300 23.61300
N  45.41900 16.70400 29.15400
C  44.38900 16.15200 28.37100
C  43.10700 16.14500 29.09700
C  43.50600 16.38100 30.38600
C  44.86800 16.73000 30.40300
C  41.76900 15.70300 28.47900
C  43.02600 16.51800 31.65500
O  41.88700 16.42200 32.09500
C  44.28200 16.99500 32.53200
C  43.84700 18.07400 33.44700
O  43.73000 19.27900 33.22500
O  43.35000 17.44100 34.53700
C  42.61400 18.35200 35.50900
H  50.57500 19.45300 31.03100
H  49.41900 17.82700 24.80400
H  43.80100 15.32600 26.49600
H  46.42900 19.25800 33.51100
H  49.34300 18.60500 33.15400
H  49.61700 20.67500 33.58800
H  47.91600 20.96500 33.92600
H  48.78900 21.30900 32.35400
H  48.42500 17.18500 34.33000
H  46.79800 16.52800 33.86200
H  47.43200 17.07700 36.34100
H  45.87700 17.43300 35.59800
H  52.07900 20.37200 30.00800
H  52.53500 21.13300 28.36400
H  53.22400 19.63900 29.05900
H  53.70100 19.59700 24.94500
H  53.83200 19.41400 26.72700
H  52.74400 20.73500 25.99900
H  47.83100 15.77700 23.82700
H  44.98600 15.95300 24.29600
H  47.60000 18.43100 23.73900
H  45.82600 18.11400 23.73900
H  47.03800 17.40600 22.48300
H  45.93100 13.71500 25.59300
H  47.12500 13.88400 24.24000
H  44.45500 14.18500 23.12900
H  44.55000 12.78100 24.18600
H  45.64200 12.82500 22.90900
H  41.65100 15.96300 27.42700
H  41.01200 16.27600 29.01300
H  41.66200 14.62700 28.61800
H  44.49000 16.12800 33.15900
H  42.51700 19.40400 35.23800
H  43.25900 18.34500 36.38700
H  41.59400 18.03100 35.71900

