158

Mg 35.84900 49.22000 25.47800
C  35.87400 47.56900 28.54800
C  34.73000 52.14200 27.20000
C  35.34700 50.75000 22.54200
C  36.28800 46.14300 23.84100
N  35.35400 49.74200 27.61200
C  35.53400 48.94700 28.64800
C  35.47800 49.74200 30.02200
C  35.07900 51.21100 29.52400
C  35.00700 51.00700 27.96400
C  33.73600 51.75000 30.11100
C  36.84200 49.86400 30.79200
C  36.84400 49.59100 32.27800
H  35.45400 49.57200 33.04200
N  35.23100 51.19300 24.89200
C  34.87600 52.24100 25.74900
C  34.46100 53.38800 24.95900
C  34.68000 53.01700 23.60100
C  35.09900 51.61100 23.61200
C  33.92600 54.68600 25.55500
C  34.48100 53.88100 22.35700
O  34.56600 53.43900 21.20700
C  34.18100 55.41100 22.48200
N  35.85700 48.58000 23.54200
C  35.64800 49.36800 22.45800
C  35.79600 48.70800 21.10800
C  36.43400 47.37300 21.60000
C  36.19700 47.33800 23.11100
C  34.44800 48.65700 20.25500
C  37.93600 47.33600 21.25600
C  38.44600 46.36300 20.21000
N  36.07000 47.24700 26.03500
C  36.23700 46.04600 25.29200
C  36.47200 44.96900 26.16100
C  36.36900 45.53800 27.49200
C  36.14100 46.87200 27.36600
C  36.94200 43.58500 25.77300
C  36.44400 45.19700 28.87900
O  36.63400 44.10300 29.42400
C  36.18500 46.58700 29.62800
C  35.05100 46.21300 30.59300
O  33.87400 46.30800 30.43000
O  35.60200 45.82400 31.77100
C  34.64000 45.34900 32.81500
H  34.46000 53.05100 27.74000
H  35.38300 51.20800 21.55100
H  36.57700 45.22500 23.32400
H  34.67700 49.32400 30.63200
H  35.88000 51.93900 29.65700
H  32.89300 51.33900 29.55400
H  33.76200 52.83100 29.97300
H  33.51700 51.32800 31.09200
H  37.30400 50.84700 30.69000
H  37.55300 49.15900 30.36100
H  37.54000 50.24500 32.80300
H  37.28000 48.59900 32.39300
H  34.07900 54.70900 26.63400
H  32.84300 54.75400 25.45800
H  34.37700 55.54600 25.05900
H  33.21700 55.43500 22.99000
H  34.10500 55.83600 21.48100
H  35.05000 55.80200 23.01100
H  36.49300 49.29900 20.51400
H  35.78100 46.62400 21.15200
H  34.11600 47.62200 20.18600
H  34.72800 49.09000 19.29400
H  33.75600 49.31600 20.77900
H  38.39000 47.22800 22.24200
H  38.16800 48.32800 20.87000
H  37.60000 46.02700 19.60900
H  38.97200 45.55700 20.72200
H  39.15600 46.96800 19.64700
H  37.72100 43.23300 26.45000
H  37.28400 43.47900 24.74300
H  36.11200 42.89200 25.91600
H  37.11000 46.90200 30.11100
H  33.80100 46.03900 32.90600
H  35.15200 45.33600 33.77700
H  34.20300 44.38100 32.57200
Mg -5.38600 24.84900 26.64300
C  -3.60500 26.28500 29.40200
C  -6.51100 22.60700 28.97600
C  -6.55200 23.37800 24.11700
C  -3.74700 27.24000 24.49300
N  -5.31900 24.74600 29.05600
C  -4.50000 25.34900 29.87600
C  -5.01100 25.15000 31.30900
C  -5.59900 23.66800 31.12700
C  -5.86200 23.65800 29.66700
C  -4.49700 22.59200 31.45400
C  -5.98100 26.23500 31.87300
C  -5.71400 26.75600 33.22300
H  -5.45000 25.69000 34.24400
N  -6.41400 23.25900 26.55100
C  -6.72200 22.37300 27.60000
C  -7.36400 21.21600 27.07000
C  -7.38300 21.38700 25.60200
C  -6.81400 22.70600 25.33100
C  -7.83600 20.14000 27.92700
C  -7.91000 20.44500 24.52100
O  -7.88600 20.70000 23.28800
C  -8.52100 19.22600 24.98000
N  -5.30800 25.35800 24.58400
C  -5.86900 24.55300 23.70600
C  -5.71600 24.95100 22.24700
C  -4.87500 26.28700 22.41500
C  -4.67800 26.37600 23.95900
C  -5.07800 23.79900 21.38100
C  -5.33300 27.51400 21.69000
C  -4.30100 28.33500 20.80100
N  -4.10200 26.45400 26.87600
C  -3.44700 27.26100 25.88700
C  -2.44900 28.16400 26.57400
C  -2.48100 27.75900 27.89600
C  -3.47200 26.74300 28.08900
C  -1.62400 29.39300 26.06600
C  -1.89200 28.03500 29.22200
O  -0.99600 28.80800 29.57300
C  -2.74100 27.21800 30.17700
C  -1.92500 26.50800 31.23500
O  -1.08100 25.62000 30.95200
O  -2.12600 26.99600 32.43600
C  -1.25900 26.60300 33.51900
H  -6.91200 21.97600 29.77200
H  -6.99600 22.98700 23.19800
H  -3.29800 28.00400 23.85500
H  -4.15000 25.03300 31.96600
H  -6.63400 23.51400 31.43300
H  -4.84600 21.64700 31.03800
H  -4.36300 22.41700 32.52100
H  -3.52900 22.90900 31.06500
H  -6.96600 25.77500 31.79600
H  -5.88900 27.05300 31.15900
H  -6.61400 27.26800 33.56200
H  -4.89900 27.47700 33.16100
H  -7.21500 20.09600 28.82100
H  -7.69900 19.18300 27.42400
H  -8.92200 20.22700 27.89300
H  -7.69000 18.60500 25.31300
H  -9.02200 18.81400 24.10400
H  -9.22800 19.38200 25.79500
H  -6.74100 25.09500 21.90500
H  -3.87000 26.12000 22.02600
H  -4.38700 24.13000 20.60500
H  -5.98200 23.39300 20.92700
H  -4.72200 23.04700 22.08500
H  -5.58300 28.22200 22.48000
H  -6.18500 27.16400 21.10800
H  -3.30600 27.91300 20.65600
H  -4.18600 29.31300 21.26800
H  -4.64700 28.60700 19.80500
H  -1.77100 30.31800 26.62400
H  -1.78800 29.57600 25.00400
H  -0.54900 29.22000 26.10700
H  -3.39500 27.90200 30.71700
H  -0.29400 26.20100 33.21000
H  -1.75900 25.87600 34.16000
H  -1.25500 27.57600 34.01100

