158

Mg 23.98500 -6.85600 46.10500
C  26.35000 -4.83200 44.61800
C  21.67300 -5.53900 43.96400
C  22.14000 -9.73600 46.47600
C  26.68200 -8.54900 47.66800
N  24.08100 -5.47700 44.31700
C  25.12200 -4.71900 43.94700
C  24.81100 -3.67300 42.87200
C  23.23700 -3.67200 42.94700
C  22.94300 -5.03600 43.76200
C  22.61800 -2.41500 43.62900
C  25.36700 -4.09700 41.46000
C  25.83700 -2.92700 40.47500
H  25.37200 -2.82800 38.98100
N  22.15400 -7.45200 45.44200
C  21.27500 -6.65400 44.63300
C  19.99900 -7.29500 44.60100
C  20.09600 -8.54100 45.28900
C  21.50100 -8.62800 45.76800
C  18.83800 -6.78600 43.84300
C  18.94800 -9.52700 45.41400
O  17.85000 -9.17100 45.01600
C  19.16800 -10.80800 46.09700
N  24.38600 -8.92400 47.03500
C  23.44100 -9.87400 47.04300
C  24.01400 -11.14000 47.72800
C  25.44000 -10.69700 48.32800
C  25.54500 -9.34300 47.59300
C  23.01800 -11.91300 48.68100
C  26.54200 -11.73900 47.97800
C  26.86000 -12.86300 48.94400
N  26.07000 -6.62200 46.29600
C  26.97800 -7.35600 46.96600
C  28.31900 -6.71000 46.87200
C  28.07200 -5.62400 46.02900
C  26.71300 -5.72600 45.62300
C  29.60000 -7.11400 47.41900
C  28.64300 -4.47900 45.39600
O  29.74900 -3.97900 45.59800
C  27.60200 -3.96100 44.33600
C  27.53900 -2.47600 44.31000
O  27.94800 -1.77400 43.38300
O  27.01700 -2.04100 45.43800
C  26.99300 -0.60200 45.75800
H  20.85900 -4.99700 43.47900
H  21.60700 -10.66900 46.66900
H  27.58700 -8.94200 48.13600
H  25.18600 -2.70400 43.20000
H  22.75500 -3.74700 41.97200
H  21.97600 -1.81100 42.98800
H  23.42300 -1.78500 44.00800
H  21.92500 -2.58200 44.45300
H  24.62600 -4.63300 40.86700
H  26.13000 -4.86800 41.56500
H  26.92200 -3.03400 40.49700
H  25.55200 -2.00700 40.98600
H  18.05100 -6.65400 44.58700
H  18.55300 -7.40100 42.99000
H  19.00700 -5.75500 43.53100
H  19.45000 -10.69200 47.14300
H  19.71100 -11.50600 45.46000
H  18.15000 -11.19300 46.14100
H  24.21000 -11.76300 46.85600
H  25.23400 -10.46800 49.37400
H  22.03500 -11.44400 48.63700
H  23.38900 -11.97800 49.70400
H  22.91400 -12.92400 48.29000
H  27.49500 -11.21800 47.89300
H  26.35100 -12.19400 47.00600
H  27.04700 -13.75700 48.35000
H  25.95600 -12.87900 49.55300
H  27.66100 -12.60000 49.63600
H  29.92800 -8.13400 47.21700
H  29.59100 -7.04500 48.50700
H  30.31200 -6.33600 47.14600
H  27.99300 -4.17700 43.34200
H  27.55300 0.07200 45.11000
H  27.17300 -0.51800 46.83000
H  25.96800 -0.29200 45.55400
Mg 53.70300 23.58700 45.20400
C  51.24800 25.71300 43.77200
C  52.07700 20.95500 43.88300
C  56.40300 21.79600 45.48100
C  55.30600 26.52500 46.30400
N  51.93700 23.40200 43.96900
C  51.08300 24.35800 43.55700
C  49.87200 23.76500 42.78000
C  50.00200 22.24900 43.25000
C  51.43400 22.17400 43.67200
C  49.05700 21.87100 44.41600
C  49.99700 23.95100 41.26200
C  48.77700 24.23400 40.36100
H  49.04800 24.49900 38.82600
N  54.17500 21.60400 44.82800
C  53.42200 20.69000 44.22400
C  54.06200 19.35700 44.30600
C  55.32200 19.60300 44.74300
C  55.36500 21.02600 44.95300
C  53.31100 18.06000 44.00800
C  56.39700 18.62200 44.90400
O  56.05800 17.46700 44.65400
C  57.82300 18.95100 45.27000
N  55.55000 24.10700 45.77800
C  56.50400 23.14100 45.89500
C  57.89200 23.80200 46.17000
C  57.48200 25.16100 46.86300
C  56.05000 25.32000 46.27500
C  58.82900 23.00000 47.12000
C  58.42900 26.37500 46.60900
C  58.67800 27.32300 47.69000
N  53.30100 25.67100 45.25200
C  53.96800 26.67600 45.82000
C  53.25000 27.93500 45.68900
C  52.09600 27.57300 44.92200
C  52.26400 26.20400 44.61800
C  53.63500 29.21600 46.33700
C  50.82000 28.03300 44.32900
O  50.23600 29.10000 44.37300
C  50.26800 26.84900 43.57800
C  50.04900 27.22700 42.19400
O  50.88300 27.59100 41.37100
O  48.69500 27.35100 41.95900
C  48.45700 27.80300 40.53000
H  51.46400 20.11800 43.54600
H  57.36000 21.37000 45.79000
H  55.83000 27.40600 46.67900
H  48.99400 24.32400 43.10600
H  49.86000 21.52000 42.45200
H  48.26700 22.62200 44.44200
H  49.53600 21.80000 45.39300
H  48.43000 21.01800 44.15700
H  50.56400 23.06300 40.98200
H  50.67700 24.78600 41.10000
H  48.34900 25.02400 40.97800
H  48.08300 23.39400 40.34500
H  52.30100 18.26700 43.65500
H  53.16700 17.44200 44.89400
H  53.82400 17.49200 43.23200
H  58.23400 19.87500 44.86300
H  58.48300 18.10000 45.09900
H  57.74100 19.10000 46.34700
H  58.43900 23.97300 45.24200
H  57.28100 25.17400 47.93400
H  58.22300 22.19000 47.52700
H  59.28400 23.57300 47.92800
H  59.61700 22.57000 46.50200
H  57.95800 26.95500 45.81500
H  59.39500 26.00300 46.26800
H  59.74200 27.47600 47.86700
H  58.18300 26.97000 48.59500
H  58.15000 28.25600 47.48900
H  52.71900 29.50800 46.85200
H  53.96900 29.99100 45.64700
H  54.41300 29.08900 47.09000
H  49.29400 26.59100 43.99500
H  47.50000 27.41700 40.17800
H  49.13100 27.24200 39.88300
H  48.48800 28.88100 40.37400

