158

Mg 16.54500 52.50700 26.02000
C  18.19900 51.11100 28.97400
C  13.90400 53.24500 28.05900
C  14.88500 53.32400 23.25800
C  19.29500 51.36900 24.25400
N  16.13600 52.12800 28.30100
C  16.91400 51.63300 29.32900
C  16.25100 51.79500 30.72600
C  14.80400 52.38200 30.31400
C  14.94700 52.62200 28.74500
C  13.46500 51.55800 30.69300
C  17.03000 52.77500 31.64400
C  16.43800 52.82900 33.09500
H  15.18800 52.02700 33.56300
N  14.64400 53.23400 25.66400
C  13.69900 53.47100 26.63100
C  12.55700 54.13700 26.07100
C  12.84400 54.22400 24.64100
C  14.21500 53.60600 24.44600
C  11.43100 54.74700 26.87300
C  12.02000 54.68800 23.37900
O  12.48800 54.66000 22.22700
C  10.64800 55.26600 23.52700
N  17.01400 52.32800 24.08400
C  16.14600 52.76500 23.11300
C  16.83400 52.64600 21.78400
C  18.27700 52.15800 22.15700
C  18.25900 52.02000 23.62500
C  15.98200 51.70500 20.89700
C  19.48500 53.07400 21.64000
C  19.33600 54.57000 21.81600
N  18.27300 51.37100 26.43700
C  19.27100 50.99200 25.63400
C  20.23300 50.12300 26.26200
C  19.85100 50.23600 27.58600
C  18.69300 50.99400 27.65100
C  21.40500 49.42800 25.66900
C  20.37200 49.92100 28.90400
O  21.41600 49.46600 29.34200
C  19.25900 50.47600 29.94200
C  18.64100 49.30300 30.65900
O  18.49800 48.17400 30.19600
O  18.30600 49.62700 31.95700
C  17.95900 48.50100 32.81900
H  13.00900 53.53600 28.61400
H  14.40800 53.49500 22.29000
H  20.00000 50.91100 23.55700
H  16.17600 50.81000 31.18800
H  14.56900 53.34900 30.75900
H  12.98200 51.15400 29.80400
H  12.72800 52.23500 31.12500
H  13.66900 50.73600 31.37900
H  16.94600 53.76400 31.19400
H  18.06600 52.45400 31.74500
H  16.29500 53.87600 33.36200
H  17.31900 52.52900 33.66300
H  11.07400 55.68600 26.45000
H  11.76800 54.90900 27.89600
H  10.56000 54.10000 26.98300
H  10.61500 56.16000 24.15100
H  9.97200 54.43600 23.73500
H  10.37500 55.53800 22.50800
H  16.77400 53.62700 21.31300
H  18.49800 51.18800 21.71200
H  16.07300 50.67400 21.23900
H  16.35800 51.81900 19.88000
H  14.93900 52.02100 20.91300
H  19.55200 52.90300 20.56500
H  20.40100 52.82600 22.17700
H  18.95600 55.21800 21.02600
H  20.28000 54.98500 22.16600
H  18.61600 54.74600 22.61500
H  21.19900 49.02900 24.67600
H  21.76000 48.61900 26.30700
H  22.11400 50.24500 25.53900
H  19.82400 51.14200 30.59400
H  16.92400 48.25600 32.58000
H  17.90100 48.79200 33.86800
H  18.67500 47.68300 32.73300
Mg -12.96000 15.65800 41.99000
C  -9.89000 14.22800 41.67400
C  -11.61800 18.61700 40.39200
C  -16.05600 17.07000 41.72700
C  -14.29300 12.69600 42.99700
N  -10.91400 16.29700 41.19100
C  -9.79300 15.53600 41.18700
C  -8.59700 16.14800 40.42600
C  -9.18300 17.57800 40.08900
C  -10.71600 17.49300 40.52300
C  -8.44500 18.78100 40.75800
C  -8.43700 15.27800 39.14200
C  -7.01400 14.91100 38.73000
H  -6.34200 15.81700 37.67400
N  -13.73800 17.61700 41.31200
C  -13.00000 18.64800 40.72600
C  -13.90200 19.66700 40.33800
C  -15.22100 19.17100 40.51000
C  -15.05900 17.91700 41.24800
C  -13.47800 20.94000 39.57500
C  -16.54300 19.83000 40.14100
O  -16.60200 20.99600 39.75800
C  -17.90700 19.15300 40.31500
N  -14.89300 14.96400 42.30400
C  -16.01400 15.75400 42.25400
C  -17.25900 14.85100 42.60800
C  -16.69800 13.38900 42.82800
C  -15.17800 13.67100 42.72700
C  -18.10500 15.35500 43.84000
C  -17.31700 12.25500 41.93100
C  -17.63700 10.89700 42.51600
N  -12.33300 13.84200 42.29100
C  -12.94700 12.68700 42.84100
C  -11.97700 11.62100 43.12400
C  -10.73900 12.21800 42.72200
C  -11.01200 13.55200 42.20200
C  -12.19400 10.21700 43.64900
C  -9.35600 12.06600 42.73300
O  -8.73600 11.07100 43.16800
C  -8.74600 13.21200 41.89200
C  -7.60800 13.76000 42.67800
O  -7.60600 14.17500 43.79700
O  -6.51300 13.82300 41.87300
C  -5.27300 14.36900 42.52100
H  -11.27600 19.53800 39.91500
H  -17.12000 17.31300 41.76600
H  -14.70600 11.81600 43.49400
H  -7.68900 16.12800 41.02900
H  -9.12800 17.77300 39.01800
H  -7.39200 18.62200 40.98600
H  -8.79800 18.92200 41.77900
H  -8.63100 19.73700 40.26800
H  -8.76800 15.87500 38.29200
H  -9.10300 14.42600 39.00400
H  -7.01600 13.91400 38.29100
H  -6.32100 14.81700 39.56600
H  -14.27700 21.27900 38.91600
H  -12.65100 20.84200 38.87200
H  -13.18800 21.77500 40.21200
H  -17.82100 18.24800 39.71400
H  -18.61500 19.88100 39.91800
H  -18.11100 19.11900 41.38500
H  -17.90300 14.93700 41.73300
H  -16.96800 13.06200 43.83200
H  -18.64900 14.59900 44.40600
H  -18.91400 16.04600 43.60500
H  -17.31100 15.73900 44.48200
H  -16.89700 12.15000 40.93100
H  -18.25100 12.74100 41.64900
H  -17.28600 10.15100 41.80200
H  -18.68900 10.68500 42.70900
H  -17.07500 10.80400 43.44500
H  -12.56600 10.15300 44.67200
H  -11.28800 9.62400 43.52500
H  -13.00200 9.80600 43.04400
H  -8.40400 12.77700 40.95300
H  -4.64800 13.56400 42.90600
H  -5.47500 15.18600 43.21300
H  -4.69400 14.85400 41.73500

