158

Mg -12.84200 38.16200 43.13600
C  -10.80400 35.39400 42.47200
C  -10.42900 40.17200 41.55600
C  -14.97400 40.69100 43.11400
C  -15.35700 35.86400 44.05300
N  -10.97200 37.77000 41.84700
C  -10.32000 36.60300 41.90600
C  -9.00000 36.67500 41.17600
C  -8.69700 38.24000 41.20400
C  -10.06600 38.76900 41.58100
C  -7.72100 38.62300 42.30700
C  -8.94000 36.12300 39.72700
C  -7.57500 35.54400 39.39400
H  -6.84500 36.09300 38.17800
N  -12.70900 40.18400 42.49300
C  -11.61300 40.79200 41.89300
C  -11.90100 42.12200 41.61000
C  -13.29700 42.27500 41.99300
C  -13.77200 41.04500 42.53000
C  -10.95000 43.08800 41.01700
C  -14.10300 43.57200 41.78300
O  -13.58600 44.59800 41.32500
C  -15.57000 43.77200 42.17900
N  -14.88700 38.27000 43.56200
C  -15.46200 39.47900 43.68500
C  -16.82600 39.27500 44.36900
C  -17.01700 37.73300 44.51300
C  -15.72100 37.21300 43.97600
C  -17.00300 40.01000 45.72300
C  -18.23200 37.16400 43.75400
C  -19.20100 36.20300 44.46900
N  -13.10200 36.11300 43.36300
C  -14.14200 35.31300 43.72200
C  -13.81100 33.90800 43.80000
C  -12.41700 33.92600 43.44800
C  -12.07800 35.24900 43.02700
C  -14.63200 32.67100 44.16600
C  -11.19600 33.12500 43.33600
O  -10.96900 31.95600 43.54700
C  -10.06700 34.10300 42.70700
C  -8.93200 34.18100 43.64000
O  -8.99700 34.70500 44.74900
O  -7.83400 33.61400 43.14600
C  -6.67700 33.90500 43.91600
H  -9.51100 40.67000 41.23600
H  -15.70300 41.44200 43.42700
H  -16.04100 35.13700 44.49600
H  -8.28600 36.10200 41.76800
H  -8.42700 38.75300 40.28200
H  -6.91500 37.90900 42.47700
H  -8.38200 38.64700 43.17300
H  -7.30600 39.57600 41.97900
H  -9.24300 36.86400 38.98700
H  -9.63300 35.31400 39.49700
H  -7.70700 34.46300 39.43000
H  -6.88900 35.84600 40.18600
H  -10.87900 42.86100 39.95300
H  -9.94300 43.04100 41.43200
H  -11.43200 44.04300 41.22300
H  -16.11000 42.90300 41.80300
H  -15.94000 44.72200 41.79300
H  -15.52000 43.87500 43.26300
H  -17.59600 39.56400 43.65300
H  -17.09200 37.45600 45.56500
H  -16.04500 40.35200 46.11500
H  -17.64700 39.36300 46.31900
H  -17.48500 40.97600 45.57700
H  -17.85200 36.56800 42.92500
H  -18.84600 37.92800 43.27600
H  -20.21500 36.56900 44.31300
H  -18.98500 36.22000 45.53800
H  -19.08700 35.16600 44.15100
H  -15.35700 32.57600 43.35800
H  -15.16800 32.77400 45.10900
H  -14.03200 31.76500 44.08700
H  -9.69700 33.73900 41.74800
H  -6.94400 33.81900 44.96900
H  -6.20600 34.85900 43.68000
H  -5.97500 33.07100 43.89700
Mg -6.36000 25.03600 25.97300
C  -4.57000 26.59100 28.51900
C  -8.13200 23.30600 28.38400
C  -7.48400 22.89300 23.56800
C  -4.16000 26.52900 23.68900
N  -6.20900 24.85300 28.25100
C  -5.48400 25.70200 29.09200
C  -5.88200 25.50600 30.54700
C  -6.90100 24.31500 30.46700
C  -7.09000 24.11600 28.93100
C  -6.48400 22.99800 31.28500
C  -6.36600 26.83600 31.19000
C  -6.04000 27.00500 32.64100
H  -5.84900 25.84100 33.55300
N  -7.71300 23.38900 25.96400
C  -8.44800 22.96100 27.02800
C  -9.43400 22.02700 26.50700
C  -9.22600 21.89400 25.07700
C  -8.06000 22.70000 24.81800
C  -10.49600 21.39100 27.35400
C  -10.04300 20.96700 24.01100
O  -9.80900 21.00800 22.78800
C  -11.13900 20.07500 24.52900
N  -5.83000 24.75100 23.96500
C  -6.42900 23.78800 23.11200
C  -5.65600 23.70700 21.76100
C  -4.95500 25.16000 21.73600
C  -4.94600 25.49900 23.24200
C  -4.70600 22.47500 21.76300
C  -5.67300 26.29500 20.93200
C  -4.72700 27.13300 19.97400
N  -4.84900 26.40400 25.97200
C  -4.10400 26.90900 25.00600
C  -3.15700 27.89300 25.55000
C  -3.40400 27.80000 26.95200
C  -4.36700 26.84900 27.12600
C  -2.12300 28.66200 24.79000
C  -2.86900 28.29500 28.22300
O  -1.89600 28.99800 28.48300
C  -3.63600 27.45400 29.35000
C  -2.63000 26.77500 30.24000
O  -2.41700 25.56500 30.23000
O  -2.26600 27.57500 31.24800
C  -1.68100 27.04800 32.47200
H  -8.61500 22.67600 29.13400
H  -7.86000 22.26800 22.75500
H  -3.44000 27.02100 23.03300
H  -4.97100 25.19600 31.05900
H  -7.80400 24.73600 30.91000
H  -6.38800 22.11400 30.65400
H  -7.17800 22.90600 32.12000
H  -5.48100 23.06700 31.70500
H  -7.44300 26.89900 31.34400
H  -6.08600 27.68300 30.56400
H  -6.68600 27.76300 33.08200
H  -5.02300 27.39300 32.70300
H  -11.47100 21.46900 26.87400
H  -10.55000 21.86000 28.33600
H  -10.35400 20.31400 27.43600
H  -12.06700 20.59000 24.77600
H  -10.69900 19.39800 25.26100
H  -11.37400 19.41200 23.69600
H  -6.27200 23.57800 20.87100
H  -3.92600 25.08600 21.38300
H  -4.88800 21.99300 20.80300
H  -4.91200 21.79500 22.58900
H  -3.68500 22.85600 21.78100
H  -6.26900 26.93700 21.58000
H  -6.39700 25.72300 20.35000
H  -4.81100 28.15700 20.33800
H  -5.18300 27.09200 18.98500
H  -3.65700 26.94900 20.07200
H  -1.71600 28.18000 23.90200
H  -1.32900 28.88700 25.50200
H  -2.53100 29.58700 24.38100
H  -4.20300 28.22800 29.86600
H  -0.87700 26.34100 32.26600
H  -2.50300 26.63500 33.05600
H  -1.26400 27.93200 32.95300

