158

Mg 44.29000 4.27000 47.15000
C  42.21900 7.13400 47.10900
C  41.31300 2.45400 46.79800
C  46.09700 1.52000 46.66300
C  47.01200 6.31200 46.40100
N  42.06500 4.76000 46.91100
C  41.52500 5.94600 47.11200
C  39.97500 5.93400 47.22200
C  39.76400 4.42900 47.26100
C  41.09300 3.84900 46.93700
C  39.20400 3.84000 48.57600
C  39.13900 6.61700 46.00600
C  39.84900 7.05200 44.71800
H  39.57400 6.13700 43.62900
N  43.77500 2.20400 46.76400
C  42.50300 1.74300 46.71300
C  42.60200 0.26400 46.63200
C  43.96800 -0.05100 46.56300
C  44.69700 1.25800 46.71700
C  41.36900 -0.73100 46.66600
C  44.49300 -1.46900 46.49400
O  43.72800 -2.37100 46.23100
C  45.96400 -1.74600 46.65200
N  46.18700 4.03800 46.51500
C  46.73300 2.79600 46.64500
C  48.33600 2.90900 46.82200
C  48.55800 4.30200 46.25400
C  47.13300 4.95000 46.38100
C  48.71900 2.71300 48.27300
C  49.12400 4.34700 44.81300
C  50.60500 4.37700 44.73200
N  44.62700 6.29800 46.94300
C  45.77800 7.01300 46.60100
C  45.51700 8.45300 46.70200
C  44.08700 8.50100 46.94100
C  43.62200 7.20100 47.05300
C  46.50700 9.62900 46.48200
C  42.93600 9.41400 47.06100
O  42.91800 10.63800 47.09600
C  41.77900 8.52600 47.30300
C  41.30600 8.73200 48.66700
O  41.84900 8.56800 49.73800
O  40.10200 9.30800 48.57600
C  39.35100 9.69400 49.77600
H  40.44300 1.79500 46.80500
H  46.83700 0.71700 46.68300
H  47.86100 6.97800 46.23500
H  39.59600 6.32500 48.16700
H  39.09800 4.11800 46.45600
H  38.82700 4.59000 49.27100
H  39.78300 3.02900 49.01600
H  38.25400 3.37100 48.31800
H  38.47000 7.37200 46.42000
H  38.38900 5.92400 45.62500
H  40.93000 6.92600 44.78900
H  39.74100 8.07700 44.36600
H  41.42200 -1.40300 45.81000
H  40.38800 -0.25500 46.63700
H  41.47800 -1.27700 47.60300
H  46.20500 -1.18300 47.55300
H  46.61600 -1.32700 45.88600
H  46.10400 -2.81800 46.79100
H  48.87300 2.32600 46.07300
H  49.26600 4.77800 46.93200
H  48.86600 1.64600 48.44000
H  47.97700 3.22500 48.88500
H  49.63100 3.23200 48.56900
H  48.69100 5.26100 44.40600
H  48.89300 3.46900 44.20800
H  51.11900 4.44200 45.69200
H  50.94500 5.19900 44.10200
H  50.94600 3.38400 44.44200
H  46.04000 10.50400 46.02900
H  47.40300 9.32900 45.93900
H  46.88300 10.01100 47.43100
H  40.91700 8.68400 46.65500
H  39.69500 10.67400 50.10900
H  39.37400 8.93900 50.56100
H  38.29400 9.72300 49.51300
Mg 0.17600 43.73600 24.85900
C  2.41700 43.06300 27.47100
C  -2.38800 42.94700 27.09400
C  -2.16400 44.06800 22.28200
C  2.68000 43.98100 22.74100
N  0.08700 42.96200 27.05900
C  1.11400 42.98400 27.95700
C  0.65400 42.81400 29.38200
C  -0.85100 42.56600 29.23600
C  -1.09100 42.74900 27.68000
C  -1.46600 41.26700 29.76300
C  1.01000 44.08100 30.24000
C  1.26100 43.84500 31.78700
H  1.22900 42.49000 32.47800
N  -1.88900 43.52700 24.71600
C  -2.73100 43.13400 25.76100
C  -4.10500 43.14300 25.26700
C  -4.06300 43.48900 23.84500
C  -2.63200 43.75500 23.57000
C  -5.38200 42.95600 26.12300
C  -5.20200 43.59300 22.82000
O  -5.03600 43.91300 21.63800
C  -6.64100 43.31200 23.18400
N  0.28400 44.26100 22.89000
C  -0.77500 44.30300 21.95500
C  -0.27400 44.58000 20.51500
C  1.21600 44.85600 20.79400
C  1.41600 44.33000 22.23700
C  -0.50900 43.58600 19.30600
C  1.67100 46.24000 20.41300
C  0.90600 47.42500 21.12900
N  2.19000 43.52000 24.96800
C  3.14700 43.61400 24.01200
C  4.45500 43.36100 24.52800
C  4.24400 43.19900 25.90300
C  2.87500 43.26100 26.12400
C  5.78000 43.60800 23.69100
C  4.88400 42.96800 27.15100
O  6.07200 42.84700 27.46200
C  3.67200 42.88100 28.23600
C  3.88300 41.54900 28.94000
O  4.06600 40.44700 28.46800
O  3.94700 41.90800 30.25000
C  4.26200 40.69600 31.10100
H  -3.15300 42.83400 27.86500
H  -2.75500 44.01700 21.36500
H  3.48300 44.12800 22.01600
H  1.11500 41.91900 29.79900
H  -1.46800 43.35600 29.66500
H  -2.33100 41.44600 30.40200
H  -0.84400 40.75600 30.49700
H  -1.81900 40.67800 28.91600
H  0.11700 44.70500 30.27800
H  1.87800 44.55700 29.78300
H  0.51300 44.48100 32.26000
H  2.27500 44.18700 31.99400
H  -5.84300 43.90200 26.40900
H  -5.11500 42.53300 27.09200
H  -6.20400 42.31900 25.79600
H  -6.88700 43.93700 24.04300
H  -6.75900 42.29300 23.55200
H  -7.35500 43.67200 22.44400
H  -0.75300 45.53800 20.31100
H  1.83200 44.20200 20.17700
H  -1.01000 44.23000 18.58400
H  -1.19100 42.76800 19.53500
H  0.37200 43.21800 18.78000
H  1.70100 46.44500 19.34300
H  2.69000 46.26000 20.80000
H  1.56700 48.10600 21.66500
H  0.19800 47.19500 21.92500
H  0.29800 47.88000 20.34700
H  6.40600 42.76400 23.98100
H  6.33900 44.49600 23.98800
H  5.67300 43.64700 22.60700
H  3.70600 43.65200 29.00500
H  4.83000 39.91900 30.58900
H  3.31000 40.29200 31.44400
H  4.84300 41.08700 31.93700

