158

Mg 48.27900 24.23500 28.07500
C  49.32500 26.56300 30.57100
C  47.44700 21.98400 30.54500
C  47.27400 22.19800 25.65400
C  49.63400 26.47300 25.66900
N  48.36800 24.28300 30.29800
C  48.76000 25.38500 31.09200
C  48.45500 25.10400 32.55100
C  48.05700 23.57300 32.56700
C  47.91300 23.27100 31.03700
C  49.05100 22.58400 33.27600
C  47.39900 26.03900 33.17800
C  47.97800 26.61800 34.55400
H  47.11200 27.01300 35.72200
N  47.50900 22.37100 28.11300
C  47.28200 21.55000 29.18800
C  46.71300 20.29300 28.72500
C  46.55400 20.43100 27.31100
C  47.14000 21.68900 26.94500
C  46.23900 19.17300 29.67700
C  45.96400 19.45900 26.34500
O  46.20000 19.51800 25.13300
C  45.08000 18.30300 26.74300
N  48.58000 24.31200 25.99300
C  47.90700 23.36800 25.22500
C  48.10300 23.71800 23.70600
C  48.81000 25.16900 23.76300
C  49.04000 25.33700 25.20500
C  48.85800 22.63900 22.86700
C  47.92800 26.26800 23.16200
C  48.57900 27.55800 22.66900
N  49.33400 26.10900 28.06000
C  49.79200 26.89300 27.01900
C  50.41800 28.09900 27.48500
C  50.22900 28.00200 28.86900
C  49.67700 26.76800 29.17000
C  51.14800 29.06600 26.63300
C  50.56800 28.63900 30.14400
O  51.14100 29.65900 30.42900
C  49.99800 27.77900 31.35400
C  51.03400 27.36700 32.21700
O  51.91500 26.54000 31.93100
O  50.92700 27.94600 33.42200
C  51.78500 27.51500 34.53000
H  47.18100 21.40600 31.43200
H  46.79000 21.64700 24.84500
H  49.95000 27.19200 24.90900
H  49.43000 25.20100 33.02900
H  47.10300 23.35000 33.04600
H  49.36400 21.77600 32.61500
H  48.53600 22.14100 34.12800
H  49.94100 22.96900 33.77400
H  46.45300 25.57000 33.45000
H  47.10300 26.75700 32.41300
H  48.53700 27.54000 34.39800
H  48.65000 25.82600 34.88600
H  46.61500 18.22300 29.29700
H  45.14900 19.15300 29.70300
H  46.61000 19.39400 30.67800
H  45.58800 17.57600 27.37600
H  44.77200 17.72700 25.87100
H  44.19500 18.74700 27.19800
H  47.08300 23.88900 23.36400
H  49.79200 25.08200 23.29700
H  48.91200 21.59900 23.18800
H  49.85500 23.02400 22.64800
H  48.29000 22.73000 21.94200
H  47.36000 26.67900 23.99700
H  47.21700 25.93800 22.40400
H  48.30300 27.78800 21.64000
H  49.65800 27.51800 22.81400
H  48.19500 28.38000 23.27400
H  50.42300 29.46800 25.92500
H  51.97300 28.54500 26.14700
H  51.60500 29.89400 27.17500
H  49.22500 28.43300 31.75600
H  52.85000 27.64900 34.33700
H  51.60500 26.47300 34.79500
H  51.44200 28.10600 35.37900
Mg 34.90700 47.97600 24.88300
C  35.51300 46.17900 27.81000
C  33.46600 50.40500 26.83600
C  34.06700 49.52600 22.10100
C  35.95600 45.07700 23.11100
N  34.38000 48.12100 27.07200
C  34.88500 47.34100 28.14600
C  34.57700 48.05500 29.51700
C  33.86000 49.34900 29.09400
C  33.87400 49.27600 27.54200
C  32.41600 49.48100 29.72600
C  35.89400 48.24800 30.34500
C  35.77100 48.14400 31.89800
H  34.33900 48.08600 32.43500
N  34.09800 49.79000 24.49600
C  33.58600 50.65800 25.42000
C  33.18500 51.93800 24.75300
C  33.34200 51.65100 23.34000
C  33.90400 50.26900 23.23200
C  32.56800 53.19500 25.49200
C  33.02000 52.59800 22.14700
O  33.17000 52.26400 20.98700
C  32.41900 53.98500 22.36900
N  35.03300 47.37700 22.88900
C  34.53500 48.18300 21.95500
C  34.73900 47.57900 20.55700
C  35.65600 46.39400 20.82400
C  35.60600 46.24400 22.36900
C  33.36900 47.12200 19.89800
C  37.13400 46.69500 20.48700
C  37.92500 47.72600 21.29900
N  35.53700 46.04400 25.35800
C  35.95600 45.00400 24.50800
C  36.53500 43.92500 25.24000
C  36.34000 44.28900 26.62200
C  35.72200 45.59200 26.62700
C  36.99300 42.64400 24.75700
C  36.50400 43.95600 28.04000
O  37.09200 43.01800 28.52200
C  35.92900 45.10900 28.83600
C  34.72500 44.61100 29.67400
O  33.57400 44.60600 29.31700
O  35.14500 44.32800 30.91400
C  34.12800 44.14600 31.93900
H  33.04700 51.16300 27.50100
H  33.80300 49.96600 21.13700
H  36.40100 44.21200 22.61600
H  33.88200 47.43700 30.08400
H  34.46700 50.22100 29.33700
H  32.44800 50.37500 30.34900
H  32.13700 48.65500 30.38100
H  31.63700 49.48100 28.96400
H  36.27500 49.24900 30.14000
H  36.60800 47.50100 30.00100
H  36.33300 48.93800 32.39100
H  36.35300 47.25900 32.15400
H  33.28200 53.99900 25.66600
H  32.27400 52.88700 26.49600
H  31.66400 53.60400 25.04000
H  31.37300 53.83900 22.63800
H  32.59100 54.67200 21.54100
H  32.95500 54.49200 23.17100
H  35.26700 48.25100 19.88100
H  35.39100 45.52600 20.22100
H  33.28200 46.08000 20.20700
H  33.42700 47.19900 18.81300
H  32.48600 47.66100 20.24200
H  37.29400 46.72900 19.40900
H  37.58900 45.73500 20.73000
H  37.17900 48.35000 21.79100
H  38.63900 48.25400 20.66700
H  38.54800 47.28300 22.07600
H  37.76800 42.75200 23.99800
H  36.10200 42.24100 24.27600
H  37.30600 42.02700 25.59900
H  36.75500 45.40200 29.48500
H  33.70400 43.14200 31.97500
H  33.36700 44.90800 31.77400
H  34.68600 44.33200 32.85700

