158

Mg 45.58200 5.04000 48.15400
C  43.21700 7.48700 47.22200
C  43.03400 2.70100 47.72900
C  47.94300 2.61800 48.18500
C  48.14500 7.39500 47.87000
N  43.37700 5.16800 47.76400
C  42.67200 6.25000 47.23300
C  41.26300 5.83900 46.74300
C  41.11200 4.38200 47.32600
C  42.59600 4.02700 47.61800
C  40.23200 4.18600 48.63200
C  40.99000 6.07100 45.22100
C  39.65600 6.77000 44.92100
H  39.54800 7.61800 43.65500
N  45.48900 2.94700 48.15700
C  44.36200 2.18900 47.96000
C  44.75400 0.81200 48.04900
C  46.19300 0.68300 48.14100
C  46.57900 2.09900 48.16200
C  43.72200 -0.33800 48.01000
C  46.92700 -0.62700 48.23300
O  46.32900 -1.70900 48.30900
C  48.47500 -0.69900 48.25800
N  47.76100 5.04100 48.07000
C  48.43600 3.89100 48.17500
C  50.00000 4.17700 48.33000
C  50.01400 5.74100 48.38400
C  48.60000 6.10500 48.07000
C  50.75700 3.47000 49.45200
C  51.05900 6.39400 47.49900
C  52.42900 5.79900 47.40800
N  45.69400 7.05000 47.71500
C  46.79700 7.85900 47.65900
C  46.33800 9.23100 47.36200
C  44.95300 9.08900 47.35000
C  44.58400 7.75800 47.45700
C  47.25400 10.44000 47.02500
C  43.73600 9.87500 47.07000
O  43.60200 11.05000 46.93700
C  42.54800 8.79600 47.02400
C  41.53100 9.16500 48.11800
O  41.23900 8.50600 49.08700
O  40.94200 10.26100 47.69500
C  39.72300 10.60300 48.43500
H  42.24900 1.98200 47.48800
H  48.69200 1.83800 48.33000
H  48.94300 8.13900 47.81100
H  40.51300 6.45700 47.23500
H  40.71100 3.74400 46.53800
H  39.47900 3.43800 48.38600
H  39.64200 5.09600 48.74700
H  40.78300 3.84600 49.50900
H  40.92800 5.07900 44.77500
H  41.79200 6.54900 44.65800
H  39.31200 7.35700 45.77200
H  38.91200 5.97700 44.84700
H  44.04100 -1.06000 48.76200
H  43.70700 -0.76500 47.00700
H  42.71500 -0.01500 48.27100
H  48.77000 -1.73200 48.07000
H  48.75500 -0.32400 49.24200
H  48.88600 -0.13600 47.42000
H  50.29700 3.82500 47.34200
H  50.05200 6.14500 49.39600
H  51.43500 4.08200 50.04600
H  51.29800 2.64900 48.98100
H  49.99400 3.03400 50.09700
H  51.26100 7.37000 47.94100
H  50.81300 6.62200 46.46200
H  52.48900 4.87500 47.98300
H  53.16400 6.46100 47.86600
H  52.71900 5.54900 46.38800
H  47.75400 10.33900 46.06100
H  47.97700 10.57000 47.83100
H  46.60500 11.31500 46.99900
H  42.06000 8.78500 46.04900
H  39.75000 10.57100 49.52400
H  38.80000 10.22600 47.99500
H  39.68000 11.67600 48.25300
Mg 29.65500 58.02700 40.63300
C  26.91200 56.34500 39.26300
C  31.71600 55.59200 39.21900
C  32.32600 60.16600 40.71800
C  27.51400 60.85200 41.54900
N  29.31200 56.22600 39.27700
C  28.13800 55.70400 38.82300
C  28.32300 54.34600 38.13300
C  29.83600 54.15700 38.25000
C  30.36200 55.37300 38.99900
C  30.38800 52.84900 38.87500
C  27.67700 54.01900 36.68400
C  27.50400 55.23000 35.65700
H  28.02300 55.15700 34.20400
N  31.74400 57.80000 40.32700
C  32.41600 56.68800 39.79000
C  33.77400 56.90100 39.87200
C  34.00500 58.28500 40.17100
C  32.64100 58.84400 40.38600
C  34.90500 55.91200 39.53700
C  35.39700 59.05000 40.09600
O  36.43700 58.44000 39.76200
C  35.52100 60.49300 40.23300
N  29.93000 60.17900 41.27500
C  31.14500 60.77800 41.14600
C  31.06600 62.29400 41.54400
C  29.52000 62.49400 41.77500
C  28.90100 61.05100 41.60400
C  32.05600 62.82600 42.67700
C  28.79600 63.63600 40.98300
C  28.18200 64.80600 41.72200
N  27.64300 58.47300 40.59500
C  26.93800 59.58000 41.10400
C  25.51300 59.32200 40.87900
C  25.46200 58.09000 40.21100
C  26.79100 57.63400 40.01200
C  24.35500 60.20400 41.22800
C  24.63300 57.07200 39.54400
O  23.41900 57.14200 39.36500
C  25.46300 55.94200 38.88100
C  25.10900 54.63400 39.46800
O  25.53500 54.20400 40.53700
O  24.15600 53.96100 38.73900
C  23.35500 52.82900 39.34100
H  32.29400 54.69600 38.98300
H  33.13900 60.87900 40.56400
H  26.86500 61.67300 41.86200
H  27.85400 53.56100 38.72600
H  30.16100 54.26300 37.21500
H  29.52100 52.21300 39.05500
H  30.94000 52.96900 39.80800
H  31.04300 52.44900 38.10200
H  26.67800 53.59500 36.78200
H  28.32400 53.24800 36.26600
H  27.91000 56.10200 36.16900
H  26.43100 55.42300 35.66400
H  35.49600 56.36500 38.74100
H  34.49400 55.01700 39.06900
H  35.45000 55.53100 40.40000
H  36.56700 60.76400 40.37100
H  34.95200 60.77600 41.11900
H  35.08400 61.00800 39.37700
H  31.34700 62.85300 40.65100
H  29.30300 62.75100 42.81200
H  32.53500 61.88800 42.95800
H  31.60200 63.11000 43.62700
H  32.82700 63.53600 42.37800
H  28.10200 63.20700 40.26000
H  29.56900 64.14200 40.40600
H  28.48200 65.83100 41.50400
H  28.45700 64.76100 42.77600
H  27.10300 64.86100 41.57400
H  24.26000 60.59100 42.24300
H  23.40300 59.68200 41.13200
H  24.38600 61.11900 40.63700
H  25.40600 56.02600 37.79500
H  23.73700 52.56600 40.32700
H  23.50900 51.93900 38.73000
H  22.30400 53.09100 39.46400

