158

Mg 47.55800 33.78500 25.87100
C  45.67700 32.38900 28.69400
C  48.30800 36.32900 27.93000
C  48.87900 35.21600 23.27100
C  46.58300 30.95600 24.07500
N  46.99400 34.25700 28.07900
C  46.31700 33.58800 29.03500
C  46.53500 34.21600 30.39800
C  47.12100 35.56100 30.00100
C  47.55300 35.35000 28.57800
C  46.21800 36.91900 30.20200
C  47.60000 33.39900 31.25000
C  47.59000 33.57100 32.79300
H  46.77800 34.67400 33.49500
N  48.54300 35.55600 25.61200
C  48.74800 36.42800 26.62500
C  49.44000 37.58500 26.07900
C  49.61400 37.35900 24.65300
C  48.98500 36.03500 24.45400
C  50.04400 38.72700 26.86700
C  50.36700 38.16000 23.57900
O  50.32200 37.81800 22.38800
C  50.96500 39.52200 23.96300
N  47.44300 33.36100 23.86400
C  48.19600 34.04600 22.97700
C  48.33200 33.33700 21.67500
C  47.80200 31.86600 22.00800
C  47.25000 32.04800 23.37400
C  47.44800 33.96400 20.52500
C  48.99300 30.84800 21.98700
C  49.34700 30.13900 20.72100
N  46.28500 32.13800 26.20600
C  46.02900 31.04500 25.37500
C  45.33400 30.01000 26.09300
C  45.08200 30.49400 27.34700
C  45.74700 31.79300 27.36900
C  45.12100 28.63600 25.56600
C  44.49400 30.23400 28.68100
O  43.93500 29.27100 29.14900
C  44.70900 31.52300 29.54600
C  45.05600 31.24600 30.96500
O  45.88200 30.47000 31.37400
O  44.14000 31.92500 31.73600
C  44.05400 31.55200 33.21300
H  48.75700 36.98200 28.68200
H  49.37200 35.59900 22.37500
H  46.68900 30.00800 23.54300
H  45.56500 34.30000 30.88900
H  48.02600 35.84100 30.54000
H  46.81800 37.76800 30.53100
H  45.46200 36.79500 30.97700
H  45.81500 37.14500 29.21400
H  48.59500 33.73400 30.95800
H  47.50600 32.33000 31.05800
H  48.64800 33.71600 33.01400
H  47.28500 32.62600 33.24200
H  51.10300 38.78000 26.61400
H  50.03400 38.56800 27.94500
H  49.48500 39.65100 26.71800
H  50.24100 40.11700 24.52000
H  51.26100 40.00600 23.03100
H  51.89200 39.41500 24.52600
H  49.35600 33.46100 21.32200
H  47.03200 31.64400 21.26800
H  48.07700 34.22500 19.67400
H  46.84800 34.81900 20.83600
H  46.60500 33.38100 20.15500
H  48.65200 30.04200 22.63600
H  49.94200 31.13000 22.44400
H  49.37600 29.05100 20.76500
H  50.30000 30.53100 20.36700
H  48.51400 30.37900 20.06000
H  46.00500 28.21800 25.08300
H  44.31500 28.65800 24.83300
H  44.83700 28.02800 26.42500
H  43.90100 32.25400 29.50600
H  44.63300 30.71600 33.60500
H  43.00900 31.34400 33.44400
H  44.42800 32.51400 33.56500
Mg -1.81800 35.12300 26.81100
C  -3.74600 33.21800 29.11100
C  -1.25500 37.30700 29.21300
C  -0.24700 36.67000 24.43400
C  -3.14600 32.98900 24.33200
N  -2.51200 35.26100 28.84600
C  -3.13400 34.34000 29.64100
C  -3.09700 34.69700 31.16800
C  -2.55400 36.11500 31.11200
C  -2.03600 36.26800 29.66100
C  -3.55700 37.30700 31.56400
C  -2.23200 33.64500 31.98300
C  -2.95400 32.96700 33.17300
H  -2.14600 32.65800 34.50800
N  -0.75800 36.74200 26.88300
C  -0.62000 37.54800 27.94300
C  0.23600 38.65600 27.55800
C  0.56500 38.50000 26.12300
C  -0.19400 37.27600 25.77300
C  0.53300 39.79600 28.47200
C  1.50700 39.28400 25.27500
O  1.67900 39.01600 24.10200
C  2.29300 40.43500 25.80900
N  -1.62100 34.79700 24.74400
C  -0.92500 35.58700 23.99100
C  -0.92600 35.17100 22.49100
C  -1.52300 33.82100 22.53500
C  -2.19500 33.88400 23.94500
C  -1.67800 36.20500 21.59300
C  -0.66900 32.53800 22.40900
C  0.68700 32.58900 23.14500
N  -3.18300 33.56300 26.70200
C  -3.63300 32.73700 25.59000
C  -4.58800 31.77600 26.02200
C  -4.52000 31.91500 27.41600
C  -3.72500 32.96900 27.75200
C  -5.42200 30.92700 25.14500
C  -5.11100 31.24500 28.60300
O  -5.92800 30.36800 28.71900
C  -4.52900 32.06900 29.72000
C  -5.61100 32.55300 30.54500
O  -6.41100 33.48200 30.26800
O  -5.59800 31.81900 31.71500
C  -6.39400 32.31800 32.83700
H  -0.87700 37.98200 29.98400
H  0.20200 37.27900 23.64600
H  -3.23200 32.27100 23.51400
H  -4.09500 34.66600 31.60300
H  -1.80500 36.18700 31.90000
H  -2.85900 37.92200 32.13200
H  -4.36500 37.05100 32.24900
H  -3.96500 37.92500 30.76400
H  -1.26800 34.07200 32.25900
H  -1.89200 32.78100 31.41300
H  -3.28300 31.96600 32.89400
H  -3.78200 33.60200 33.48800
H  -0.00200 39.79400 29.42100
H  0.02300 40.55100 27.87400
H  1.59800 40.02400 28.50600
H  2.94900 40.22600 26.65500
H  1.55200 41.15700 26.15200
H  2.93500 40.77600 24.99600
H  0.09800 35.11400 22.12300
H  -2.23200 33.66600 21.72200
H  -2.10000 36.97400 22.23900
H  -2.54000 35.68200 21.17900
H  -0.94900 36.62700 20.90100
H  -0.34200 32.45600 21.37200
H  -1.27600 31.63500 22.48400
H  0.53200 31.75200 23.82600
H  0.87000 33.56500 23.59500
H  1.51300 32.35300 22.47400
H  -5.30900 31.07500 24.07200
H  -6.48700 30.96000 25.37700
H  -5.07500 29.91400 25.34800
H  -3.81300 31.42900 30.23600
H  -6.18900 33.37700 32.99400
H  -6.00200 31.88000 33.75500
H  -7.45900 32.10500 32.74800

