158

Mg 39.73500 10.23200 30.62300
C  42.25400 11.77700 32.53100
C  38.10200 9.58800 33.48600
C  37.48900 8.78200 28.56200
C  41.95500 10.65300 27.83400
N  40.26600 10.39600 32.77800
C  41.22800 11.25900 33.25400
C  40.93000 11.46400 34.75000
C  39.73200 10.56100 35.09000
C  39.30700 10.23500 33.69200
C  39.84200 9.36100 36.07100
C  40.79000 12.94300 35.20200
C  41.44500 13.36300 36.53000
H  40.56300 14.02000 37.50000
N  38.07000 9.21300 30.99700
C  37.45300 9.14000 32.22100
C  36.30000 8.30500 32.07300
C  36.02400 8.13900 30.65900
C  37.24400 8.71300 30.01100
C  35.42900 7.90500 33.22200
C  34.80200 7.56600 29.91200
O  34.70600 7.62000 28.71300
C  33.80500 6.87400 30.68900
N  39.76100 9.74900 28.49400
C  38.62800 9.20200 27.94700
C  38.73900 9.35700 26.40700
C  40.21200 9.91000 26.14000
C  40.63100 10.22500 27.51200
C  38.44300 8.03100 25.56900
C  40.41800 11.04800 25.06300
C  41.75500 10.98500 24.21500
N  41.64000 11.09600 30.18200
C  42.36700 11.17600 29.03600
C  43.58500 11.83900 29.28800
C  43.61500 12.11600 30.63400
C  42.40100 11.61200 31.12700
C  44.66800 12.29000 28.26000
C  44.37000 12.71100 31.68400
O  45.48100 13.28100 31.61100
C  43.49800 12.53700 32.94400
C  44.20800 11.88300 34.04600
O  44.35600 10.72800 34.39000
O  44.63000 12.98500 34.85600
C  45.17200 12.54400 36.12500
H  37.49800 9.42000 34.38000
H  36.72800 8.38800 27.88400
H  42.62700 10.74300 26.97800
H  41.77800 10.99900 35.25300
H  38.96600 11.19400 35.53800
H  39.35400 9.50400 37.03500
H  40.91400 9.16800 36.07300
H  39.43300 8.48000 35.57600
H  39.77000 13.28500 35.37800
H  41.04800 13.51600 34.31200
H  42.40600 13.87400 36.46200
H  41.72000 12.39100 36.94000
H  35.80800 8.16600 34.21000
H  35.19700 6.84200 33.28800
H  34.52600 8.50700 33.11600
H  33.20700 7.63300 31.19200
H  34.27600 6.16100 31.36600
H  33.13400 6.45600 29.94000
H  38.06100 10.15300 26.09900
H  40.83200 9.08100 25.80000
H  39.34600 7.75700 25.02400
H  37.69600 8.23900 24.80300
H  38.19600 7.23200 26.26800
H  40.19700 11.93000 25.66400
H  39.60400 10.89400 24.35500
H  42.42900 11.77300 24.55100
H  41.51900 10.97100 23.15100
H  42.43500 10.13400 24.27500
H  45.36700 13.02400 28.66000
H  44.09200 12.75100 27.45800
H  45.24300 11.42200 27.93500
H  43.14800 13.49300 33.33200
H  46.04700 11.89400 36.11900
H  44.38300 11.95700 36.59400
H  45.46600 13.36400 36.78100
Mg -4.75300 25.16200 25.35800
C  -3.52800 26.29200 28.49700
C  -6.69600 22.95700 27.02200
C  -5.40300 23.62100 22.45000
C  -2.41900 27.22300 23.78800
N  -4.79700 24.51800 27.47900
C  -4.36700 25.27500 28.57100
C  -4.92900 24.74300 29.87100
C  -5.78900 23.51600 29.31100
C  -5.74600 23.63900 27.82800
C  -5.43800 22.03600 29.89800
C  -5.78000 25.75300 30.75100
C  -5.25100 25.86300 32.20700
H  -6.19700 25.35200 33.35300
N  -5.97300 23.62000 24.80500
C  -6.80600 22.98700 25.63900
C  -7.74500 22.11700 24.94400
C  -7.23500 22.08400 23.62400
C  -6.15600 23.10500 23.56100
C  -8.97000 21.42500 25.51900
C  -7.52800 21.13200 22.45600
O  -6.87900 20.94000 21.50400
C  -8.80300 20.34900 22.67300
N  -3.86200 25.24400 23.45900
C  -4.39600 24.54500 22.45000
C  -3.77200 24.89900 21.09000
C  -3.08600 26.28600 21.46700
C  -3.12100 26.27300 22.98400
C  -2.84300 23.82300 20.48200
C  -3.83000 27.52400 20.79500
C  -3.66900 27.54800 19.30600
N  -3.34400 26.65300 25.94300
C  -2.46100 27.36500 25.20900
C  -1.66200 28.23600 26.11600
C  -2.00000 27.84900 27.39500
C  -3.05200 26.86200 27.24000
C  -0.58500 29.24200 25.80700
C  -1.64800 28.03400 28.75500
O  -0.88300 28.79600 29.37300
C  -2.74500 27.10900 29.55600
C  -1.88700 26.36800 30.47700
O  -1.45900 25.20200 30.38600
O  -1.71600 27.02400 31.68100
C  -1.00500 26.32900 32.72800
H  -7.42400 22.30700 27.51300
H  -5.59400 23.06300 21.53100
H  -1.74000 27.83600 23.19100
H  -4.02300 24.46300 30.40800
H  -6.84200 23.53100 29.59300
H  -4.48100 22.05400 30.42000
H  -5.17800 21.30600 29.13200
H  -6.23100 21.58000 30.49100
H  -6.84500 25.56800 30.88900
H  -5.82800 26.70300 30.21900
H  -5.02600 26.89800 32.46500
H  -4.27100 25.40200 32.33700
H  -8.91500 20.33700 25.51400
H  -9.96400 21.68000 25.15000
H  -9.15500 21.58700 26.58100
H  -9.69300 20.97500 22.73000
H  -8.64200 19.69400 23.52900
H  -8.87500 19.62700 21.86000
H  -4.55600 25.05000 20.34800
H  -2.05100 26.41000 21.15000
H  -1.81200 24.17600 20.48000
H  -3.19100 23.45400 19.51700
H  -2.94400 23.02700 21.21900
H  -3.32700 28.41900 21.16400
H  -4.87300 27.58700 21.10400
H  -4.59000 27.11100 18.92000
H  -2.83500 26.99400 18.87400
H  -3.45600 28.55700 18.95400
H  -0.88300 29.83400 24.94200
H  0.42600 28.84500 25.72300
H  -0.56300 29.88900 26.68400
H  -3.43200 27.65800 30.20000
H  0.03900 26.30500 32.41500
H  -1.28900 25.27900 32.78400
H  -1.16800 26.85400 33.67000

