158

Mg 35.30200 2.65900 30.35300
C  32.91800 3.92700 32.50800
C  37.56200 2.72100 32.95900
C  37.79700 2.00200 28.16400
C  33.05900 3.05300 27.75300
N  35.24300 3.37100 32.42200
C  34.16400 3.65200 33.15000
C  34.42300 3.70000 34.64000
C  35.97400 3.55900 34.66500
C  36.32600 3.15000 33.24900
C  36.73500 4.87300 35.02700
C  33.54100 2.57500 35.34300
C  33.71100 2.31200 36.83400
H  34.41400 3.32300 37.73300
N  37.34900 2.42900 30.51500
C  38.07600 2.34500 31.69800
C  39.39600 1.85400 31.38000
C  39.53300 1.81400 29.92200
C  38.14900 2.01600 29.46900
C  40.35800 1.48200 32.46300
C  40.79900 1.51200 29.08900
O  40.86200 1.57700 27.83200
C  42.11600 1.16700 29.74400
N  35.43200 2.74700 28.21600
C  36.58300 2.27500 27.55400
C  36.39200 2.08200 26.05400
C  34.77000 2.16400 25.95700
C  34.32900 2.68500 27.40000
C  37.25800 3.10600 25.17800
C  34.07300 0.87000 25.47400
C  32.84600 1.09500 24.55600
N  33.41900 3.39000 30.09400
C  32.55400 3.35600 29.03500
C  31.26600 3.73000 29.43700
C  31.35600 4.04100 30.81400
C  32.64700 3.78600 31.15300
C  29.97900 3.66700 28.61400
C  30.57300 4.53000 31.90000
O  29.43200 4.93200 31.97500
C  31.52900 4.35600 33.13400
C  31.57200 5.70400 33.80200
O  32.09600 6.72200 33.34200
O  31.14600 5.60500 35.09300
C  31.40200 6.73800 35.91600
H  38.25400 2.63000 33.79800
H  38.44100 1.48900 27.44800
H  32.31500 3.00000 26.95500
H  34.14200 4.67900 35.03000
H  36.28400 2.79100 35.37500
H  36.14900 5.51500 35.68500
H  37.04200 5.46200 34.16400
H  37.63100 4.50600 35.52900
H  33.66300 1.63400 34.80600
H  32.50000 2.88900 35.26300
H  34.14000 1.31900 36.97100
H  32.69200 2.16300 37.18900
H  41.16400 2.20600 32.33400
H  40.96500 0.64600 32.11600
H  39.91100 1.24900 33.42900
H  42.17200 0.19300 30.22900
H  42.32400 1.88200 30.54000
H  42.95100 1.15100 29.04400
H  36.43900 1.00700 25.87800
H  34.54600 2.98800 25.27900
H  38.20300 2.65300 24.87900
H  37.44100 4.01700 25.74800
H  36.83100 3.50200 24.25600
H  33.72600 0.21800 26.27600
H  34.79500 0.30900 24.88100
H  32.19100 0.30200 24.91600
H  33.34100 0.95000 23.59600
H  32.38600 2.08200 24.50200
H  29.11400 3.29400 29.16200
H  30.06400 3.10300 27.68500
H  29.74100 4.69300 28.33200
H  31.17500 3.58600 33.81900
H  32.37100 7.23100 35.83200
H  31.39600 6.33000 36.92700
H  30.64700 7.52100 35.85400
Mg 10.34900 47.45500 25.31700
C  8.65100 47.74700 28.46000
C  13.11000 48.70200 26.87400
C  11.81500 47.45900 22.28600
C  7.22200 46.95800 23.89700
N  10.77400 48.07800 27.50000
C  10.02100 48.07100 28.61400
C  10.76300 48.53700 29.81100
C  12.07700 49.11300 29.19600
C  12.04900 48.51100 27.78400
C  12.17100 50.70300 29.15000
C  10.98400 47.37800 30.86600
C  10.42100 47.56000 32.32800
H  10.42300 46.29000 33.20500
N  12.26900 47.68900 24.73500
C  13.21500 48.20900 25.54800
C  14.46400 48.35000 24.83100
C  14.14800 47.91600 23.49000
C  12.73500 47.65400 23.42400
C  15.70200 48.81000 25.48900
C  15.04200 47.85700 22.30600
O  14.62200 47.45200 21.25500
C  16.46100 48.32500 22.34000
N  9.64600 47.38000 23.48200
C  10.43400 47.27300 22.35300
C  9.63800 47.07000 21.03900
C  8.30000 46.60700 21.60400
C  8.39200 46.99400 23.09900
C  9.62400 48.34100 20.11900
C  8.01100 45.06600 21.31500
C  8.26200 43.98600 22.43000
N  8.30000 47.44700 25.97700
C  7.09300 47.14700 25.29200
C  6.00500 47.16800 26.21900
C  6.62400 47.46600 27.42900
C  7.95400 47.57200 27.24000
C  4.66600 46.65100 25.80100
C  6.21700 47.51000 28.81300
O  5.10100 47.45100 29.35100
C  7.55700 47.68700 29.55400
C  7.69100 46.45900 30.52000
O  8.32900 45.46500 30.16300
O  6.85800 46.54600 31.59500
C  6.72200 45.29500 32.37200
H  13.94200 49.10300 27.45700
H  12.21700 47.44100 21.27100
H  6.28000 46.63600 23.44900
H  10.06700 49.28200 30.19500
H  12.83300 48.76200 29.89800
H  11.19100 51.16200 29.01500
H  12.79200 51.08900 28.34300
H  12.57100 51.03600 30.10800
H  12.06000 47.40400 31.03700
H  10.77200 46.40400 30.42700
H  9.38500 47.84300 32.14200
H  10.87500 48.29300 32.99500
H  16.15500 49.62600 24.92600
H  16.35300 47.97800 25.75700
H  15.58700 49.24300 26.48300
H  17.02100 47.79900 21.56700
H  16.90700 48.12800 23.31400
H  16.44900 49.40900 22.22600
H  10.12800 46.25300 20.50900
H  7.47200 47.26000 21.32600
H  8.57200 48.62800 20.12300
H  9.86600 48.10800 19.08200
H  10.33300 49.05100 20.54400
H  8.67700 44.72400 20.52300
H  7.04700 44.88500 20.83900
H  8.15400 44.39000 23.43600
H  9.20400 43.44600 22.34400
H  7.47500 43.23900 22.32800
H  3.97000 47.28000 26.35600
H  4.45700 45.59500 25.97000
H  4.48400 46.75600 24.73100
H  7.69100 48.54500 30.21200
H  7.64700 44.71800 32.40400
H  6.02500 44.61400 31.88400
H  6.46600 45.40200 33.42600

