158

Mg 35.08900 2.60800 29.45200
C  32.97300 3.53800 31.93700
C  37.67200 2.30700 31.72400
C  37.15700 1.61300 26.91600
C  32.50100 3.24800 27.15300
N  35.31300 2.95900 31.56500
C  34.25300 3.26500 32.43300
C  34.74200 3.41700 33.91600
C  36.35300 3.24400 33.74100
C  36.50700 2.84300 32.24900
C  37.31300 4.43800 34.19300
C  33.96900 2.34500 34.82600
C  33.49700 2.79000 36.26000
H  34.35900 3.78000 36.96800
N  37.11000 1.94300 29.35000
C  37.93800 1.80500 30.45200
C  39.12700 1.08900 30.00300
C  39.07000 0.98300 28.56700
C  37.73600 1.51400 28.19700
C  40.16100 0.79100 31.04400
C  40.15400 0.45500 27.67300
O  40.21100 0.66900 26.50200
C  41.34000 -0.23300 28.26200
N  34.76600 2.34200 27.39200
C  35.81500 2.00000 26.55700
C  35.38800 2.14400 25.09800
C  33.78600 2.39300 25.21000
C  33.68800 2.72400 26.68000
C  36.08200 3.42000 24.38600
C  32.90300 1.27400 24.68800
C  32.26400 0.23800 25.69000
N  33.14000 3.32200 29.45600
C  32.21600 3.58000 28.48700
C  30.96700 3.95000 29.10200
C  31.21000 4.05000 30.44400
C  32.55500 3.61700 30.61700
C  29.73200 4.05600 28.30100
C  30.58300 4.25000 31.67200
O  29.43000 4.56000 31.98600
C  31.71100 3.99200 32.74200
C  31.79800 5.22100 33.56900
O  32.50800 6.17000 33.33200
O  30.94500 5.12800 34.64700
C  30.93400 6.25500 35.52600
H  38.41500 2.14000 32.50600
H  37.81800 1.32600 26.09500
H  31.70900 3.43600 26.42500
H  34.45300 4.44100 34.15300
H  36.67800 2.41900 34.37500
H  38.03600 4.67600 33.41300
H  37.89500 4.12400 35.05900
H  36.70400 5.29900 34.47100
H  34.47900 1.39300 34.97300
H  33.09800 1.97600 34.28300
H  33.50400 1.88000 36.85900
H  32.45400 3.10600 36.23900
H  39.75200 0.71100 32.05200
H  41.01200 1.47000 30.98900
H  40.58400 -0.20500 30.91600
H  42.04800 -0.54200 27.49300
H  41.04800 -1.12500 28.81600
H  41.97000 0.34500 28.93800
H  35.58500 1.21300 24.56600
H  33.51500 3.29600 24.66400
H  35.37000 4.11000 23.93400
H  36.73500 2.96700 23.63900
H  36.66300 3.96300 25.13200
H  33.50000 0.67300 24.00200
H  32.03900 1.69300 24.17300
H  31.19200 0.04300 25.65000
H  32.47800 0.55300 26.71200
H  32.67600 -0.74600 25.46700
H  29.78800 3.31300 27.50500
H  29.66800 5.01300 27.78400
H  28.80800 3.91500 28.86100
H  31.33900 3.18400 33.37100
H  30.60800 7.19800 35.08700
H  31.92800 6.51000 35.89300
H  30.30300 6.08500 36.39800
Mg -1.14100 34.00800 27.25400
C  -3.04800 32.39500 29.63300
C  0.29500 35.94900 29.74000
C  0.17100 36.02600 24.83500
C  -2.97800 32.32600 24.74300
N  -1.49300 34.25100 29.40700
C  -2.22100 33.36100 30.11800
C  -1.95800 33.64300 31.62300
C  -0.98900 34.79300 31.64900
C  -0.70600 35.04300 30.18800
C  -1.38400 36.07400 32.44200
C  -1.37100 32.28300 32.32800
C  -2.03700 31.86900 33.58900
H  -1.26600 32.15000 34.89500
N  0.09700 35.76000 27.28600
C  0.62600 36.36700 28.42200
C  1.37200 37.50700 28.00700
C  1.34200 37.57500 26.58600
C  0.47300 36.48800 26.14500
C  2.04000 38.36400 29.05600
C  2.05500 38.52500 25.65600
O  2.00600 38.31200 24.46100
C  2.62100 39.81500 26.16000
N  -1.42900 34.16600 25.07200
C  -0.62400 34.98200 24.34400
C  -0.88100 34.83100 22.83300
C  -1.72500 33.58800 22.88200
C  -2.18400 33.35300 24.31600
C  -1.59400 36.08900 22.22700
C  -1.10800 32.34400 22.15300
C  0.02800 31.58800 22.91100
N  -2.75500 32.74300 27.08900
C  -3.24800 32.02300 26.03600
C  -4.20000 31.01600 26.53100
C  -4.16100 31.13800 27.94900
C  -3.18900 32.13900 28.23700
C  -5.06200 30.01900 25.78000
C  -4.68200 30.62800 29.16500
O  -5.55900 29.84700 29.34900
C  -3.89900 31.40800 30.31400
C  -4.98700 32.09500 31.15300
O  -5.62200 33.12300 30.85600
O  -5.24200 31.38300 32.32400
C  -6.32500 31.94200 33.18900
H  0.79900 36.45000 30.56900
H  0.71700 36.58900 24.07500
H  -3.34800 31.54600 24.07500
H  -2.91900 33.85900 32.09100
H  -0.06000 34.43500 32.09300
H  -1.24000 37.00400 31.89300
H  -0.72700 35.96600 33.30500
H  -2.43700 36.00800 32.71700
H  -0.30200 32.42000 32.49300
H  -1.42100 31.45100 31.62500
H  -2.26000 30.80200 33.57000
H  -2.99900 32.38100 33.58400
H  3.07200 38.43000 28.71200
H  1.94100 37.96800 30.06600
H  1.57400 39.34900 29.10400
H  2.95900 40.38000 25.29100
H  3.54500 39.61500 26.70200
H  1.95600 40.27400 26.89100
H  0.10300 34.66400 22.39600
H  -2.62600 33.77300 22.29700
H  -1.43600 36.96300 22.85900
H  -2.67300 36.10000 22.07600
H  -1.05800 36.24500 21.29100
H  -0.61200 32.64300 21.22900
H  -1.88400 31.63700 21.85700
H  -0.38200 30.65200 23.29200
H  0.54200 32.21300 23.64200
H  0.77600 31.23900 22.19900
H  -5.09200 30.15700 24.69900
H  -6.07200 30.21700 26.13800
H  -4.65100 29.04500 26.04700
H  -3.36300 30.69500 30.94000
H  -7.09600 32.32900 32.52300
H  -5.90900 32.69500 33.85900
H  -6.84700 31.17700 33.76300

