158

Mg 0.07600 8.17200 26.72700
C  0.79000 10.40500 29.33100
C  -0.41300 5.71100 29.03000
C  0.06700 5.91500 24.14600
C  0.79600 10.70000 24.43100
N  0.36800 7.99500 28.92700
C  0.56900 9.05100 29.76300
C  0.24800 8.69000 31.27300
C  0.09100 7.14700 31.10100
C  0.04500 6.90800 29.58400
C  1.25800 6.26200 31.73400
C  -1.05200 9.40600 31.76100
C  -1.23500 9.60200 33.27200
H  -0.03600 9.30700 34.11000
N  -0.11100 6.14300 26.57600
C  -0.48500 5.35700 27.68700
C  -0.73600 4.05800 27.17800
C  -0.67800 4.05200 25.73200
C  -0.19200 5.40500 25.38900
C  -1.04400 2.88300 28.16200
C  -0.98900 2.96400 24.70300
O  -0.89700 3.03000 23.49300
C  -1.49100 1.65500 25.18900
N  0.64500 8.27300 24.61200
C  0.41400 7.23300 23.72700
C  0.67500 7.57900 22.31500
C  0.50000 9.21600 22.31600
C  0.59700 9.44900 23.87000
C  1.90000 6.99300 21.65200
C  -0.81500 9.71800 21.74200
C  -0.69400 10.88900 20.73300
N  0.71400 10.10600 26.70300
C  0.85200 11.09700 25.76800
C  1.19300 12.33300 26.36300
C  1.10200 12.10600 27.71200
C  0.80200 10.77000 27.92500
C  1.38000 13.63900 25.64600
C  1.24700 12.76100 29.01500
O  1.55300 13.87200 29.28300
C  1.11000 11.67000 30.12700
C  2.34600 11.66300 30.90000
O  3.37400 11.09000 30.53300
O  2.14500 12.30800 32.10600
C  3.28600 12.34100 33.06800
H  -0.74600 5.02700 29.81400
H  -0.09200 5.29800 23.26000
H  0.66600 11.57000 23.78300
H  1.16500 8.94900 31.80200
H  -0.80000 6.74900 31.58800
H  0.90600 5.46600 32.39100
H  1.88100 6.94800 32.30800
H  1.91200 5.83100 30.97700
H  -1.84200 8.72100 31.45400
H  -1.26100 10.36700 31.29100
H  -2.04400 8.93800 33.57600
H  -1.56600 10.61900 33.48300
H  -0.82600 3.00700 29.22300
H  -0.63400 1.95700 27.75800
H  -2.12500 2.75900 28.21500
H  -1.85500 1.15000 24.29400
H  -2.35500 1.79900 25.83800
H  -0.68200 1.26200 25.80400
H  -0.11000 7.11300 21.72000
H  1.38200 9.65600 21.84900
H  2.61800 6.78600 22.44600
H  2.26200 7.59900 20.82200
H  1.67000 6.00500 21.25400
H  -1.48400 10.11800 22.50400
H  -1.20400 8.81200 21.27900
H  0.28900 10.99600 20.27300
H  -0.92200 11.83000 21.23300
H  -1.40200 10.74200 19.91700
H  0.86000 13.70800 24.69100
H  2.41600 13.95500 25.52900
H  1.09900 14.45700 26.31000
H  0.25200 11.91800 30.75100
H  4.12800 12.51200 32.39600
H  3.37900 11.32200 33.44200
H  3.09300 12.97300 33.93500
Mg 35.66700 2.76100 30.20900
C  33.28400 3.87500 32.74400
C  37.88400 2.61300 32.79300
C  37.97800 2.40700 27.95600
C  33.16700 3.17500 27.85600
N  35.58400 3.35900 32.58500
C  34.53400 3.68800 33.34600
C  34.91400 3.57800 34.84600
C  36.52800 3.57300 34.78200
C  36.65900 3.07500 33.30800
C  37.22400 4.90900 35.18700
C  34.20500 2.31900 35.47000
C  33.62500 2.56500 36.91700
H  34.21800 3.71200 37.88300
N  37.67100 2.40300 30.32300
C  38.40200 2.43100 31.46400
C  39.76400 2.08500 31.04800
C  39.89500 2.12100 29.69800
C  38.48900 2.32800 29.23700
C  40.90000 1.83500 32.08900
C  41.03000 1.85300 28.76800
O  40.87600 1.83100 27.60900
C  42.46400 1.55800 29.32000
N  35.55100 2.90300 28.11900
C  36.66900 2.66000 27.42100
C  36.30800 2.33700 25.94000
C  34.80900 2.73400 25.86300
C  34.43600 2.93100 27.36600
C  37.10300 3.14800 24.80900
C  33.95100 1.73300 25.02100
C  33.21500 2.49000 23.98500
N  33.62000 3.29200 30.23800
C  32.76700 3.43800 29.20300
C  31.48000 3.77400 29.76000
C  31.61400 3.82900 31.10800
C  32.96400 3.69400 31.38400
C  30.16400 3.89300 29.04800
C  30.86900 4.12900 32.34400
O  29.71300 4.37500 32.56400
C  31.96800 4.07100 33.40700
C  31.93900 5.29600 34.23900
O  32.44100 6.39700 33.90900
O  31.23000 5.02200 35.37500
C  31.10800 6.09700 36.35900
H  38.70000 2.54100 33.51500
H  38.72600 2.21400 27.18400
H  32.39000 3.19800 27.08900
H  34.61400 4.49400 35.35500
H  37.01400 2.83400 35.41900
H  38.00700 5.09000 34.45100
H  37.66400 4.90700 36.18400
H  36.53800 5.75600 35.18500
H  34.83400 1.42900 35.49100
H  33.32800 1.99700 34.90800
H  33.73800 1.60200 37.41400
H  32.58100 2.79100 36.69900
H  41.17900 0.78100 32.09700
H  40.63100 1.95000 33.13900
H  41.82000 2.41300 32.00000
H  42.51000 0.60200 29.84300
H  42.84400 2.41200 29.87900
H  43.02300 1.60400 28.38500
H  36.34900 1.24900 25.88800
H  34.70000 3.77800 25.57100
H  37.57700 4.03900 25.22000
H  36.43200 3.57400 24.06200
H  37.69200 2.34200 24.37200
H  33.23100 1.10000 25.53900
H  34.67000 1.08700 24.51600
H  32.38900 1.86000 23.65600
H  33.92300 2.64100 23.17000
H  32.84300 3.41500 24.42500
H  30.30300 4.87700 28.60000
H  29.28000 3.99200 29.67800
H  30.02100 3.20300 28.21600
H  31.68300 3.24600 34.05900
H  30.79000 5.60900 37.28100
H  30.41100 6.88000 36.06100
H  32.09300 6.47700 36.63100

