158

Mg 26.64700 50.40500 26.90700
C  24.51800 51.56000 29.51700
C  28.79100 49.21300 29.48000
C  28.85400 49.48600 24.63200
C  24.52400 51.78400 24.57100
N  26.71100 50.50700 29.20800
C  25.66800 50.91700 30.04200
C  25.93300 50.55300 31.50400
C  27.34000 50.00300 31.47500
C  27.62400 49.90900 29.95900
C  28.40700 50.80300 32.27300
C  24.87400 49.58600 32.14600
C  24.18500 50.21700 33.36200
H  24.20500 49.43800 34.68300
N  28.51600 49.58100 27.02700
C  29.17900 49.09100 28.12500
C  30.37900 48.45400 27.69600
C  30.49100 48.51700 26.29200
C  29.30900 49.27000 25.93700
C  31.40600 47.80800 28.67700
C  31.63200 48.01900 25.35800
O  31.61400 48.21100 24.19200
C  32.86600 47.22900 25.85900
N  26.69800 50.72700 24.89700
C  27.67400 50.15800 24.15600
C  27.28500 50.23900 22.64800
C  25.92600 51.07400 22.67700
C  25.69100 51.22100 24.11100
C  28.45200 50.99800 21.79100
C  24.77400 50.42600 21.84200
C  23.67900 49.51100 22.54100
N  24.85000 51.41700 26.95000
C  24.09500 52.00000 25.93800
C  22.83500 52.49400 26.49100
C  23.02700 52.47100 27.87300
C  24.26500 51.74800 28.07800
C  21.66000 52.98700 25.68400
C  22.47700 52.82400 29.12900
O  21.55400 53.55500 29.45500
C  23.38800 52.17500 30.22600
C  23.98400 53.25300 31.04400
O  24.91200 54.04900 30.85100
O  23.28100 53.30000 32.20900
C  23.66900 54.25300 33.25400
H  29.39400 48.75900 30.27000
H  29.37000 48.93300 23.84400
H  23.73700 52.14400 23.90600
H  25.95500 51.51400 32.01700
H  27.32800 49.01500 31.93600
H  29.33500 50.23100 32.30000
H  28.07500 50.98200 33.29600
H  28.49900 51.76400 31.76600
H  25.24800 48.60600 32.44200
H  24.11100 49.40500 31.38900
H  23.12000 50.35400 33.17500
H  24.53900 51.22300 33.58400
H  32.39600 48.26300 28.65000
H  31.61900 46.78900 28.35200
H  31.08700 47.77600 29.71900
H  32.73900 46.15000 25.95600
H  33.05900 47.72300 26.81100
H  33.70000 47.44300 25.19100
H  27.12000 49.26300 22.19300
H  26.12400 52.01500 22.16300
H  28.11100 51.72700 21.05600
H  28.95700 50.27100 21.15500
H  29.16900 51.42800 22.49000
H  25.28200 49.70400 21.20300
H  24.33700 51.13900 21.14200
H  22.82100 50.17700 22.44800
H  23.84800 49.21100 23.57500
H  23.67700 48.55000 22.02700
H  20.90600 52.26500 25.37000
H  22.06900 53.58700 24.87000
H  21.16700 53.69300 26.35100
H  22.86500 51.46900 30.87100
H  24.71800 54.03700 33.46100
H  23.12100 54.14300 34.18900
H  23.36400 55.26600 32.99200
Mg -10.94100 39.94800 41.46200
C  -9.96400 36.66000 40.71500
C  -7.82900 41.08800 40.34700
C  -12.20900 43.05600 41.28500
C  -14.29900 38.72400 41.66100
N  -9.16900 38.93900 40.67000
C  -8.95700 37.55500 40.46300
C  -7.58100 37.31700 39.82800
C  -6.82900 38.68700 40.04300
C  -8.01000 39.63400 40.38200
C  -5.71000 38.80300 41.14000
C  -7.63900 36.78100 38.32400
C  -6.59600 35.72100 37.88200
H  -5.65200 36.18600 36.79900
N  -10.04700 41.83300 40.93000
C  -8.75600 42.12700 40.54800
C  -8.69300 43.55300 40.27400
C  -9.96100 44.11600 40.48500
C  -10.81600 42.97600 40.93000
C  -7.40600 44.24500 39.67300
C  -10.31400 45.53100 40.21100
O  -9.49300 46.28100 39.76300
C  -11.78300 45.95900 40.25700
N  -13.05900 40.73700 41.62000
C  -13.20200 42.12200 41.54800
C  -14.75100 42.44000 41.63400
C  -15.38900 41.06400 41.73700
C  -14.24300 40.09400 41.66000
C  -15.24900 43.60600 42.67600
C  -16.56900 40.73900 40.81400
C  -17.96800 40.66600 41.45900
N  -11.84400 38.11900 41.58000
C  -13.17700 37.80700 41.67700
C  -13.37400 36.43000 41.72800
C  -12.10300 35.87300 41.43200
C  -11.20400 36.97200 41.23500
C  -14.56300 35.74300 42.01000
C  -11.33400 34.71600 41.18300
O  -11.69000 33.53500 41.27800
C  -9.96800 35.17300 40.71800
C  -8.91000 34.64900 41.58800
O  -8.68900 34.87200 42.80700
O  -8.06500 33.91000 40.85200
C  -6.72300 33.69800 41.36500
H  -6.81800 41.36700 40.04600
H  -12.63400 44.05600 41.40200
H  -15.31100 38.31600 41.65100
H  -7.03100 36.55900 40.38700
H  -6.45400 38.97400 39.06000
H  -4.90500 39.44600 40.78700
H  -5.28100 37.80500 41.22900
H  -5.99000 39.08200 42.15600
H  -7.44100 37.63000 37.67000
H  -8.59400 36.34700 38.02700
H  -7.18100 34.88700 37.49400
H  -6.01700 35.34600 38.72600
H  -6.77600 43.40900 39.36800
H  -6.95300 44.82400 40.47700
H  -7.59400 44.90500 38.82600
H  -12.08700 46.09600 41.29500
H  -12.41800 45.25200 39.72300
H  -11.79600 46.93900 39.77900
H  -14.94700 42.81300 40.62900
H  -15.58000 40.90100 42.79800
H  -15.73800 43.07900 43.49600
H  -15.89800 44.23200 42.06400
H  -14.42400 44.05300 43.23000
H  -16.44100 39.80700 40.26400
H  -16.69200 41.54500 40.09000
H  -18.22500 39.60800 41.51300
H  -18.76700 41.28900 41.05600
H  -17.89100 40.97800 42.50100
H  -15.02600 36.24200 42.86100
H  -14.46100 34.69400 42.28600
H  -15.19100 35.82700 41.12300
H  -9.90300 34.74400 39.71800
H  -5.95000 34.35700 40.96800
H  -6.34900 32.74200 40.99800
H  -6.53300 33.62500 42.43600

