158

Mg 41.25800 9.00800 29.30300
C  42.89500 10.48600 32.00700
C  39.07300 7.57900 31.57500
C  39.53000 7.49400 26.70100
C  43.72000 10.00000 27.22400
N  41.13100 8.95700 31.52600
C  41.84500 9.71200 32.46300
C  41.36800 9.53300 33.92500
C  40.14300 8.55000 33.74200
C  40.10600 8.33500 32.16900
C  40.18900 7.16800 34.48700
C  41.05500 10.89900 34.61000
C  39.96100 10.94300 35.71400
H  40.48100 11.38500 37.10500
N  39.55700 7.81100 29.16500
C  38.81900 7.33000 30.21900
C  37.75300 6.47000 29.68400
C  37.74900 6.56300 28.25700
C  38.99400 7.24100 28.00000
C  36.83800 5.70900 30.66900
C  36.68800 6.01800 27.20300
O  36.96500 6.06200 26.02200
C  35.38800 5.40400 27.62900
N  41.61100 8.69300 27.34400
C  40.79000 8.09200 26.41600
C  41.44300 8.12800 24.99400
C  42.70400 8.95000 25.12900
C  42.70500 9.22800 26.66600
C  41.49400 6.84300 24.18100
C  42.83900 10.14300 24.16200
C  42.22100 11.54200 24.51200
N  42.88800 10.06400 29.51600
C  43.89300 10.34400 28.58900
C  45.05100 10.91900 29.22600
C  44.57000 11.10500 30.55100
C  43.35800 10.52600 30.65700
C  46.28400 11.40300 28.55900
C  44.93900 11.74100 31.79300
O  45.89100 12.44800 31.96600
C  43.85600 11.37800 32.81600
C  44.49400 10.68600 33.92800
O  44.85000 9.53400 33.94400
O  44.54700 11.52400 35.00200
C  45.14700 10.87500 36.15700
H  38.41600 7.12500 32.32000
H  39.17800 7.04900 25.76800
H  44.54000 10.33600 26.58500
H  42.15500 9.04800 34.50200
H  39.14900 8.91300 34.00200
H  41.02000 7.20500 35.19200
H  40.54600 6.52000 33.68600
H  39.26000 6.83400 34.95000
H  40.79500 11.59800 33.81500
H  41.93700 11.46100 34.91600
H  39.43000 9.99300 35.77600
H  39.12100 11.54000 35.36100
H  36.06400 6.37900 31.04300
H  37.38200 5.42200 31.56800
H  36.47600 4.79800 30.19200
H  35.49300 4.57800 28.33300
H  34.79300 5.12500 26.75900
H  34.87600 6.22600 28.13000
H  40.71700 8.73900 24.45800
H  43.59700 8.32800 25.08100
H  42.49800 6.84000 23.75800
H  40.80400 6.86900 23.33700
H  41.24900 5.98700 24.81000
H  42.58000 9.90600 23.13000
H  43.91700 10.30000 24.17800
H  41.56000 11.45200 25.37400
H  41.68200 12.02300 23.69600
H  43.09200 12.12800 24.80400
H  46.50300 12.47100 28.57100
H  46.32000 11.09800 27.51300
H  47.14100 10.94300 29.05000
H  43.34900 12.31200 33.05500
H  44.41800 10.21600 36.62900
H  45.33700 11.63600 36.91400
H  46.12100 10.38600 36.15600
Mg 48.28300 34.46500 26.64300
C  46.54600 32.96500 29.25700
C  48.23800 37.46500 28.65800
C  49.61700 36.17800 24.13400
C  47.79900 31.64500 24.64800
N  47.49000 35.11800 28.66000
C  47.03000 34.26000 29.63700
C  47.09800 34.86300 31.04300
C  47.16300 36.34700 30.71600
C  47.75700 36.32100 29.28300
C  45.90000 37.13900 30.85200
C  48.25400 34.36900 31.90800
C  48.05600 34.03000 33.39400
H  47.25100 34.93800 34.31600
N  48.88700 36.48800 26.44600
C  48.80600 37.52900 27.34500
C  49.36300 38.69500 26.69400
C  49.80000 38.31100 25.38100
C  49.49700 36.92200 25.31800
C  49.46500 40.08000 27.26200
C  50.59300 39.14500 24.24100
O  51.03300 38.68800 23.17600
C  50.78800 40.61700 24.51200
N  48.69900 33.94600 24.74100
C  49.24700 34.82700 23.89400
C  49.38800 34.26400 22.49100
C  48.90000 32.78300 22.72100
C  48.44200 32.75500 24.11800
C  48.62200 34.96600 21.29400
C  49.94000 31.67300 22.45900
C  51.27300 31.83200 23.13100
N  47.36300 32.62500 26.83000
C  47.28000 31.54000 25.96100
C  46.32800 30.61000 26.56800
C  46.02600 31.07300 27.87200
C  46.73900 32.32300 27.99200
C  45.78200 29.41400 25.95900
C  45.44100 30.70200 29.13800
O  44.75400 29.76400 29.43800
C  45.53500 32.06200 29.93900
C  45.69300 31.75500 31.35800
O  46.48500 30.93600 31.71900
O  44.80500 32.40800 32.12900
C  44.78900 31.94000 33.56400
H  48.21300 38.36100 29.28100
H  49.87900 36.71100 23.21800
H  47.51800 30.78300 24.04000
H  46.23500 34.63100 31.66700
H  47.91300 36.87700 31.30400
H  45.93900 38.06000 30.27100
H  45.91800 37.47400 31.88900
H  45.03700 36.48300 30.73800
H  49.08600 35.06500 31.80200
H  48.56300 33.43600 31.43700
H  49.07500 34.05400 33.78000
H  47.85400 32.96700 33.52200
H  48.97900 40.03700 28.23600
H  49.09300 40.85300 26.58900
H  50.47000 40.30100 27.62100
H  49.76800 40.92900 24.74000
H  50.91900 41.11300 23.55100
H  51.52900 40.96900 25.22900
H  50.42700 34.25600 22.16200
H  48.00800 32.71400 22.09700
H  48.12100 35.80100 21.78300
H  47.90900 34.33700 20.76200
H  49.29800 35.34400 20.52600
H  50.06400 31.66900 21.37700
H  49.55700 30.66400 22.61100
H  52.07300 32.06700 22.42900
H  51.66400 30.97400 23.67600
H  51.28500 32.57700 23.92700
H  45.77400 29.56900 24.88000
H  44.80200 29.08800 26.30800
H  46.48700 28.58600 26.03800
H  44.54700 32.51100 29.83500
H  44.40900 32.69800 34.24900
H  45.76100 31.70100 33.99600
H  44.26400 30.98900 33.65900

