158

Mg 24.41900 -4.41200 45.99200
C  25.63200 -1.60000 44.26300
C  21.28200 -3.63900 44.70400
C  23.35200 -7.57400 46.78500
C  27.63800 -5.08900 46.99500
N  23.64400 -2.83400 44.62300
C  24.27500 -1.79700 44.06100
C  23.30400 -0.99000 43.14700
C  21.94700 -1.25900 43.90700
C  22.31400 -2.67400 44.45400
C  21.47400 -0.18900 44.95400
C  23.32500 -1.46400 41.69100
C  23.74800 -0.54000 40.54800
H  24.95300 -0.93900 39.76800
N  22.66400 -5.47700 45.59500
C  21.48300 -4.93300 45.15700
C  20.46100 -5.92200 45.14600
C  21.07200 -7.15500 45.68100
C  22.38000 -6.72000 46.11000
C  18.98200 -5.61900 44.66700
C  20.37000 -8.56100 45.79200
O  19.20300 -8.65000 45.45200
C  21.00600 -9.80200 46.34900
N  25.37700 -6.09600 46.76500
C  24.66800 -7.26700 47.08900
C  25.68800 -8.36800 47.58900
C  27.02400 -7.54500 47.76100
C  26.66000 -6.15800 47.15000
C  25.26600 -9.25100 48.76700
C  28.32700 -8.23100 47.29200
C  28.59600 -8.18200 45.87000
N  26.28900 -3.46200 45.86100
C  27.51400 -3.89100 46.28200
C  28.43800 -2.84800 45.96200
C  27.80900 -1.98200 45.06600
C  26.48000 -2.36200 45.13000
C  29.87000 -2.98100 46.35000
C  27.95000 -0.83100 44.19900
O  28.94600 -0.28300 43.84800
C  26.53300 -0.47100 43.67400
C  26.16600 0.90700 44.17300
O  25.30200 1.14700 44.98600
O  26.90000 1.91100 43.63500
C  26.76000 3.28600 44.16100
H  20.28500 -3.22100 44.55000
H  23.20000 -8.64200 46.95700
H  28.58900 -5.32700 47.47700
H  23.40700 0.09400 43.09100
H  21.15400 -1.37800 43.16800
H  21.35900 -0.62900 45.94500
H  20.54100 0.25500 44.60700
H  22.29000 0.51900 45.09800
H  22.31900 -1.80900 41.45300
H  24.00300 -2.31400 41.62100
H  23.81600 0.48600 40.90900
H  22.94000 -0.51600 39.81600
H  18.57100 -6.60000 44.42600
H  19.10700 -4.93800 43.82500
H  18.46300 -5.01700 45.41200
H  20.23500 -10.57200 46.34400
H  21.19700 -9.67200 47.41500
H  21.84500 -10.15800 45.75100
H  25.86400 -9.01300 46.72800
H  27.20700 -7.37800 48.82200
H  25.76600 -10.20700 48.60600
H  24.20200 -9.38400 48.57000
H  25.52400 -8.84300 49.74400
H  28.30200 -9.24000 47.70300
H  29.12800 -7.70900 47.81500
H  29.61600 -7.80100 45.82000
H  27.95200 -7.70900 45.12900
H  28.69400 -9.19700 45.48600
H  30.52300 -2.11100 46.28200
H  30.29400 -3.83200 45.81600
H  29.84100 -3.18000 47.42100
H  26.47200 -0.37800 42.58900
H  27.36500 3.51000 45.04000
H  25.76900 3.59800 44.49000
H  27.09300 3.99100 43.39900
Mg 1.58900 43.14000 25.54100
C  3.24000 43.12700 28.62300
C  -1.21400 41.94200 27.24700
C  0.29900 42.54900 22.53100
C  4.58000 43.96700 24.01600
N  1.03100 42.77500 27.74800
C  1.83100 42.88500 28.84800
C  1.05600 42.55800 30.10200
C  -0.24800 41.95000 29.54900
C  -0.19100 42.27400 28.09900
C  -0.40900 40.40300 29.83200
C  1.00000 43.80800 30.96800
C  1.54300 43.69100 32.39800
H  0.58100 43.03800 33.42200
N  -0.20600 42.32600 24.93100
C  -1.26100 41.90100 25.80400
C  -2.43700 41.54800 24.93400
C  -2.02800 41.70800 23.54200
C  -0.59100 42.19700 23.61300
C  -3.66700 41.13400 25.60500
C  -2.82600 41.59200 22.20200
O  -2.42200 41.68000 21.05600
C  -4.29700 41.39700 22.28000
N  2.37300 43.17400 23.55300
C  1.60200 43.01700 22.49300
C  2.38100 43.32400 21.14100
C  3.64100 44.06500 21.70400
C  3.51600 43.74000 23.20900
C  2.57200 42.11700 20.15600
C  3.63700 45.62400 21.26400
C  4.67200 45.97900 20.22100
N  3.48300 43.55000 26.10000
C  4.63300 43.78200 25.38600
C  5.77600 43.98000 26.27900
C  5.24700 43.68100 27.52400
C  3.87000 43.43700 27.41300
C  7.23300 44.28300 25.88500
C  5.72300 43.35400 28.83700
O  6.88000 43.21200 29.30400
C  4.35800 43.16400 29.66800
C  4.50300 41.85600 30.46100
O  4.52100 40.70400 30.01700
O  4.69600 42.21500 31.83400
C  4.67300 41.23000 32.88100
H  -2.05300 41.56800 27.83700
H  -0.17200 42.54200 21.54600
H  5.41700 44.32200 23.41200
H  1.75100 41.88900 30.60800
H  -1.04900 42.52800 30.01000
H  0.48900 40.08900 30.36500
H  -0.41700 39.89000 28.87000
H  -1.29500 40.11200 30.39500
H  -0.04500 44.07300 31.13100
H  1.46500 44.66600 30.48300
H  1.78900 44.72700 32.63000
H  2.43900 43.08000 32.29200
H  -3.45700 40.79000 26.61800
H  -4.06200 40.25100 25.10200
H  -4.49100 41.82500 25.78600
H  -4.77700 41.58200 21.31900
H  -4.77500 42.11000 22.95100
H  -4.46600 40.42700 22.74600
H  1.75500 43.99100 20.54800
H  4.63900 43.70600 21.45500
H  3.60900 41.86500 20.37400
H  2.65100 42.48800 19.13400
H  1.86600 41.30300 20.32100
H  3.81400 46.15700 22.19800
H  2.68800 45.95700 20.84500
H  4.11400 46.29100 19.33800
H  5.34900 45.13900 20.06800
H  5.27000 46.82000 20.57100
H  7.44600 45.33600 25.70200
H  7.43900 43.78200 24.93900
H  7.87700 43.97400 26.70900
H  4.16400 44.00200 30.33700
H  5.13400 41.55900 33.81300
H  5.21600 40.36400 32.50300
H  3.67800 40.80900 33.02900

