158

Mg 45.20100 4.69900 46.50700
C  42.96900 7.45500 46.58600
C  42.26800 2.74000 46.13900
C  47.13400 2.10200 45.71100
C  47.85600 6.95100 46.06000
N  42.85600 5.09500 46.33600
C  42.25500 6.30200 46.45800
C  40.69800 6.18200 46.32300
C  40.48500 4.65000 46.36700
C  41.97700 4.10800 46.35700
C  39.59300 4.09600 47.51700
C  40.03300 6.94800 45.08300
C  40.81300 6.77500 43.77500
H  40.11000 6.23700 42.50600
N  44.71200 2.69100 45.95100
C  43.47600 2.09000 45.92300
C  43.73300 0.64800 45.87100
C  45.08600 0.48100 45.44200
C  45.73400 1.81700 45.67500
C  42.61100 -0.32400 45.70500
C  45.76800 -0.76400 44.92900
O  45.19900 -1.84200 44.87500
C  47.12100 -0.76600 44.30600
N  47.20300 4.59000 45.93500
C  47.82600 3.39000 45.77500
C  49.33400 3.53100 45.47600
C  49.50100 5.10800 45.63700
C  48.09600 5.61800 45.85300
C  50.39400 2.75800 46.32800
C  50.23400 5.85600 44.45700
C  49.39200 5.96500 43.18800
N  45.41900 6.72800 46.43500
C  46.58200 7.55200 46.32100
C  46.16900 8.94200 46.62400
C  44.80500 8.93000 46.67700
C  44.36000 7.57900 46.57400
C  47.06800 10.17400 46.55100
C  43.71200 9.78900 46.83000
O  43.54200 11.01200 46.86600
C  42.40100 8.80800 46.77600
C  41.71100 8.88800 48.12200
O  41.94800 8.14800 49.08800
O  40.67000 9.79300 48.01200
C  39.83300 10.00000 49.20700
H  41.38400 2.10900 46.25300
H  47.75700 1.20600 45.67900
H  48.70000 7.64100 46.00100
H  40.39800 6.73500 47.21300
H  40.04700 4.30500 45.43000
H  38.85700 3.37200 47.16600
H  38.95800 4.91000 47.86600
H  40.20100 3.62800 48.29100
H  39.98400 8.01300 45.31300
H  38.96400 6.73700 45.11100
H  41.60200 6.03500 43.90800
H  41.27300 7.71500 43.47000
H  42.39800 -0.95300 46.56900
H  42.79200 -1.02600 44.89100
H  41.63900 0.15900 45.60800
H  47.85200 -0.90400 45.10300
H  47.20200 0.11100 43.66300
H  47.24400 -1.61600 43.63600
H  49.46700 3.15300 44.46300
H  49.98600 5.29700 46.59400
H  49.92600 2.37200 47.23300
H  51.25700 3.38200 46.56300
H  50.85700 1.94200 45.77400
H  51.11800 5.34000 44.08200
H  50.55600 6.87300 44.67900
H  49.98800 5.46000 42.42700
H  49.17500 6.92800 42.72800
H  48.41600 5.49700 43.31200
H  46.67500 11.19000 46.58300
H  47.60000 10.30100 45.60800
H  47.76400 10.23600 47.38800
H  41.71500 9.15100 46.00100
H  39.97000 9.06400 49.74700
H  38.84700 10.39900 48.96600
H  40.35700 10.76200 49.78300
Mg -5.57100 25.25200 26.11700
C  -4.31800 26.88100 28.92900
C  -7.11500 23.02500 28.16200
C  -6.31300 23.41500 23.33600
C  -3.58400 27.34100 24.09600
N  -5.68000 24.99100 28.33900
C  -5.19900 25.82800 29.29600
C  -5.97100 25.59300 30.62100
C  -6.68000 24.22100 30.37800
C  -6.54600 24.06100 28.86900
C  -6.02200 23.00600 31.00800
C  -6.84100 26.76300 31.10100
C  -7.08000 26.99900 32.60300
H  -6.39900 26.08900 33.67500
N  -6.70300 23.57100 25.77400
C  -7.30700 22.85600 26.76400
C  -8.11300 21.83200 26.15100
C  -7.89400 21.92300 24.75100
C  -6.94900 23.01900 24.56100
C  -8.96000 20.81200 26.91600
C  -8.44500 21.02400 23.70400
O  -8.25400 21.21000 22.52600
C  -9.28100 19.83500 23.98800
N  -4.82500 25.16600 24.07800
C  -5.39700 24.41500 23.07700
C  -4.70900 24.76700 21.75000
C  -4.17500 26.17300 21.96700
C  -4.15700 26.25800 23.52300
C  -3.56400 23.78600 21.34700
C  -4.95000 27.33800 21.25400
C  -4.24800 28.32800 20.32900
N  -4.19700 26.84100 26.37900
C  -3.56100 27.70800 25.48000
C  -2.82800 28.70100 26.24000
C  -3.07800 28.39300 27.60200
C  -3.96000 27.27400 27.62900
C  -1.91600 29.78100 25.55500
C  -2.81500 28.84800 28.93600
O  -2.06200 29.74400 29.27800
C  -3.66700 27.99200 29.82000
C  -2.86600 27.39300 30.98000
O  -2.31200 26.31800 31.03000
O  -2.98800 28.24700 32.03900
C  -2.29200 27.81700 33.25300
H  -7.56000 22.30000 28.84600
H  -6.67900 22.84400 22.48000
H  -3.10700 28.09900 23.47000
H  -5.21200 25.42200 31.38500
H  -7.73500 24.30200 30.64100
H  -5.28900 23.23400 31.78200
H  -5.46200 22.52400 30.20600
H  -6.76400 22.26100 31.29600
H  -7.84500 26.70300 30.68100
H  -6.34100 27.61700 30.64500
H  -8.14100 26.83200 32.79000
H  -6.71000 28.00600 32.79400
H  -10.03800 20.85500 26.75700
H  -8.76700 20.86200 27.98800
H  -8.60300 19.79600 26.74900
H  -8.64400 19.17400 24.57500
H  -9.46900 19.34400 23.03300
H  -10.18600 20.13000 24.52000
H  -5.39800 24.76900 20.90500
H  -3.13800 26.30300 21.65500
H  -2.61500 24.32200 21.34600
H  -3.67100 23.59100 20.28000
H  -3.49200 22.91200 21.99600
H  -5.42500 28.00200 21.97600
H  -5.67300 26.86100 20.59300
H  -3.19800 28.20700 20.59300
H  -4.50400 29.35000 20.60800
H  -4.46700 28.15100 19.27600
H  -0.87100 29.54400 25.75500
H  -2.13300 30.83600 25.72000
H  -2.04000 29.75900 24.47200
H  -4.42100 28.66400 30.22900
H  -2.95400 27.76700 34.11800
H  -1.48500 28.52800 33.42700
H  -1.85700 26.82300 33.14700

