158

Mg 7.30900 53.94800 40.11600
C  7.09700 50.34800 40.03300
C  10.54900 53.77400 39.43500
C  7.22700 57.22500 39.66900
C  3.79200 54.01000 40.58300
N  8.67500 52.19200 39.68300
C  8.39100 50.85500 39.65300
C  9.70400 50.11300 39.46700
C  10.83200 51.13200 39.55700
C  10.00100 52.43600 39.59000
C  11.76700 51.11400 40.79200
C  9.90200 49.45000 38.15900
C  9.89400 50.15700 36.84200
H  8.41500 50.43100 36.27400
N  8.71500 55.28700 39.56500
C  10.02500 55.02700 39.31900
C  10.69100 56.27600 39.05700
C  9.74000 57.28900 39.14500
C  8.48000 56.61700 39.48300
C  12.04200 56.32100 38.68500
C  10.04700 58.76500 38.91300
O  11.17200 59.20800 38.67300
C  8.90600 59.83500 39.05800
N  5.68800 55.41100 40.11900
C  5.94800 56.72000 40.05000
C  4.77900 57.63300 40.18500
C  3.61700 56.55400 40.41000
C  4.34000 55.21400 40.34300
C  4.93900 58.72700 41.23500
C  2.47600 56.62700 39.35800
C  1.05900 56.97300 39.82400
N  5.81200 52.55100 40.46800
C  4.42200 52.71700 40.62700
C  3.80600 51.39900 40.85100
C  4.88800 50.52100 40.77600
C  6.02700 51.18100 40.39300
C  2.35300 51.09300 41.14900
C  5.25900 49.10900 40.80500
O  4.62100 48.11200 41.11000
C  6.67400 48.93100 40.21200
C  6.50200 48.25400 38.94900
O  5.84200 48.65600 38.03500
O  6.96800 46.96900 39.12200
C  6.73800 46.03300 37.97800
H  11.63000 53.68900 39.30700
H  7.15100 58.31400 39.71100
H  2.70600 53.96700 40.69200
H  9.80400 49.39700 40.28200
H  11.49200 51.00200 38.69800
H  11.49700 50.23100 41.37100
H  11.60300 52.05100 41.32600
H  12.82600 51.13100 40.53500
H  9.10400 48.70800 38.14800
H  10.74900 48.78100 38.30800
H  10.31600 49.59200 36.01000
H  10.50100 51.05100 36.98200
H  12.62000 56.35900 39.60800
H  12.22500 57.14000 37.99000
H  12.26300 55.41500 38.12100
H  8.08400 59.68400 38.35800
H  9.22300 60.82700 38.73700
H  8.68500 59.91200 40.12200
H  4.68800 58.13500 39.22100
H  3.21300 56.57700 41.42200
H  5.96600 58.68300 41.59700
H  4.16100 58.68100 41.99700
H  4.84900 59.60500 40.59600
H  2.32900 55.59900 39.02700
H  2.79500 57.31200 38.57300
H  1.18100 57.77700 40.55000
H  0.65800 56.09500 40.33100
H  0.48800 57.24900 38.93800
H  1.78600 51.99400 41.38000
H  2.35800 50.52700 42.08100
H  2.00400 50.58100 40.25200
H  7.43900 48.49000 40.85000
H  5.72100 46.16200 37.60800
H  6.69700 44.98800 38.28400
H  7.51900 46.06600 37.21800
Mg 16.78000 52.45300 24.64900
C  18.15700 51.39000 27.71200
C  14.13700 53.72900 26.36600
C  15.57800 53.61600 21.75300
C  19.32300 50.86600 23.03300
N  16.16000 52.29400 26.88600
C  16.93700 52.04600 27.92200
C  16.30900 52.48500 29.25700
C  14.89200 52.92600 28.79300
C  15.09100 53.12000 27.19300
C  13.72000 51.92600 28.93900
C  17.13400 53.53700 30.11400
C  17.47900 53.30800 31.71500
H  16.66100 52.28500 32.48900
N  14.97100 53.39300 24.12500
C  14.02300 53.92100 24.95200
C  13.09000 54.64100 24.17500
C  13.42500 54.54000 22.84200
C  14.75300 53.86500 22.84300
C  11.89800 55.42700 24.88000
C  12.74900 55.10400 21.58800
O  13.27000 55.00200 20.47400
C  11.38400 55.79700 21.68300
N  17.30100 52.18400 22.59900
C  16.77100 52.87900 21.57000
C  17.45800 52.66600 20.20900
C  18.60800 51.81500 20.74800
C  18.54400 51.73500 22.24500
C  16.52700 52.00700 19.12600
C  20.05700 52.34500 20.35200
C  20.23500 52.66700 18.88200
N  18.36500 51.23300 25.20800
C  19.34200 50.61900 24.40400
C  20.33000 49.90500 25.23300
C  19.88200 50.32800 26.51400
C  18.70200 51.06000 26.45900
C  21.70300 49.37900 24.93000
C  20.32300 50.26400 27.89200
O  21.20300 49.53200 28.30100
C  19.17500 50.99800 28.71600
C  18.63000 49.86800 29.55600
O  17.73500 49.08100 29.24100
O  19.19900 49.73000 30.79400
C  18.55400 48.88700 31.81100
H  13.36700 54.24400 26.94300
H  15.14700 53.99400 20.82400
H  20.08600 50.44700 22.37300
H  16.40000 51.53800 29.79000
H  14.65900 53.89700 29.22900
H  13.96700 51.20600 29.71900
H  13.51900 51.41900 27.99500
H  12.81700 52.48100 29.19000
H  16.79000 54.56000 29.96500
H  18.08400 53.50700 29.58200
H  17.34000 54.27200 32.20500
H  18.56100 53.19100 31.77100
H  11.80800 56.35400 24.31300
H  12.24300 55.80000 25.84400
H  11.02100 54.78400 24.96200
H  11.12100 56.07100 20.66100
H  11.45800 56.74800 22.21100
H  10.67500 55.09700 22.12400
H  17.77600 53.64700 19.85700
H  18.39900 50.83500 20.31800
H  16.89800 51.05800 18.73800
H  16.56800 52.54700 18.18000
H  15.51000 51.91500 19.50600
H  20.96800 51.81300 20.62800
H  20.12800 53.23400 20.97800
H  21.16500 52.20600 18.54900
H  20.33400 53.72900 18.65400
H  19.45400 52.25900 18.24100
H  22.38400 50.16000 25.26700
H  21.85300 49.34700 23.85000
H  21.85100 48.40700 25.40000
H  19.52200 51.87600 29.26000
H  18.77700 47.83600 31.62900
H  17.48200 48.87600 32.00700
H  19.03300 49.16900 32.74900

