158

Mg 35.59200 48.22900 26.03000
C  35.98400 46.35700 28.93500
C  34.37100 50.80000 27.94900
C  35.39800 50.06200 23.23800
C  36.70200 45.48600 24.18300
N  35.29600 48.53600 28.22900
C  35.53400 47.63800 29.25100
C  35.29000 48.23900 30.58100
C  34.50900 49.53100 30.20300
C  34.71300 49.68300 28.67700
C  32.96800 49.49700 30.55900
C  36.59200 48.48900 31.42500
C  36.47800 48.33800 32.88800
H  36.00700 49.58700 33.62200
N  34.95000 50.15600 25.69200
C  34.48700 51.09600 26.60300
C  34.32200 52.38000 25.99700
C  34.60900 52.13200 24.61700
C  34.95400 50.69300 24.43400
C  33.92400 53.67300 26.72600
C  34.57400 53.17900 23.47300
O  34.90800 53.04000 22.30900
C  34.07700 54.57300 23.81200
N  35.97500 47.78600 23.99900
C  35.86700 48.75600 22.96600
C  36.14100 48.10700 21.58300
C  36.66500 46.70100 21.97200
C  36.43700 46.63100 23.42200
C  34.87200 48.03200 20.64700
C  38.20700 46.64200 21.69500
C  38.52800 46.09100 20.36500
N  36.02300 46.29200 26.44200
C  36.47900 45.28000 25.58600
C  36.76500 44.08400 26.35500
C  36.61200 44.45600 27.68000
C  36.15200 45.78000 27.67100
C  37.28700 42.80200 25.89400
C  36.69800 43.99400 29.01700
O  37.03800 42.88900 29.44200
C  36.35800 45.17700 29.86900
C  35.29700 44.81500 30.97300
O  34.13100 44.62500 30.81100
O  35.97100 44.64200 32.12800
C  35.11600 44.34000 33.30800
H  34.05800 51.68900 28.50100
H  35.41500 50.67800 22.33700
H  36.90000 44.61200 23.56000
H  34.74900 47.44000 31.08700
H  34.85100 50.41500 30.74100
H  32.71100 50.17200 31.37600
H  32.76200 48.54400 31.04500
H  32.25200 49.54000 29.73900
H  36.78300 49.52100 31.13100
H  37.42700 47.94200 30.98800
H  37.51800 48.28200 33.21000
H  35.87700 47.46100 33.12900
H  34.82300 54.28400 26.64000
H  33.81700 53.62300 27.80900
H  33.13100 54.21300 26.20900
H  33.02500 54.51600 24.09200
H  34.15000 55.16200 22.89800
H  34.63900 55.18400 24.51800
H  36.93100 48.63800 21.05200
H  36.14800 45.87700 21.47900
H  34.44100 47.03100 20.65000
H  35.21700 48.36700 19.66900
H  34.03600 48.61700 21.02900
H  38.63100 45.98000 22.45000
H  38.76300 47.55900 21.89100
H  38.66300 45.02100 20.52200
H  39.41300 46.54800 19.92100
H  37.68200 46.33600 19.72300
H  38.32300 42.83500 26.23000
H  37.26500 42.73500 24.80600
H  36.82800 41.92200 26.34300
H  37.33500 45.40800 30.29200
H  34.07600 44.65400 33.22500
H  35.55200 44.89400 34.13900
H  35.12800 43.26100 33.46300
Mg 27.69200 50.32500 25.35100
C  25.72700 51.70500 27.74800
C  29.80300 49.26400 27.74400
C  29.69200 49.23700 22.77500
C  25.71500 51.86200 22.87400
N  27.77700 50.62800 27.43900
C  26.80500 51.09600 28.28600
C  27.12400 50.76800 29.76700
C  28.66500 50.28900 29.75700
C  28.78300 50.08300 28.19900
C  29.66100 51.31100 30.37700
C  26.09600 49.98600 30.58100
C  25.47900 50.62000 31.81100
H  26.41600 50.92800 33.05300
N  29.50200 49.34800 25.28300
C  30.19100 48.99400 26.41700
C  31.25400 48.07100 26.00900
C  31.12100 47.99800 24.55600
C  30.12200 48.93900 24.12100
C  32.36100 47.60300 26.98100
C  31.87800 47.10400 23.57500
O  31.78000 47.15900 22.33800
C  32.62700 45.93500 24.13400
N  27.68300 50.52000 23.14500
C  28.57100 49.95000 22.28900
C  28.35300 50.26300 20.76200
C  26.89400 50.80900 20.85700
C  26.79700 51.16300 22.33400
C  29.35900 51.37600 20.33000
C  25.74900 49.90100 20.32900
C  25.69500 48.40500 20.71000
N  26.06700 51.58300 25.31300
C  25.38100 52.13700 24.23100
C  24.32300 52.93100 24.71800
C  24.37500 52.76400 26.09200
C  25.46000 51.96300 26.41600
C  23.27900 53.62500 23.88500
C  23.75300 53.14500 27.41900
O  22.80800 53.90900 27.65200
C  24.61500 52.38400 28.50400
C  24.98900 53.46800 29.44400
O  25.89400 54.24400 29.40300
O  24.07000 53.47400 30.50900
C  24.26900 54.52800 31.56900
H  30.47000 48.89400 28.52500
H  30.38600 48.83600 22.03300
H  25.00200 52.18100 22.11100
H  27.25500 51.70300 30.31200
H  28.74700 49.30900 30.22500
H  30.49200 51.50000 29.69700
H  30.18500 50.71200 31.12200
H  29.28500 52.27500 30.71900
H  26.66700 49.11600 30.90600
H  25.22800 49.67500 29.99900
H  24.77100 49.84700 32.11000
H  24.95800 51.53200 31.52000
H  32.37300 48.00500 27.99400
H  33.34500 47.82500 26.56800
H  32.32100 46.51600 27.04200
H  32.94000 45.27300 23.32700
H  31.98500 45.44100 24.86300
H  33.51700 46.26600 24.67100
H  28.44800 49.33200 20.20300
H  26.93700 51.83100 20.48100
H  28.90100 52.30000 20.68400
H  29.56000 51.45000 19.26100
H  30.28600 51.23300 20.88500
H  25.53300 50.04100 19.27000
H  24.88200 50.29700 20.85700
H  25.23700 47.78800 19.93700
H  25.00900 48.26700 21.54500
H  26.64500 47.96200 21.01000
H  22.57300 52.90000 23.48000
H  23.58800 54.23600 23.03800
H  22.64700 54.27500 24.49100
H  24.02500 51.61700 29.00400
H  25.29300 54.29400 31.86300
H  23.41000 54.38000 32.22200
H  24.29100 55.58500 31.30300

