158

Mg 16.89800 -2.41200 28.18200
C  16.01800 -0.32100 30.86400
C  18.69900 -4.29200 30.32500
C  18.03300 -3.99100 25.43700
C  15.29000 -0.00800 26.03700
N  17.27500 -2.20600 30.32700
C  16.78200 -1.37400 31.29600
C  17.37100 -1.67900 32.66800
C  18.39200 -2.84200 32.32600
C  18.04700 -3.17800 30.89400
C  19.91400 -2.46700 32.46800
C  16.32300 -1.99200 33.72100
C  16.58000 -1.51400 35.16600
H  18.01000 -1.63900 35.71300
N  18.06000 -4.08100 27.92300
C  18.70900 -4.70700 28.97100
C  19.39900 -5.86300 28.40200
C  19.20500 -5.79400 26.92400
C  18.38500 -4.58400 26.69700
C  20.10200 -6.79400 29.35900
C  19.75800 -6.67400 25.86400
O  19.54500 -6.63300 24.63800
C  20.71700 -7.66000 26.24600
N  16.67700 -2.06600 26.01500
C  17.35100 -2.79700 25.07400
C  17.06500 -2.27600 23.66600
C  16.20800 -1.07700 23.92100
C  16.06400 -1.02800 25.42700
C  18.33100 -1.90500 22.80100
C  14.86100 -1.05600 23.05400
C  13.45800 -1.47600 23.49900
N  15.84400 -0.62500 28.29100
C  15.16000 0.18100 27.42200
C  14.42900 1.18200 28.11700
C  14.79200 1.06600 29.45100
C  15.63500 -0.01700 29.53600
C  13.51100 2.17400 27.50000
C  14.62300 1.71400 30.72400
O  13.99600 2.70500 30.99400
C  15.40700 0.78100 31.72500
C  16.48700 1.61600 32.38900
O  17.66200 1.72100 32.11500
O  15.87900 2.46300 33.26100
C  16.75400 3.51300 33.82400
H  19.17300 -4.90100 31.09700
H  18.51700 -4.50000 24.60100
H  14.80700 0.74100 25.40500
H  17.86600 -0.77600 33.02600
H  18.20000 -3.67100 33.00700
H  20.03200 -1.42600 32.76900
H  20.31500 -2.56300 31.45900
H  20.44100 -3.15300 33.13200
H  16.10300 -3.05700 33.64500
H  15.39200 -1.51900 33.41100
H  15.90100 -2.21500 35.65100
H  16.09700 -0.54700 35.30700
H  19.45000 -7.27700 30.08700
H  20.91900 -6.25900 29.84400
H  20.49100 -7.65600 28.81700
H  21.10000 -8.13300 25.34200
H  20.14700 -8.39200 26.81800
H  21.59800 -7.33600 26.79900
H  16.49200 -2.98300 23.06700
H  16.72600 -0.12000 23.85800
H  18.26800 -2.67800 22.03500
H  19.21500 -2.15300 23.38800
H  18.36000 -0.88400 22.42000
H  15.06900 -1.58000 22.12100
H  14.78600 -0.00800 22.76300
H  12.84600 -0.58400 23.63300
H  13.58100 -1.98200 24.45600
H  13.03100 -2.14900 22.75500
H  12.82400 1.62800 26.85500
H  14.10400 2.90500 26.95000
H  13.04100 2.80400 28.25600
H  14.75700 0.28900 32.45000
H  17.67000 3.13600 34.27800
H  16.30900 4.09300 34.63200
H  17.18000 4.22400 33.11600
Mg 29.83800 58.94500 38.80900
C  26.86400 57.36500 37.68200
C  31.56700 56.19900 37.80000
C  32.63100 60.81300 38.61900
C  27.94300 61.90200 39.13200
N  29.29300 57.02700 37.96300
C  28.01500 56.59500 37.57700
C  28.05800 55.18200 37.10800
C  29.40900 54.71800 37.66100
C  30.18200 56.05900 37.81500
C  29.24700 53.89500 38.95600
C  27.98700 55.13900 35.50200
C  26.76000 54.59400 34.74100
H  26.09300 55.64000 33.75800
N  31.75800 58.54400 38.37800
C  32.32200 57.36200 37.91700
C  33.72500 57.50800 37.68500
C  34.04800 58.78300 38.20100
C  32.79100 59.42800 38.46700
C  34.67100 56.43200 37.24400
C  35.48100 59.24900 38.46100
O  36.43800 58.52000 38.11800
C  35.87500 60.52300 39.15100
N  30.18200 61.12300 38.80700
C  31.47800 61.57300 38.87800
C  31.46700 63.12000 39.08500
C  29.95200 63.44600 39.41500
C  29.30900 62.05500 39.10900
C  32.48200 63.79600 39.99500
C  29.26200 64.66500 38.79400
C  28.14000 65.35100 39.59500
N  27.79200 59.46300 38.73000
C  27.22600 60.67200 38.91000
C  25.73000 60.50900 38.76600
C  25.49000 59.24300 38.23900
C  26.79200 58.65000 38.23100
C  24.69600 61.61600 38.99600
C  24.54600 58.36200 37.77800
O  23.35600 58.51400 37.60200
C  25.36300 57.05800 37.36900
C  24.83200 55.94500 38.23300
O  24.93500 55.80000 39.43400
O  24.12900 55.09800 37.42300
C  23.57100 53.85700 37.95000
H  32.09300 55.31200 37.44000
H  33.47400 61.50200 38.53500
H  27.29400 62.76700 39.28200
H  27.25600 54.52900 37.45300
H  29.87000 54.03900 36.94500
H  29.62400 54.55100 39.74100
H  29.76700 52.94000 39.02000
H  28.21800 53.65600 39.22500
H  28.86600 54.63700 35.09900
H  28.14900 56.15300 35.13600
H  26.05100 54.11400 35.41600
H  27.08100 53.68800 34.22800
H  35.18500 56.06600 38.13300
H  35.44100 56.70900 36.52400
H  34.28900 55.54300 36.74300
H  36.81200 60.56000 39.70700
H  35.13200 60.70000 39.92800
H  35.95000 61.29800 38.38800
H  31.64900 63.57100 38.10900
H  29.94100 63.57800 40.49700
H  31.98200 64.02000 40.93600
H  32.77500 64.72800 39.51000
H  33.28200 63.07800 40.17700
H  28.71000 64.37200 37.90100
H  29.98500 65.42100 38.48700
H  28.13200 64.97100 40.61700
H  27.17300 65.13400 39.14200
H  28.31400 66.42700 39.63900
H  25.04900 62.29100 39.77600
H  23.79600 61.17500 39.42400
H  24.39200 62.19700 38.12500
H  25.21800 56.85800 36.30700
H  22.52100 54.00200 38.20300
H  24.06500 53.36200 38.78700
H  23.76900 53.15000 37.14500

