158

Mg 17.02200 51.32000 26.20400
C  19.12200 49.96300 28.82100
C  14.86100 52.23800 28.64500
C  15.03100 52.59200 23.77400
C  19.16800 50.21300 23.84300
N  17.14200 51.17600 28.57200
C  17.96600 50.56300 29.40900
C  17.66600 50.81800 30.84500
C  16.12000 51.13100 30.66500
C  15.99400 51.53800 29.23100
C  15.24600 49.92000 30.92100
C  18.45200 51.94600 31.57900
C  18.59700 51.71300 33.11200
H  17.70500 50.72800 33.87800
N  15.20400 52.25400 26.19700
C  14.49400 52.60700 27.30600
C  13.34300 53.36700 26.86200
C  13.29500 53.27500 25.44600
C  14.55600 52.73200 25.09900
C  12.44800 54.09800 27.86000
C  12.17900 53.63000 24.48400
O  12.23100 53.40600 23.31700
C  10.89400 54.32900 25.14100
N  17.10400 51.34800 24.07500
C  16.24000 52.01300 23.34800
C  16.64600 52.13900 21.81700
C  18.00400 51.28800 21.83800
C  18.12900 50.96400 23.28800
C  15.66300 51.62500 20.79200
C  19.17000 52.19900 21.29300
C  20.34300 51.57500 20.55100
N  18.72100 50.25600 26.28700
C  19.50400 49.82100 25.22700
C  20.70800 49.12800 25.69600
C  20.55000 49.11500 27.09600
C  19.34200 49.84500 27.40500
C  21.84100 48.64900 24.86900
C  21.14000 48.68300 28.41000
O  22.16400 48.06700 28.62000
C  20.26500 49.22700 29.52100
C  19.70700 48.07800 30.25800
O  19.37000 46.96800 29.81700
O  19.69400 48.44500 31.60000
C  19.69900 47.36100 32.57700
H  14.18800 52.53300 29.45300
H  14.51500 53.10900 22.96300
H  19.91000 49.86200 23.12200
H  17.71200 49.87100 31.38300
H  15.83900 51.94400 31.33400
H  15.86900 49.15300 31.38100
H  14.72300 49.58300 30.02700
H  14.55600 50.10100 31.74500
H  17.95700 52.87800 31.30900
H  19.45400 51.89800 31.15400
H  18.47400 52.68100 33.59800
H  19.58900 51.35100 33.38100
H  11.46200 53.63400 27.84600
H  12.27000 55.11900 27.52300
H  12.84200 54.05900 28.87600
H  11.01700 55.29300 25.63400
H  10.44500 53.61500 25.83100
H  10.20500 54.52800 24.32000
H  16.75300 53.22300 21.79500
H  18.05300 50.35500 21.27700
H  15.20800 52.52700 20.38300
H  14.95300 50.89600 21.18200
H  16.15800 51.15400 19.94200
H  19.62500 52.71600 22.13800
H  18.73700 53.02000 20.72100
H  20.39000 51.83100 19.49300
H  20.30700 50.48600 20.53900
H  21.30100 51.84300 20.99700
H  22.13500 49.46300 24.20600
H  21.63800 47.75100 24.28500
H  22.72900 48.39800 25.44900
H  20.89500 49.81300 30.19100
H  20.24200 46.50600 32.17400
H  18.73200 47.00700 32.93400
H  20.30400 47.66300 33.43100
Mg -2.76300 34.60000 27.03700
C  -4.39300 32.63600 29.35600
C  -1.48200 36.54800 29.66700
C  -1.38700 36.66500 24.74500
C  -4.60900 32.99700 24.56300
N  -3.05300 34.70800 29.29000
C  -3.65800 33.68500 29.97400
C  -3.38400 33.91800 31.51400
C  -2.57000 35.23300 31.62400
C  -2.35800 35.49300 30.13000
C  -3.22900 36.31500 32.52400
C  -2.65500 32.68200 32.07700
C  -3.39500 31.84000 33.15600
H  -2.85300 31.90800 34.56800
N  -1.45500 36.27700 27.17000
C  -1.12200 36.95600 28.29800
C  -0.09600 37.95100 27.99500
C  0.02100 38.00100 26.57300
C  -0.98800 37.00700 26.06300
C  0.63600 38.75800 28.96300
C  0.79400 38.89400 25.58800
O  0.81200 38.66500 24.41900
C  1.76400 39.95300 26.13900
N  -3.18100 34.92500 25.00500
C  -2.29900 35.67300 24.26600
C  -2.67900 35.65900 22.85800
C  -3.58700 34.36700 22.74900
C  -3.87700 34.11100 24.21900
C  -3.40400 36.91300 22.26400
C  -2.81100 33.25400 21.98500
C  -2.77600 33.45500 20.46000
N  -4.17600 33.08900 26.91900
C  -4.76600 32.46000 25.83300
C  -5.45400 31.19800 26.27300
C  -5.42800 31.29100 27.67100
C  -4.59600 32.45800 27.99700
C  -6.06300 30.25000 25.35200
C  -5.87100 30.72100 28.87200
O  -6.56300 29.73200 29.10700
C  -5.20100 31.47300 30.00300
C  -6.25800 32.07500 30.82600
O  -6.85200 33.09900 30.67700
O  -6.61700 31.16000 31.82500
C  -7.67700 31.57900 32.74500
H  -0.94100 37.06300 30.46400
H  -0.95800 37.23400 23.91700
H  -4.92300 32.35200 23.73900
H  -4.31100 33.93200 32.08600
H  -1.57700 35.06000 32.03800
H  -2.58500 36.73800 33.29500
H  -4.12900 35.98300 33.04300
H  -3.44600 37.11600 31.81800
H  -1.80300 33.15500 32.56600
H  -2.28400 32.11900 31.22100
H  -3.37400 30.80500 32.81400
H  -4.41200 32.20000 33.31100
H  0.30500 38.52700 29.97600
H  0.44300 39.80900 28.75100
H  1.69900 38.53400 28.86400
H  2.53100 39.50100 26.76800
H  1.13300 40.60200 26.74600
H  2.27200 40.54800 25.38000
H  -1.74900 35.46100 22.32600
H  -4.45000 34.60900 22.12900
H  -4.13900 37.24700 22.99600
H  -3.99000 36.57600 21.40900
H  -2.66800 37.58500 21.82300
H  -3.14600 32.24400 22.22100
H  -1.73800 33.24400 22.18000
H  -3.28700 34.34000 20.08000
H  -3.30000 32.62700 19.98300
H  -1.72100 33.37700 20.19800
H  -6.21200 29.31200 25.88600
H  -5.33300 30.13100 24.55200
H  -7.01200 30.62800 24.97100
H  -4.67400 30.65000 30.48600
H  -8.18500 32.47400 32.38600
H  -7.27000 31.77900 33.73600
H  -8.45900 30.82600 32.84900

