158

Mg 50.22200 46.62300 43.11800
C  46.89200 47.13300 42.47800
C  49.96000 43.48700 41.90600
C  53.61200 46.41100 43.17700
C  50.50100 50.11900 43.69600
N  48.61100 45.49300 42.17000
C  47.34500 45.86800 42.09300
C  46.45400 44.69400 41.67100
C  47.38500 43.43300 41.76200
C  48.76500 44.14100 41.92800
C  47.03800 42.48600 42.96400
C  45.82300 44.83500 40.28400
C  46.68100 45.58300 39.31300
H  46.91600 44.92900 37.96500
N  51.60200 45.14500 42.61400
C  51.24500 43.86100 42.17100
C  52.51200 43.08700 42.03700
C  53.59800 43.96800 42.36100
C  53.00500 45.29400 42.66400
C  52.40100 41.66700 41.62000
C  55.13600 43.52800 42.31600
O  55.38400 42.36900 42.14100
C  56.30800 44.53500 42.38000
N  51.83300 48.19300 43.17800
C  53.12000 47.70800 43.42100
C  54.02600 48.86500 43.85700
C  53.06900 50.10600 43.87000
C  51.73400 49.48500 43.48100
C  54.71500 48.60400 45.21200
C  53.49100 51.30700 42.95300
C  53.27600 52.69600 43.61900
N  49.01600 48.25800 43.15500
C  49.21000 49.58100 43.52900
C  47.99800 50.30300 43.60100
C  47.00900 49.34800 43.18400
C  47.65200 48.16600 42.96100
C  47.79100 51.78800 43.90500
C  45.63200 49.13300 42.89700
O  44.67300 49.93700 42.95100
C  45.53100 47.67800 42.30800
C  44.43500 46.96000 42.99500
O  44.35000 46.72300 44.19800
O  43.49600 46.58300 42.06000
C  42.39500 45.83000 42.64600
H  49.92400 42.42300 41.66200
H  54.69500 46.44500 43.31400
H  50.70600 51.12700 44.06300
H  45.67800 44.54500 42.42200
H  47.36700 42.89100 40.81700
H  47.66600 42.68700 43.83200
H  47.18000 41.43200 42.72400
H  45.99200 42.62800 43.23600
H  44.79200 45.18800 40.26900
H  45.71000 43.82600 39.88800
H  47.72400 45.72200 39.59900
H  46.26200 46.57400 39.14500
H  51.73900 41.56100 40.76000
H  51.86600 41.12800 42.40200
H  53.31800 41.09500 41.48100
H  56.42900 44.66200 43.45500
H  55.96700 45.39600 41.80500
H  57.18700 44.26800 41.79300
H  54.71200 48.95100 43.01400
H  53.00500 50.54100 44.86700
H  54.14400 48.01000 45.92600
H  54.75300 49.60900 45.63300
H  55.74400 48.26600 45.09300
H  52.85800 51.11900 42.08600
H  54.51500 51.32700 42.58200
H  54.26000 52.95600 44.00900
H  52.56800 52.68400 44.44800
H  53.07700 53.42800 42.83600
H  46.88900 51.98900 43.32600
H  48.60200 52.44800 43.59800
H  47.43900 51.96900 44.92000
H  45.30900 47.70400 41.24100
H  42.48900 44.78000 42.37000
H  41.44000 46.11800 42.20500
H  42.33300 45.90000 43.73200
Mg -5.93800 24.69900 26.33300
C  -4.56200 26.34200 29.16600
C  -7.93300 22.92100 28.53100
C  -6.62400 22.65500 23.84600
C  -3.66200 26.37900 24.40100
N  -6.06200 24.58300 28.67100
C  -5.45400 25.35800 29.55400
C  -6.01800 25.02500 31.00100
C  -6.95600 23.77000 30.77300
C  -6.97400 23.71500 29.19600
C  -6.59300 22.47200 31.47000
C  -6.68900 26.37700 31.59600
C  -6.74600 26.41900 33.17300
H  -6.40200 25.12800 33.99700
N  -7.19900 23.08800 26.21300
C  -8.06800 22.56000 27.12200
C  -8.89000 21.60300 26.48100
C  -8.41400 21.41900 25.13400
C  -7.36500 22.42500 25.00300
C  -9.96300 20.81200 27.26700
C  -8.80700 20.49200 24.10000
O  -8.37200 20.42200 22.93000
C  -9.96000 19.57800 24.36900
N  -5.28200 24.52100 24.28900
C  -5.71500 23.63100 23.45300
C  -5.11600 23.82600 22.04200
C  -4.03100 24.97800 22.33400
C  -4.34900 25.33200 23.79600
C  -4.57500 22.67600 21.29000
C  -3.97900 26.14400 21.36000
C  -2.59400 26.57100 20.83000
N  -4.48600 26.11700 26.60300
C  -3.70900 26.78900 25.73800
C  -2.80300 27.64900 26.47300
C  -3.11300 27.55100 27.81400
C  -4.19800 26.60800 27.79700
C  -1.74900 28.46700 25.77100
C  -2.81600 28.00500 29.12500
O  -2.00600 28.82000 29.50600
C  -3.73100 27.20200 30.14200
C  -2.87400 26.34200 31.02500
O  -2.35000 25.30500 30.71800
O  -2.66800 27.02300 32.21400
C  -1.99500 26.15100 33.16000
H  -8.48300 22.24100 29.18600
H  -6.80900 22.00600 22.98800
H  -2.97400 26.94600 23.77000
H  -5.16300 24.70900 31.59700
H  -7.98100 24.00700 31.06000
H  -5.56700 22.46300 31.83800
H  -6.71600 21.78300 30.63500
H  -7.28200 22.30400 32.29800
H  -7.71300 26.52800 31.25500
H  -6.10800 27.22600 31.23400
H  -7.60600 26.93400 33.60000
H  -5.86400 27.02600 33.37600
H  -10.94700 21.10300 26.89900
H  -10.13200 21.15600 28.28800
H  -9.98100 19.73100 27.12900
H  -9.70100 18.81600 25.10400
H  -10.05400 19.00600 23.44500
H  -10.93000 20.06400 24.47300
H  -5.94700 24.09400 21.39000
H  -3.05600 24.49300 22.37800
H  -3.54200 22.92600 21.05100
H  -5.26500 22.53000 20.45800
H  -4.53300 21.77900 21.90700
H  -4.52500 26.98000 21.79700
H  -4.47300 25.98300 20.40200
H  -2.72100 26.99900 19.83600
H  -1.97500 25.67500 20.89000
H  -2.13500 27.24000 21.55800
H  -1.35100 28.00500 24.86800
H  -0.95100 28.57300 26.50700
H  -2.10200 29.46500 25.50800
H  -4.25500 27.95900 30.72600
H  -2.39500 26.39200 34.14500
H  -0.90900 26.23700 33.12000
H  -2.31300 25.11200 33.07200

