158

Mg 9.39900 3.93000 28.08700
C  10.87700 2.31100 30.94800
C  7.70200 5.93500 30.17200
C  7.63900 4.92200 25.44000
C  10.77300 1.37700 26.14400
N  9.48400 4.14400 30.27600
C  10.10400 3.42000 31.24100
C  9.85700 3.94100 32.61400
C  8.64100 4.90500 32.40000
C  8.60300 5.04600 30.83400
C  7.27900 4.25200 32.92400
C  11.13700 4.50800 33.29800
C  11.37200 3.83500 34.67000
H  10.18000 3.74600 35.73300
N  8.09900 5.33600 27.86100
C  7.47100 6.04400 28.81000
C  6.66600 7.12900 28.13400
C  6.71700 6.90900 26.76300
C  7.49100 5.68300 26.63800
C  5.97500 8.25700 28.88000
C  6.14800 7.66300 25.65600
O  6.43200 7.42400 24.49900
C  5.25800 8.86100 25.91800
N  8.96600 3.02100 26.12900
C  8.31000 3.74600 25.20000
C  8.35200 3.10600 23.82900
C  9.50800 2.08500 23.98700
C  9.82700 2.21200 25.55100
C  6.98700 2.59500 23.40700
C  10.81400 2.53200 23.24900
C  11.58300 1.34000 22.52500
N  10.62800 2.21000 28.35800
C  11.11100 1.29800 27.50000
C  11.97400 0.40100 28.15800
C  11.89000 0.77400 29.53000
C  11.06500 1.87600 29.61900
C  12.39100 -0.86500 27.63700
C  12.37200 0.48800 30.80400
O  13.16400 -0.41000 31.14100
C  11.77400 1.46600 31.78700
C  10.91900 0.71400 32.75600
O  9.72800 0.69500 32.73100
O  11.67600 0.10500 33.73400
C  10.92500 -0.30900 34.97600
H  7.18100 6.63100 30.83400
H  7.25900 5.31800 24.49600
H  11.23500 0.61400 25.51500
H  9.51600 3.11200 33.23500
H  8.82100 5.88600 32.84000
H  7.32600 3.41300 33.61800
H  6.77600 3.88600 32.02800
H  6.80600 5.08500 33.44200
H  11.02400 5.57500 33.49400
H  11.95700 4.45900 32.58200
H  12.16700 4.35100 35.20700
H  11.63200 2.80500 34.42500
H  6.55300 9.15100 28.64400
H  5.91900 8.13300 29.96100
H  4.95200 8.42500 28.54300
H  5.89700 9.55100 26.47000
H  4.34900 8.54300 26.42900
H  5.03300 9.29200 24.94300
H  8.53700 3.89200 23.09700
H  9.16000 1.10200 23.67000
H  6.57000 2.91900 22.45400
H  6.21500 2.78100 24.15300
H  7.08500 1.52300 23.23600
H  11.40100 3.13400 23.94300
H  10.49600 3.17100 22.42600
H  11.44700 1.29400 21.44400
H  11.32000 0.36900 22.94400
H  12.65000 1.49800 22.68300
H  13.25800 -0.76700 26.98300
H  11.52400 -1.28100 27.12300
H  12.72800 -1.57900 28.38800
H  12.57600 1.99100 32.30700
H  10.23000 -1.13900 34.85400
H  10.34800 0.45400 35.49800
H  11.72400 -0.60300 35.65700
Mg 35.15700 49.18600 25.10500
C  35.21400 47.51400 28.23300
C  33.78700 52.00400 26.73900
C  34.43400 50.49300 22.16700
C  36.04200 46.13500 23.63400
N  34.48500 49.64600 27.24500
C  34.73600 48.86800 28.36800
C  34.29300 49.60400 29.65700
C  33.77400 51.02200 29.12000
C  34.08500 50.94100 27.59400
C  32.28800 51.41700 29.43800
C  35.48500 49.67000 30.62300
C  35.19000 49.15100 32.07800
H  33.68800 48.96200 32.55300
N  34.29200 51.04700 24.49600
C  33.84200 52.06600 25.31600
C  33.30600 53.20400 24.45600
C  33.40800 52.70500 23.11700
C  34.07600 51.39200 23.16700
C  32.62300 54.47700 25.08000
C  33.01100 53.36400 21.84300
O  33.06300 52.81600 20.69300
C  32.33200 54.76200 21.80200
N  35.38200 48.45100 23.15600
C  35.05400 49.21300 22.14100
C  35.38700 48.48800 20.77900
C  35.90700 47.08500 21.28400
C  35.76600 47.20100 22.77100
C  34.20700 48.40700 19.78700
C  37.33000 46.84000 20.79500
C  38.33900 47.85600 21.39900
N  35.64700 47.22200 25.74200
C  36.09700 46.09700 25.02000
C  36.40700 45.00300 25.99600
C  36.11900 45.56400 27.23300
C  35.65800 46.88400 27.03000
C  36.78300 43.54600 25.76200
C  36.05500 45.19300 28.59300
O  36.31900 44.17000 29.24200
C  35.44800 46.52600 29.31600
C  34.22300 45.95600 30.05100
O  33.07400 45.96300 29.65400
O  34.53800 45.46500 31.28000
C  33.43500 44.81100 32.10700
H  33.49300 52.93300 27.23200
H  34.22300 50.94000 21.19300
H  36.38700 45.21600 23.15700
H  33.51700 48.91600 29.99100
H  34.44700 51.73700 29.59500
H  31.57000 50.63500 29.68500
H  31.92400 51.90300 28.53200
H  32.39500 52.14000 30.24600
H  36.03900 50.59700 30.76600
H  36.26200 49.01400 30.23100
H  35.79100 49.76700 32.74600
H  35.56800 48.13500 32.18900
H  32.52600 55.41500 24.53200
H  33.04200 54.71500 26.05800
H  31.62600 54.18100 25.40600
H  32.45000 55.03100 20.75200
H  32.91600 55.50400 22.34700
H  31.32300 54.56000 22.16000
H  36.16700 49.06300 20.27900
H  35.26200 46.25600 20.99300
H  34.62700 48.55400 18.79200
H  33.31600 49.02400 19.90600
H  33.75700 47.41500 19.78300
H  37.31500 47.09800 19.73600
H  37.73300 45.83000 20.87000
H  38.02600 48.52300 22.20200
H  38.62900 48.44100 20.52700
H  39.23900 47.34400 21.73900
H  37.20200 43.60100 24.75700
H  35.91800 42.88300 25.76000
H  37.60000 43.34500 26.45500
H  36.21500 46.93400 29.97400
H  33.24000 43.75100 31.94400
H  32.42500 45.19600 31.96400
H  33.66300 44.91100 33.16800

