158

Mg 0.67200 7.55400 25.62800
C  1.31300 9.52600 28.43600
C  0.51500 4.78200 27.52000
C  0.08400 5.73000 22.85300
C  1.02600 10.40200 23.69600
N  0.85400 7.23600 27.76000
C  1.06100 8.13600 28.77100
C  1.02500 7.44000 30.13800
C  0.89700 5.92900 29.72900
C  0.70600 5.97900 28.22200
C  2.11400 5.06100 30.19700
C  -0.05300 7.94000 31.08600
C  0.25300 7.94700 32.56100
H  1.35600 7.18900 33.33300
N  0.42800 5.45300 25.22300
C  0.44000 4.46800 26.14900
C  0.23900 3.16800 25.49300
C  0.24500 3.50000 24.06000
C  0.25500 4.91800 24.00800
C  0.12500 1.82400 26.21100
C  0.28900 2.61100 22.88000
O  0.30300 3.01400 21.72900
C  0.33900 1.18400 23.15300
N  0.65400 7.98800 23.59800
C  0.22400 7.10500 22.67900
C  -0.08000 7.75100 21.35500
C  0.04900 9.25600 21.58000
C  0.56300 9.24900 23.10000
C  0.71700 7.09300 20.17600
C  -1.32900 10.07500 21.42900
C  -1.14200 11.56100 20.93200
N  1.16900 9.56800 25.93700
C  1.33500 10.64800 25.02400
C  1.57500 11.81100 25.74400
C  1.69800 11.39600 27.07300
C  1.45500 10.03400 27.13400
C  1.61400 13.22900 25.24700
C  1.81300 11.92300 28.44000
O  2.00300 13.02800 28.85500
C  1.51000 10.72300 29.35500
C  2.62400 10.60900 30.32900
O  3.79200 10.39400 29.95200
O  2.25500 10.89200 31.63000
C  3.30700 10.90000 32.66700
H  0.42400 3.92500 28.19100
H  -0.22500 5.15100 21.98000
H  1.02000 11.23300 22.98700
H  1.98800 7.59600 30.62300
H  0.02100 5.49400 30.21100
H  2.66700 5.65400 30.92600
H  2.81400 4.89300 29.37900
H  1.77000 4.11900 30.62300
H  -0.84800 7.21300 30.91900
H  -0.35000 8.96200 30.85000
H  -0.67700 7.72800 33.08500
H  0.50900 8.97300 32.82500
H  1.11900 1.42700 26.00100
H  -0.63700 1.17800 25.77500
H  -0.06500 1.86500 27.28300
H  0.98000 0.90600 23.99000
H  0.74400 0.79300 22.21900
H  -0.67800 0.79000 23.14100
H  -1.15400 7.58700 21.26700
H  0.78700 9.60400 20.85700
H  1.22400 6.19400 20.52800
H  1.23900 7.79100 19.52200
H  -0.04600 6.74500 19.48000
H  -1.99000 9.93400 22.28500
H  -1.78500 9.54300 20.59300
H  -1.48600 11.69500 19.90600
H  -0.11400 11.87100 21.12200
H  -1.75600 12.22400 21.54100
H  1.49300 13.50800 24.20100
H  2.58100 13.61300 25.57200
H  0.88000 13.87500 25.73000
H  0.57200 10.97900 29.84800
H  4.20100 11.23700 32.14200
H  3.46500 9.92200 33.12000
H  3.15300 11.70100 33.39000
Mg -6.68100 25.56800 26.50100
C  -5.06100 26.94700 29.22800
C  -8.37000 23.33700 28.59800
C  -8.16600 24.12000 23.74600
C  -4.81100 27.64700 24.42600
N  -6.74400 25.27800 28.67100
C  -6.06000 26.03800 29.59300
C  -6.66600 25.76300 31.01300
C  -7.53000 24.48100 30.82600
C  -7.50000 24.23800 29.27000
C  -6.99600 23.17700 31.55600
C  -7.50600 26.98900 31.44200
C  -7.45100 27.35700 32.93300
H  -7.04900 26.24500 33.89000
N  -8.06900 23.98500 26.19900
C  -8.62900 23.20100 27.20000
C  -9.48500 22.16400 26.62700
C  -9.42000 22.37300 25.25500
C  -8.52000 23.51700 24.98800
C  -10.33400 21.16300 27.42600
C  -10.26700 21.70800 24.12100
O  -10.11300 22.07800 22.93100
C  -11.21400 20.61200 24.46900
N  -6.46800 25.81100 24.41900
C  -7.19000 25.09700 23.47400
C  -6.82000 25.53200 22.06000
C  -5.86900 26.75000 22.23100
C  -5.70500 26.78300 23.78600
C  -6.17400 24.29800 21.30000
C  -6.28600 28.11900 21.58500
C  -5.40300 28.51200 20.41500
N  -5.19200 26.98100 26.66000
C  -4.51100 27.72000 25.76400
C  -3.55200 28.53800 26.41200
C  -3.75100 28.21700 27.78400
C  -4.72600 27.22800 27.87900
C  -2.59400 29.52700 25.71500
C  -3.28900 28.54600 29.17500
O  -2.35300 29.30700 29.55000
C  -4.18800 27.72100 30.15000
C  -3.30000 26.97200 31.07400
O  -2.33700 26.31400 30.75000
O  -3.78200 27.15900 32.42000
C  -2.90800 26.52200 33.52400
H  -8.88300 22.71400 29.33400
H  -8.62600 23.68700 22.85500
H  -4.08300 28.18600 23.81600
H  -5.80600 25.55700 31.65000
H  -8.51300 24.73800 31.22100
H  -6.32200 23.49200 32.35300
H  -6.54900 22.44400 30.88500
H  -7.79000 22.62300 32.05700
H  -8.52500 26.86400 31.07500
H  -7.17600 27.91700 30.97500
H  -8.49900 27.63100 33.05200
H  -6.77400 28.20700 33.02000
H  -10.15500 20.14200 27.09100
H  -11.35800 21.42600 27.16000
H  -10.13800 21.17200 28.49800
H  -11.62600 20.16300 23.56600
H  -11.98200 21.04800 25.10800
H  -10.73000 19.82300 25.04500
H  -7.72100 25.82600 21.52300
H  -4.88600 26.44000 21.87900
H  -5.30900 24.68300 20.76000
H  -6.87300 23.83500 20.60500
H  -5.80200 23.59800 22.04800
H  -6.12100 28.88100 22.34700
H  -7.31900 28.10000 21.23800
H  -4.91300 27.66400 19.93800
H  -4.56400 29.04700 20.85900
H  -6.00400 29.14600 19.76200
H  -1.64300 29.02300 25.54700
H  -2.20100 30.20400 26.47300
H  -3.14500 30.04900 24.93300
H  -4.82200 28.43000 30.68100
H  -3.46000 25.97400 34.28700
H  -2.10700 27.16000 33.89800
H  -2.34600 25.68100 33.11900

