158

Mg 50.06900 46.42900 43.80800
C  46.99800 47.42500 42.41400
C  49.61600 43.43800 41.92200
C  53.37000 45.78400 44.00000
C  50.45900 49.67800 44.83000
N  48.41100 45.50400 42.45800
C  47.30500 46.12200 42.01500
C  46.47700 45.24500 41.01400
C  47.16000 43.83700 41.28500
C  48.45800 44.20200 42.02200
C  46.26100 42.71500 41.97300
C  46.64100 45.93400 39.61700
C  45.25000 46.12900 38.89000
H  45.01100 44.94200 37.89100
N  51.26300 44.75400 43.24700
C  50.95500 43.65300 42.40500
C  52.03500 42.72000 42.44300
C  53.13700 43.44200 42.96300
C  52.62600 44.74400 43.40300
C  52.02500 41.34100 41.80500
C  54.55300 42.90800 43.05400
O  54.78200 41.80800 42.61300
C  55.68900 43.64400 43.58700
N  51.69600 47.54000 44.33300
C  52.95200 47.04600 44.38800
C  53.90800 48.11600 44.96700
C  52.93800 49.32900 45.32900
C  51.61500 48.87700 44.82000
C  54.72500 47.68800 46.13600
C  53.34600 50.67300 44.59200
C  53.32500 51.83000 45.48000
N  48.96200 48.20500 43.90300
C  49.18500 49.45600 44.37100
C  48.02500 50.33400 44.19700
C  47.11400 49.51000 43.52700
C  47.78300 48.26400 43.30100
C  47.83100 51.78000 44.58900
C  45.83400 49.50400 42.76900
O  44.93600 50.34700 42.66400
C  45.68900 48.15900 42.10100
C  44.46200 47.51900 42.60000
O  44.37400 46.81300 43.55300
O  43.51300 47.72900 41.68000
C  42.25000 46.95900 41.95700
H  49.40700 42.65400 41.19100
H  54.44300 45.63400 44.13800
H  50.66000 50.69200 45.18200
H  45.42900 45.30200 41.30700
H  47.47100 43.48400 40.30100
H  46.80100 42.40500 42.86800
H  46.04700 41.85400 41.34000
H  45.32200 43.21800 42.20600
H  47.26100 45.25400 39.03400
H  47.28100 46.81600 39.65800
H  45.24700 47.14000 38.48300
H  44.43600 46.04100 39.60900
H  51.01000 41.07700 41.50900
H  52.37400 40.57400 42.49600
H  52.65800 41.33700 40.91800
H  56.63700 43.10700 43.56200
H  55.47600 43.98200 44.60100
H  55.72900 44.54900 42.98200
H  54.55600 48.29000 44.10800
H  52.72600 49.52600 46.38000
H  54.52900 48.09100 47.12900
H  55.76000 47.95900 45.92600
H  54.80500 46.60100 46.11500
H  52.66400 50.93100 43.78200
H  54.34600 50.58100 44.16900
H  53.15300 51.58500 46.52700
H  52.52100 52.53700 45.27400
H  54.23100 52.42400 45.35900
H  46.77300 52.04100 44.54300
H  48.46800 52.27700 43.85700
H  48.12000 52.07700 45.59700
H  45.71000 48.25400 41.01600
H  41.63300 46.96300 41.05900
H  41.71400 47.42700 42.78200
H  42.48200 45.91400 42.16200
Mg 30.69700 58.52200 40.68000
C  28.11100 56.49900 39.31700
C  32.85600 56.23900 39.30000
C  33.17700 60.75500 41.18100
C  28.33000 60.96000 41.39400
N  30.46400 56.67500 39.45800
C  29.34600 56.04500 38.99600
C  29.66800 54.67400 38.20500
C  31.10200 54.48000 38.72300
C  31.54000 55.89300 39.18200
C  31.28500 53.38300 39.80500
C  29.60900 55.03600 36.64300
C  28.55500 54.34700 35.71000
H  27.92900 55.13800 34.61900
N  32.75700 58.47500 40.34400
C  33.44500 57.41900 39.82500
C  34.79300 57.56800 40.15600
C  34.94600 58.80000 40.79100
C  33.58600 59.47100 40.72000
C  35.96600 56.59100 39.94100
C  36.25000 59.33600 41.46900
O  37.30900 58.66400 41.33100
C  36.24800 60.63800 42.27400
N  30.78600 60.61000 41.11600
C  31.94000 61.31500 41.33200
C  31.71200 62.70300 41.91100
C  30.10000 62.83500 41.88600
C  29.68200 61.36300 41.44900
C  32.47600 62.90300 43.29100
C  29.51400 64.02300 41.16100
C  28.70600 65.03900 41.91100
N  28.67800 58.64500 40.58500
C  27.87100 59.72700 40.91600
C  26.49000 59.36300 40.76400
C  26.57200 58.13300 39.98100
C  27.87300 57.69300 39.99600
C  25.24400 60.09400 41.14500
C  25.71400 57.05600 39.32400
O  24.51200 56.93600 39.18000
C  26.79200 55.92900 38.95200
C  26.60000 54.65800 39.82300
O  27.15200 54.35300 40.85800
O  25.67000 53.90500 39.19600
C  25.06900 52.74200 39.68500
H  33.54900 55.51000 38.87600
H  33.98800 61.37600 41.56700
H  27.64600 61.79600 41.55600
H  29.00700 53.87700 38.54600
H  31.74100 54.17300 37.89500
H  30.38600 52.80700 40.02300
H  31.65300 53.74600 40.76400
H  31.98500 52.63900 39.42600
H  30.55200 54.75100 36.17700
H  29.45900 56.10000 36.45900
H  27.89500 53.91700 36.46400
H  29.11000 53.52400 35.26100
H  36.72500 56.91800 39.23000
H  35.55700 55.66000 39.54800
H  36.42300 56.14700 40.82500
H  37.17500 60.68000 42.84500
H  35.39200 60.61000 42.94800
H  36.12400 61.42000 41.52500
H  32.14000 63.50900 41.31500
H  29.69600 62.92200 42.89500
H  33.34700 63.45800 42.94300
H  32.82100 61.92600 43.63100
H  32.02400 63.45000 44.11800
H  28.91300 63.61300 40.34900
H  30.35300 64.56800 40.73000
H  27.82900 65.40300 41.37600
H  29.33800 65.92400 41.98700
H  28.40900 64.70800 42.90600
H  25.04600 60.67700 40.24500
H  25.40700 60.71900 42.02300
H  24.45100 59.35600 41.26200
H  26.65200 55.64400 37.90900
H  25.69500 52.28900 40.45300
H  24.93400 52.12200 38.79800
H  24.16700 53.09300 40.18700

