158

Mg 1.85000 -2.11900 44.30900
C  5.07000 -1.15600 43.39400
C  0.50900 0.46300 42.41400
C  -1.20100 -3.46400 44.75600
C  3.22600 -4.84200 46.03500
N  2.72400 -0.65500 42.85700
C  4.09600 -0.41200 42.72700
C  4.31000 0.82100 41.85300
C  2.83100 1.49700 41.68700
C  1.95500 0.39300 42.34900
C  2.67300 2.92900 42.39800
C  5.06700 0.63600 40.55700
C  4.66000 -0.58100 39.63400
H  4.34900 -0.39200 38.19900
N  -0.08500 -1.55400 43.78200
C  -0.37100 -0.50900 42.94200
C  -1.88500 -0.39900 42.89300
C  -2.41300 -1.47100 43.62200
C  -1.21300 -2.21100 44.07500
C  -2.51500 0.81600 42.29200
C  -3.89600 -1.58100 44.02800
O  -4.64100 -0.68300 43.68000
C  -4.46200 -2.72100 44.77100
N  1.13300 -4.00600 45.11200
C  -0.20100 -4.29700 45.16700
C  -0.43100 -5.66700 45.72000
C  0.96400 -5.99000 46.38700
C  1.88000 -4.91600 45.70300
C  -1.64700 -5.80100 46.71600
C  1.42700 -7.50400 46.25700
C  1.45200 -8.33800 47.50900
N  3.73300 -2.87800 44.67400
C  4.12200 -3.91600 45.44100
C  5.60800 -3.88500 45.66400
C  5.98100 -2.78000 44.80700
C  4.81000 -2.25600 44.22200
C  6.38500 -4.79100 46.47000
C  7.15600 -2.05700 44.30300
O  8.31500 -2.10300 44.49700
C  6.58700 -1.03000 43.29300
C  7.04300 0.34800 43.66200
O  7.92600 0.95700 43.03200
O  6.31200 0.83800 44.79600
C  6.85500 2.02800 45.46300
H  0.03600 1.29800 41.89400
H  -2.19000 -3.89600 44.92100
H  3.69000 -5.63100 46.63100
H  4.95800 1.54000 42.35400
H  2.58800 1.55500 40.62600
H  3.37200 3.10600 43.21500
H  1.68900 2.98100 42.86400
H  2.83500 3.72100 41.66800
H  6.12900 0.44400 40.71000
H  5.01500 1.55800 39.97800
H  3.90000 -1.13100 40.19000
H  5.40800 -1.36800 39.73000
H  -3.49500 0.50600 41.92800
H  -1.95300 1.09300 41.40000
H  -2.53000 1.57000 43.08000
H  -5.48300 -2.48100 45.06700
H  -3.88900 -2.72400 45.69900
H  -4.40500 -3.66200 44.22300
H  -0.49800 -6.33900 44.86500
H  0.85300 -5.69700 47.43100
H  -2.05500 -4.84900 47.05500
H  -1.22300 -6.37400 47.54100
H  -2.47900 -6.32100 46.24100
H  2.47100 -7.66800 45.99200
H  0.72900 -7.99500 45.57700
H  2.35000 -8.05600 48.05900
H  1.46700 -9.39500 47.24300
H  0.60500 -8.22000 48.18500
H  7.28300 -4.33000 46.88000
H  6.65900 -5.64200 45.84600
H  5.88900 -5.28300 47.30700
H  6.91000 -1.28400 42.28300
H  7.87000 2.22800 45.11900
H  6.83100 2.01800 46.55200
H  6.26500 2.92700 45.28700
Mg -4.44400 25.97600 26.18100
C  -3.05300 27.29500 29.15800
C  -6.37100 23.82300 28.03100
C  -5.15600 24.16300 23.37700
C  -2.06400 27.82400 24.41500
N  -4.56400 25.46500 28.40300
C  -4.02000 26.27200 29.41000
C  -4.58500 25.87600 30.82300
C  -5.46800 24.62000 30.43800
C  -5.51800 24.62900 28.89400
C  -4.84400 23.34900 31.01700
C  -5.36400 27.12600 31.40300
C  -5.11600 27.47900 32.88100
H  -4.91500 26.23500 33.84200
N  -5.72500 24.38700 25.73300
C  -6.49800 23.73800 26.61300
C  -7.47600 22.88900 25.89600
C  -7.06700 22.94700 24.53700
C  -5.89700 23.82700 24.47700
C  -8.53900 22.12200 26.60300
C  -7.62700 22.11000 23.35900
O  -7.19200 22.11700 22.23300
C  -8.78700 21.22900 23.66500
N  -3.66600 25.97500 24.17900
C  -4.18900 25.16500 23.17500
C  -3.36400 25.43400 21.88500
C  -2.50200 26.70700 22.14800
C  -2.74900 26.84900 23.66000
C  -2.44500 24.28000 21.33300
C  -2.80500 27.94900 21.36400
C  -1.60600 28.20400 20.39100
N  -2.86600 27.28800 26.62300
C  -2.13700 28.06100 25.81600
C  -1.32900 28.99500 26.57700
C  -1.55900 28.71100 27.89200
C  -2.62100 27.67600 27.88300
C  -0.42200 30.01400 25.92600
C  -1.25300 28.99400 29.27800
O  -0.41900 29.68900 29.82200
C  -2.29800 28.17400 30.17500
C  -1.42700 27.37900 31.01400
O  -0.65000 26.50300 30.65500
O  -1.73600 27.61200 32.31700
C  -0.94300 26.93400 33.30700
H  -7.02700 23.13100 28.56100
H  -5.35600 23.67900 22.41900
H  -1.38000 28.42700 23.81500
H  -3.73800 25.58900 31.44600
H  -6.53100 24.73000 30.65500
H  -4.25700 22.92300 30.20300
H  -5.61400 22.61400 31.25200
H  -4.22600 23.61500 31.87500
H  -6.42200 26.99500 31.17400
H  -4.91700 27.91600 30.79900
H  -6.04300 27.99300 33.13700
H  -4.28900 28.18900 32.88400
H  -9.50700 22.33300 26.14800
H  -8.60700 22.41900 27.65000
H  -8.38300 21.04700 26.51500
H  -8.63100 20.51500 24.47400
H  -9.28400 20.81700 22.78700
H  -9.53800 21.93900 24.01200
H  -4.13800 25.67400 21.15600
H  -1.44100 26.46300 22.19400
H  -1.49500 24.49700 20.84600
H  -3.07000 23.82700 20.56300
H  -2.14800 23.66700 22.18400
H  -2.94000 28.84100 21.97500
H  -3.67900 27.73000 20.75000
H  -0.77400 27.50300 20.45600
H  -1.16400 29.18700 20.55000
H  -2.05200 28.28100 19.39900
H  -0.80900 30.44200 25.00200
H  0.61800 29.75500 25.72500
H  -0.31800 30.77300 26.70100
H  -2.98700 28.87400 30.64700
H  -1.09700 25.85700 33.36800
H  -1.37300 27.34200 34.22200
H  0.11900 27.17500 33.30700

