158

Mg 41.09400 41.34200 27.09000
C  40.19500 43.48900 29.77200
C  41.76200 38.91700 29.59500
C  42.12500 39.18000 24.72400
C  40.79900 43.80500 24.96200
N  41.27000 41.35200 29.47600
C  40.59900 42.24100 30.29000
C  40.65100 41.83200 31.80000
C  41.14400 40.31800 31.71800
C  41.48600 40.18100 30.12900
C  42.43400 39.95600 32.51000
C  39.31000 42.09400 32.56000
C  39.01900 41.18700 33.78100
H  38.50000 41.74600 35.16400
N  41.91200 39.42000 27.18600
C  42.06600 38.60900 28.29500
C  42.51800 37.24500 27.85300
C  42.48500 37.26400 26.44400
C  42.13700 38.64200 26.05700
C  43.09300 36.22300 28.88600
C  42.84100 36.07600 25.41000
O  42.82500 36.25800 24.21300
C  43.15100 34.67100 25.87900
N  41.52600 41.43700 25.12100
C  41.84900 40.50600 24.33000
C  41.95600 40.93400 22.93000
C  41.59600 42.48400 22.98700
C  41.31200 42.60700 24.43100
C  43.29500 40.56600 22.17400
C  40.40300 42.84400 22.02600
C  39.01000 42.60400 22.59400
N  40.61400 43.29900 27.23800
C  40.60900 44.21000 26.23000
C  40.09400 45.48800 26.80500
C  39.90800 45.25000 28.14900
C  40.30100 43.90200 28.41100
C  39.67300 46.70000 25.98700
C  39.42200 45.82500 29.36500
O  38.86000 46.88300 29.56100
C  39.65800 44.78000 30.51200
C  40.66500 45.27900 31.54000
O  41.89700 45.37700 31.25100
O  40.14800 45.51900 32.79100
C  41.06200 45.63100 33.92500
H  41.83800 38.11300 30.33000
H  42.46000 38.54600 23.90000
H  40.61400 44.59500 24.23100
H  41.42000 42.48100 32.21900
H  40.40800 39.58200 32.04200
H  43.20300 39.61600 31.81600
H  42.17100 39.24300 33.29100
H  42.82200 40.89000 32.91500
H  38.46400 42.02600 31.87600
H  39.34000 43.12200 32.92100
H  39.94000 40.65700 34.02300
H  38.25100 40.45900 33.51900
H  42.57800 35.28000 28.70300
H  42.79200 36.52800 29.88900
H  44.17400 36.09000 28.88700
H  42.18200 34.36600 26.27200
H  43.81600 34.70100 26.74200
H  43.43400 33.93700 25.12400
H  41.14400 40.44400 22.39400
H  42.36100 43.21600 22.72800
H  43.49100 41.35900 21.45200
H  43.21600 39.67200 21.55500
H  44.06500 40.38500 22.92500
H  40.50200 42.18600 21.16300
H  40.53600 43.90000 21.79100
H  38.73800 43.48900 23.16900
H  38.96600 41.71100 23.21800
H  38.40300 42.41300 21.70900
H  38.73500 46.53300 25.45900
H  40.45500 46.88700 25.25100
H  39.70000 47.60300 26.59700
H  38.67300 44.63300 30.95600
H  42.12300 45.39500 33.83900
H  40.67000 45.08200 34.78200
H  41.00000 46.68300 34.20100
Mg 8.61700 48.08500 25.31000
C  6.54200 47.97600 28.06700
C  11.10700 49.37800 27.24700
C  10.68200 48.20500 22.49700
C  5.94000 47.41400 23.25100
N  8.72400 48.64100 27.40100
C  7.81500 48.40600 28.36100
C  8.38700 48.90300 29.73000
C  9.66700 49.74600 29.35100
C  9.88700 49.29100 27.90500
C  9.38100 51.31800 29.49500
C  8.69400 47.72600 30.80200
C  8.05300 47.92600 32.18400
H  8.38300 46.76200 33.21800
N  10.69100 48.64500 24.97000
C  11.53000 49.05700 25.90300
C  12.79000 49.17900 25.30900
C  12.75500 48.67200 23.96200
C  11.34500 48.50500 23.72800
C  14.04200 49.50400 26.09600
C  13.89600 48.39000 22.92400
O  13.70000 47.96900 21.79700
C  15.36300 48.64300 23.24900
N  8.33900 47.99100 23.17500
C  9.28700 48.04300 22.22200
C  8.70000 47.83700 20.81600
C  7.26200 47.29400 21.22400
C  7.11300 47.66800 22.63000
C  8.67000 49.03200 19.86300
C  7.07800 45.75100 20.86800
C  5.78900 45.39500 20.14700
N  6.66100 47.74500 25.54400
C  5.73100 47.40400 24.61800
C  4.45300 47.13900 25.34000
C  4.69800 47.37300 26.69200
C  6.09400 47.69900 26.80500
C  3.18700 46.70000 24.67700
C  4.09100 47.31500 28.03300
O  3.01400 47.00300 28.46000
C  5.30200 47.69400 29.02100
C  5.54100 46.55100 30.01400
O  6.17800 45.55800 29.83400
O  4.71100 46.77300 31.14600
C  4.92200 45.78400 32.24000
H  11.93400 49.75100 27.85500
H  11.31600 47.96900 21.63900
H  5.20300 46.88200 22.64600
H  7.53600 49.48200 30.09000
H  10.54300 49.46500 29.93500
H  9.31400 51.67900 28.46900
H  10.27500 51.69500 29.99100
H  8.55200 51.59400 30.14700
H  9.77900 47.62700 30.84300
H  8.32800 46.85200 30.26400
H  6.97300 47.94400 32.04200
H  8.35600 48.87300 32.63100
H  13.83600 49.62400 27.15900
H  14.64300 50.34800 25.75700
H  14.61000 48.57800 26.00500
H  15.39000 49.62600 23.72000
H  15.90200 48.60800 22.30200
H  15.65700 47.84400 23.93000
H  9.19100 47.02500 20.28100
H  6.48500 47.78700 20.63900
H  7.66200 49.44300 19.79500
H  9.08000 48.66900 18.92100
H  9.37400 49.78500 20.21700
H  7.05600 45.23400 21.82700
H  7.94500 45.29500 20.39000
H  5.98900 45.24900 19.08500
H  5.03800 46.16900 20.30300
H  5.21800 44.54900 20.53000
H  3.42200 46.08400 23.80900
H  2.48200 47.51300 24.50200
H  2.69800 46.13700 25.47300
H  5.07800 48.60900 29.57100
H  3.92100 45.42600 32.48000
H  5.33300 46.22400 33.14900
H  5.54700 44.91600 32.03200

