158

Mg 16.71200 -1.17400 28.09200
C  15.46000 0.65200 30.92800
C  19.02300 -2.48400 30.16300
C  18.25700 -2.38100 25.36700
C  14.42000 0.70400 26.12900
N  17.12000 -0.91600 30.25500
C  16.50200 -0.21500 31.26600
C  17.07500 -0.54800 32.63900
C  18.44100 -1.39200 32.22600
C  18.15400 -1.64200 30.76500
C  19.79600 -0.68700 32.56100
C  16.09900 -1.30800 33.61900
C  15.74300 -0.65900 34.97300
H  16.87500 0.13800 35.71300
N  18.33800 -2.41100 27.78200
C  19.10300 -2.89000 28.78100
C  20.08400 -3.82000 28.23500
C  19.91400 -3.74700 26.81900
C  18.76000 -2.89800 26.56600
C  21.02800 -4.50700 29.04100
C  20.67000 -4.44300 25.64800
O  20.22400 -4.63200 24.52400
C  22.07300 -4.92500 25.88000
N  16.46500 -0.82700 26.14700
C  17.14600 -1.51500 25.14900
C  16.71600 -1.04600 23.76300
C  15.42800 -0.20600 23.98900
C  15.40700 -0.09900 25.48800
C  17.91600 -0.35300 23.02100
C  14.10700 -0.74400 23.35900
C  13.24200 0.02100 22.33300
N  15.17100 0.35700 28.44700
C  14.32700 1.04000 27.52400
C  13.41800 1.96400 28.22800
C  13.79000 1.77700 29.61700
C  14.91600 0.89600 29.66500
C  12.22200 2.74000 27.66100
C  13.49600 2.17900 31.00500
O  12.74700 3.01200 31.45300
C  14.56600 1.38500 31.93600
C  15.29400 2.38700 32.75500
O  16.44400 2.82900 32.53900
O  14.48100 2.82600 33.76700
C  15.10300 3.97900 34.40300
H  19.75000 -2.81400 30.90800
H  18.70200 -2.78000 24.45300
H  13.72800 1.14400 25.40800
H  17.41300 0.38300 33.09300
H  18.52400 -2.39300 32.65000
H  20.57900 -0.92100 31.84000
H  20.11200 -1.05300 33.53800
H  19.64900 0.39100 32.62500
H  16.52400 -2.29800 33.78300
H  15.31500 -1.66200 32.94900
H  15.47000 -1.43700 35.68500
H  14.91700 0.04700 34.87400
H  22.03100 -4.22700 28.71800
H  20.89700 -5.56700 28.82400
H  20.96000 -4.38300 30.12200
H  22.57100 -4.11600 26.41500
H  22.39700 -5.07400 24.85000
H  21.95500 -5.85700 26.43300
H  16.50300 -2.00300 23.28600
H  15.59300 0.82100 23.66500
H  18.89200 -0.27700 23.50100
H  17.68100 0.61100 22.56800
H  18.12300 -1.05900 22.21700
H  13.36900 -0.89800 24.14700
H  14.36400 -1.75200 23.03600
H  12.20300 -0.09300 22.64100
H  13.20600 -0.42100 21.33800
H  13.57900 1.05500 22.26400
H  11.38800 2.43800 28.29500
H  12.06000 2.47400 26.61700
H  12.48500 3.79700 27.68700
H  14.19900 0.71400 32.71300
H  15.31200 4.77900 33.69400
H  16.01800 3.73000 34.94200
H  14.34300 4.30000 35.11500
Mg -1.08100 33.98500 27.32500
C  -3.21300 32.55300 29.73900
C  0.18800 35.99600 29.77500
C  0.38500 35.87200 24.90900
C  -3.15600 32.68300 24.85900
N  -1.28900 34.08000 29.51800
C  -2.15700 33.32400 30.28700
C  -2.15400 33.78500 31.73900
C  -1.08600 34.92000 31.72500
C  -0.71100 35.02400 30.28500
C  -1.57700 36.27900 32.24900
C  -1.74000 32.50200 32.61700
C  -2.60400 32.35000 33.86400
H  -1.97900 32.13300 35.25900
N  0.15800 35.59600 27.33400
C  0.65400 36.22300 28.40900
C  1.78800 37.03800 27.97200
C  1.77700 37.11700 26.56800
C  0.74100 36.20400 26.21400
C  2.69200 37.63800 28.99300
C  2.65600 37.95300 25.62300
O  2.50700 38.06800 24.36300
C  3.80200 38.70400 26.21200
N  -1.61600 34.52400 25.11500
C  -0.61800 35.08000 24.38200
C  -0.91600 34.95100 22.87500
C  -2.09800 33.96300 22.85100
C  -2.33200 33.68300 24.34000
C  -1.35800 36.26900 22.07400
C  -1.93000 32.61700 22.04100
C  -1.35500 31.36800 22.69900
N  -2.59900 32.59500 27.28400
C  -3.36200 32.22300 26.19800
C  -4.42100 31.32900 26.63000
C  -4.39000 31.36600 28.02200
C  -3.30700 32.23400 28.34700
C  -5.30900 30.54600 25.70300
C  -5.01100 30.93200 29.29300
O  -5.97700 30.21200 29.54900
C  -4.25400 31.67500 30.48900
C  -5.21200 32.49700 31.25100
O  -5.89500 33.31400 30.69700
O  -5.42500 32.09800 32.58600
C  -6.58500 32.74800 33.16800
H  0.65900 36.55600 30.58600
H  1.18400 36.14100 24.21500
H  -3.73600 32.23800 24.04800
H  -3.09800 34.13800 32.15400
H  -0.27100 34.84000 32.44500
H  -0.79700 36.84400 32.75800
H  -2.43500 36.26300 32.92200
H  -1.83900 36.92000 31.40700
H  -0.69500 32.58100 32.91900
H  -1.72900 31.60800 31.99300
H  -3.11400 31.41300 33.64200
H  -3.45100 33.03500 33.89800
H  3.68700 37.70900 28.55400
H  2.84600 37.09500 29.92500
H  2.39800 38.64000 29.30600
H  4.47900 37.96400 26.63900
H  3.31100 39.34300 26.94500
H  4.30300 39.36800 25.50800
H  0.00500 34.55000 22.45000
H  -3.00800 34.43100 22.47700
H  -0.49900 36.56100 21.46900
H  -1.47700 36.98500 22.88700
H  -2.29700 36.16700 21.52900
H  -1.30500 33.00800 21.23800
H  -2.92000 32.44100 21.62200
H  -2.20000 30.73700 22.97300
H  -0.65600 31.83200 23.39500
H  -0.69800 30.85000 22.00100
H  -4.67400 29.99100 25.01200
H  -6.03900 31.14800 25.16300
H  -5.83000 29.69800 26.14800
H  -3.79900 30.86400 31.05700
H  -6.47000 33.82100 33.02000
H  -6.66500 32.39900 34.19700
H  -7.56800 32.44300 32.80700

