158

Mg 0.57500 7.72100 25.53300
C  1.30700 9.76200 28.29800
C  0.51600 5.09000 27.62200
C  0.27900 5.76300 22.71100
C  1.16600 10.59000 23.42200
N  0.97300 7.47300 27.61200
C  1.17600 8.42100 28.60300
C  1.18900 7.84700 30.05300
C  1.07100 6.32000 29.82400
C  0.74300 6.29200 28.25100
C  2.36700 5.37400 30.18400
C  0.07900 8.32800 30.98000
C  0.43200 8.46300 32.44500
H  1.70300 7.62200 32.83900
N  0.35200 5.69900 25.20300
C  0.42400 4.76500 26.24300
C  0.34300 3.43200 25.62100
C  0.19900 3.65000 24.16400
C  0.34200 5.06800 23.99900
C  0.27400 2.15900 26.44500
C  0.05700 2.54700 23.09800
O  0.08200 2.82800 21.89700
C  -0.06900 1.12900 23.48700
N  0.84800 8.04700 23.41100
C  0.47300 7.12700 22.50400
C  0.27800 7.71600 21.09600
C  0.33600 9.29400 21.44000
C  0.83100 9.38200 22.83100
C  1.29200 7.26400 20.06000
C  -1.04200 10.03100 21.49100
C  -1.16500 11.24100 20.59800
N  1.12700 9.73700 25.76700
C  1.25100 10.80700 24.85200
C  1.48900 12.04800 25.51300
C  1.40200 11.69800 26.84100
C  1.24400 10.29700 27.00100
C  1.80100 13.28600 24.90000
C  1.63300 12.28800 28.18900
O  1.87000 13.43800 28.53300
C  1.40300 11.07700 29.17400
C  2.66200 11.08400 30.03800
O  3.83400 10.94700 29.60400
O  2.31700 11.36500 31.38000
C  3.42200 11.19000 32.24400
H  0.29700 4.22800 28.25600
H  0.08200 5.25700 21.76400
H  1.20900 11.51100 22.83800
H  2.17900 8.11800 30.41900
H  0.25400 5.81700 30.34200
H  2.10400 4.58200 30.88600
H  3.12300 6.06600 30.55400
H  2.83400 4.86500 29.34200
H  -0.78600 7.68300 30.83000
H  -0.06900 9.33500 30.59000
H  -0.38900 8.33500 33.15000
H  0.81400 9.48400 32.48300
H  0.96700 1.37000 26.15300
H  -0.77400 1.86500 26.38400
H  0.60400 2.27100 27.47800
H  -0.21500 0.52300 22.59300
H  -0.94200 1.16200 24.13800
H  0.81400 0.70700 23.96800
H  -0.72000 7.51900 20.70500
H  1.00600 9.84800 20.78200
H  1.69800 6.26700 20.22600
H  2.15400 7.91100 19.89400
H  0.75900 7.24000 19.11000
H  -1.38000 10.19500 22.51400
H  -1.81700 9.30600 21.24500
H  -0.25300 11.47400 20.04800
H  -1.38900 12.09700 21.23500
H  -1.97100 11.13300 19.87300
H  1.37100 13.53200 23.92900
H  2.86800 13.31900 24.67900
H  1.44500 14.04400 25.59800
H  0.53300 11.37300 29.76100
H  3.93800 10.24500 32.07600
H  3.04100 11.13200 33.26300
H  4.21300 11.91000 32.03200
Mg 9.04500 3.73400 28.24100
C  10.56100 2.03700 30.90200
C  7.45000 5.81600 30.31900
C  7.49500 5.32800 25.58100
C  10.09800 1.19700 26.02400
N  9.14200 3.92700 30.31200
C  9.80500 3.21700 31.23600
C  9.64800 3.87900 32.70200
C  8.51300 4.83800 32.47700
C  8.38700 4.95800 30.95600
C  7.08800 4.45100 33.11600
C  10.93300 4.48200 33.33900
C  11.52800 3.78300 34.59300
H  11.83400 4.65000 35.80100
N  7.72000 5.43200 28.01600
C  7.09200 6.07200 29.00000
C  6.27700 7.14500 28.47900
C  6.26300 7.06400 27.07800
C  7.25300 5.95500 26.79400
C  5.41100 8.03800 29.32200
C  5.62900 7.92400 26.03500
O  5.84400 7.81500 24.80400
C  4.66900 9.11600 26.41200
N  8.69200 3.26500 26.10100
C  8.10700 4.09800 25.24100
C  8.17000 3.57300 23.74900
C  9.23300 2.45500 23.93400
C  9.29100 2.28400 25.44900
C  6.76600 3.20900 23.13800
C  10.68200 2.78800 23.42800
C  11.42300 1.59400 22.79100
N  10.14400 2.00100 28.39000
C  10.47900 1.04800 27.40600
C  11.27100 0.04500 28.03800
C  11.31000 0.37100 29.41600
C  10.67200 1.56000 29.54700
C  11.90200 -1.10400 27.39100
C  11.84100 0.02200 30.71200
O  12.60700 -0.88900 30.98200
C  11.30100 1.07700 31.76200
C  10.51400 0.44700 32.86500
O  9.35100 0.06100 32.77200
O  11.42800 0.28300 33.81300
C  10.93600 -0.20300 35.11700
H  6.99400 6.52300 31.01400
H  7.14200 5.85000 24.68900
H  10.35700 0.44200 25.27900
H  9.23700 3.06200 33.29400
H  8.78200 5.80600 32.90000
H  7.13800 4.67000 34.18200
H  6.81300 3.40900 32.95000
H  6.26700 5.02900 32.69000
H  10.78700 5.54700 33.51900
H  11.70600 4.49600 32.57000
H  12.52700 3.43900 34.32500
H  10.86400 2.94600 34.80900
H  5.84600 9.02800 29.17800
H  5.59900 7.91600 30.38800
H  4.32200 8.01500 29.30300
H  4.34700 9.62000 25.50100
H  5.18700 9.86600 27.01000
H  3.73800 8.78400 26.87100
H  8.43400 4.46800 23.18500
H  8.80100 1.53200 23.54700
H  5.91500 3.64000 23.66400
H  6.56500 2.13800 23.15300
H  6.62900 3.77000 22.21300
H  11.30700 3.15100 24.24400
H  10.59700 3.60900 22.71700
H  10.95000 0.64900 23.05900
H  12.46700 1.60500 23.10600
H  11.40700 1.59500 21.70100
H  12.97300 -0.90400 27.38900
H  11.56700 -1.29100 26.37100
H  11.78500 -1.93900 28.08200
H  12.11200 1.59200 32.27800
H  10.53200 0.58900 35.74700
H  11.81000 -0.63100 35.61000
H  10.20700 -1.00900 35.03100

