158

Mg 2.12400 -0.30200 43.89000
C  5.58800 0.39400 43.27500
C  1.37500 2.48800 42.08200
C  -1.12000 -1.07800 44.09300
C  2.99700 -3.51100 44.85300
N  3.35500 1.22200 42.86000
C  4.74500 1.34100 42.63200
C  5.12100 2.48000 41.74000
C  3.75300 3.28900 41.58100
C  2.75100 2.29800 42.30700
C  3.73700 4.68900 42.29600
C  5.65100 1.96500 40.32600
C  6.99000 2.37400 39.94700
H  7.04200 3.26000 38.71100
N  0.33400 0.59700 43.25600
C  0.28400 1.72400 42.50000
C  -1.06500 2.05500 42.25000
C  -1.84600 0.99600 42.80400
C  -0.89000 0.08500 43.35600
C  -1.45200 3.17200 41.28100
C  -3.37500 0.97100 42.66600
O  -3.87700 1.91800 42.10900
C  -4.27200 -0.08500 43.17700
N  1.14300 -1.94700 44.48700
C  -0.17400 -1.93800 44.60300
C  -0.58500 -3.32600 45.01900
C  0.59600 -4.19100 44.76100
C  1.67900 -3.13500 44.69700
C  -1.22000 -3.41500 46.44000
C  0.57000 -5.05600 43.42900
C  -0.18900 -6.46400 43.45500
N  3.87800 -1.28700 44.28000
C  4.08600 -2.59000 44.71000
C  5.45200 -2.78700 44.82900
C  6.10800 -1.57200 44.36300
C  5.05800 -0.77000 44.02100
C  6.04900 -4.00300 45.35600
C  7.42400 -0.99700 44.14000
O  8.56500 -1.44200 44.36900
C  7.17400 0.41500 43.47200
C  7.59600 1.43300 44.57000
O  7.20500 1.47600 45.72100
O  8.09800 2.57500 43.95200
C  8.16100 3.91400 44.62100
H  1.16100 3.45300 41.61900
H  -2.17200 -1.33900 44.22400
H  3.07900 -4.53600 45.22000
H  5.81400 3.14600 42.25500
H  3.46700 3.46500 40.54400
H  4.68100 5.09000 42.66600
H  3.10000 4.64800 43.18000
H  3.08200 5.43000 41.83800
H  4.83400 2.09900 39.61700
H  5.68600 0.89600 40.53700
H  7.56700 1.47300 39.73700
H  7.45200 3.00900 40.70300
H  -2.17600 2.83100 40.54000
H  -0.61400 3.63100 40.75600
H  -1.94700 3.92600 41.89300
H  -5.28900 0.22500 42.93700
H  -4.11200 0.10300 44.23900
H  -4.04200 -1.10500 42.86700
H  -1.45600 -3.55900 44.40700
H  0.76500 -4.94800 45.52700
H  -0.48100 -3.67300 47.20000
H  -2.03000 -4.13900 46.52900
H  -1.62000 -2.42400 46.65100
H  1.55800 -5.16900 42.98200
H  0.08400 -4.36700 42.73900
H  -0.26200 -6.73100 44.50900
H  0.45900 -7.18500 42.95600
H  -1.14400 -6.46600 42.93100
H  5.36500 -4.45300 46.07600
H  6.89800 -3.78900 46.00500
H  6.35000 -4.72500 44.59700
H  7.76000 0.58500 42.56900
H  9.03500 3.83000 45.26700
H  7.27500 4.09500 45.23000
H  8.22600 4.63400 43.80600
Mg 26.06700 49.57200 26.64300
C  23.83500 51.00400 28.83100
C  28.26400 49.18000 29.11600
C  28.34200 48.78100 24.14200
C  23.88800 50.58600 23.97900
N  26.07600 50.26900 28.79800
C  24.95700 50.61900 29.52900
C  25.04100 50.36900 31.01200
C  26.62600 50.04400 31.07300
C  27.07100 49.75900 29.58000
C  27.50600 51.17900 31.77200
C  24.08600 49.25000 31.60600
C  23.85800 49.17400 33.24000
H  24.63900 50.15200 34.07300
N  27.98500 49.09400 26.63500
C  28.76000 48.97900 27.79000
C  30.04100 48.47300 27.36900
C  30.11600 48.48500 25.94700
C  28.79700 48.83400 25.55000
C  31.12600 48.11900 28.47500
C  31.35700 48.22800 24.99000
O  31.37700 48.44300 23.78400
C  32.64300 47.86000 25.63300
N  26.01400 49.43000 24.46000
C  27.05900 49.04200 23.66100
C  26.68400 48.94600 22.14600
C  25.29400 49.61700 22.10200
C  25.00100 49.87000 23.61900
C  27.70000 49.63300 21.13300
C  24.17300 48.79500 21.38200
C  23.23700 49.56600 20.39700
N  24.21400 50.45300 26.34800
C  23.47100 50.87100 25.23200
C  22.30500 51.50700 25.68200
C  22.31300 51.43600 27.06100
C  23.56200 50.88600 27.41300
C  21.26400 52.00800 24.79500
C  21.65200 51.84200 28.26200
O  20.59700 52.40700 28.39800
C  22.52700 51.46200 29.47200
C  22.86400 52.74100 30.32600
O  23.53500 53.72500 30.01000
O  22.26900 52.58000 31.62800
C  22.60700 53.66400 32.53500
H  28.94100 48.87600 29.91600
H  28.97100 48.44400 23.31500
H  23.21300 50.81400 23.15100
H  24.94600 51.26900 31.61900
H  26.93200 49.14400 31.60600
H  28.01200 50.78200 32.65200
H  26.87400 51.96400 32.18800
H  28.20500 51.58300 31.04100
H  24.62300 48.36400 31.26700
H  23.16400 49.49000 31.07600
H  23.98100 48.16600 33.63500
H  22.80400 49.45000 33.21500
H  32.05400 48.56500 28.11700
H  31.41700 47.07000 28.41500
H  31.02600 48.55900 29.46700
H  33.35800 47.32000 25.01200
H  32.34700 47.11300 26.37000
H  33.16400 48.72500 26.04400
H  26.66800 47.87200 21.96000
H  25.38700 50.60600 21.65300
H  28.40300 50.35600 21.54500
H  27.12100 50.10900 20.34100
H  28.24800 48.85900 20.59600
H  23.69000 48.26500 22.20200
H  24.70200 48.13500 20.69400
H  23.26700 50.65500 20.43800
H  22.20100 49.24000 20.48600
H  23.48400 49.36700 19.35400
H  21.14400 51.41100 23.89100
H  21.51800 53.04600 24.57600
H  20.26400 51.96600 25.22600
H  21.98300 50.59900 29.85700
H  22.90200 54.56100 31.99100
H  23.42800 53.38100 33.19400
H  21.72900 53.86900 33.14700

