158

Mg 47.55800 44.92700 42.59700
C  44.04500 44.29900 42.45300
C  47.99900 41.43000 42.17500
C  50.65100 45.66000 41.79300
C  46.67700 48.42100 42.49900
N  46.16000 43.08000 42.01100
C  44.78100 43.09100 42.13900
C  44.25300 41.69100 42.01300
C  45.52700 40.73200 42.22800
C  46.65400 41.84400 42.22700
C  45.40100 39.80900 43.42500
C  43.46900 41.46100 40.77800
C  43.94300 42.29300 39.53500
H  43.74100 41.59000 38.23600
N  49.09700 43.78400 42.14200
C  49.11800 42.37100 42.11300
C  50.49300 41.92400 41.89100
C  51.30300 43.11700 41.62700
C  50.33800 44.29100 41.80700
C  50.92900 40.47000 41.92600
C  52.78400 43.13200 41.43700
O  53.44200 42.09900 41.23200
C  53.64400 44.45100 41.32900
N  48.49300 46.80300 42.15600
C  49.88700 46.81500 42.00400
C  50.49100 48.25800 42.10100
C  49.17900 49.10600 42.17000
C  48.00300 48.04900 42.22800
C  51.42800 48.41500 43.37600
C  48.91700 50.18700 41.00700
C  48.45300 51.54900 41.29200
N  45.78700 46.12500 42.64700
C  45.57300 47.56000 42.66200
C  44.19800 47.88400 42.90100
C  43.54700 46.55600 42.86200
C  44.53500 45.59800 42.61700
C  43.48100 49.16600 43.10400
C  42.27000 45.88700 42.93100
O  41.10300 46.24600 43.02600
C  42.56800 44.41700 42.64000
C  42.06500 43.63200 43.78200
O  41.28300 42.67100 43.64500
O  42.36200 44.21500 44.97200
C  41.68500 43.62400 46.09600
H  48.20000 40.35700 42.16600
H  51.71200 45.90000 41.69700
H  46.57000 49.50500 42.57000
H  43.63700 41.51500 42.89500
H  45.65900 40.17200 41.30200
H  45.73800 40.27900 44.34800
H  45.91200 38.85600 43.28300
H  44.34200 39.58600 43.55200
H  42.38800 41.54100 40.89000
H  43.71500 40.42400 40.54900
H  44.99300 42.56400 39.65000
H  43.32600 43.18800 39.60400
H  50.73300 39.98500 40.96900
H  50.43800 39.85500 42.68000
H  51.96100 40.40300 42.27000
H  53.35500 45.09900 40.50200
H  54.71200 44.26800 41.20600
H  53.55900 44.90600 42.31600
H  51.04100 48.41500 41.17300
H  49.09700 49.67000 43.09900
H  52.27300 49.00700 43.02500
H  51.77500 47.40800 43.61000
H  50.86300 48.92400 44.15800
H  48.31100 49.70900 40.23800
H  49.85400 50.42700 40.50500
H  48.44700 51.74200 42.36500
H  47.46100 51.52900 40.84100
H  49.14100 52.25500 40.82600
H  43.80800 49.63500 44.03200
H  42.42800 49.05000 43.36000
H  43.61200 49.93100 42.33800
H  42.10200 44.20800 41.67700
H  41.85600 44.30300 46.93200
H  42.09300 42.66000 46.40200
H  40.60800 43.66500 45.93300
Mg -10.48500 40.91500 42.61000
C  -9.71400 37.62900 41.81300
C  -7.58700 41.92000 41.06000
C  -11.50600 43.99400 43.15100
C  -13.86000 39.69700 43.39200
N  -8.84800 39.83600 41.45900
C  -8.71500 38.54500 41.37000
C  -7.60900 38.14400 40.45500
C  -6.75700 39.50400 40.35700
C  -7.78100 40.53600 40.95000
C  -5.32600 39.60500 41.00400
C  -7.99800 37.57900 39.09100
C  -7.42400 36.21800 38.63900
H  -6.29700 36.16800 37.54600
N  -9.57800 42.69000 42.21500
C  -8.34900 42.91000 41.66600
C  -8.22300 44.38300 41.63200
C  -9.32700 45.00600 42.20100
C  -10.17500 43.91000 42.55200
C  -6.94800 45.00200 41.25600
C  -9.43200 46.54600 42.37800
O  -8.66800 47.28600 41.72500
C  -10.56900 47.18900 43.24500
N  -12.45700 41.66300 43.15400
C  -12.50500 43.02200 43.43900
C  -13.88900 43.41100 43.82800
C  -14.73300 42.09000 43.71400
C  -13.66200 41.06600 43.37300
C  -13.88500 44.17400 45.15400
C  -15.99600 42.11800 42.81500
C  -16.75600 43.43800 42.71100
N  -11.56500 39.07300 42.75100
C  -12.88800 38.77700 43.10800
C  -13.01200 37.36500 43.04400
C  -11.76700 36.90700 42.63900
C  -10.93700 37.96100 42.43900
C  -14.16400 36.55200 43.35800
C  -11.04800 35.65900 42.26300
O  -11.39000 34.46900 42.29600
C  -9.68000 36.13800 41.71600
C  -8.54100 35.40500 42.37800
O  -7.82000 35.82200 43.24500
O  -8.42600 34.19800 41.80400
C  -7.48700 33.17600 42.32200
H  -6.62000 42.33600 40.76700
H  -11.92800 44.99500 43.26400
H  -14.81500 39.30100 43.74300
H  -6.92300 37.42800 40.90700
H  -6.76400 39.71200 39.28700
H  -5.44200 40.43300 41.70400
H  -4.62200 39.93400 40.23900
H  -4.93100 38.68500 41.43400
H  -7.69500 38.17700 38.23100
H  -9.07700 37.44600 39.01400
H  -8.26900 35.67000 38.22300
H  -7.04100 35.66500 39.49600
H  -6.81600 45.39100 40.24700
H  -6.12700 44.29000 41.17500
H  -6.65600 45.76500 41.97800
H  -10.17100 48.11400 43.66100
H  -10.81500 46.50700 44.05900
H  -11.43800 47.40200 42.62300
H  -14.23100 44.21400 43.17400
H  -15.10500 41.82000 44.70300
H  -14.13100 45.22800 45.02700
H  -12.98000 44.18200 45.76200
H  -14.62200 43.74300 45.83200
H  -16.57900 41.27900 43.19500
H  -15.62600 41.84200 41.82800
H  -17.82100 43.21400 42.76800
H  -16.56000 43.88900 41.73900
H  -16.46300 44.18500 43.44800
H  -15.04400 37.19300 43.29100
H  -13.93000 36.19000 44.35900
H  -14.11500 35.71600 42.66000
H  -9.57400 35.81600 40.68000
H  -6.96600 32.73200 41.47400
H  -8.06100 32.37600 42.78800
H  -6.89500 33.62700 43.11800

