158

Mg 54.29800 24.31100 44.68800
C  51.58600 26.31500 43.75100
C  52.34000 21.61100 43.61900
C  56.97600 22.39200 44.96900
C  56.03900 27.17700 45.53300
N  52.34100 24.03400 43.57100
C  51.41700 25.00000 43.29300
C  50.18500 24.43000 42.51000
C  50.21400 23.04400 43.24400
C  51.73900 22.86300 43.48600
C  49.28300 22.90100 44.51700
C  50.54900 24.36400 40.97000
C  49.42800 24.34600 39.94600
H  49.74000 24.94100 38.52400
N  54.60600 22.33000 44.26100
C  53.71400 21.38500 43.87300
C  54.36800 20.15900 43.90500
C  55.69100 20.22700 44.43900
C  55.84100 21.67000 44.54900
C  53.80400 18.92800 43.39700
C  56.80300 19.08700 44.64900
O  56.59200 17.97800 44.18200
C  57.95000 19.40900 45.44800
N  56.28100 24.77900 45.02400
C  57.17900 23.81200 45.28000
C  58.50600 24.37100 45.81700
C  58.09300 25.88700 46.13300
C  56.68900 25.97600 45.50500
C  59.05000 23.60000 46.95600
C  59.20600 26.95000 45.75800
C  59.02100 27.71300 44.43900
N  53.88500 26.30100 44.79500
C  54.67400 27.36500 45.21100
C  53.93400 28.61400 45.15000
C  52.71100 28.20800 44.62400
C  52.72200 26.82700 44.39100
C  54.34800 30.01500 45.54500
C  51.40000 28.73200 44.02800
O  50.94700 29.85200 43.88400
C  50.58600 27.45700 43.62700
C  50.05200 27.68700 42.24600
O  50.62700 27.66900 41.23100
O  48.71900 27.89100 42.43000
C  47.98700 28.00600 41.18200
H  51.62500 20.79600 43.48600
H  57.90300 21.92200 45.30200
H  56.64700 28.01300 45.88500
H  49.28700 24.99900 42.75200
H  49.89200 22.38500 42.43700
H  48.50200 22.15400 44.37900
H  48.76800 23.85900 44.59300
H  49.65800 22.71000 45.52200
H  51.08400 23.42800 40.81100
H  51.31200 25.07900 40.66200
H  48.70800 25.06100 40.34500
H  48.96900 23.35700 39.93400
H  54.42400 18.37800 42.68900
H  52.88400 18.99500 42.81500
H  53.50200 18.29100 44.22900
H  57.71700 19.98600 46.34300
H  58.74100 19.88000 44.86400
H  58.47300 18.49100 45.71500
H  59.26300 24.42500 45.03400
H  57.99800 26.01500 47.21200
H  58.38700 22.79000 47.25900
H  59.42300 24.26600 47.73300
H  59.90500 23.04500 46.57000
H  60.21100 26.52700 45.78100
H  59.15500 27.65900 46.58300
H  58.04500 27.46900 44.01900
H  59.83100 27.61600 43.71700
H  58.92900 28.79400 44.54300
H  54.92500 30.43700 44.72300
H  55.04100 29.92900 46.38200
H  53.43000 30.53300 45.82300
H  49.76300 27.27300 44.31800
H  48.59700 28.65500 40.55500
H  47.01000 28.46100 41.34400
H  47.87300 27.06100 40.65100
Mg 49.39600 45.33000 42.81800
C  46.13600 46.32300 42.17400
C  48.52700 42.06200 42.20200
C  52.73200 44.67500 42.63000
C  50.13500 48.73400 43.32400
N  47.46100 44.26100 42.34500
C  46.28800 44.91400 41.96200
C  45.36500 43.91500 41.24100
C  46.02100 42.53700 41.68500
C  47.41300 42.93000 42.17300
C  45.17800 41.71600 42.72300
C  45.29300 44.10400 39.67700
C  44.02600 43.44900 39.13500
H  43.48000 43.77200 37.71500
N  50.43300 43.63700 42.56300
C  49.86900 42.43500 42.35800
C  50.94500 41.43500 42.37400
C  52.15900 42.11600 42.51300
C  51.80800 43.53400 42.61400
C  50.66400 39.94800 42.08300
C  53.50500 41.43900 42.49300
O  53.56900 40.21900 42.34800
C  54.79300 42.15800 42.67600
N  51.20800 46.54200 42.88400
C  52.47000 46.03100 42.82700
C  53.53400 47.18900 42.91900
C  52.68900 48.47900 43.17600
C  51.24400 47.90000 43.16900
C  54.71000 46.95100 43.97500
C  52.97100 49.60600 42.10700
C  52.09900 49.64600 40.82700
N  48.37200 47.20000 42.78000
C  48.76000 48.50000 43.09100
C  47.65300 49.39000 43.12100
C  46.61100 48.60700 42.76600
C  47.09300 47.27400 42.60200
C  47.68100 50.87900 43.45800
C  45.18600 48.58800 42.37100
O  44.38100 49.51600 42.31900
C  44.81400 47.13100 41.93400
C  43.67700 46.58800 42.72000
O  43.62900 46.68800 43.93100
O  42.73300 45.96700 41.93600
C  41.52700 45.54200 42.71800
H  48.28500 41.03300 41.92800
H  53.78000 44.38300 42.72700
H  50.32200 49.80300 43.44000
H  44.38000 43.96200 41.70600
H  46.12700 41.91600 40.79600
H  44.29200 42.27300 43.02800
H  45.77700 41.45400 43.59400
H  44.92500 40.78100 42.22200
H  46.21700 43.72300 39.24200
H  45.43200 45.17200 39.51000
H  43.25300 43.95800 39.71100
H  44.08400 42.38800 39.38100
H  51.23700 39.60600 41.22200
H  49.62000 39.67400 41.93100
H  50.90300 39.38800 42.98700
H  54.94600 42.77300 41.78900
H  55.67600 41.51900 42.69300
H  54.79300 42.70600 43.61800
H  53.94500 47.30200 41.91500
H  52.66000 48.85700 44.19800
H  54.83100 47.89100 44.51500
H  55.69500 46.75700 43.55200
H  54.44800 46.15100 44.66700
H  54.01400 49.46400 41.82500
H  52.99200 50.53500 42.67600
H  51.67900 50.64300 40.68900
H  51.35800 48.84800 40.79800
H  52.77900 49.50800 39.98600
H  46.69100 51.14600 43.08600
H  48.42900 51.52300 42.99600
H  47.75700 50.91500 44.54400
H  44.53000 47.13900 40.88100
H  40.74900 45.25500 42.01100
H  41.19600 46.29600 43.43300
H  41.78100 44.65000 43.29100

