158

Mg 47.83800 15.10800 28.61200
C  45.67400 15.11100 31.43100
C  50.10200 16.87800 30.27400
C  49.61000 15.13600 25.77200
C  45.13400 13.55500 26.78400
N  47.88100 15.85100 30.65400
C  46.96400 15.68200 31.70900
C  47.60000 16.20000 33.07700
C  48.98500 16.73700 32.61700
C  49.03300 16.48000 31.05800
C  49.26600 18.23700 33.08000
C  47.68300 15.14600 34.20900
C  46.71300 15.33000 35.43000
H  46.38700 16.73100 36.01300
N  49.65300 15.79800 28.07800
C  50.46100 16.57600 28.93400
C  51.71900 16.83100 28.28400
C  51.62700 16.37400 26.92800
C  50.23100 15.71800 26.84300
C  52.83700 17.67200 28.93300
C  52.50500 16.65600 25.78200
O  52.27200 16.21600 24.71000
C  53.90900 17.37500 25.98400
N  47.38600 14.37800 26.69800
C  48.33700 14.54900 25.69900
C  47.95700 13.96300 24.32900
C  46.47000 13.51700 24.64900
C  46.29300 13.89300 26.10700
C  47.94700 15.09300 23.26100
C  46.36400 11.98100 24.42000
C  47.43200 11.08300 25.11100
N  45.83200 14.46000 28.99900
C  44.87300 13.81500 28.15900
C  43.67700 13.53800 28.88000
C  43.94500 14.05700 30.19400
C  45.21600 14.55400 30.18300
C  42.39700 12.85200 28.34800
C  43.41300 14.21800 31.60900
O  42.35500 13.81300 32.00900
C  44.50500 14.97200 32.40400
C  43.93300 16.14500 33.00700
O  44.01300 17.29200 32.60400
O  43.25100 15.70800 34.04200
C  42.31100 16.80600 34.41200
H  50.80100 17.51700 30.81900
H  50.18400 15.22300 24.84700
H  44.44300 12.99900 26.14800
H  46.94100 17.02000 33.36000
H  49.83500 16.17100 32.99800
H  49.31800 18.99800 32.30200
H  50.22000 18.26000 33.60500
H  48.47300 18.66300 33.69400
H  48.70700 15.21100 34.57600
H  47.52600 14.15600 33.78000
H  47.04200 14.71400 36.26600
H  45.71000 14.98400 35.18300
H  53.70200 17.12700 29.31100
H  52.38800 18.32900 29.67800
H  53.07600 18.37200 28.13200
H  54.36300 16.80300 26.79300
H  53.86400 18.46400 25.99600
H  54.44700 17.01700 25.10700
H  48.70100 13.21800 24.04800
H  45.65300 14.03600 24.14700
H  46.95300 15.52800 23.16000
H  48.09300 14.55200 22.32600
H  48.69600 15.86500 23.43800
H  46.47000 11.75900 23.35800
H  45.33300 11.80200 24.72700
H  46.86600 10.33000 25.65800
H  47.97900 11.69100 25.83100
H  48.08800 10.58800 24.39400
H  41.94400 12.22500 29.11600
H  42.54500 12.18900 27.49500
H  41.63300 13.54300 27.99400
H  44.98800 14.38900 33.18900
H  41.87200 17.27600 33.53300
H  42.68400 17.68100 34.94400
H  41.47000 16.42400 34.99100
Mg 8.98900 48.15800 28.46800
C  7.06800 47.79200 31.48400
C  11.76400 48.48900 30.38500
C  10.60600 49.42100 25.76600
C  5.89500 48.35400 26.80000
N  9.26200 48.45100 30.68000
C  8.38800 48.10300 31.65800
C  9.22300 48.03100 33.04900
C  10.66000 48.41000 32.62700
C  10.58600 48.48600 31.07800
C  11.30100 49.72200 33.26800
C  9.08500 46.72900 33.96000
C  10.15500 46.63300 35.06000
H  9.83200 45.64400 36.15600
N  10.94000 48.77500 28.12500
C  11.98000 48.59700 29.02400
C  13.22500 48.63700 28.28000
C  12.88100 49.05700 26.92300
C  11.43200 49.12400 26.88100
C  14.64400 48.55500 28.86200
C  13.78700 49.24900 25.68300
O  13.28200 49.53100 24.62500
C  15.26300 48.92100 25.80700
N  8.32700 48.95600 26.58200
C  9.21600 49.40300 25.58300
C  8.39600 49.75000 24.33700
C  6.99900 49.35500 24.69500
C  7.04600 48.78500 26.11300
C  8.65400 51.27400 23.86900
C  6.33000 48.46600 23.68300
C  5.98400 49.05400 22.28000
N  6.85900 47.97000 28.95600
C  5.75800 48.04200 28.20200
C  4.54700 47.82300 28.98900
C  5.01300 47.54000 30.29100
C  6.41300 47.76000 30.23400
C  3.20800 47.89800 28.40700
C  4.71400 47.15200 31.65400
O  3.60800 46.74500 32.08000
C  6.04100 47.25900 32.47700
C  6.35500 45.88800 32.93500
O  6.86400 45.00100 32.16200
O  5.84100 45.72100 34.23300
C  6.18200 44.37700 34.76600
H  12.61700 48.52700 31.06600
H  10.94400 49.66500 24.75700
H  4.93200 48.41200 26.28800
H  8.85400 48.86700 33.64400
H  11.36400 47.58900 32.76200
H  12.27300 50.08400 32.93400
H  11.41400 49.60500 34.34600
H  10.60400 50.54400 33.10500
H  9.10600 45.86400 33.29700
H  8.13000 46.84900 34.47100
H  10.39900 47.61700 35.46200
H  11.05500 46.23800 34.58900
H  15.17200 47.74100 28.36700
H  14.54300 48.31100 29.91900
H  15.11700 49.53000 28.74400
H  15.38700 47.91300 26.20100
H  15.69400 49.73700 26.38800
H  15.76900 48.95800 24.84200
H  8.76500 49.12700 23.52300
H  6.52400 50.33600 24.71600
H  7.75100 51.88400 23.85600
H  9.15500 51.33100 22.90300
H  9.30500 51.83200 24.54200
H  5.38700 48.13500 24.11700
H  6.90300 47.55600 23.50800
H  6.58800 48.55000 21.52500
H  6.16200 50.12900 22.32000
H  4.96800 48.89000 21.92100
H  3.07600 48.86700 27.92700
H  2.47000 47.95700 29.20600
H  2.99400 47.11700 27.67700
H  6.11500 47.96900 33.30100
H  5.32900 44.06400 35.36800
H  7.12200 44.49300 35.30500
H  6.16000 43.67400 33.93300

