158

Mg 0.62800 7.92000 27.54900
C  1.23900 10.10800 30.21100
C  0.68300 5.25000 29.70500
C  0.69000 5.76200 24.92700
C  0.92100 10.58700 25.33700
N  1.04500 7.74900 29.69400
C  1.17600 8.75200 30.62900
C  0.77200 8.27100 31.95900
C  1.02400 6.67900 31.87500
C  0.81800 6.54900 30.32400
C  2.44800 6.22600 32.36500
C  -0.75300 8.61800 32.31800
C  -0.89900 9.24400 33.75400
H  0.09600 8.98000 34.92200
N  0.72300 5.75800 27.37900
C  0.71500 4.86700 28.34800
C  0.66500 3.48100 27.81000
C  0.67000 3.62100 26.37000
C  0.66600 5.08400 26.13400
C  0.70400 2.12200 28.68200
C  0.60000 2.58300 25.26900
O  0.54400 2.81100 24.07600
C  0.56800 1.20800 25.68200
N  0.82500 8.13100 25.44400
C  0.78000 7.12300 24.55000
C  0.70000 7.59900 23.07600
C  0.57300 9.16400 23.29900
C  0.75200 9.33100 24.80300
C  1.82600 7.16500 22.12400
C  -0.85100 9.61500 22.90200
C  -0.92400 10.03700 21.51200
N  0.90500 9.97100 27.67600
C  1.00800 10.93000 26.72300
C  1.19500 12.17400 27.32600
C  1.24100 11.94400 28.68800
C  1.19700 10.54400 28.82900
C  1.35800 13.42900 26.60000
C  1.41800 12.59200 29.97800
O  1.54200 13.78100 30.30600
C  1.33300 11.44200 31.06000
C  2.57100 11.45300 31.90000
O  3.68300 11.00600 31.61400
O  2.25400 12.02700 33.14700
C  3.21700 11.93600 34.22100
H  0.64200 4.40700 30.39900
H  0.57500 5.17200 24.01600
H  0.97700 11.41800 24.63100
H  1.47800 8.75800 32.63200
H  0.27300 6.07900 32.38800
H  3.04600 7.01900 32.81400
H  3.00900 5.83500 31.51600
H  2.41200 5.50700 33.18400
H  -1.33800 7.70000 32.27200
H  -1.17100 9.29800 31.57500
H  -1.83400 8.83400 34.13500
H  -1.13700 10.30100 33.64100
H  1.10000 2.38000 29.66500
H  1.32400 1.28900 28.35400
H  -0.32400 1.81600 28.87600
H  1.45700 0.95800 26.26200
H  0.48000 0.63100 24.76200
H  -0.36400 0.97200 26.19600
H  -0.21200 7.08100 22.78100
H  1.36900 9.70700 22.78900
H  2.66200 6.81900 22.73200
H  2.25800 7.92500 21.47300
H  1.51900 6.28100 21.56500
H  -1.24000 10.38200 23.57300
H  -1.47600 8.73400 23.04200
H  -0.01000 10.43800 21.07200
H  -1.55500 10.92500 21.55300
H  -1.33000 9.31200 20.80700
H  2.15300 13.39600 25.85400
H  1.58200 14.22400 27.31100
H  0.40500 13.67000 26.13000
H  0.54900 11.60100 31.80000
H  4.23000 11.69600 33.90000
H  2.91600 11.21900 34.98500
H  3.40500 12.94800 34.57700
Mg -0.21600 42.91900 25.96400
C  1.91300 42.95800 28.69400
C  -2.92400 42.51400 28.11500
C  -2.19000 42.66700 23.27100
C  2.57800 43.09300 23.92000
N  -0.38700 42.89600 28.11100
C  0.55600 42.90800 29.09900
C  0.01700 42.96900 30.49200
C  -1.55300 42.70300 30.22900
C  -1.60800 42.56900 28.68600
C  -2.18000 41.38500 30.79400
C  0.36500 44.39900 31.14800
C  0.90700 44.35800 32.54700
H  0.64400 43.15400 33.41500
N  -2.24300 42.57000 25.72200
C  -3.20100 42.46700 26.73000
C  -4.52300 42.46900 26.08600
C  -4.22400 42.26600 24.72000
C  -2.84200 42.44400 24.53100
C  -5.79000 42.43600 26.90600
C  -5.24800 41.85200 23.71400
O  -4.91100 41.70700 22.58300
C  -6.71400 41.62100 24.15300
N  0.17000 42.84500 23.94800
C  -0.79600 42.67800 23.01700
C  -0.24200 42.73600 21.53500
C  1.27200 43.00000 21.79600
C  1.36500 42.89500 23.26800
C  -0.50600 41.53200 20.57700
C  1.74600 44.42900 21.33500
C  3.06300 44.47800 20.65300
N  1.87000 42.92500 26.17300
C  2.85800 43.04600 25.28200
C  4.15600 43.00900 25.93300
C  3.83500 43.05400 27.25300
C  2.40600 43.01700 27.36200
C  5.53900 42.96900 25.20900
C  4.44300 43.17400 28.51000
O  5.60200 43.34400 28.82500
C  3.20300 43.02100 29.50600
C  3.33300 41.77800 30.37000
O  3.09600 40.56900 30.09800
O  4.00200 42.13100 31.54200
C  4.41900 40.99500 32.32700
H  -3.74100 42.46100 28.83800
H  -2.81700 42.82600 22.39100
H  3.49900 43.03600 23.33600
H  0.44600 42.09900 30.99000
H  -2.18200 43.52000 30.58200
H  -2.60800 40.78400 29.99200
H  -2.97500 41.62600 31.49900
H  -1.55900 40.81100 31.48100
H  -0.44900 45.12200 31.09300
H  1.11100 44.78300 30.45300
H  0.39800 45.15200 33.09400
H  1.99500 44.39800 32.60300
H  -6.60400 43.12400 26.67700
H  -5.47500 42.49600 27.94800
H  -6.13600 41.41200 26.76600
H  -6.84300 40.69300 24.71000
H  -7.17600 41.60300 23.16600
H  -7.25400 42.41100 24.67400
H  -0.71100 43.62600 21.11400
H  1.87500 42.22700 21.32000
H  -0.87000 40.62200 21.05400
H  0.44800 41.22700 20.14600
H  -1.09200 41.78300 19.69300
H  1.75100 45.10400 22.19100
H  1.03400 44.85800 20.63000
H  3.82000 43.71400 20.82900
H  3.55600 45.43700 20.81200
H  2.72200 44.51300 19.61800
H  6.12100 42.08000 25.45000
H  6.01000 43.92300 25.44800
H  5.40800 42.93500 24.12700
H  3.27600 43.81000 30.25400
H  4.68500 41.33400 33.32800
H  5.38400 40.66800 31.94000
H  3.75400 40.14800 32.49300

