158

Mg 33.67100 48.62700 25.03700
C  34.09800 47.19900 28.23700
C  31.97300 51.24800 26.62300
C  33.16400 49.80300 22.09200
C  35.18100 45.69100 23.68200
N  33.31000 49.22200 27.25300
C  33.56700 48.52100 28.33400
C  33.28400 49.36600 29.61100
C  32.46800 50.55700 29.05100
C  32.64900 50.38600 27.54800
C  31.05600 50.63900 29.50700
C  34.50100 49.72000 30.35200
C  34.41400 49.69600 31.85600
H  33.01500 49.56000 32.54200
N  32.70100 50.31500 24.43300
C  32.07000 51.26100 25.17500
C  31.64400 52.35900 24.28200
C  31.90900 51.93800 22.96200
C  32.61600 50.59800 23.16000
C  30.99300 53.59500 24.71700
C  31.56500 52.71300 21.72600
O  31.91700 52.23600 20.65400
C  30.73700 54.00500 21.69000
N  34.12900 47.85500 23.14900
C  33.89100 48.58400 21.99000
C  34.47900 47.97400 20.73800
C  35.06300 46.65400 21.28500
C  34.85900 46.77800 22.78400
C  33.38800 47.84700 19.60300
C  36.56500 46.30100 20.78700
C  37.75900 46.75500 21.70500
N  34.31300 46.69600 25.66800
C  34.96200 45.69300 25.09700
C  35.31600 44.63600 26.02800
C  34.92800 45.22300 27.31100
C  34.42300 46.43800 27.05800
C  35.87300 43.30100 25.66800
C  34.97300 45.01300 28.77200
O  35.35200 44.04100 29.34500
C  34.40400 46.30100 29.38800
C  33.17000 45.79500 30.00400
O  32.08600 45.65900 29.45700
O  33.50800 45.46800 31.32500
C  32.44800 44.77100 32.12000
H  31.50600 52.10300 27.11600
H  32.99800 50.20700 21.09100
H  35.68500 44.81400 23.26900
H  32.63500 48.75700 30.24100
H  32.98000 51.49100 29.28300
H  30.70600 49.72800 29.99200
H  30.45800 50.70200 28.59700
H  30.85600 51.42200 30.23800
H  34.72200 50.75200 30.08200
H  35.35700 49.16200 29.97000
H  34.98500 50.52900 32.26500
H  34.93400 48.77300 32.11600
H  31.54000 54.44200 24.30500
H  31.12500 53.69600 25.79400
H  29.92300 53.68300 24.52500
H  29.80600 54.00500 22.25700
H  30.51000 54.28600 20.66100
H  31.35900 54.80000 22.10000
H  35.27600 48.68000 20.50500
H  34.40600 45.83400 20.99500
H  32.62900 48.62000 19.47900
H  32.82200 46.95400 19.87000
H  33.76700 47.68200 18.59400
H  36.79900 46.77600 19.83400
H  36.62200 45.21500 20.71200
H  37.52900 47.43500 22.52600
H  38.34400 47.38400 21.03500
H  38.34600 45.93500 22.11900
H  36.95600 43.35100 25.55600
H  35.37700 42.86900 24.79900
H  35.75500 42.62400 26.51400
H  35.16900 46.67400 30.07000
H  32.82700 43.75200 32.19800
H  31.47300 44.89500 31.64900
H  32.35600 45.26400 33.08800
Mg -9.40900 18.68500 42.49800
C  -6.03900 17.99600 42.58100
C  -8.70500 22.05000 41.84200
C  -12.59100 19.31700 42.38900
C  -9.98600 15.20800 42.48300
N  -7.58100 19.79300 41.97100
C  -6.30200 19.26300 42.20100
C  -5.24400 20.36700 42.13100
C  -6.13700 21.69700 42.11700
C  -7.55600 21.15800 41.98700
C  -5.99800 22.58100 43.34100
C  -4.15100 20.26800 40.98200
C  -4.42000 19.55000 39.67600
H  -3.98600 20.19300 38.33200
N  -10.53700 20.40700 42.02700
C  -10.04700 21.66400 41.84300
C  -11.13100 22.57800 41.62500
C  -12.30600 21.81400 41.86400
C  -11.86900 20.50200 42.10500
C  -10.99300 24.04600 41.26700
C  -13.70300 22.34900 41.74800
O  -14.00900 23.50000 41.35000
C  -14.86100 21.44800 41.88300
N  -11.07400 17.41400 42.24600
C  -12.29200 17.90800 42.48000
C  -13.33700 16.86100 42.82600
C  -12.50000 15.48800 42.79000
C  -11.09200 16.05900 42.43200
C  -13.95400 17.21600 44.23400
C  -12.98400 14.43400 41.80500
C  -13.72800 13.25900 42.49400
N  -8.25800 16.93500 42.49100
C  -8.64700 15.62800 42.65900
C  -7.49100 14.83000 42.91200
C  -6.44800 15.73000 42.92500
C  -6.97100 16.98300 42.64700
C  -7.45800 13.35300 43.23700
C  -5.02300 15.84400 43.15600
O  -4.17100 15.00800 43.34000
C  -4.65300 17.34900 42.95400
C  -4.11900 17.90800 44.22700
O  -2.98200 18.32800 44.36000
O  -5.12000 18.06600 45.13400
C  -4.71900 18.74900 46.33700
H  -8.59200 23.13500 41.80300
H  -13.66500 19.48900 42.49000
H  -10.26300 14.15900 42.60700
H  -4.71200 20.34200 43.08200
H  -5.78200 22.34100 41.31200
H  -6.89300 22.86000 43.89600
H  -5.43000 23.47700 43.08800
H  -5.32300 22.17100 44.09200
H  -3.21800 19.87500 41.38400
H  -3.72300 21.24700 40.76500
H  -5.49400 19.38200 39.59100
H  -3.84700 18.62500 39.73200
H  -10.23800 24.54000 41.87800
H  -11.84500 24.72600 41.23100
H  -10.60800 24.11900 40.25000
H  -14.99400 21.11700 42.91300
H  -14.80400 20.67000 41.12200
H  -15.77500 22.02800 41.74900
H  -14.09600 16.83800 42.04400
H  -12.44600 15.09400 43.80400
H  -14.77700 17.90300 44.03500
H  -13.24000 17.68800 44.90900
H  -14.42800 16.32400 44.64200
H  -12.04700 14.06000 41.39200
H  -13.61000 14.68100 40.94700
H  -13.15000 12.34000 42.58800
H  -14.66200 13.05100 41.97200
H  -13.88000 13.40900 43.56200
H  -6.46900 13.09900 42.85600
H  -8.32300 12.82000 42.84200
H  -7.41100 13.21500 44.31700
H  -3.81600 17.65300 42.32500
H  -5.60000 18.89900 46.96000
H  -4.26000 19.71200 46.11700
H  -3.93000 18.20000 46.85200

