158

Mg 47.42500 16.68500 29.05100
C  45.17600 16.29300 31.66900
C  49.28000 18.78100 30.94300
C  49.34700 17.48200 26.31500
C  45.20000 15.05600 26.92800
N  47.20100 17.43200 31.10000
C  46.28500 17.03000 32.04600
C  46.87200 17.37500 33.41000
C  47.87000 18.51700 33.07900
C  48.14200 18.18600 31.61300
C  47.28100 19.91700 33.35300
C  47.50700 16.11800 34.03900
C  47.74700 16.13700 35.54000
H  47.67500 17.43800 36.36100
N  49.21100 17.78900 28.70800
C  49.87000 18.48000 29.70500
C  51.14900 18.97000 29.19600
C  51.14700 18.76300 27.76500
C  49.83400 17.96000 27.53300
C  52.05600 19.73500 30.13900
C  52.08900 19.12200 26.69800
O  51.94300 18.88100 25.51900
C  53.30700 19.85200 27.15000
N  47.26800 16.38400 26.97100
C  48.18200 16.75500 26.09200
C  47.78100 16.38400 24.64300
C  46.59200 15.43700 24.84200
C  46.31500 15.64100 26.34800
C  47.36700 17.63600 23.76500
C  46.80200 13.89900 24.38300
C  45.62400 13.26200 23.63600
N  45.62000 15.86300 29.23000
C  44.81500 15.24500 28.25600
C  43.56900 14.78800 28.79100
C  43.71900 15.17100 30.16000
C  44.93400 15.88600 30.30300
C  42.37300 14.19100 28.21700
C  43.02100 15.10700 31.46800
O  41.87200 14.74300 31.76900
C  44.11000 15.70100 32.59800
C  43.46700 16.60700 33.53600
O  43.00900 17.70100 33.10700
O  43.54600 16.25800 34.87400
C  42.94000 17.06800 35.87600
H  49.94800 19.42800 31.51600
H  49.80900 17.77900 25.37100
H  44.59200 14.39900 26.30200
H  46.06900 17.77300 34.03100
H  48.70400 18.38800 33.76900
H  46.20100 19.86800 33.49500
H  47.48200 20.53600 32.47900
H  47.74400 20.41100 34.20600
H  48.44600 15.88900 33.53400
H  46.81500 15.29000 33.88700
H  48.79200 15.83700 35.61600
H  47.27400 15.27700 36.01400
H  53.10100 19.59100 29.86400
H  51.91000 19.30800 31.13100
H  51.81500 20.79500 30.21900
H  53.18600 20.92900 27.26400
H  54.01500 19.64100 26.34900
H  53.75200 19.34300 28.00400
H  48.62300 15.90800 24.14200
H  45.70700 15.74400 24.28400
H  47.62100 18.55300 24.29600
H  46.33700 17.75400 23.42800
H  47.98600 17.47600 22.88200
H  46.92900 13.36900 25.32600
H  47.70700 13.90500 23.77600
H  45.26700 12.37400 24.15700
H  45.98600 12.89400 22.67600
H  44.90600 14.06400 23.46600
H  42.58100 14.01400 27.16100
H  41.56800 14.92500 28.26300
H  42.20600 13.31000 28.83700
H  44.65900 14.93800 33.14900
H  43.70600 17.75000 36.24800
H  42.75000 16.36600 36.68700
H  42.07000 17.67800 35.63100
Mg 1.10700 43.60400 25.17700
C  2.85000 43.34600 28.26600
C  -1.58900 42.31700 26.71000
C  -0.14500 43.38600 22.17500
C  4.42700 44.21700 23.65000
N  0.65800 43.00800 27.28600
C  1.45000 43.16900 28.34500
C  0.62400 42.94600 29.62000
C  -0.80000 42.42400 29.11400
C  -0.62000 42.59500 27.64300
C  -1.40200 41.09100 29.58700
C  0.57200 44.16800 30.53700
C  0.90800 43.98400 32.02600
H  0.51300 42.61400 32.68100
N  -0.70600 43.05100 24.56600
C  -1.67100 42.39600 25.31200
C  -2.74200 42.05300 24.48600
C  -2.41400 42.42800 23.18800
C  -1.06500 43.05100 23.24300
C  -3.96600 41.22300 25.05200
C  -3.14700 42.06700 21.88900
O  -2.69900 42.26100 20.76100
C  -4.43300 41.43800 21.95400
N  2.00700 43.83900 23.28500
C  1.19900 43.59500 22.14700
C  1.97000 43.65000 20.86600
C  3.19500 44.43800 21.36300
C  3.27300 44.11500 22.85700
C  2.20700 42.19800 20.42600
C  3.03100 45.95400 21.19200
C  4.19800 46.72200 20.58700
N  3.26600 43.85500 25.77200
C  4.44000 44.08500 25.04400
C  5.53100 44.15400 25.98600
C  4.97300 43.70400 27.20000
C  3.59500 43.70500 27.04300
C  6.96900 44.29500 25.68100
C  5.27400 43.47300 28.56800
O  6.37300 43.49500 29.06400
C  3.97700 43.29900 29.31100
C  4.03100 42.07700 30.18200
O  4.01600 40.90300 29.80200
O  4.13700 42.40700 31.46400
C  4.14400 41.36300 32.50100
H  -2.39600 41.82400 27.25700
H  -0.59200 43.41100 21.17900
H  5.42800 44.43000 23.27000
H  1.13700 42.13500 30.13700
H  -1.61100 43.13400 29.27500
H  -0.79100 40.22900 29.31700
H  -2.44100 40.97600 29.28100
H  -1.55600 41.16500 30.66400
H  -0.46500 44.43100 30.74300
H  1.13600 45.03100 30.18200
H  0.60900 44.70500 32.78800
H  1.96000 44.26700 32.05800
H  -4.86400 41.83400 24.96000
H  -3.84700 40.91600 26.09100
H  -4.03600 40.30200 24.47300
H  -5.03100 41.71500 22.82200
H  -4.35800 40.35000 21.94700
H  -5.04000 41.57200 21.05900
H  1.34200 44.13900 20.12100
H  4.10100 44.05200 20.89600
H  2.70900 41.63600 21.21300
H  2.85400 42.14300 19.55000
H  1.29300 41.63900 20.22200
H  2.86000 46.38200 22.18000
H  2.09400 46.15000 20.67000
H  4.97800 45.98600 20.39300
H  4.48000 47.45400 21.34400
H  3.92800 47.17200 19.63100
H  7.56100 43.84500 26.47800
H  7.17300 45.36500 25.70100
H  7.12600 43.82000 24.71200
H  3.91800 44.12800 30.01700
H  3.36300 40.60800 32.40700
H  4.05200 41.98400 33.39200
H  5.12200 40.88200 32.52500

