158

Mg 34.88800 49.63600 25.58200
C  35.39800 47.63300 28.50800
C  33.28800 52.01300 27.53600
C  34.30400 51.06300 22.77800
C  36.01400 46.75400 23.79400
N  34.39400 49.75200 27.77000
C  34.71900 48.84200 28.79400
C  34.22700 49.42400 30.14500
C  33.39700 50.63200 29.73300
C  33.73800 50.89000 28.27300
C  31.84600 50.52000 30.03400
C  35.48700 49.75100 31.09700
C  35.41300 49.38200 32.54600
H  33.98100 49.51400 33.11900
N  33.96000 51.38200 25.20700
C  33.32200 52.25800 26.12800
C  32.81700 53.36800 25.38000
C  33.17700 53.10200 23.98400
C  33.80100 51.80700 23.92400
C  32.09600 54.51000 26.05600
C  32.98300 54.02400 22.80200
O  33.18000 53.74800 21.61900
C  32.37000 55.45400 22.94300
N  35.16700 49.06700 23.54300
C  34.95200 49.87800 22.57700
C  35.56600 49.51500 21.21600
C  35.93100 48.00200 21.48400
C  35.67900 47.89100 23.05300
C  34.49700 49.59600 20.05500
C  37.40700 47.62800 21.10500
C  38.50400 47.93100 22.08900
N  35.58300 47.63500 25.97300
C  36.03400 46.61800 25.14100
C  36.49600 45.47200 25.95200
C  36.24100 45.89100 27.27300
C  35.71700 47.13300 27.21400
C  37.14700 44.25600 25.45300
C  36.31200 45.44000 28.71800
O  36.69300 44.31900 29.17500
C  35.73700 46.53900 29.55400
C  34.58400 45.99700 30.34000
O  33.46500 45.69400 29.90000
O  34.96600 45.78600 31.63200
C  34.06700 45.01800 32.51200
H  32.93800 52.79500 28.21300
H  34.08400 51.56000 21.83100
H  36.43800 45.92400 23.22500
H  33.58800 48.79200 30.76200
H  33.80600 51.50100 30.24900
H  31.31600 50.80100 29.12400
H  31.66300 51.28600 30.78700
H  31.60900 49.55800 30.48800
H  35.66800 50.82600 31.12100
H  36.31700 49.30000 30.55400
H  36.07000 50.04100 33.11400
H  35.72700 48.33900 32.58300
H  32.41100 55.53300 25.85200
H  32.19600 54.59200 27.13800
H  31.05200 54.52600 25.74200
H  31.99900 55.69700 21.94700
H  33.06600 56.21800 23.28900
H  31.56000 55.32800 23.66100
H  36.44700 50.09200 20.93600
H  35.22200 47.30900 21.03100
H  34.31300 50.66000 19.90600
H  33.63600 49.00900 20.37500
H  34.72500 49.06300 19.13100
H  37.70500 48.17900 20.21300
H  37.55400 46.59000 20.80900
H  38.08500 48.43700 22.95900
H  39.22500 48.67900 21.75800
H  39.10600 47.11100 22.47900
H  37.40800 43.56700 26.25500
H  38.00100 44.49000 24.81800
H  36.40000 43.75000 24.84100
H  36.42400 46.96800 30.28400
H  33.28000 45.65700 32.91400
H  34.63700 44.80100 33.41500
H  33.70900 44.10900 32.02800
Mg -9.52000 18.41900 42.39600
C  -6.06400 18.17600 42.65600
C  -9.20200 21.81000 41.77300
C  -12.80700 18.61400 41.75100
C  -9.68700 14.95400 42.77400
N  -7.87000 19.72400 42.08700
C  -6.50400 19.45000 42.25500
C  -5.67800 20.68900 41.96700
C  -6.68400 21.90500 41.98900
C  -8.00500 21.12400 42.01800
C  -6.47800 22.89600 43.22400
C  -4.85500 20.54500 40.64300
C  -5.57900 19.82700 39.46800
H  -5.34300 20.30800 38.00900
N  -10.82500 20.03100 41.83500
C  -10.54100 21.34500 41.67600
C  -11.76700 22.14000 41.40800
C  -12.82400 21.17700 41.46800
C  -12.17500 19.84700 41.70900
C  -11.84000 23.54800 41.04800
C  -14.27700 21.42800 41.44600
O  -14.62600 22.60200 41.23900
C  -15.36200 20.47600 41.63000
N  -10.97900 17.06500 42.07400
C  -12.25500 17.38500 41.98900
C  -13.16500 16.24600 42.31700
C  -12.20600 14.98100 42.30100
C  -10.83600 15.67400 42.41200
C  -14.03200 16.33700 43.59600
C  -12.26500 14.04300 41.02000
C  -13.17600 12.79400 41.05100
N  -8.16000 16.83600 42.73500
C  -8.38400 15.47400 42.96700
C  -7.13800 14.84300 43.34700
C  -6.16700 15.89000 43.20300
C  -6.88200 17.07300 42.88300
C  -6.99000 13.40300 43.66700
C  -4.74400 16.16600 43.26800
O  -3.73300 15.48100 43.49600
C  -4.62200 17.65300 42.94400
C  -3.92000 18.33300 44.05100
O  -2.94500 19.06600 43.89300
O  -4.38300 17.98400 45.26600
C  -3.45800 18.22000 46.39400
H  -9.10800 22.89400 41.67800
H  -13.89900 18.60100 41.76000
H  -9.95000 13.90100 42.89400
H  -4.93800 20.73500 42.76600
H  -6.70400 22.54700 41.10900
H  -7.21800 22.66000 43.98900
H  -6.60700 23.95700 43.00900
H  -5.50600 22.90200 43.71800
H  -3.93200 20.02100 40.89200
H  -4.57300 21.51900 40.24400
H  -6.65900 19.75600 39.59600
H  -5.11600 18.84100 39.43000
H  -10.87900 24.04700 41.18000
H  -12.43900 24.13300 41.74600
H  -12.13200 23.85900 40.04500
H  -15.27800 19.85600 42.52300
H  -15.38600 19.93400 40.68500
H  -16.31800 20.97700 41.78000
H  -13.86300 16.02800 41.50900
H  -12.39100 14.34700 43.16800
H  -14.92300 16.87000 43.26400
H  -13.55900 17.00500 44.31500
H  -14.40000 15.37700 43.96100
H  -11.27400 13.66900 40.76200
H  -12.52100 14.62800 40.13600
H  -13.44100 12.54000 42.07800
H  -12.52200 11.96500 40.77800
H  -14.06600 12.91600 40.43500
H  -6.00700 13.14300 43.27400
H  -7.72700 12.78100 43.15900
H  -7.01500 13.14600 44.72600
H  -4.01700 17.70000 42.03900
H  -3.35500 17.18300 46.71600
H  -3.92200 18.82800 47.17100
H  -2.47900 18.62700 46.14200

