158

Mg 9.57100 48.44500 25.99000
C  7.11100 48.99400 28.36200
C  11.95300 49.47100 28.22300
C  11.85900 47.96800 23.68200
C  7.05500 48.22800 23.54300
N  9.54500 49.08100 28.08100
C  8.41800 49.07600 28.90100
C  8.85500 49.31800 30.37100
C  10.28200 49.95100 30.11300
C  10.62900 49.46100 28.73100
C  10.45500 51.49200 30.25400
C  8.79300 47.97300 31.10400
C  9.45200 47.82400 32.42800
H  8.64300 47.36600 33.69200
N  11.66200 48.58700 25.96700
C  12.46900 49.09900 26.93900
C  13.87700 49.11300 26.50000
C  13.80300 48.58600 25.13800
C  12.40000 48.28900 24.91800
C  15.12700 49.41600 27.31700
C  14.92400 48.23400 24.16300
O  14.84100 47.64200 23.12800
C  16.34600 48.69900 24.53400
N  9.46900 48.25600 23.95500
C  10.56300 47.93800 23.20700
C  10.29300 47.57700 21.72800
C  8.73200 47.83500 21.64200
C  8.34400 48.07900 23.13200
C  11.02600 48.31700 20.68100
C  7.97900 46.75300 20.81700
C  7.19800 47.10600 19.64800
N  7.48400 48.38600 25.94200
C  6.60500 48.33600 24.89300
C  5.25500 48.34800 25.37600
C  5.43000 48.58500 26.74900
C  6.80400 48.66000 27.01500
C  4.04200 48.06100 24.50100
C  4.65400 48.78400 27.99800
O  3.47800 48.80000 28.17300
C  5.71500 49.25700 29.03500
C  5.57700 48.42000 30.24800
O  5.29300 47.26200 30.26900
O  5.36100 49.21800 31.27600
C  4.83900 48.70300 32.60600
H  12.70000 49.83900 28.93000
H  12.57800 47.75900 22.88700
H  6.32500 48.04400 22.75200
H  8.19400 50.03100 30.86400
H  10.87200 49.53700 30.93000
H  9.62200 52.04000 30.69300
H  10.48200 51.84400 29.22300
H  11.32800 51.69000 30.87500
H  9.21500 47.28300 30.37400
H  7.78000 47.60500 31.26500
H  9.94600 48.72500 32.79200
H  10.25600 47.09800 32.31000
H  15.82000 50.05900 26.77300
H  15.61400 48.46700 27.54100
H  14.88000 49.92300 28.25000
H  16.67400 48.28200 25.48600
H  16.39800 49.78800 24.53900
H  17.06400 48.30400 23.81400
H  10.60700 46.53400 21.68800
H  8.63000 48.77900 21.10500
H  12.10200 48.21400 20.82100
H  10.89700 49.38900 20.83600
H  10.64400 48.03400 19.70100
H  7.24000 46.31000 21.48400
H  8.61500 45.89400 20.60100
H  6.13000 46.89000 19.67300
H  7.66200 46.63600 18.78100
H  7.24800 48.18500 19.49700
H  3.53700 48.98000 24.20200
H  3.21500 47.58200 25.02400
H  4.36800 47.50200 23.62400
H  5.63100 50.31600 29.28000
H  4.12700 49.44200 32.97400
H  5.67600 48.72600 33.30500
H  4.26800 47.77700 32.65800
Mg -2.36900 34.76400 26.99200
C  -4.26600 32.67400 29.16700
C  -1.72500 36.83900 29.53700
C  -0.83000 36.60100 24.72200
C  -3.77600 32.78800 24.32000
N  -3.03700 34.81700 29.12700
C  -3.55400 33.74600 29.82600
C  -3.49200 34.02600 31.38600
C  -2.76900 35.43900 31.38700
C  -2.55600 35.82300 29.89600
C  -3.54100 36.58600 32.14200
C  -2.60900 32.90500 32.11100
C  -3.28900 32.08300 33.20200
H  -2.56600 32.05800 34.52600
N  -1.40800 36.48500 27.10500
C  -1.24100 37.22600 28.25200
C  -0.47300 38.40200 27.93900
C  -0.18700 38.34900 26.53100
C  -0.75200 37.09000 26.02400
C  0.11800 39.39800 28.87200
C  0.66400 39.24200 25.64500
O  0.83700 39.14200 24.45600
C  1.22400 40.62200 26.14900
N  -2.41500 34.73300 24.84300
C  -1.61400 35.58800 24.14400
C  -1.71100 35.41900 22.61500
C  -2.84200 34.28300 22.52000
C  -3.01200 33.90400 23.97500
C  -2.11200 36.72500 21.72300
C  -2.50000 33.11300 21.56600
C  -1.84800 31.83500 22.08500
N  -3.65200 32.98900 26.78100
C  -4.16400 32.43100 25.62000
C  -5.15200 31.41300 25.98200
C  -5.16000 31.46300 27.41100
C  -4.24700 32.42000 27.77800
C  -6.11800 30.65600 24.98400
C  -5.76200 30.79600 28.51500
O  -6.61300 29.96200 28.55500
C  -5.14000 31.62300 29.80800
C  -6.23600 32.29200 30.55000
O  -6.96600 33.14200 30.10200
O  -6.29900 31.79900 31.85100
C  -7.52900 32.19100 32.53200
H  -1.29400 37.36600 30.39000
H  -0.39700 37.19400 23.91300
H  -4.41200 32.33500 23.55700
H  -4.49200 34.16000 31.79800
H  -1.79400 35.30900 31.85600
H  -3.15900 36.58000 33.16300
H  -4.61700 36.42800 32.07000
H  -3.35600 37.52400 31.61800
H  -1.78200 33.35400 32.66000
H  -2.11600 32.21700 31.42500
H  -3.46900 31.09400 32.78200
H  -4.24000 32.51600 33.51400
H  -0.34400 40.35400 28.62500
H  1.19200 39.57000 28.80200
H  -0.19900 39.19100 29.89400
H  0.36300 41.22600 26.43500
H  1.76600 41.02900 25.29600
H  1.82700 40.36100 27.01900
H  -0.86100 34.85200 22.23400
H  -3.77200 34.76200 22.21300
H  -2.57100 37.45900 22.38600
H  -2.90900 36.45100 21.03200
H  -1.29800 37.20800 21.18100
H  -1.92300 33.48400 20.71900
H  -3.40000 32.86000 21.00700
H  -2.51300 30.97600 22.17300
H  -1.33900 32.14400 22.99800
H  -1.01200 31.52800 21.45700
H  -6.63800 31.28300 24.26000
H  -6.83100 29.97600 25.45000
H  -5.44300 30.10800 24.32800
H  -4.65600 30.96100 30.52600
H  -7.76200 31.37100 33.21100
H  -8.41700 32.22400 31.89900
H  -7.37500 33.13500 33.05500

