158

Mg 48.94300 44.43100 42.81400
C  45.46000 44.37700 42.22900
C  49.16600 41.12500 42.43600
C  52.26900 44.77400 42.56900
C  48.73100 47.98900 42.78500
N  47.44500 42.94600 42.20900
C  46.08600 43.06900 42.09300
C  45.49300 41.65300 42.15400
C  46.68100 40.67900 42.38100
C  47.87500 41.66500 42.38300
C  46.60800 39.83500 43.72900
C  44.44200 41.20800 41.03100
C  44.51300 42.00000 39.67700
H  44.65200 41.13900 38.42100
N  50.50700 43.09800 42.60300
C  50.33700 41.76400 42.43200
C  51.66200 41.12300 42.29300
C  52.64400 42.16300 42.33100
C  51.80000 43.44000 42.45700
C  51.84100 39.63700 42.10700
C  54.16800 42.02300 42.12700
O  54.64100 40.88800 42.14000
C  55.15200 43.30700 41.84700
N  50.35800 46.13400 42.57200
C  51.66900 46.00500 42.60000
C  52.38600 47.43100 42.65500
C  51.27300 48.42200 42.93300
C  50.05800 47.46600 42.69100
C  53.59700 47.44100 43.60700
C  51.29400 49.64100 41.90000
C  51.03900 51.03500 42.51900
N  47.45200 45.93200 42.54600
C  47.48800 47.27800 42.67700
C  46.16500 47.86800 42.61900
C  45.31200 46.76200 42.46900
C  46.16200 45.62200 42.41300
C  45.85500 49.32500 42.43800
C  43.91100 46.34100 42.36600
O  42.81900 46.96900 42.39000
C  43.99000 44.84100 42.21000
C  43.06400 44.20100 43.21900
O  41.91100 43.76500 43.04700
O  43.58800 44.11700 44.48700
C  42.74300 43.49400 45.49900
H  49.34500 40.04700 42.42500
H  53.35500 44.78900 42.68400
H  48.72700 49.08100 42.78300
H  44.82400 41.74300 43.01000
H  46.76700 39.93500 41.58900
H  45.73300 40.14600 44.29900
H  47.46200 40.10200 44.35100
H  46.56300 38.74700 43.68100
H  43.44100 41.39900 41.41900
H  44.53100 40.12500 40.94900
H  45.36700 42.67900 39.68000
H  43.60000 42.59300 39.62800
H  51.61600 39.39200 41.06900
H  51.13100 39.17100 42.79000
H  52.82900 39.20400 42.26500
H  54.61900 43.94000 41.13700
H  56.01400 42.83500 41.37600
H  55.42100 43.82300 42.76900
H  52.82200 47.69600 41.69200
H  51.18100 48.78500 43.95600
H  53.64100 48.34300 44.21800
H  54.43600 47.62900 42.93600
H  53.76000 46.51600 44.15900
H  50.57900 49.38100 41.11900
H  52.23100 49.76500 41.35800
H  51.04100 50.99900 43.60900
H  50.13700 51.52700 42.15400
H  51.90200 51.60900 42.18200
H  46.04000 49.70500 43.44300
H  44.79700 49.39600 42.18300
H  46.56300 49.75100 41.72800
H  43.40300 44.55000 41.33800
H  42.56500 42.47900 45.14400
H  41.77700 43.95600 45.70100
H  43.21500 43.65400 46.46800
Mg 42.20700 41.19100 26.33700
C  41.60000 43.73300 28.76900
C  43.15500 39.08300 28.62200
C  43.20100 39.11200 23.86500
C  42.06000 43.84600 23.83500
N  42.59300 41.54200 28.42400
C  42.04500 42.49700 29.29000
C  42.05700 42.07200 30.79600
C  42.86200 40.67000 30.63900
C  42.88300 40.40200 29.12900
C  44.26500 40.65200 31.26900
C  40.47500 41.82200 31.21200
C  39.93500 42.67400 32.36700
H  39.32100 42.01500 33.61300
N  42.95400 39.32500 26.27800
C  43.26000 38.55400 27.33600
C  43.73300 37.23400 26.92800
C  43.89000 37.31300 25.51400
C  43.38600 38.60300 25.14100
C  44.14200 36.18800 27.88900
C  44.36900 36.25300 24.53600
O  44.69000 36.38100 23.34900
C  44.66100 34.86400 24.98600
N  42.60000 41.47600 24.08000
C  42.92700 40.39300 23.29800
C  42.84000 40.77100 21.85800
C  42.45600 42.34600 21.87400
C  42.29700 42.55400 23.35000
C  44.16800 40.36200 21.04400
C  41.22500 42.66100 20.99700
C  39.87800 42.64900 21.69400
N  41.80100 43.35000 26.23100
C  41.80300 44.23500 25.14400
C  41.39300 45.50200 25.67400
C  41.25100 45.32800 27.09100
C  41.48800 43.99800 27.36300
C  41.21600 46.79800 24.82800
C  41.02300 46.03100 28.35900
O  40.66500 47.21700 28.56200
C  41.04500 44.96700 29.51200
C  42.04300 45.42400 30.49200
O  43.21900 45.74700 30.34800
O  41.48900 45.71800 31.69700
C  42.12700 46.38500 32.84800
H  43.28000 38.29800 29.37100
H  43.44000 38.38000 23.09000
H  41.93000 44.61700 23.07200
H  42.58400 42.80200 31.40900
H  42.37200 39.85200 31.16700
H  44.98000 40.29700 30.52700
H  44.27100 40.17200 32.24800
H  44.45700 41.71100 31.44000
H  40.50500 40.77700 31.52200
H  39.87300 41.89900 30.30600
H  39.18100 43.33300 31.93600
H  40.72500 43.33500 32.72500
H  43.63200 35.26700 27.60600
H  43.98000 36.42400 28.94000
H  45.20900 36.13600 27.67000
H  45.57200 34.89100 25.58500
H  45.00400 34.22800 24.17000
H  43.87700 34.25000 25.42800
H  41.98500 40.19100 21.50900
H  43.29600 42.93100 21.50000
H  44.46200 41.15300 20.35400
H  44.02700 39.41100 20.53000
H  44.96700 40.22800 21.77400
H  41.10100 41.98300 20.15300
H  41.35400 43.68100 20.63400
H  39.89300 42.24400 22.70600
H  39.24200 42.04000 21.05100
H  39.47300 43.66000 21.64400
H  42.21200 47.21700 24.68300
H  40.57100 47.43800 25.43000
H  40.76300 46.66700 23.84600
H  40.08800 44.79000 30.00400
H  43.21600 46.44100 32.82200
H  41.71800 45.85400 33.70800
H  41.69700 47.37600 32.70800

