158

Mg 15.72200 -2.42400 28.43700
C  15.01200 -0.50000 31.40000
C  18.28400 -3.97900 30.38900
C  16.94500 -3.67000 25.64100
C  13.75100 -0.14200 26.62700
N  16.59300 -2.26400 30.71000
C  16.02800 -1.49400 31.61200
C  16.63600 -1.81700 33.05000
C  17.84200 -2.67600 32.64500
C  17.57400 -3.01400 31.16600
C  19.29900 -2.14200 32.87100
C  15.59700 -2.49200 34.06600
C  15.77800 -2.11400 35.54300
H  17.09300 -1.40100 35.97700
N  17.20000 -3.83500 28.12300
C  18.16200 -4.34200 29.04400
C  18.89800 -5.39100 28.36900
C  18.55400 -5.25200 26.89900
C  17.53500 -4.16700 26.81700
C  19.90300 -6.25400 28.98000
C  19.25600 -5.87900 25.62600
O  18.88600 -5.73400 24.46900
C  20.44200 -6.77600 25.80500
N  15.45100 -1.91700 26.50100
C  16.04400 -2.59700 25.49400
C  15.63300 -1.98500 24.11000
C  14.48400 -1.02600 24.42800
C  14.53800 -1.00300 25.95100
C  16.88200 -1.28600 23.36600
C  13.13200 -1.24400 23.69300
C  11.98300 -1.88900 24.46400
N  14.52900 -0.73300 28.91900
C  13.72900 0.05500 28.06200
C  12.99100 0.98900 28.86500
C  13.50900 0.82300 30.13200
C  14.44600 -0.21000 30.15100
C  12.15900 2.12000 28.48200
C  13.43900 1.37700 31.44600
O  12.83100 2.34000 31.87900
C  14.43900 0.48600 32.36100
C  15.38900 1.47100 33.08200
O  16.18300 2.28800 32.57500
O  15.03800 1.45600 34.41100
C  15.69100 2.44300 35.23900
H  19.13000 -4.43500 30.90800
H  17.16200 -4.14600 24.68200
H  13.03200 0.45700 26.06400
H  17.02500 -0.85200 33.37400
H  17.85300 -3.63400 33.16400
H  19.80000 -2.69000 33.67000
H  19.31900 -1.09500 33.17300
H  19.94300 -2.27000 32.00100
H  15.76300 -3.56900 34.03900
H  14.55200 -2.32700 33.80200
H  15.74300 -3.05300 36.09500
H  14.85500 -1.61200 35.83400
H  19.78600 -7.20300 28.45800
H  19.75700 -6.39600 30.05100
H  20.84000 -5.72800 28.79400
H  20.14800 -7.64400 26.39500
H  21.21100 -6.23600 26.35800
H  20.77200 -6.92300 24.77700
H  15.35600 -2.83200 23.48200
H  14.53200 0.05500 24.29300
H  16.59600 -0.61000 22.56000
H  17.48200 -2.03500 22.85000
H  17.58300 -0.72900 23.98800
H  13.25500 -1.74400 22.73200
H  12.63700 -0.32100 23.39100
H  12.38100 -2.45900 25.30400
H  11.36300 -2.62500 23.95200
H  11.40000 -1.06800 24.87900
H  11.36700 2.11800 29.23100
H  11.72000 1.98500 27.49300
H  12.66800 3.08300 28.52600
H  13.77300 -0.01000 33.06700
H  15.39500 2.26000 36.27200
H  15.23900 3.39700 34.97000
H  16.76100 2.50900 35.04200
Mg 36.46600 49.47000 24.73100
C  36.38600 47.86900 27.83600
C  34.96400 52.14600 26.18100
C  35.94900 50.84700 21.61700
C  37.46900 46.42900 23.25600
N  35.74000 49.94900 26.80500
C  35.95200 49.20000 27.91400
C  35.63600 50.01200 29.15000
C  34.93000 51.35500 28.59300
C  35.29900 51.15900 27.11400
C  33.39700 51.43100 28.88100
C  36.94500 50.28800 30.02500
C  36.76100 49.83900 31.52100
H  35.38100 49.75700 32.15600
N  35.75800 51.37800 24.02900
C  35.23800 52.30900 24.76300
C  34.92400 53.51000 23.89500
C  35.16200 53.10100 22.54900
C  35.64900 51.70200 22.70800
C  34.44900 54.81400 24.45100
C  34.93600 53.91600 21.24000
O  35.30900 53.45400 20.19200
C  34.23300 55.30800 21.23600
N  36.61000 48.71500 22.84000
C  36.31100 49.46300 21.71500
C  36.54600 48.63700 20.47900
C  37.43600 47.53400 20.93000
C  37.23500 47.56700 22.41900
C  35.17200 48.08100 19.95700
C  38.91900 47.50100 20.54900
C  39.47000 46.07500 20.30100
N  36.86100 47.51300 25.37600
C  37.25500 46.42400 24.65200
C  37.59500 45.38800 25.64000
C  37.30800 45.95200 26.88700
C  36.76700 47.23300 26.66800
C  38.26400 44.15500 25.26900
C  37.38200 45.69500 28.31800
O  37.78400 44.75900 28.99000
C  36.82200 46.96200 29.06900
C  35.64000 46.58700 29.97600
O  34.46600 46.59900 29.69300
O  36.14500 46.19800 31.23600
C  35.15300 45.74500 32.22400
H  34.49700 53.00600 26.66500
H  35.78600 51.17300 20.58700
H  37.65700 45.50500 22.70400
H  34.94600 49.38800 29.71900
H  35.40800 52.22800 29.03700
H  33.02800 52.34300 29.35200
H  33.24300 50.69400 29.66900
H  32.81900 51.27200 27.97100
H  36.97900 51.37700 30.04500
H  37.80700 49.84300 29.52700
H  37.54500 50.40700 32.02200
H  37.13600 48.81500 31.54300
H  34.76500 54.78400 25.49400
H  33.36700 54.80100 24.58200
H  34.74900 55.69900 23.89000
H  33.69900 55.49500 20.30500
H  35.08200 55.99100 21.21000
H  33.50000 55.44800 22.03000
H  36.89200 49.28700 19.67600
H  37.04500 46.54900 20.67500
H  34.60100 47.47700 20.66200
H  35.35800 47.47400 19.07100
H  34.54300 48.89400 19.59500
H  39.45100 48.00700 21.35500
H  38.94000 48.05700 19.61200
H  39.77500 46.14300 19.25700
H  38.69900 45.31900 20.44900
H  40.39900 45.78800 20.79300
H  37.79200 43.73000 24.38300
H  37.90700 43.46200 26.03000
H  39.34700 44.16300 25.14600
H  37.63500 47.39200 29.65400
H  34.91500 44.71600 31.95500
H  34.18400 46.24100 32.28000
H  35.63800 45.64400 33.19500

