158

Mg 40.53000 8.28200 29.68800
C  42.26800 9.57300 32.45300
C  37.98000 7.52300 31.88800
C  39.01100 6.48400 27.18700
C  43.28800 8.78600 27.74400
N  40.32800 8.38700 31.92600
C  41.00200 9.09000 32.81600
C  40.39200 9.17000 34.21900
C  39.06800 8.40800 34.02700
C  39.11500 8.06800 32.51300
C  38.85800 7.16300 34.89800
C  40.28700 10.66500 34.77300
C  39.34400 10.93600 35.99500
H  39.86000 11.63600 37.15400
N  38.72400 7.22700 29.52200
C  37.80200 7.15300 30.53000
C  36.58800 6.52700 29.99000
C  36.82700 6.19100 28.62400
C  38.24500 6.61200 28.41800
C  35.32600 6.24000 30.87500
C  35.93300 5.67900 27.57300
O  36.41900 5.32500 26.51200
C  34.51700 5.46700 27.83300
N  41.04600 7.77400 27.76500
C  40.28300 6.96700 26.94300
C  40.95900 6.88700 25.48500
C  42.33500 7.62300 25.68200
C  42.21100 8.15400 27.13300
C  41.08700 5.39400 24.98400
C  42.77300 8.69600 24.59800
C  42.17800 10.08600 24.82200
N  42.40200 9.08200 29.94800
C  43.38000 9.31600 29.03800
C  44.49100 10.00600 29.64200
C  44.10700 10.10700 31.01500
C  42.82800 9.59900 31.10900
C  45.76400 10.48600 29.00700
C  44.48800 10.54700 32.36700
O  45.61500 10.81800 32.77800
C  43.26500 10.32300 33.35900
C  43.63300 9.39100 34.47500
O  44.16000 8.31300 34.35900
O  43.48200 10.05400 35.65400
C  44.01100 9.30200 36.84400
H  37.15400 7.21200 32.53100
H  38.58400 6.03300 26.28900
H  44.24700 8.86400 27.22700
H  41.02900 8.57400 34.87200
H  38.24500 9.12100 34.07400
H  38.95500 6.23300 34.33900
H  37.89100 7.17300 35.40300
H  39.62800 7.14600 35.66900
H  39.95000 11.22700 33.90200
H  41.21500 11.15400 35.06800
H  39.08600 9.94500 36.36900
H  38.43200 11.43600 35.66800
H  34.59400 6.91900 30.43900
H  35.43600 6.52900 31.92000
H  34.94200 5.25300 30.61700
H  34.07600 6.32800 28.33500
H  34.31400 4.65800 28.53500
H  33.99200 5.03200 26.98300
H  40.34900 7.41000 24.74900
H  43.22000 7.00300 25.82400
H  42.08800 5.27800 24.56900
H  40.39900 5.26100 24.14900
H  40.96700 4.71800 25.83100
H  42.35100 8.43600 23.62700
H  43.86200 8.70100 24.54900
H  41.64500 10.40200 23.92500
H  43.01600 10.71700 25.11800
H  41.52100 10.24200 25.67700
H  45.64900 11.36300 28.36900
H  46.19800 9.68800 28.40500
H  46.58000 10.70900 29.69400
H  42.95600 11.30800 33.70900
H  44.01700 8.21600 36.75700
H  43.23800 9.39800 37.60600
H  44.94400 9.74300 37.19500
Mg 47.58200 14.93400 28.44700
C  45.60400 14.84700 31.13000
C  49.86800 16.88800 30.09300
C  49.51800 14.99300 25.61600
C  44.93000 13.66200 26.46300
N  47.69100 15.76800 30.34700
C  46.82300 15.45600 31.37400
C  47.22500 16.13100 32.67900
C  48.45700 16.99400 32.24600
C  48.73400 16.53500 30.84100
C  48.37000 18.53600 32.42400
C  47.45500 15.01300 33.77000
C  47.03900 15.51300 35.14200
H  47.19500 16.92800 35.62200
N  49.39300 15.69400 27.97400
C  50.22100 16.47500 28.84700
C  51.51100 16.69600 28.20900
C  51.48200 16.06200 26.99800
C  50.09100 15.54700 26.81100
C  52.69300 17.34200 28.86500
C  52.63000 15.83600 26.02700
O  52.48000 15.19900 25.02300
C  53.95100 16.50300 26.15200
N  47.25100 14.47000 26.36000
C  48.24700 14.43600 25.42100
C  47.75800 14.04800 24.03900
C  46.38200 13.45200 24.35900
C  46.14500 13.82400 25.85800
C  47.78100 15.22700 23.10700
C  46.40400 11.89700 24.04600
C  46.78800 10.98100 25.20800
N  45.58100 14.49800 28.65600
C  44.64800 13.91700 27.84400
C  43.47400 13.64600 28.50000
C  43.72400 13.96100 29.83400
C  45.05400 14.48800 29.89800
C  42.26500 12.88200 27.92800
C  43.20400 13.89400 31.15200
O  42.13100 13.56000 31.62300
C  44.40400 14.49400 32.03200
C  43.80100 15.66800 32.71500
O  43.63100 16.81200 32.33600
O  43.42800 15.19400 33.93800
C  42.63200 16.11900 34.75300
H  50.56800 17.56100 30.59200
H  50.09900 15.10300 24.69700
H  44.19100 13.19600 25.80600
H  46.36600 16.77700 32.85700
H  49.23500 16.70800 32.95300
H  49.32000 18.95000 32.76400
H  47.61000 18.98400 33.06400
H  48.22200 19.09300 31.49900
H  48.51800 14.77700 33.81000
H  46.80300 14.14700 33.65600
H  47.55600 14.88300 35.86600
H  45.96400 15.33700 35.12900
H  52.78700 18.29400 28.34200
H  53.55700 16.67800 28.85100
H  52.48400 17.62300 29.89700
H  53.95000 17.58800 26.26000
H  54.55200 16.20900 25.29200
H  54.48900 15.99100 26.95000
H  48.36500 13.25700 23.59800
H  45.58800 13.97500 23.82600
H  47.35800 16.12600 23.55400
H  47.20200 14.93500 22.23100
H  48.82500 15.43900 22.87700
H  47.13400 11.59400 23.29500
H  45.40000 11.57600 23.76800
H  46.71200 11.41500 26.20500
H  47.81100 10.62800 25.07800
H  46.11000 10.12700 25.21000
H  41.78200 13.47100 27.14900
H  41.62100 12.76400 28.80000
H  42.48900 11.89300 27.52700
H  44.62000 13.70700 32.75500
H  41.89500 16.61100 34.11800
H  43.30500 16.74800 35.33500
H  42.07600 15.50200 35.45900

