158

Mg 41.06900 9.57600 29.31400
C  42.93500 10.84300 31.88400
C  38.91400 8.32900 31.62500
C  39.33100 8.36300 26.71000
C  43.50700 10.85100 27.04300
N  41.09600 9.37200 31.55600
C  41.81400 10.22900 32.40500
C  41.15700 10.21300 33.78200
C  40.04600 9.15000 33.69400
C  40.03900 8.84900 32.22900
C  40.40100 7.88400 34.60600
C  40.71500 11.61700 34.35400
C  40.07400 11.70500 35.65200
H  40.58200 12.68300 36.73300
N  39.43500 8.46100 29.17300
C  38.60900 8.03200 30.27500
C  37.42500 7.33800 29.69500
C  37.57100 7.35100 28.28100
C  38.79500 8.07900 27.98700
C  36.27500 6.74200 30.49400
C  36.60600 6.76600 27.19900
O  36.75000 6.81100 25.97700
C  35.40100 6.03100 27.64200
N  41.37100 9.60100 27.20000
C  40.44500 9.06300 26.34700
C  40.88600 9.29300 24.91400
C  42.15800 10.06200 25.01800
C  42.36500 10.25300 26.52300
C  41.05000 7.93300 24.18500
C  42.11600 11.45000 24.32500
C  41.31700 12.56600 24.98700
N  42.79900 10.65900 29.38100
C  43.71700 11.01500 28.46700
C  44.80600 11.77000 29.02600
C  44.47000 11.72300 30.33100
C  43.30500 11.02300 30.54500
C  45.85400 12.47100 28.35200
C  44.89700 12.17900 31.64000
O  45.87500 12.86000 31.90100
C  43.83200 11.76100 32.63700
C  44.32800 11.10500 33.93500
O  44.92900 10.05600 33.95900
O  44.07700 11.88100 35.07000
C  44.49600 11.44900 36.42200
H  38.15000 8.00800 32.33600
H  38.85700 7.98700 25.80100
H  44.15500 11.23300 26.25200
H  41.98000 9.99100 34.46000
H  39.06800 9.53600 33.98000
H  40.26300 7.01500 33.96400
H  39.71900 7.77100 35.44900
H  41.44600 7.87000 34.91600
H  39.98000 12.00800 33.65100
H  41.60900 12.23800 34.41100
H  40.12800 10.69400 36.05700
H  39.02200 11.84000 35.39900
H  35.26400 7.12900 30.36800
H  36.56900 6.91400 31.52900
H  36.18200 5.67100 30.31300
H  35.71300 5.11700 28.14600
H  34.85500 5.77200 26.73500
H  34.69600 6.62300 28.22700
H  40.20000 9.89900 24.32200
H  43.05400 9.59300 24.61200
H  40.62000 7.07700 24.70600
H  42.12200 7.73300 24.17400
H  40.62100 7.91500 23.18400
H  41.71700 11.43900 23.31100
H  43.18300 11.64800 24.22400
H  42.03600 13.24200 25.44900
H  40.55600 12.19500 25.67300
H  40.75200 13.11100 24.23200
H  45.54700 12.67300 27.32600
H  46.84600 12.05400 28.52700
H  45.97700 13.40000 28.90900
H  43.15000 12.59400 32.81100
H  44.27800 10.45000 36.80100
H  43.99400 12.16800 37.06900
H  45.57700 11.54600 36.51800
Mg 49.59500 46.71300 42.87600
C  46.16600 47.17100 42.00900
C  49.48000 43.62100 41.30600
C  52.98900 46.50800 43.07700
C  49.80300 50.16200 43.51900
N  47.95100 45.54200 41.81600
C  46.66200 45.87500 41.67400
C  45.91200 44.74500 40.92900
C  47.00200 43.58700 40.75300
C  48.23200 44.24000 41.45200
C  46.58300 42.28900 41.39700
C  45.48700 45.21900 39.41600
C  44.03800 44.76300 38.99900
H  43.35100 45.40200 37.78800
N  51.03700 45.16900 42.41800
C  50.80600 44.04400 41.71700
C  52.03100 43.37900 41.35200
C  53.06100 44.06600 42.10300
C  52.36300 45.35000 42.53500
C  52.11000 42.19400 40.40800
C  54.48300 43.58500 42.18400
O  54.87700 42.51500 41.68400
C  55.54300 44.36200 43.06900
N  51.08000 48.08100 43.46900
C  52.44700 47.72500 43.54600
C  53.36900 48.85500 43.58900
C  52.39500 50.09000 43.76700
C  51.00000 49.48400 43.61300
C  54.57200 48.90300 44.61200
C  52.69800 51.22400 42.66900
C  52.75700 52.66300 43.26500
N  48.26600 48.31400 42.90800
C  48.52600 49.64500 43.21500
C  47.29400 50.42400 43.20900
C  46.32100 49.46000 42.72700
C  46.97100 48.22900 42.58000
C  47.01300 51.81000 43.53000
C  44.95000 49.26800 42.36900
O  43.99400 50.05600 42.52900
C  44.77400 47.74500 41.88200
C  43.78300 47.11500 42.77600
O  43.92500 46.85700 43.95800
O  42.71700 46.67700 42.00800
C  41.80700 45.85900 42.77700
H  49.53600 42.65500 40.79900
H  54.07000 46.45200 43.22200
H  49.82300 51.25200 43.58100
H  45.03100 44.38600 41.46200
H  47.21100 43.36900 39.70600
H  45.78500 42.47200 42.11600
H  47.36800 41.73700 41.91500
H  46.18900 41.55200 40.69600
H  46.15200 44.88500 38.62000
H  45.49300 46.30800 39.39200
H  43.37600 44.84000 39.86200
H  44.04100 43.68200 38.85700
H  51.31400 41.54800 40.77900
H  52.88700 41.43300 40.47500
H  51.97400 42.64300 39.42400
H  55.22000 44.53000 44.09700
H  55.64200 45.38400 42.70200
H  56.48000 43.80900 43.01000
H  53.91900 48.91400 42.65000
H  52.56000 50.38800 44.80300
H  54.49500 48.03100 45.26100
H  54.39800 49.71700 45.31600
H  55.54400 48.97500 44.12400
H  51.87400 51.21000 41.95500
H  53.59300 51.01800 42.08200
H  52.83900 52.57800 44.34800
H  51.77800 53.11800 43.11300
H  53.55700 53.19600 42.75000
H  47.73400 52.56300 43.21000
H  46.66000 51.90400 44.55700
H  46.08400 52.03700 43.00700
H  44.41400 47.87400 40.86100
H  41.80000 46.25500 43.79300
H  41.95100 44.77900 42.73700
H  40.81300 46.00500 42.35500

