158

Mg 46.42700 45.27100 42.92900
C  42.99500 44.45700 42.92800
C  47.10100 42.02000 42.31300
C  49.65900 46.11700 42.54500
C  45.50900 48.73600 43.16800
N  45.13000 43.43300 42.45100
C  43.79400 43.31100 42.73200
C  43.36000 41.84700 42.56300
C  44.72700 41.05600 42.58800
C  45.68800 42.24000 42.47800
C  45.04900 40.14600 43.83900
C  42.52600 41.64500 41.29300
C  42.79700 42.49300 40.15600
H  42.43600 42.04200 38.68500
N  48.12500 44.22100 42.56700
C  48.22500 42.89600 42.32800
C  49.61500 42.49600 42.17000
C  50.35800 43.70300 42.21800
C  49.40800 44.74500 42.36200
C  50.11800 41.07100 41.86200
C  51.86400 43.84000 42.00800
O  52.49600 42.78300 41.82000
C  52.58600 45.25600 41.92600
N  47.40200 47.14900 42.67300
C  48.79000 47.18700 42.81300
C  49.36100 48.61700 42.88600
C  48.04600 49.47000 42.78100
C  46.90900 48.43400 42.94400
C  50.21100 48.77300 44.16500
C  47.89900 50.33600 41.50300
C  48.82300 51.59900 41.53600
N  44.69800 46.48400 43.02100
C  44.41000 47.80700 43.18800
C  42.98200 48.09900 43.39800
C  42.39200 46.76400 43.26200
C  43.44600 45.82000 43.04000
C  42.25900 49.36000 43.62700
C  41.17700 46.09000 43.22200
O  40.01300 46.43200 43.25000
C  41.54100 44.56300 43.17700
C  41.00900 43.90900 44.42400
O  40.18400 43.01500 44.33100
O  41.83000 44.17100 45.48100
C  41.79500 43.08900 46.46700
H  47.41600 40.97600 42.26200
H  50.67800 46.48200 42.68500
H  45.21000 49.78400 43.23600
H  42.67900 41.57200 43.36800
H  44.93800 40.40800 41.73700
H  45.88900 40.55300 44.40200
H  45.37800 39.21500 43.37800
H  44.13100 39.98100 44.40400
H  41.44700 41.70700 41.42800
H  42.73600 40.63400 40.94300
H  43.87400 42.63300 40.06500
H  42.30600 43.45200 40.31800
H  50.29500 41.09600 40.78600
H  49.35400 40.32600 42.08200
H  51.04700 40.83800 42.38100
H  52.12000 45.91100 41.18900
H  53.64700 45.04500 41.79300
H  52.47700 45.61900 42.94800
H  49.96500 48.92700 42.03300
H  47.85200 50.01700 43.70300
H  50.36900 49.78100 44.54700
H  51.20900 48.34400 44.07300
H  49.69400 48.22100 44.94900
H  46.90200 50.77400 41.46600
H  48.11300 49.74900 40.60900
H  49.50700 51.78900 40.70900
H  49.44900 51.55300 42.42800
H  48.19800 52.49100 41.56900
H  41.44600 49.59300 42.94000
H  43.04000 50.11400 43.72300
H  41.82100 49.29300 44.62200
H  40.96000 44.14200 42.35700
H  41.15500 43.39500 47.29400
H  42.84700 43.07000 46.75100
H  41.53200 42.08500 46.13400
Mg -0.92500 34.34500 26.79500
C  -1.95500 32.89300 29.78700
C  0.77600 36.73800 28.79500
C  -0.15200 36.05300 24.09900
C  -2.63600 31.93500 25.02300
N  -0.40000 34.58100 29.09500
C  -0.99500 33.89200 30.15200
C  -0.55400 34.32000 31.48200
C  0.17200 35.70200 31.10400
C  0.19600 35.73200 29.55300
C  -0.45100 36.95400 31.78300
C  0.22300 33.20400 32.20300
C  -0.53800 32.66200 33.43400
H  -0.00900 32.77200 34.81500
N  0.28800 36.02900 26.49500
C  0.98800 36.87800 27.35400
C  1.82700 37.82500 26.66000
C  1.66300 37.55800 25.30000
C  0.52300 36.62000 25.18500
C  2.85300 38.64600 27.37800
C  2.35100 38.25200 24.09200
O  1.97300 38.02200 22.92800
C  3.44300 39.29100 24.35400
N  -1.58300 34.14000 24.87700
C  -1.02400 34.92200 23.89500
C  -1.46800 34.49300 22.52900
C  -1.95100 33.04800 22.84400
C  -2.07900 33.00100 24.35400
C  -2.54000 35.42700 21.89800
C  -0.95100 31.94000 22.21500
C  0.25500 31.34100 22.97600
N  -2.12100 32.80400 27.24500
C  -2.78400 31.87200 26.46500
C  -3.40000 30.85000 27.19300
C  -3.21000 31.29300 28.56200
C  -2.38200 32.43900 28.51300
C  -4.47400 29.84200 26.65600
C  -3.43600 30.94300 29.97200
O  -4.01900 30.03200 30.51700
C  -2.80700 32.14600 30.74800
C  -4.00900 32.89700 31.37700
O  -4.57500 33.78700 30.75500
O  -4.57200 32.29000 32.50800
C  -5.81300 32.85600 32.97900
H  1.34500 37.51300 29.31300
H  0.09400 36.55100 23.15900
H  -2.97000 31.09600 24.41000
H  -1.52600 34.66100 31.83700
H  1.20100 35.73600 31.46100
H  0.36400 37.53600 32.21400
H  -1.18000 36.83900 32.58500
H  -0.88200 37.46500 30.92200
H  1.16000 33.63700 32.55500
H  0.47200 32.43900 31.46800
H  -0.79700 31.63500 33.17600
H  -1.45100 33.25600 33.47500
H  3.85400 38.23400 27.24700
H  2.66100 38.71700 28.44800
H  2.87500 39.66400 26.99000
H  2.85600 40.14300 24.69700
H  4.04300 39.53200 23.47600
H  4.13300 39.07400 25.16900
H  -0.60200 34.46800 21.86700
H  -2.92600 32.76200 22.44900
H  -3.05100 35.96600 22.69500
H  -3.40100 35.04300 21.35000
H  -2.10000 36.15900 21.22000
H  -0.61400 32.37200 21.27200
H  -1.62100 31.09300 22.07100
H  0.37700 31.74900 23.98000
H  1.14900 31.50900 22.37600
H  0.13900 30.26400 23.09400
H  -5.44100 30.34400 26.65400
H  -4.44300 28.98900 27.33400
H  -4.24000 29.70800 25.60000
H  -2.17500 31.77400 31.55500
H  -6.32500 32.10100 33.57600
H  -6.41700 33.31700 32.19700
H  -5.65300 33.68600 33.66600

