158

Mg 1.97900 -0.93500 43.59600
C  5.43100 -0.32700 43.02000
C  1.31900 1.89600 41.83700
C  -1.22000 -1.96700 43.15500
C  2.98200 -4.09100 44.84100
N  3.30900 0.53500 42.48500
C  4.67200 0.64200 42.46500
C  4.98200 1.92400 41.77000
C  3.66300 2.81900 41.81500
C  2.68300 1.66400 42.02700
C  3.66100 3.90000 42.86600
C  5.40500 1.66300 40.24400
C  6.78500 2.19400 39.76700
H  6.85100 2.76000 38.31700
N  0.25100 -0.09500 42.75500
C  0.14300 1.10800 42.06800
C  -1.24400 1.38600 41.72400
C  -1.95400 0.27300 42.14100
C  -0.97500 -0.67700 42.75900
C  -1.71300 2.76400 41.13700
C  -3.43400 0.13200 41.78900
O  -4.14400 1.05900 41.49700
C  -4.19600 -1.18600 41.89600
N  1.02100 -2.76200 43.93300
C  -0.32600 -2.91800 43.72300
C  -0.80700 -4.30500 44.21600
C  0.44600 -4.95100 44.80400
C  1.60600 -3.86700 44.49100
C  -2.01200 -4.25200 45.19600
C  0.80000 -6.37900 44.39900
C  1.14100 -7.38300 45.50100
N  3.84100 -1.96800 43.99100
C  4.00800 -3.22600 44.56200
C  5.44400 -3.40600 44.67400
C  6.02400 -2.29800 44.11500
C  4.99000 -1.44300 43.73700
C  6.09700 -4.63600 45.16100
C  7.28500 -1.66800 43.69500
O  8.39200 -2.15300 43.80800
C  6.91200 -0.34300 43.04800
C  7.48000 0.72000 43.82700
O  6.89000 1.33700 44.74300
O  8.66800 1.13400 43.21600
C  9.17000 2.44200 43.83400
H  1.07800 2.91100 41.51500
H  -2.27700 -2.22900 43.08300
H  3.28900 -5.07300 45.20900
H  5.76100 2.44100 42.33100
H  3.53500 3.30900 40.85000
H  3.63100 4.89100 42.41300
H  4.48600 3.79500 43.57000
H  2.70200 4.01300 43.37100
H  4.73300 2.09800 39.50400
H  5.32800 0.59200 40.05700
H  7.54000 1.42000 39.90100
H  6.96300 3.01000 40.46900
H  -2.48800 2.57200 40.39500
H  -0.90400 3.40100 40.77900
H  -2.08000 3.40500 41.93800
H  -5.09800 -1.03800 41.30300
H  -4.36300 -1.44000 42.94300
H  -3.62200 -2.03100 41.51600
H  -1.17800 -4.83600 43.33900
H  0.32600 -5.01200 45.88500
H  -2.94400 -4.59000 44.74500
H  -2.13700 -3.23500 45.56600
H  -1.76100 -4.90300 46.03400
H  1.57000 -6.43200 43.63000
H  -0.06600 -6.85900 43.94300
H  0.44200 -8.21600 45.58000
H  1.28300 -6.93700 46.48500
H  2.08500 -7.83300 45.19500
H  7.11700 -4.41200 45.47500
H  6.24000 -5.31700 44.32300
H  5.59200 -5.27300 45.88700
H  7.39000 -0.36800 42.06900
H  9.43800 2.30400 44.88200
H  8.61000 3.36700 43.69600
H  10.06700 2.66200 43.25500
Mg 46.42900 16.28300 28.21700
C  44.09800 15.80600 30.77900
C  48.48300 17.64600 30.57800
C  48.28200 17.26200 25.66700
C  44.06700 14.92700 25.93300
N  46.25400 16.71100 30.39900
C  45.25500 16.40300 31.18800
C  45.55400 16.82100 32.64800
C  46.86800 17.61300 32.53200
C  47.28700 17.26900 31.09000
C  46.70300 19.15500 32.80400
C  45.74500 15.55400 33.53000
C  46.45300 15.71400 34.91400
H  46.03400 16.83500 35.88500
N  48.18100 17.23500 28.12100
C  48.94700 17.61900 29.19100
C  50.19600 18.23300 28.70200
C  50.18800 18.12000 27.25500
C  48.86200 17.49000 26.93900
C  51.21400 18.78100 29.67600
C  51.24900 18.45500 26.29300
O  51.14400 18.16800 25.09400
C  52.50000 19.16800 26.73500
N  46.17300 16.16500 26.05600
C  47.10100 16.65600 25.25700
C  46.67300 16.46600 23.75100
C  45.44100 15.54700 23.90100
C  45.23600 15.46100 25.37100
C  46.44700 17.81300 23.09600
C  45.58400 14.11800 23.29200
C  44.55500 13.62500 22.38200
N  44.48900 15.54800 28.25800
C  43.65900 15.05300 27.28400
C  42.37300 14.75600 27.91600
C  42.46700 15.02400 29.29900
C  43.78200 15.47700 29.46300
C  41.25200 14.19700 27.12200
C  41.89300 14.97600 30.56600
O  40.83000 14.54700 30.93200
C  42.94400 15.54100 31.59000
C  42.31600 16.61400 32.35600
O  42.05600 17.75300 31.95700
O  42.14700 16.17800 33.64500
C  41.91000 17.26000 34.52200
H  49.08700 18.13300 31.34700
H  48.85700 17.48200 24.76500
H  43.33100 14.57200 25.20900
H  44.80700 17.53600 32.99400
H  47.69700 17.23600 33.13100
H  47.33700 19.35800 33.66700
H  45.65400 19.35100 33.02100
H  47.05500 19.70400 31.93000
H  46.02900 14.70800 32.90400
H  44.77300 15.40000 33.99900
H  47.51100 15.84900 34.69000
H  46.26400 14.74800 35.38300
H  51.85600 19.55200 29.25100
H  51.82800 17.93600 29.98700
H  50.66900 19.35800 30.42300
H  53.14100 18.73200 27.50200
H  52.05200 20.09000 27.10600
H  53.08800 19.35900 25.83800
H  47.53400 16.00300 23.27000
H  44.51200 15.89300 23.45000
H  45.48600 17.97800 22.61000
H  47.26800 17.97400 22.39700
H  46.60100 18.51300 23.91700
H  45.72500 13.37600 24.07800
H  46.59300 13.98400 22.90100
H  44.30700 12.61400 22.70200
H  44.85300 13.49500 21.34200
H  43.63300 14.19500 22.50400
H  40.28900 14.43000 27.57600
H  41.43500 13.12300 27.06900
H  41.27400 14.61100 26.11400
H  43.04100 14.72200 32.30300
H  42.72400 17.97700 34.62600
H  41.84400 16.78200 35.50000
H  40.94200 17.72000 34.32500

