158

Mg -1.57500 17.64900 26.29900
C  -2.05500 15.07100 28.71500
C  -2.60000 19.88300 28.60100
C  -1.44900 19.79100 23.84400
C  -1.29300 14.94100 23.86200
N  -2.32000 17.39800 28.45100
C  -2.21000 16.33000 29.30000
C  -2.59100 16.76900 30.67100
C  -2.91900 18.32600 30.54800
C  -2.61200 18.58400 29.11900
C  -4.29500 18.81300 31.07800
C  -1.59400 16.39600 31.74800
C  -1.49800 17.20700 33.04400
H  -1.24000 16.59600 34.43800
N  -1.87200 19.55900 26.23200
C  -2.25700 20.33300 27.29300
C  -2.12800 21.75400 26.83900
C  -1.69500 21.79300 25.50700
C  -1.69400 20.35500 25.07600
C  -2.44200 22.90800 27.71200
C  -1.26800 23.02100 24.69500
O  -0.97200 22.96300 23.47800
C  -1.06400 24.27500 25.31100
N  -1.37500 17.39500 24.11400
C  -1.35300 18.46500 23.33300
C  -1.19700 18.12600 21.82000
C  -0.86600 16.61700 21.91600
C  -1.21800 16.25500 23.34900
C  -2.44400 18.42800 20.89900
C  0.58000 16.22200 21.56300
C  1.70800 17.08500 22.15300
N  -1.69600 15.41100 26.17900
C  -1.58600 14.52800 25.15500
C  -1.66500 13.19500 25.75500
C  -1.77800 13.44300 27.08500
C  -1.93500 14.75500 27.29600
C  -1.40700 11.84700 25.17500
C  -1.76200 12.66600 28.27700
O  -1.64200 11.39600 28.43300
C  -1.92800 13.73600 29.36000
C  -0.70200 13.65000 30.23900
O  0.35600 14.31100 30.11300
O  -0.85000 12.76500 31.27600
C  0.32800 12.66800 32.13400
H  -2.78300 20.67800 29.32700
H  -1.35600 20.55900 23.07200
H  -1.11100 14.11600 23.17000
H  -3.60500 16.39000 30.79500
H  -2.14500 18.92100 31.03300
H  -4.66300 19.55800 30.37200
H  -4.33800 19.39500 31.99900
H  -5.01700 18.05700 31.38800
H  -0.58100 16.57800 31.38800
H  -1.88400 15.36000 31.92600
H  -2.38800 17.83600 33.08900
H  -0.68100 17.91600 32.91400
H  -2.97600 22.61300 28.61500
H  -3.02800 23.65900 27.18300
H  -1.47000 23.33900 27.95400
H  -0.44000 24.23700 26.20300
H  -2.03200 24.72100 25.54100
H  -0.52800 24.91800 24.61200
H  -0.29300 18.65200 21.51300
H  -1.56000 16.02800 21.31700
H  -2.76600 17.55200 20.33600
H  -2.24900 19.19700 20.15100
H  -3.16800 18.70200 21.66700
H  0.66800 16.42000 20.49500
H  0.68300 15.14700 21.71300
H  2.22900 17.49300 21.28700
H  2.38900 16.42900 22.69600
H  1.48400 17.93500 22.79800
H  -1.09400 11.94600 24.13500
H  -2.39900 11.40000 25.11400
H  -0.75800 11.09200 25.61900
H  -2.90300 13.54800 29.81100
H  0.14000 13.37000 32.94700
H  1.27800 12.84800 31.63100
H  0.34800 11.67100 32.57500
Mg 46.70600 24.74500 29.03900
C  47.11300 26.80400 31.70900
C  45.49200 22.32200 31.17500
C  46.59000 22.57700 26.48600
C  47.70800 27.22500 26.76600
N  46.37000 24.59000 31.21500
C  46.55100 25.59200 32.06100
C  46.18700 25.17800 33.45600
C  45.64700 23.71000 33.32700
C  45.87400 23.49300 31.86300
C  46.43200 22.62100 34.14500
C  45.15700 26.10500 34.19600
C  45.66100 26.60300 35.58300
H  44.69700 26.71500 36.86000
N  46.18900 22.70700 28.88800
C  45.74100 21.88900 29.88000
C  45.40000 20.60900 29.40100
C  45.86100 20.57500 28.04400
C  46.21100 21.97600 27.67500
C  44.82400 19.57300 30.20700
C  45.99600 19.44700 27.08400
O  46.28400 19.53500 25.88900
C  45.78100 18.07700 27.66700
N  47.14500 24.86900 27.06200
C  47.07100 23.78400 26.17200
C  47.64900 24.12300 24.77200
C  47.42300 25.67200 24.80300
C  47.39900 25.92600 26.32800
C  49.15800 23.65200 24.61500
C  46.15300 26.11300 24.10800
C  44.77600 26.11500 24.86800
N  47.29700 26.66000 29.11000
C  47.66500 27.52800 28.12200
C  47.98000 28.85900 28.77100
C  47.79900 28.56600 30.17300
C  47.37200 27.26000 30.35300
C  48.51200 30.13300 28.21300
C  48.05600 29.04200 31.45300
O  48.43400 30.11300 31.81100
C  47.64800 27.98800 32.50000
C  48.88500 27.68400 33.18700
O  49.80000 26.99400 32.72000
O  48.74700 28.15400 34.46400
C  49.95000 27.87600 35.31000
H  44.97100 21.74900 31.94500
H  46.66000 21.86200 25.66300
H  47.93000 27.97400 26.00300
H  47.15000 25.08000 33.95700
H  44.57600 23.53800 33.42900
H  47.17900 23.08000 34.79200
H  46.89800 21.89900 33.47500
H  45.69500 22.11700 34.76900
H  44.27100 25.50200 34.39800
H  44.88800 27.00400 33.64000
H  46.04900 27.62100 35.58300
H  46.50800 25.96800 35.84300
H  45.42400 18.66300 30.23000
H  43.88000 19.25900 29.76000
H  44.39800 19.82100 31.17900
H  44.79600 17.99900 28.12700
H  46.53900 17.83400 28.41100
H  45.98200 17.26500 26.96800
H  47.00400 23.72600 23.98900
H  48.19800 26.30200 24.36700
H  49.43000 23.38900 25.63700
H  49.83300 24.46000 24.33400
H  49.31600 22.84700 23.89600
H  46.08600 25.61800 23.13900
H  46.17200 27.14600 23.76000
H  44.57400 27.16200 25.09400
H  44.79200 25.54200 25.79500
H  44.08500 25.72300 24.12200
H  47.90900 30.37500 27.33800
H  49.53400 29.98900 27.86100
H  48.50100 30.97300 28.90700
H  46.84800 28.32900 33.15700
H  50.93300 28.18600 34.95400
H  50.02500 26.83800 35.63200
H  49.73400 28.55400 36.13600

