158

Mg 48.02800 44.84800 43.30900
C  44.60800 44.77600 42.76700
C  48.14200 41.52000 42.35500
C  51.27100 45.17500 43.20400
C  47.69500 48.24400 44.29000
N  46.45900 43.35900 42.75200
C  45.15800 43.51100 42.50900
C  44.49400 42.24100 41.87100
C  45.63400 41.21300 42.21300
C  46.88400 42.07500 42.44500
C  45.43600 40.39200 43.49900
C  44.33300 42.48200 40.38400
C  43.11400 41.82300 39.66300
H  43.31600 40.62500 38.70300
N  49.55900 43.45400 42.93000
C  49.42000 42.17600 42.53300
C  50.76600 41.59400 42.31600
C  51.68700 42.60100 42.67200
C  50.87000 43.80500 42.93600
C  50.88600 40.12700 41.95100
C  53.13700 42.46400 42.64400
O  53.64800 41.38400 42.24300
C  54.06800 43.53500 43.05300
N  49.27600 46.53100 43.47200
C  50.58800 46.38800 43.45400
C  51.39800 47.75200 43.65900
C  50.20600 48.74200 43.89200
C  49.01500 47.79100 43.98000
C  52.58300 47.83100 44.68500
C  50.18300 49.98300 42.87300
C  51.26500 51.05700 43.07700
N  46.48500 46.30200 43.47800
C  46.49700 47.63000 43.95000
C  45.09400 48.11000 44.00800
C  44.33400 47.11500 43.39600
C  45.23100 46.02200 43.19500
C  44.70600 49.50900 44.47500
C  43.03600 46.69300 42.94800
O  41.98500 47.28000 42.93200
C  43.19300 45.29600 42.32900
C  41.97300 44.46500 42.79500
O  41.41700 43.65100 42.03700
O  41.71100 44.77400 44.07500
C  40.72100 43.89600 44.69200
H  48.13700 40.47700 42.03200
H  52.33400 45.40300 43.10400
H  47.70000 49.30600 44.54200
H  43.55900 42.02100 42.38700
H  45.79000 40.55000 41.36200
H  44.38600 40.10200 43.54700
H  45.70000 40.83500 44.45900
H  45.93400 39.42200 43.50800
H  45.20300 42.06900 39.87300
H  44.30000 43.55000 40.16900
H  42.64800 42.66200 39.14700
H  42.41000 41.52700 40.44100
H  49.92200 39.66200 41.74500
H  51.44100 39.52500 42.67000
H  51.41800 40.12600 40.99900
H  54.07400 44.24600 42.22600
H  55.09500 43.17700 43.11900
H  53.80500 44.03000 43.98800
H  51.95300 47.87100 42.72900
H  50.22100 49.08100 44.92800
H  52.89300 46.83500 44.99900
H  52.23900 48.33900 45.58600
H  53.43500 48.40500 44.32000
H  49.15500 50.31900 43.00800
H  50.04800 49.55800 41.87800
H  50.79500 52.02500 43.25000
H  51.70700 51.22500 42.09500
H  52.08800 50.87600 43.76900
H  44.42100 49.40700 45.52300
H  43.83400 49.85100 43.91800
H  45.52300 50.21000 44.30700
H  42.94700 45.47600 41.28300
H  40.78300 43.56100 45.72700
H  40.70100 42.94600 44.15800
H  39.77000 44.38700 44.48500
Mg 47.10900 33.79900 27.53400
C  45.33600 32.50200 30.09400
C  47.65600 36.69800 29.37300
C  48.24500 35.37600 24.74600
C  46.36100 31.03600 25.57000
N  46.53000 34.42300 29.52700
C  45.94600 33.73700 30.48900
C  46.11900 34.34400 31.90000
C  46.55900 35.83300 31.45200
C  47.00800 35.60600 30.03600
C  45.45000 36.95700 31.42000
C  47.27100 33.53600 32.71000
C  47.23800 33.70300 34.26400
H  46.31400 34.71400 34.93600
N  47.81400 35.74500 27.08900
C  48.10100 36.75800 28.02400
C  48.84000 37.81200 27.40700
C  48.88100 37.54200 25.99100
C  48.23100 36.17500 25.87500
C  49.27200 39.15500 28.12100
C  49.57700 38.30900 24.89200
O  49.61900 37.96900 23.73100
C  50.43900 39.50500 25.34400
N  47.22300 33.33100 25.45100
C  47.70400 34.11600 24.52700
C  47.96800 33.41200 23.18800
C  47.54000 31.91700 23.51400
C  46.93600 32.08900 24.94900
C  47.18200 34.01700 21.96500
C  48.68100 30.93400 23.61200
C  48.42400 29.50700 23.15100
N  46.11000 32.07100 27.78900
C  45.99400 30.98800 26.95300
C  45.28400 29.88500 27.67000
C  45.02700 30.47900 28.92700
C  45.51000 31.82000 28.90400
C  44.73100 28.52500 27.04100
C  44.35500 30.30400 30.17100
O  43.77800 29.26500 30.51500
C  44.36300 31.66200 30.84400
C  44.56500 31.51600 32.33900
O  45.39700 30.78800 32.85700
O  43.51700 32.03300 33.07200
C  43.38000 31.57200 34.46700
H  47.85600 37.55500 30.01800
H  48.82700 35.72300 23.88900
H  45.98300 30.22100 24.94900
H  45.18000 34.46000 32.44100
H  47.41800 36.14100 32.04900
H  45.17800 37.22600 30.39900
H  45.83900 37.84800 31.91300
H  44.53500 36.58800 31.88200
H  48.25000 33.77600 32.29700
H  47.13800 32.46700 32.53900
H  48.24700 33.88600 34.63300
H  47.09500 32.77100 34.81000
H  50.35400 39.21800 28.23600
H  48.81100 39.15400 29.10800
H  48.93000 40.01800 27.55000
H  51.21600 39.25000 26.06500
H  49.82000 40.33700 25.67700
H  50.81800 39.96400 24.43100
H  49.03700 33.44900 22.98000
H  46.80800 31.55800 22.79100
H  46.58800 34.86200 22.31400
H  46.64900 33.21600 21.45300
H  47.95200 34.49100 21.35600
H  48.91000 30.79400 24.66900
H  49.60400 31.26600 23.13700
H  47.36100 29.33100 22.98700
H  48.75000 28.85800 23.96400
H  49.02100 29.18900 22.29600
H  44.61700 28.67400 25.96700
H  43.84600 28.07400 27.49100
H  45.54600 27.80200 27.05500
H  43.45200 32.25500 30.75800
H  43.81700 30.60600 34.72000
H  42.31200 31.37300 34.55900
H  43.78000 32.35600 35.11000

