158

Mg 40.44700 9.61900 29.69700
C  42.20200 10.88400 32.43100
C  38.04800 8.74600 31.83000
C  38.90100 8.21700 27.04600
C  42.95600 10.70000 27.51700
N  40.10800 9.94200 31.87400
C  40.88200 10.50000 32.77500
C  40.30300 10.50900 34.15000
C  38.91600 9.72700 33.99900
C  39.02800 9.38800 32.48100
C  38.73100 8.54600 34.97500
C  40.22400 11.89100 34.80700
C  39.53600 11.90800 36.24700
H  40.33000 12.52800 37.34300
N  38.76100 8.54700 29.50100
C  37.86900 8.41100 30.46800
C  36.79100 7.59000 30.01500
C  36.92200 7.42500 28.62400
C  38.19400 8.06500 28.29700
C  35.62900 7.03400 30.92700
C  36.01200 6.73300 27.58400
O  36.29900 6.50100 26.42000
C  34.63200 6.29000 28.00100
N  40.95600 9.38200 27.57400
C  40.09200 8.86700 26.67800
C  40.47900 9.11500 25.19600
C  41.69100 10.09900 25.41300
C  41.86700 10.08400 26.91800
C  40.84500 7.75700 24.41200
C  41.44700 11.55800 24.93200
C  40.29300 12.33500 25.60500
N  42.23800 10.55000 29.94700
C  43.17700 10.90700 28.89100
C  44.32200 11.53100 29.58700
C  43.95600 11.56800 30.94200
C  42.70200 10.91700 31.11800
C  45.56200 11.97400 28.92600
C  44.39200 11.96500 32.21300
O  45.40400 12.58700 32.51000
C  43.33600 11.45000 33.29200
C  43.97700 10.48100 34.28900
O  44.26700 9.30200 34.17200
O  44.02600 11.04500 35.52000
C  44.33500 10.25100 36.75800
H  37.26900 8.52700 32.56300
H  38.24100 7.91600 26.23000
H  43.65700 11.00300 26.73600
H  40.97600 9.98100 34.82600
H  38.11300 10.42800 34.22600
H  37.83300 8.77300 35.54900
H  39.53500 8.46300 35.70700
H  38.57100 7.57800 34.49900
H  39.78200 12.56300 34.07100
H  41.22600 12.29400 34.95400
H  39.22100 10.92600 36.60000
H  38.73900 12.59000 35.94900
H  35.81800 5.96200 30.98800
H  34.64700 7.37200 30.59600
H  35.68000 7.39000 31.95600
H  34.05500 5.95200 27.14000
H  33.99700 6.98500 28.54900
H  34.99900 5.50000 28.65700
H  39.64600 9.58600 24.67200
H  42.57400 9.64200 24.96800
H  40.32700 7.64700 23.46000
H  40.70000 6.80200 24.91700
H  41.91000 7.69100 24.18700
H  41.25000 11.56300 23.86000
H  42.38600 12.06800 25.15000
H  39.71900 11.59100 26.15800
H  39.64000 12.88400 24.92600
H  40.71400 13.05700 26.30500
H  45.74000 11.42900 27.99900
H  46.38900 11.78100 29.60900
H  45.55100 13.05100 28.75900
H  42.99600 12.35000 33.80300
H  45.36800 10.33300 37.09500
H  44.07600 9.19800 36.64700
H  43.65100 10.69400 37.48200
Mg -5.19200 25.22200 26.30500
C  -3.89200 26.54200 29.04500
C  -7.27800 23.16200 28.22000
C  -6.41600 23.83600 23.43500
C  -3.03400 27.22000 24.19900
N  -5.39500 24.76600 28.35900
C  -4.84900 25.53100 29.29900
C  -5.34100 25.12000 30.72400
C  -6.14800 23.83100 30.40700
C  -6.23200 23.87400 28.89100
C  -5.47200 22.52700 31.01700
C  -6.11300 26.25400 31.46100
C  -6.16400 26.22300 32.98900
H  -5.51300 25.03400 33.72600
N  -6.69400 23.75100 25.85000
C  -7.44300 23.06000 26.77700
C  -8.43500 22.20200 26.07200
C  -8.18400 22.45000 24.68900
C  -7.07100 23.40100 24.60800
C  -9.45000 21.27300 26.73100
C  -8.96600 21.92500 23.46300
O  -8.69200 22.19300 22.30100
C  -10.15400 21.04800 23.65500
N  -4.69700 25.39200 24.03700
C  -5.38600 24.73700 23.12200
C  -4.82000 24.96400 21.74400
C  -3.93200 26.27500 21.92700
C  -3.93200 26.39800 23.46100
C  -4.01000 23.65900 21.28700
C  -4.51800 27.60400 21.32500
C  -3.66000 28.44800 20.35200
N  -3.72000 26.60900 26.55500
C  -2.95300 27.30000 25.63700
C  -2.03300 28.15200 26.45700
C  -2.37800 27.94700 27.77900
C  -3.42900 26.98600 27.79300
C  -1.02100 29.06900 25.96700
C  -2.13700 28.27300 29.15100
O  -1.32500 29.10000 29.57700
C  -3.14300 27.40500 29.98800
C  -2.15700 26.61900 30.80800
O  -1.22100 25.98600 30.34600
O  -2.39800 26.83400 32.16600
C  -1.34500 26.41900 33.13100
H  -7.96500 22.58700 28.84500
H  -6.84600 23.39700 22.53200
H  -2.36900 27.83500 23.59000
H  -4.43100 24.84700 31.25800
H  -7.13200 23.87500 30.87300
H  -4.62600 22.26200 30.38300
H  -6.14000 21.66600 30.99200
H  -5.24100 22.73200 32.06300
H  -7.10800 26.25600 31.01600
H  -5.60900 27.15600 31.11600
H  -7.22300 26.36600 33.20400
H  -5.67200 27.11600 33.37400
H  -9.11400 20.27100 26.46400
H  -10.49000 21.53700 26.53700
H  -9.21000 21.41000 27.78500
H  -10.73100 20.94400 22.73600
H  -10.87600 21.56500 24.28700
H  -9.90100 20.13900 24.19900
H  -5.69000 25.21600 21.13800
H  -2.90800 26.20700 21.56100
H  -3.17400 24.04700 20.70400
H  -4.79900 23.09100 20.79400
H  -3.56800 23.12100 22.12500
H  -4.93500 28.22300 22.12000
H  -5.40200 27.31600 20.75600
H  -2.67500 28.47500 20.81900
H  -4.11300 29.43800 20.29300
H  -3.55100 27.96800 19.38000
H  -0.55600 28.76100 25.03000
H  -0.20700 29.14400 26.68800
H  -1.45400 30.07000 25.97200
H  -3.74700 28.09400 30.57900
H  -1.68600 26.12800 34.12400
H  -0.69600 27.26500 33.35700
H  -0.77200 25.59900 32.69800

