158

Mg 8.33200 3.10200 27.67200
C  9.48700 1.52300 30.65000
C  6.18600 4.87100 29.69300
C  6.98500 4.45300 24.92000
C  10.00000 0.82400 25.88500
N  7.91100 3.16600 29.90200
C  8.55700 2.57200 30.89700
C  8.05700 3.01500 32.32800
C  6.91600 4.03000 31.94200
C  6.96600 3.98400 30.38400
C  5.46300 3.64600 32.56400
C  9.14800 3.48600 33.26500
C  8.77800 4.59500 34.18100
H  9.64800 4.67700 35.46000
N  6.76300 4.52800 27.32300
C  6.12600 5.26800 28.29200
C  5.21800 6.19300 27.63000
C  5.33200 5.98100 26.23000
C  6.39400 4.99300 26.10600
C  4.22800 7.02500 28.42200
C  4.58100 6.62000 25.14600
O  4.89700 6.41600 24.00000
C  3.62000 7.70300 25.41000
N  8.47200 2.72100 25.64900
C  7.85500 3.42900 24.70800
C  8.28800 3.02600 23.32600
C  9.43900 1.96000 23.59200
C  9.28900 1.78800 25.13900
C  7.24400 2.61800 22.29000
C  10.88700 2.33300 23.16800
C  11.85500 3.07400 24.09600
N  9.46300 1.44900 28.11400
C  10.15600 0.67200 27.28400
C  10.91500 -0.31200 28.00000
C  10.74500 -0.00100 29.38900
C  9.85600 1.05600 29.34800
C  11.81900 -1.34600 27.33600
C  11.19700 -0.26100 30.74100
O  12.09500 -0.97100 31.17000
C  10.36100 0.68000 31.70000
C  9.62500 -0.02700 32.76500
O  8.58200 -0.63800 32.64600
O  10.39600 -0.03000 33.85100
C  9.77800 -0.56900 35.10700
H  5.48800 5.23800 30.44900
H  6.59700 4.91200 24.00900
H  10.47500 0.07000 25.25400
H  7.56700 2.24000 32.91700
H  7.10100 5.04200 32.30200
H  4.60200 4.05700 32.03700
H  5.40300 4.12700 33.54000
H  5.51800 2.55800 32.60400
H  10.00500 3.93800 32.76600
H  9.59200 2.72400 33.90600
H  7.74500 4.61300 34.52900
H  9.00500 5.47700 33.58400
H  3.24500 6.81100 28.00400
H  4.56500 8.05300 28.28700
H  4.30000 6.77200 29.48000
H  3.37200 8.15800 24.45200
H  4.16400 8.49500 25.92500
H  2.80800 7.25900 25.98700
H  8.82200 3.91800 22.99800
H  9.22900 1.09900 22.95800
H  6.22200 2.69300 22.66200
H  7.46900 1.61700 21.92200
H  7.17200 3.30700 21.44800
H  10.66700 3.06300 22.38800
H  11.33900 1.55200 22.55700
H  11.39600 3.64000 24.90700
H  12.38000 3.76400 23.43500
H  12.62500 2.41400 24.49600
H  12.16300 -0.96300 26.37500
H  11.29800 -2.24100 26.99600
H  12.55200 -1.68600 28.06800
H  11.08500 1.40800 32.06700
H  10.41000 -1.36700 35.49700
H  8.84400 -1.11000 34.95900
H  9.80600 0.24600 35.83100
Mg 9.97300 48.35400 24.01400
C  7.47000 49.01000 26.32100
C  12.23900 48.88900 26.52100
C  12.30200 47.26300 21.82400
C  7.51700 47.90700 21.46800
N  9.88700 48.79500 26.21500
C  8.77000 49.01600 26.85000
C  9.03300 49.22400 28.32300
C  10.53300 49.68400 28.23700
C  10.95800 49.01900 26.94600
C  10.67000 51.22500 28.10700
C  8.95500 47.91200 29.21300
C  8.33500 48.33500 30.66100
H  8.05600 47.18400 31.67500
N  11.88800 48.15600 24.08000
C  12.65700 48.48700 25.22900
C  14.06900 48.43000 24.87400
C  14.12700 47.95000 23.51800
C  12.73300 47.71100 23.08400
C  15.13100 48.91300 25.86500
C  15.38400 47.84100 22.54100
O  15.26700 47.51500 21.35000
C  16.72300 48.06300 23.13700
N  9.94200 47.81900 21.83000
C  11.04700 47.39000 21.19000
C  10.72200 46.89700 19.76800
C  9.18400 47.22500 19.61300
C  8.83300 47.73900 21.04400
C  11.59400 47.34000 18.61200
C  8.32300 45.96300 19.25700
C  7.77600 45.08700 20.32700
N  7.91800 48.47500 23.87400
C  7.04700 48.29900 22.79300
C  5.65800 48.54100 23.25700
C  5.79100 48.91300 24.59300
C  7.16700 48.78400 24.93000
C  4.42100 48.40600 22.50000
C  5.08900 49.42500 25.76700
O  3.94900 49.81800 25.93100
C  6.08400 49.26100 26.99900
C  5.70000 48.12700 27.80200
O  5.97200 46.96900 27.42100
O  4.96600 48.46000 28.93900
C  4.67300 47.25500 29.63100
H  12.97800 49.03300 27.31200
H  13.13300 46.67200 21.43200
H  6.74100 47.73500 20.72000
H  8.50200 50.08600 28.72500
H  11.16100 49.29100 29.03700
H  11.22300 51.45400 27.19600
H  11.24200 51.61800 28.94700
H  9.72700 51.76000 27.99800
H  9.91200 47.40700 29.34300
H  8.24200 47.28500 28.67800
H  7.33400 48.69100 30.41800
H  8.92100 49.13800 31.10800
H  14.91000 48.76100 26.92100
H  15.35700 49.95600 25.64100
H  16.09800 48.42600 25.74700
H  16.95400 47.20400 23.76700
H  16.68100 49.02500 23.64700
H  17.55500 47.99900 22.43600
H  10.78800 45.80900 19.73700
H  8.95500 48.03900 18.92400
H  11.07800 48.12900 18.06600
H  11.80100 46.45000 18.01700
H  12.49800 47.81900 18.98800
H  8.78600 45.40000 18.44600
H  7.40400 46.34500 18.81100
H  8.48100 45.26700 21.13900
H  7.85400 44.05800 19.97700
H  6.77700 45.39600 20.63400
H  4.60800 47.77300 21.63300
H  4.04300 49.39300 22.23200
H  3.63900 47.91700 23.08100
H  5.97500 50.18100 27.57200
H  3.62900 47.06200 29.38600
H  4.54400 47.56400 30.66800
H  5.33600 46.39500 29.53300

