158

Mg 1.77900 -0.98300 44.87800
C  5.09300 -0.17100 44.22500
C  0.83800 1.85400 43.27400
C  -1.42900 -2.23100 44.67600
C  2.90600 -4.13700 45.88400
N  2.89200 0.57800 43.66300
C  4.21400 0.75700 43.73000
C  4.56600 2.10500 43.13500
C  3.20900 2.90100 43.10600
C  2.24100 1.74600 43.43200
C  3.16500 4.07800 44.14100
C  5.35200 2.04200 41.79100
C  4.99100 0.81300 40.84600
H  4.77000 1.17000 39.39200
N  -0.09400 -0.22500 44.23800
C  -0.24100 0.95500 43.57100
C  -1.61700 1.15500 43.19000
C  -2.27900 -0.00800 43.58800
C  -1.24700 -0.93000 44.15000
C  -2.05200 2.39400 42.39400
C  -3.78900 -0.36500 43.40400
O  -4.61200 0.55200 43.11300
C  -4.42800 -1.72300 43.56500
N  0.82100 -2.91400 45.10900
C  -0.51200 -3.16100 45.06900
C  -0.81700 -4.57800 45.55000
C  0.57100 -5.02600 46.10200
C  1.51600 -3.97000 45.67400
C  -2.06600 -4.76300 46.44900
C  0.92700 -6.44500 45.56000
C  1.91400 -7.35000 46.30200
N  3.62500 -1.92700 45.29000
C  3.92800 -3.21900 45.63400
C  5.35300 -3.41900 45.75400
C  5.89000 -2.21500 45.30700
C  4.78100 -1.36400 44.91000
C  6.07300 -4.57600 46.25000
C  7.12500 -1.55800 44.99300
O  8.26800 -1.86500 45.18300
C  6.65300 -0.18000 44.29800
C  7.11900 0.94000 45.14300
O  6.91400 1.16700 46.32100
O  7.80900 1.77500 44.21600
C  8.09800 3.12000 44.64300
H  0.57800 2.79400 42.78400
H  -2.44300 -2.61600 44.80200
H  3.34600 -5.08500 46.20000
H  5.21700 2.58500 43.86600
H  3.01900 3.27000 42.09800
H  3.43500 4.98200 43.59500
H  3.80400 3.81100 44.98200
H  2.11600 4.13900 44.43100
H  6.42600 2.09500 41.96900
H  5.05900 2.96000 41.28000
H  4.16100 0.21600 41.22300
H  5.80600 0.09100 40.90300
H  -3.07400 2.23400 42.05100
H  -1.48800 2.58700 41.48100
H  -2.02400 3.29000 43.01400
H  -5.45600 -1.71800 43.20300
H  -4.43600 -1.84500 44.64800
H  -3.83000 -2.54000 43.16100
H  -0.97300 -5.14400 44.63200
H  0.43500 -4.99300 47.18300
H  -2.83500 -5.24700 45.84700
H  -2.48200 -3.82400 46.81200
H  -1.89100 -5.29200 47.38600
H  1.40200 -6.19700 44.61100
H  0.02400 -6.93400 45.19700
H  1.34600 -8.27000 46.44500
H  2.28000 -6.86000 47.20400
H  2.71100 -7.53700 45.58200
H  5.79400 -5.03300 47.19900
H  7.15000 -4.42700 46.31800
H  5.86100 -5.43100 45.60900
H  7.00400 -0.04100 43.27600
H  7.15500 3.51500 45.02100
H  8.59100 3.69800 43.86100
H  8.77800 3.09500 45.49400
Mg 42.45400 41.48500 26.63400
C  41.43400 43.67200 29.10000
C  43.22300 39.24400 29.21300
C  44.12200 39.62700 24.46800
C  41.97200 43.99400 24.25700
N  42.25200 41.44600 28.92600
C  41.79500 42.48200 29.68100
C  41.78600 42.19700 31.19500
C  42.38500 40.76200 31.23400
C  42.62600 40.40800 29.70800
C  43.63300 40.56400 32.12200
C  40.32500 42.25600 31.74700
C  40.04300 42.96700 33.04600
H  39.31200 42.25900 34.17600
N  43.52300 39.62300 26.83100
C  43.71400 38.83400 27.93100
C  44.36100 37.60200 27.51400
C  44.71200 37.76000 26.19800
C  44.18500 39.06400 25.81700
C  44.46000 36.39700 28.40200
C  45.36100 36.83000 25.16200
O  45.63900 37.02500 24.00300
C  45.67800 35.43000 25.59900
N  42.93900 41.82600 24.60000
C  43.62100 40.84600 23.88000
C  43.55800 41.10000 22.36500
C  42.77100 42.47600 22.29400
C  42.46400 42.76500 23.78800
C  44.91200 40.97700 21.55300
C  41.39100 42.46500 21.55000
C  40.43000 41.37700 22.00700
N  41.77800 43.46200 26.63100
C  41.67500 44.37600 25.58300
C  41.23500 45.61900 26.13700
C  41.10000 45.45800 27.54500
C  41.48600 44.08300 27.71600
C  40.86500 46.85900 25.41500
C  40.81000 46.07500 28.73600
O  40.56900 47.25800 29.00400
C  41.01600 45.01300 29.81100
C  42.03000 45.51500 30.77200
O  43.23200 45.34700 30.59200
O  41.51100 45.98900 31.90600
C  42.44900 46.22600 33.03600
H  43.33600 38.59100 30.08100
H  44.71100 39.08000 23.72900
H  41.84000 44.74200 23.47300
H  42.39000 42.94300 31.71000
H  41.68900 39.99300 31.57000
H  44.52700 40.71200 31.51700
H  43.74900 39.57300 32.56100
H  43.46400 41.32400 32.88500
H  39.91600 41.24700 31.80200
H  39.69800 42.73400 30.99400
H  39.39500 43.82200 32.85500
H  41.02400 43.23200 33.44100
H  43.84200 36.50000 29.29400
H  45.49900 36.15800 28.63100
H  44.07500 35.50100 27.91500
H  46.14700 34.87100 24.78900
H  44.75700 34.87600 25.77900
H  46.32900 35.43500 26.47300
H  42.80000 40.41100 21.99300
H  43.37300 43.35300 22.05400
H  44.91400 41.95400 21.06900
H  44.79000 40.12300 20.88600
H  45.83700 40.89000 22.12400
H  41.51900 42.41000 20.46900
H  40.87700 43.40600 21.74900
H  40.65300 40.79700 22.90200
H  40.25300 40.72500 21.15100
H  39.45100 41.72300 22.34000
H  39.92800 47.12500 25.90500
H  40.84000 46.66000 24.34300
H  41.63100 47.57600 25.71100
H  40.08000 44.91400 30.35900
H  43.06800 45.34500 33.20800
H  41.86000 46.50800 33.90800
H  43.11200 47.06400 32.82000

