158

Mg 26.52500 -0.05500 28.29700
C  28.23600 -0.29500 31.31700
C  23.57500 0.20600 30.09100
C  25.03200 -0.53300 25.48300
C  29.66500 -0.72100 26.59500
N  25.98900 -0.20100 30.50100
C  26.82500 -0.17000 31.46100
C  26.10100 -0.01000 32.82700
C  24.61200 0.19300 32.42100
C  24.72800 0.03500 30.90400
C  23.63900 -0.83600 33.15700
C  26.63300 1.14500 33.78300
C  25.68400 1.75200 34.87400
H  26.22900 2.31800 36.23200
N  24.58000 -0.09300 27.83100
C  23.51100 0.12100 28.66900
C  22.32300 0.01600 27.90600
C  22.66200 -0.17700 26.52200
C  24.17300 -0.41800 26.55200
C  20.86700 0.04600 28.50200
C  21.95900 -0.14300 25.14900
O  22.42000 -0.52600 24.10000
C  20.60800 0.38800 25.26100
N  27.30700 -0.32100 26.32300
C  26.44800 -0.50600 25.32300
C  27.09600 -0.58600 23.88800
C  28.55800 -0.31300 24.30500
C  28.57200 -0.48700 25.81200
C  26.94000 -1.98800 23.31200
C  29.03300 1.11100 23.85000
C  29.71300 1.22600 22.47900
N  28.48600 -0.40400 28.80100
C  29.63800 -0.72200 28.03000
C  30.78900 -0.84900 28.87600
C  30.32900 -0.65700 30.17500
C  28.94100 -0.45800 30.07500
C  32.22300 -1.07700 28.49000
C  30.69200 -0.48800 31.52200
O  31.80200 -0.51900 32.04000
C  29.34200 -0.08900 32.33100
C  29.35900 -0.88800 33.57400
O  29.14500 -2.10400 33.67400
O  29.65300 -0.03600 34.63900
C  29.53000 -0.53800 36.02100
H  22.61900 0.26400 30.61500
H  24.72500 -0.56500 24.43500
H  30.52700 -0.89400 25.94600
H  26.31000 -0.92600 33.38000
H  24.40400 1.24600 32.61300
H  23.08900 -0.28600 33.92100
H  24.24500 -1.63100 33.59300
H  22.93200 -1.24700 32.43700
H  26.85600 2.02300 33.17700
H  27.48100 0.80000 34.37400
H  24.78500 1.13800 34.92600
H  25.29700 2.62400 34.34700
H  20.21500 0.90600 28.35100
H  20.84400 -0.28800 29.53900
H  20.29300 -0.74200 28.01400
H  20.06300 -0.41400 25.75900
H  20.14300 0.60400 24.30000
H  20.48700 1.24600 25.92200
H  26.60100 0.05100 23.15600
H  29.25700 -1.04800 23.90600
H  26.57100 -1.99300 22.28700
H  26.37500 -2.68700 23.93000
H  27.88300 -2.51400 23.16400
H  29.68600 1.60200 24.57100
H  28.18600 1.79200 23.76800
H  29.09100 0.96700 21.62300
H  30.49600 0.47300 22.56500
H  30.02500 2.24400 22.24300
H  32.86700 -0.20600 28.61100
H  32.32200 -1.35000 27.43900
H  32.54000 -1.90100 29.12900
H  29.39600 0.98400 32.51000
H  28.90100 0.19500 36.52600
H  30.53200 -0.40200 36.42700
H  29.10000 -1.53400 36.13700
Mg 8.92400 48.86300 26.68500
C  6.44700 48.45600 29.17900
C  11.20100 49.52600 29.07800
C  10.99600 49.11000 24.22000
C  6.29900 48.12400 24.29200
N  8.81000 48.98200 28.92200
C  7.75500 48.78100 29.70900
C  8.06500 49.04200 31.21800
C  9.47000 49.64600 31.15400
C  9.91700 49.32200 29.64300
C  9.60800 51.19000 31.42300
C  7.89500 47.87900 32.20000
C  8.82700 47.85900 33.46100
H  8.40600 47.25700 34.84000
N  10.81200 49.23600 26.63100
C  11.63800 49.52600 27.72300
C  12.97200 49.60700 27.28500
C  13.00000 49.41600 25.87700
C  11.56500 49.26900 25.50500
C  14.16200 49.81400 28.16300
C  14.16600 49.42400 24.87200
O  14.04000 49.36000 23.66400
C  15.52600 49.43400 25.36500
N  8.63000 48.86600 24.57800
C  9.71200 48.91000 23.79500
C  9.39700 48.54000 22.29900
C  7.94500 48.04300 22.38200
C  7.58200 48.36900 23.83100
C  9.74100 49.47300 21.12400
C  7.77400 46.49900 22.12200
C  7.14300 46.05200 20.79000
N  6.77900 48.52000 26.66000
C  5.91000 48.13100 25.62700
C  4.60900 47.97100 26.20600
C  4.73800 48.09800 27.53300
C  6.06700 48.37300 27.81700
C  3.39600 47.50700 25.53200
C  4.05600 48.06700 28.75700
O  2.85300 48.01400 29.01900
C  5.09200 48.35300 29.90000
C  5.09400 47.24400 30.87300
O  5.65600 46.14000 30.75700
O  4.37300 47.66700 32.00100
C  4.29300 46.67100 33.11000
H  11.97600 49.60000 29.84400
H  11.64100 49.11400 23.33900
H  5.68800 47.81800 23.44000
H  7.30300 49.76500 31.51000
H  10.20500 49.11200 31.75600
H  8.64300 51.61900 31.69400
H  9.97300 51.69100 30.52600
H  10.32900 51.26300 32.23800
H  8.15700 46.99300 31.62300
H  6.84600 47.91400 32.49500
H  9.06000 48.88800 33.73300
H  9.78700 47.39500 33.23200
H  13.97900 49.93800 29.23000
H  14.78000 50.64900 27.83400
H  14.81900 48.96700 27.96100
H  15.79500 50.16900 26.12400
H  16.12700 49.77200 24.52000
H  15.81200 48.44300 25.71600
H  10.07900 47.69600 22.20100
H  7.21100 48.65800 21.86100
H  10.49500 48.94900 20.53800
H  10.02100 50.43700 21.55000
H  8.82600 49.66600 20.56400
H  7.26000 46.09400 22.99500
H  8.78100 46.12300 21.94300
H  6.06400 45.95100 20.90200
H  7.50600 45.06800 20.49300
H  7.36400 46.62800 19.89200
H  3.07300 46.63000 26.09300
H  3.73700 47.37900 24.50500
H  2.67200 48.31500 25.63400
H  4.82600 49.25500 30.45200
H  4.62600 47.18500 34.01100
H  4.97700 45.82400 33.04800
H  3.32100 46.19600 33.24200

