158

Mg 17.25400 -1.54400 28.04800
C  15.99700 0.55300 30.55100
C  19.22100 -3.05400 30.43500
C  18.94100 -3.06600 25.48600
C  15.55900 0.37900 25.64500
N  17.46700 -1.27600 30.27500
C  16.86400 -0.42200 31.10500
C  17.12600 -0.75200 32.62700
C  18.40600 -1.69400 32.51200
C  18.39800 -2.03000 30.94800
C  19.67800 -0.98000 33.00300
C  15.91000 -1.58000 33.15900
C  15.58700 -1.24700 34.54400
H  16.44100 -0.35900 35.49500
N  18.67400 -3.05000 28.00300
C  19.37100 -3.53500 29.10500
C  20.25300 -4.52700 28.62000
C  20.26300 -4.48500 27.17100
C  19.22700 -3.52600 26.82400
C  21.20100 -5.24000 29.53600
C  21.18800 -5.20000 26.16000
O  21.20300 -5.08600 24.97800
C  22.39900 -6.02400 26.70200
N  17.49500 -1.20600 25.82900
C  18.11200 -2.02000 25.00200
C  17.99500 -1.66800 23.53200
C  16.68800 -0.75400 23.65100
C  16.57200 -0.41600 25.13200
C  19.23300 -0.91200 22.95700
C  15.45000 -1.39700 23.06700
C  14.88400 -0.79600 21.72700
N  16.00800 0.05200 28.08900
C  15.31500 0.65700 26.97600
C  14.47000 1.77600 27.52700
C  14.66700 1.68300 28.93600
C  15.69700 0.72100 29.19500
C  13.61700 2.76900 26.72900
C  14.41800 2.37400 30.24200
O  13.75400 3.36300 30.50800
C  15.30300 1.63700 31.29900
C  16.11800 2.62000 32.07100
O  17.23400 2.96200 31.88700
O  15.36200 3.05700 33.14400
C  15.93300 4.14100 33.97800
H  19.79400 -3.55400 31.21800
H  19.50400 -3.60600 24.72300
H  15.01400 0.92300 24.87100
H  17.35900 0.24100 33.00900
H  18.29000 -2.60900 33.09400
H  19.41000 -0.04700 33.49800
H  20.58100 -0.97400 32.39100
H  20.06500 -1.48600 33.88700
H  16.10700 -2.64900 33.08100
H  15.04100 -1.34800 32.54300
H  15.48700 -2.16300 35.12600
H  14.61400 -0.77100 34.43200
H  21.11900 -6.30400 29.31300
H  20.91700 -4.98300 30.55600
H  22.17800 -4.78600 29.37300
H  23.10000 -5.29100 27.10300
H  22.87800 -6.61500 25.92100
H  21.97400 -6.66600 27.47300
H  17.88200 -2.56200 22.91900
H  16.95600 0.15900 23.11900
H  20.17700 -1.12200 23.46100
H  19.08200 0.16700 22.99800
H  19.43900 -1.25300 21.94300
H  14.64500 -1.45000 23.80000
H  15.75400 -2.41200 22.81200
H  15.09200 0.26400 21.57800
H  13.81700 -0.94400 21.56700
H  15.29500 -1.29800 20.85200
H  12.70100 2.18700 26.61700
H  14.13200 3.09600 25.82600
H  13.48600 3.69700 27.28500
H  14.74900 1.18400 32.12100
H  16.25700 4.95300 33.32600
H  16.75800 3.73800 34.56500
H  15.18800 4.58000 34.64100
Mg 6.56000 53.02200 42.21600
C  6.37100 49.53000 41.74500
C  9.82800 52.95100 41.05100
C  6.51600 56.46300 42.16300
C  3.23100 52.94300 43.21400
N  7.95700 51.42000 41.48800
C  7.66100 50.07500 41.34000
C  8.92900 49.37300 40.84100
C  10.11300 50.43200 41.04000
C  9.30600 51.68800 41.33200
C  11.12700 50.04400 42.14900
C  8.88900 48.79500 39.37700
C  8.69100 49.77300 38.21700
H  7.76800 49.40700 37.07400
N  7.95000 54.54500 41.65900
C  9.26400 54.24300 41.22700
C  9.88000 55.51600 41.02500
C  8.89000 56.47000 41.13200
C  7.73500 55.84600 41.72800
C  11.34600 55.60500 40.55600
C  9.08300 57.92500 40.72000
O  10.19900 58.39900 40.38200
C  8.03200 58.96000 40.74100
N  5.08000 54.47300 42.58300
C  5.31400 55.80500 42.58600
C  3.99400 56.51700 42.81400
C  3.06700 55.44700 43.35900
C  3.80300 54.19000 42.95700
C  4.09000 57.68800 43.89200
C  1.65600 55.58600 42.63700
C  0.52300 56.12900 43.52700
N  5.08400 51.55400 42.43600
C  3.80400 51.69700 42.90500
C  3.24600 50.42900 43.18800
C  4.19000 49.57900 42.55700
C  5.29000 50.29500 42.19900
C  1.86900 50.13000 43.82800
C  4.32100 48.16400 42.23400
O  3.55200 47.22800 42.34300
C  5.92200 48.10500 41.67900
C  5.82800 47.58600 40.22400
O  5.39700 48.23300 39.26300
O  6.31300 46.24900 40.21900
C  6.49000 45.53400 38.98600
H  10.87600 52.88000 40.75100
H  6.51200 57.53700 42.36100
H  2.18700 52.84900 43.52300
H  9.10300 48.55300 41.53800
H  10.60900 50.56400 40.07900
H  11.12800 50.85100 42.88000
H  12.11300 50.01200 41.68400
H  10.92100 49.16800 42.76400
H  8.30400 47.87800 39.32100
H  9.91200 48.51100 39.12600
H  9.62100 50.16100 37.80100
H  8.25500 50.66300 38.67100
H  11.82200 56.52300 40.90000
H  11.22100 55.49000 39.47900
H  11.85100 54.69400 40.87900
H  7.07500 58.49300 40.50900
H  8.27100 59.83100 40.13000
H  7.83000 59.29300 41.75900
H  3.75800 56.98500 41.85800
H  2.98500 55.52800 44.44300
H  4.99000 57.65200 44.50700
H  3.21900 57.74000 44.54500
H  4.24300 58.68900 43.48800
H  1.34100 54.60300 42.28700
H  1.72500 56.25900 41.78300
H  0.78700 56.22900 44.58000
H  -0.41300 55.57500 43.59000
H  0.34700 57.17800 43.28900
H  1.60000 49.13900 43.46200
H  1.10300 50.77700 43.40100
H  1.96900 50.20400 44.91100
H  6.51600 47.43800 42.30400
H  7.47500 45.07100 38.94600
H  6.30200 46.14200 38.10100
H  5.71400 44.77100 39.05800

