158

Mg 35.65500 48.56200 25.87400
C  36.03400 46.63300 28.80300
C  34.65000 51.10400 27.79400
C  34.95900 50.10700 23.07700
C  36.80900 45.82300 23.98600
N  35.10600 48.72200 28.09200
C  35.55100 47.88100 29.07500
C  35.39900 48.43500 30.49400
C  34.64400 49.79500 30.16700
C  34.82500 49.95400 28.59400
C  33.17900 49.91900 30.61800
C  36.66200 48.52700 31.34800
C  36.44300 48.07800 32.86800
H  36.53200 49.33500 33.78700
N  34.79500 50.34300 25.44900
C  34.58300 51.36000 26.39000
C  34.35800 52.67400 25.71300
C  34.21400 52.30200 24.33000
C  34.64000 50.88200 24.25200
C  34.04600 53.92700 26.46500
C  33.79500 53.11800 23.14200
O  33.87400 52.76600 21.95500
C  33.36100 54.52800 23.38600
N  35.85100 48.03200 23.81100
C  35.44400 48.85500 22.87300
C  35.67700 48.30000 21.45500
C  36.50800 47.03200 21.85500
C  36.42200 46.94300 23.25700
C  34.36300 48.07900 20.66800
C  37.86900 46.85200 21.10900
C  39.05200 47.58300 21.60500
N  36.15500 46.59000 26.25800
C  36.67400 45.54500 25.37300
C  36.90900 44.35500 26.20200
C  36.72100 44.72700 27.59400
C  36.22200 46.05200 27.56000
C  37.51600 43.04700 25.76000
C  36.90500 44.35800 28.91300
O  37.24800 43.30600 29.39700
C  36.39300 45.54500 29.77600
C  35.21000 44.95600 30.55200
O  34.16800 44.56300 30.01300
O  35.51100 44.99500 31.86600
C  34.60200 44.32700 32.82600
H  34.47000 51.92400 28.49300
H  34.93400 50.61900 22.11300
H  37.24700 44.99700 23.42300
H  34.68600 47.72800 30.91800
H  35.09700 50.72800 30.50300
H  32.55600 49.79200 29.73300
H  33.02200 50.90700 31.05000
H  33.04700 49.05400 31.26900
H  36.94700 49.57500 31.25600
H  37.49100 47.97500 30.90500
H  37.14200 47.31000 33.19800
H  35.42000 47.70400 32.82300
H  34.38800 54.85500 26.00800
H  34.42500 53.80100 27.47900
H  32.97000 54.01400 26.61700
H  32.98400 54.90300 22.43500
H  34.15200 55.08600 23.88700
H  32.46000 54.49500 23.99800
H  36.35400 49.04300 21.03400
H  35.78300 46.26500 21.58400
H  33.46300 48.48500 21.13100
H  34.09700 47.03100 20.53000
H  34.43400 48.49900 19.66500
H  37.76500 47.21500 20.08600
H  38.05100 45.77900 21.03700
H  39.49200 48.15100 20.78500
H  39.86900 46.89300 21.81700
H  38.83200 48.08100 22.54800
H  38.20600 43.07400 24.91600
H  36.79000 42.23500 25.73200
H  38.11000 42.77800 26.63400
H  37.17000 45.91400 30.44600
H  33.91700 43.70800 32.24700
H  33.99500 45.04000 33.38400
H  35.18700 43.69000 33.49000
Mg 9.42800 47.84000 25.60900
C  6.94700 48.22100 28.22700
C  11.71200 48.82100 28.14700
C  11.72100 47.87800 23.36200
C  6.88200 47.59400 23.30200
N  9.29500 48.53000 27.92300
C  8.22300 48.44900 28.74800
C  8.62600 48.64800 30.23100
C  10.14500 49.07400 30.15000
C  10.43900 48.71300 28.68800
C  10.37500 50.56500 30.60000
C  8.42700 47.32800 31.05800
C  9.30600 46.87400 32.21000
H  8.55700 46.27800 33.41300
N  11.41200 48.23800 25.74400
C  12.19100 48.61800 26.81300
C  13.56100 48.72700 26.45700
C  13.65700 48.24300 25.11800
C  12.24500 48.09800 24.65800
C  14.57800 49.20700 27.39500
C  14.82200 47.91800 24.25600
O  14.76700 47.63300 23.07600
C  16.21700 48.06400 24.83800
N  9.36700 47.67700 23.63900
C  10.39400 47.74900 22.84300
C  10.12500 47.29100 21.41100
C  8.56500 47.20000 21.38700
C  8.15700 47.50200 22.87800
C  10.71100 48.14900 20.21500
C  8.16000 45.75800 20.97300
C  8.34800 44.64400 22.04300
N  7.38000 47.96600 25.69300
C  6.46600 47.74300 24.65400
C  5.06600 47.58900 25.16300
C  5.24600 47.80600 26.57200
C  6.62000 48.04300 26.83200
C  3.81600 47.38400 24.41100
C  4.51500 47.88000 27.79700
O  3.29300 47.80500 28.00100
C  5.55800 48.13300 28.88700
C  5.49100 46.92200 29.73900
O  5.95700 45.83600 29.51500
O  4.59900 47.23200 30.74000
C  4.40700 46.23900 31.85200
H  12.40900 49.11500 28.93400
H  12.42100 47.82500 22.52500
H  6.07700 47.50000 22.57100
H  8.00500 49.37100 30.75900
H  10.75000 48.36700 30.71800
H  9.40900 51.06300 30.52700
H  10.96600 51.11000 29.86400
H  10.81400 50.51400 31.59600
H  8.55600 46.51000 30.34900
H  7.42900 47.43500 31.48200
H  9.92200 47.71700 32.52500
H  9.96600 46.08600 31.84900
H  15.31600 49.89400 26.98100
H  15.00200 48.48500 28.09300
H  14.10100 49.96000 28.02300
H  17.06800 48.02400 24.15800
H  16.33800 47.24700 25.55100
H  16.55900 48.95500 25.36500
H  10.56600 46.29800 21.32500
H  8.19300 47.93400 20.67300
H  11.31300 48.96500 20.61500
H  9.94000 48.52100 19.54000
H  11.43100 47.52500 19.68500
H  8.76100 45.35100 20.16000
H  7.12300 45.90600 20.67200
H  7.35500 44.28700 22.31700
H  8.82400 45.09400 22.91400
H  8.98300 43.80100 21.76900
H  3.80100 46.40900 23.92500
H  3.76300 48.06800 23.56400
H  2.99000 47.59200 25.09100
H  5.26200 49.03800 29.41600
H  3.53900 45.60400 31.67900
H  4.19600 46.75100 32.79000
H  5.34100 45.69800 32.00700

