158

Mg 17.22900 52.98400 26.57800
C  19.45000 51.50200 29.14300
C  14.97600 53.55300 29.07300
C  15.06500 53.91600 24.16800
C  19.45900 51.71600 24.22600
N  17.31000 52.64300 28.84900
C  18.25500 52.06600 29.65500
C  17.82700 52.28400 31.16400
C  16.32000 52.64700 31.11800
C  16.16800 52.99100 29.59300
C  15.37000 51.54100 31.53200
C  18.61900 53.45200 31.92300
C  18.99000 53.18100 33.35900
H  17.92300 52.36000 34.14500
N  15.38600 53.69100 26.61900
C  14.60800 53.83600 27.72600
C  13.32600 54.42700 27.36300
C  13.44000 54.67100 26.02100
C  14.61600 54.03600 25.53400
C  12.19100 54.79900 28.31800
C  12.52500 55.48300 25.12000
O  12.67000 55.64100 23.89900
C  11.29200 56.03600 25.68100
N  17.20400 52.75100 24.50400
C  16.22900 53.30900 23.68900
C  16.72500 53.53600 22.27100
C  18.09700 52.77900 22.20800
C  18.32600 52.38600 23.77100
C  15.61900 53.14800 21.20700
C  19.22800 53.77600 21.67800
C  20.10600 53.18700 20.55900
N  19.01400 51.82900 26.56200
C  19.79700 51.45800 25.51900
C  21.02100 50.76400 25.96100
C  20.93500 50.77700 27.38400
C  19.68100 51.39400 27.70600
C  22.11900 50.19700 25.05600
C  21.64000 50.44400 28.60900
O  22.71300 49.85200 28.74400
C  20.70800 50.95300 29.83700
C  20.43400 49.81100 30.76000
O  20.18400 48.69300 30.35800
O  20.52100 50.24800 31.99800
C  20.50600 49.21100 33.05700
H  14.30200 53.70000 29.92000
H  14.39700 54.29800 23.39300
H  20.15700 51.44300 23.43300
H  17.92400 51.31900 31.66100
H  16.07800 53.58800 31.61000
H  14.75300 52.01700 32.29500
H  15.75100 50.58400 31.88900
H  14.62900 51.19000 30.81400
H  18.30900 54.49500 31.85900
H  19.55400 53.60100 31.38300
H  18.98900 54.09700 33.94900
H  19.97000 52.73600 33.53400
H  11.21700 54.39900 28.03800
H  12.18300 55.87700 28.47800
H  12.36400 54.54200 29.36300
H  10.49500 55.39400 26.05600
H  10.83300 56.51800 24.81800
H  11.80200 56.65400 26.41900
H  16.93600 54.58700 22.07700
H  17.97900 51.85300 21.64500
H  14.93600 52.40100 21.61200
H  16.22300 52.80900 20.36500
H  15.16000 54.07800 20.87100
H  19.96600 54.16500 22.38000
H  18.89100 54.71100 21.23100
H  20.07500 52.09700 20.53800
H  21.11100 53.55400 20.76800
H  19.86100 53.52600 19.55200
H  21.89200 50.31600 23.99600
H  22.14200 49.13000 25.27500
H  23.08800 50.59000 25.36300
H  21.17800 51.78800 30.35600
H  19.47500 49.17200 33.40900
H  21.23200 49.50600 33.81400
H  20.70500 48.19000 32.73400
Mg -4.83500 25.40300 26.47700
C  -3.41300 26.79800 29.32300
C  -7.05200 23.62800 28.48800
C  -5.86700 23.95600 23.72400
C  -2.62800 27.43900 24.58000
N  -5.12000 25.21000 28.65500
C  -4.41900 25.83500 29.68800
C  -5.03700 25.48900 31.09100
C  -5.84400 24.22700 30.65900
C  -6.04800 24.37500 29.18400
C  -5.22200 22.83600 31.07900
C  -5.92700 26.59500 31.67000
C  -6.01800 26.54700 33.27900
H  -5.50500 25.26100 33.98300
N  -6.31600 23.98700 26.11700
C  -7.13000 23.45300 27.08200
C  -8.08200 22.54700 26.38500
C  -7.69600 22.62000 24.99500
C  -6.55900 23.48500 24.88500
C  -9.16400 21.87500 27.14000
C  -8.32300 21.95900 23.79600
O  -7.82100 21.97500 22.71700
C  -9.56700 21.16600 24.01200
N  -4.29200 25.65800 24.43400
C  -4.87900 24.92000 23.49500
C  -4.50900 25.42300 22.07500
C  -3.56600 26.65000 22.27600
C  -3.51700 26.59600 23.86100
C  -4.06800 24.32400 21.18900
C  -4.23000 27.99400 21.80200
C  -3.50000 28.49600 20.52000
N  -3.31500 26.78600 26.83300
C  -2.52500 27.52500 26.01100
C  -1.69400 28.42600 26.75000
C  -1.91800 28.09800 28.07600
C  -2.93400 27.19500 28.05300
C  -0.73400 29.36100 26.15100
C  -1.51800 28.38400 29.41600
O  -0.63500 29.15000 29.83300
C  -2.39800 27.48900 30.30300
C  -1.67700 26.53700 31.24200
O  -1.15400 25.50100 30.94900
O  -1.85000 27.10800 32.49400
C  -1.37100 26.49600 33.71600
H  -7.73500 23.09200 29.15100
H  -6.24000 23.67700 22.73600
H  -2.03500 28.20000 24.06900
H  -4.16000 25.18500 31.66400
H  -6.83300 24.26400 31.11600
H  -5.96100 22.16300 31.51400
H  -4.41700 23.04900 31.78300
H  -4.67700 22.31500 30.29200
H  -6.89400 26.48100 31.18000
H  -5.58200 27.53400 31.23800
H  -7.06500 26.74100 33.51200
H  -5.34700 27.33200 33.62700
H  -9.19400 20.80400 26.93900
H  -10.19500 22.12400 26.89100
H  -9.02900 21.93300 28.22000
H  -9.26400 20.25000 24.52000
H  -10.04300 21.05900 23.03800
H  -10.28900 21.77100 24.56100
H  -5.46500 25.76000 21.67300
H  -2.66100 26.35700 21.74300
H  -3.36400 24.70000 20.44600
H  -4.96100 23.98200 20.66600
H  -3.71800 23.60300 21.92900
H  -4.02800 28.84500 22.45300
H  -5.31400 27.90800 21.72000
H  -4.22000 28.67000 19.72000
H  -2.76800 27.75600 20.19300
H  -2.93000 29.42400 20.55000
H  -0.17100 28.86800 25.35900
H  0.01800 29.71900 26.85500
H  -1.22200 30.20200 25.65900
H  -2.80300 28.28000 30.93400
H  -1.00100 25.48600 33.54300
H  -2.14200 26.52800 34.48500
H  -0.43900 27.01300 33.94800

