158

Mg 35.90600 48.94800 25.31700
C  36.14400 47.23300 28.39600
C  34.42700 51.50200 26.91300
C  34.71200 50.03500 22.38400
C  37.01000 46.07000 23.59500
N  35.51400 49.38100 27.42100
C  35.69300 48.55900 28.52800
C  35.35900 49.25400 29.85900
C  34.75900 50.64100 29.33200
C  34.90900 50.50500 27.76200
C  33.29300 50.91100 29.69100
C  36.65700 49.40700 30.71000
C  36.51000 49.50200 32.26300
H  34.99800 49.48200 32.77700
N  34.98400 50.69300 24.71600
C  34.44200 51.65500 25.53100
C  33.80100 52.72900 24.75700
C  33.80800 52.20700 23.37500
C  34.51500 50.94800 23.42500
C  33.08900 53.86600 25.34800
C  33.13600 52.75200 22.14800
O  32.99000 52.16800 21.10500
C  32.50200 54.11100 22.23100
N  36.00100 48.20400 23.27400
C  35.36500 48.85300 22.31500
C  35.42100 48.06700 20.97900
C  36.24400 46.78800 21.38500
C  36.55500 47.08200 22.81300
C  34.10400 47.91800 20.17100
C  37.43300 46.59800 20.40500
C  38.77800 47.15800 20.81400
N  36.49000 47.01700 25.85500
C  36.89600 45.98000 25.04100
C  37.09200 44.85400 25.85300
C  36.85700 45.23600 27.19700
C  36.45900 46.59700 27.10300
C  37.51900 43.53600 25.39800
C  36.85900 44.83300 28.57500
O  37.07800 43.79600 29.16300
C  36.54400 46.15200 29.41900
C  35.48200 45.76900 30.32900
O  34.30200 45.76000 30.15800
O  35.99100 45.34100 31.57600
C  34.98500 45.21200 32.64000
H  34.04200 52.32500 27.51900
H  34.37700 50.42800 21.42100
H  37.19400 45.19600 22.96700
H  34.67100 48.57800 30.36500
H  35.38000 51.51300 29.53500
H  32.59200 51.17300 28.89800
H  33.24800 51.73700 30.40000
H  32.92700 50.02100 30.20300
H  37.12800 50.34100 30.40600
H  37.31700 48.56700 30.49000
H  36.91200 50.48700 32.49900
H  37.05900 48.64100 32.64500
H  33.73000 54.73800 25.21400
H  32.87700 53.75200 26.41100
H  32.10600 54.04100 24.91000
H  33.21900 54.79800 22.68000
H  31.54300 54.08100 22.74900
H  32.29800 54.44800 21.21500
H  35.99500 48.65000 20.25800
H  35.59000 45.91600 21.36700
H  33.92400 46.92300 19.76500
H  34.16300 48.57700 19.30500
H  33.23800 48.19100 20.77400
H  37.12300 46.97700 19.43100
H  37.56800 45.53200 20.22500
H  39.41900 46.39000 21.24600
H  38.61800 47.96900 21.52500
H  39.27000 47.69600 20.00300
H  38.54700 43.64500 25.05100
H  36.99000 43.03000 24.59200
H  37.62600 42.89400 26.27200
H  37.44200 46.36800 29.99900
H  35.69100 45.20000 33.47000
H  34.43400 44.27400 32.70800
H  34.25700 46.01900 32.56600
Mg 4.46400 53.87800 40.46100
C  4.69900 50.44200 40.87500
C  7.58700 53.80900 38.86000
C  4.11500 57.08000 39.73400
C  1.28600 53.81500 42.07500
N  5.83600 52.26500 39.74300
C  5.75200 50.93300 40.13600
C  6.99200 50.17100 39.69600
C  8.06500 51.33700 39.40500
C  7.10100 52.54600 39.30500
C  9.22800 51.50400 40.33000
C  6.83200 49.23000 38.47200
C  5.74100 49.45000 37.44500
H  6.11700 49.60400 36.01400
N  5.64300 55.24900 39.31700
C  6.90500 55.04800 38.82300
C  7.44100 56.32000 38.42000
C  6.43500 57.32800 38.69000
C  5.30300 56.58000 39.20900
C  8.87600 56.52200 38.02600
C  6.60300 58.87300 38.56900
O  7.73300 59.28300 38.27400
C  5.56400 59.92900 38.93800
N  2.79500 55.21500 40.65500
C  3.01100 56.52600 40.38500
C  1.90000 57.41500 40.99400
C  0.89200 56.31500 41.58800
C  1.68100 55.04000 41.44500
C  2.41100 58.32500 42.16400
C  -0.45300 56.19700 40.82900
C  -1.39000 57.29300 40.57500
N  3.15300 52.49300 41.37200
C  1.97100 52.59400 42.00000
C  1.68300 51.38100 42.72900
C  2.73900 50.48000 42.33000
C  3.60500 51.18400 41.46700
C  0.56700 51.07700 43.60700
C  3.19300 49.16500 42.42200
O  2.71700 48.13700 42.95000
C  4.35900 49.02400 41.38800
C  3.88700 48.14400 40.22000
O  3.24000 48.60600 39.26600
O  4.31300 46.81000 40.27800
C  3.93700 45.94700 39.13600
H  8.64900 53.79800 38.60500
H  4.02400 58.16800 39.73500
H  0.33800 53.85400 42.61600
H  7.43300 49.65300 40.54700
H  8.38200 51.18500 38.37300
H  9.08500 52.38800 40.95100
H  10.18500 51.68200 39.84000
H  9.37400 50.59600 40.91500
H  6.72400 48.23700 38.90800
H  7.74100 49.19500 37.87200
H  5.08800 50.25700 37.77700
H  5.17900 48.51900 37.51900
H  8.89700 56.76300 36.96300
H  9.37800 55.56400 37.88600
H  9.47900 57.31200 38.47500
H  5.92500 60.82700 38.43700
H  5.57300 60.06000 40.02000
H  4.59300 59.63700 38.53900
H  1.39100 58.03200 40.25200
H  0.78200 56.47000 42.66200
H  3.43600 58.12400 42.47500
H  1.65900 58.31000 42.95300
H  2.30500 59.37400 41.88800
H  -0.98300 55.38100 41.32000
H  -0.26100 55.79900 39.83300
H  -2.38600 56.89300 40.76200
H  -1.34700 57.61200 39.53300
H  -1.12600 58.14000 41.20900
H  -0.36600 51.50500 43.24100
H  0.83300 51.47600 44.58600
H  0.48600 50.00300 43.77100
H  5.22500 48.54200 41.84200
H  2.85400 45.89800 39.01900
H  4.32900 44.96400 39.39700
H  4.39200 46.40300 38.25600

