158

Mg 6.53100 53.71000 41.28700
C  3.87300 51.57300 40.85600
C  8.69400 51.12600 40.21900
C  8.89600 55.98800 40.98200
C  4.28800 56.26300 42.11500
N  6.28500 51.72600 40.31800
C  5.06000 51.03600 40.26300
C  5.27100 49.67500 39.63500
C  6.80400 49.41700 39.81900
C  7.32200 50.84100 40.14500
C  7.08100 48.34400 40.89200
C  4.94500 49.77700 38.12800
C  4.27500 48.50700 37.53800
H  4.88100 47.87100 36.21100
N  8.49800 53.62500 40.65400
C  9.18500 52.49000 40.27800
C  10.57000 52.90300 39.98000
C  10.58800 54.33500 40.08100
C  9.27800 54.73600 40.53800
C  11.61200 51.96500 39.35000
C  11.74900 55.28100 39.54700
O  12.80500 54.77000 39.19300
C  11.62900 56.72300 39.33400
N  6.58400 55.93300 41.30200
C  7.70700 56.57500 41.46100
C  7.58300 58.01100 41.98400
C  6.02900 58.11600 41.98700
C  5.58100 56.70800 41.83500
C  8.25300 58.34700 43.43100
C  5.34200 59.01200 40.88200
C  5.24300 60.52800 41.22800
N  4.59800 53.95300 41.56300
C  3.72600 54.99000 41.97200
C  2.41200 54.55200 42.23000
C  2.44700 53.22000 41.79600
C  3.79200 52.91500 41.37100
C  1.32700 55.41100 42.89200
C  1.64000 52.05500 41.71400
O  0.50900 51.83000 42.18500
C  2.54800 50.93200 41.12800
C  1.93800 50.33800 39.92100
O  1.62400 50.95700 38.93200
O  1.69300 49.00700 40.10000
C  0.76400 48.45600 39.16900
H  9.43000 50.41000 39.84900
H  9.69800 56.69500 41.20800
H  3.67300 57.12300 42.38800
H  4.67900 48.86100 40.05400
H  7.20100 48.98600 38.90000
H  7.49500 48.84800 41.76600
H  7.93900 47.72000 40.64500
H  6.16300 47.80400 41.12400
H  5.84900 49.94600 37.54400
H  4.30900 50.63400 37.90600
H  3.30000 48.91300 37.26800
H  4.14200 47.70800 38.26700
H  12.18600 51.43000 40.10600
H  12.24000 52.49300 38.63300
H  11.07100 51.25600 38.72300
H  10.59300 56.93500 39.06900
H  12.23000 57.08200 38.49900
H  11.87100 57.21200 40.27800
H  8.11400 58.60400 41.24000
H  5.70000 58.42700 42.97800
H  9.13400 57.71200 43.53000
H  7.42000 58.05500 44.07000
H  8.52500 59.39800 43.53100
H  4.31400 58.65600 40.82600
H  5.83800 58.88600 39.92000
H  5.41300 60.71900 42.28800
H  4.32200 61.01300 40.90400
H  6.07500 61.02600 40.73000
H  1.54400 55.31800 43.95600
H  0.29300 55.18200 42.63100
H  1.48100 56.46200 42.65100
H  2.55700 50.08900 41.81900
H  0.52400 47.43100 39.45100
H  0.97500 48.62700 38.11400
H  -0.11700 49.08700 39.28300
Mg -1.96000 33.35900 26.69500
C  -3.63200 31.76700 29.20800
C  -0.75200 35.68100 28.96300
C  -0.75100 35.11900 24.17300
C  -3.62700 31.25400 24.39400
N  -2.21000 33.76600 28.86300
C  -2.84100 32.87400 29.65500
C  -2.76800 33.34500 31.16500
C  -1.84800 34.67400 31.09400
C  -1.69100 34.84100 29.52000
C  -2.46400 35.92400 31.76400
C  -2.31300 32.19400 32.06600
C  -1.61000 32.53400 33.39600
H  -1.93200 31.62000 34.54300
N  -0.66200 35.05200 26.53200
C  -0.30300 35.83900 27.58700
C  0.63000 36.83400 27.03700
C  0.59000 36.74900 25.66100
C  -0.31800 35.58800 25.39700
C  1.34200 37.71700 28.01600
C  1.26300 37.58700 24.58700
O  1.16700 37.39100 23.35900
C  2.10000 38.81200 25.02300
N  -2.47800 33.43400 24.65100
C  -1.60500 34.14000 23.82300
C  -1.71000 33.70500 22.37000
C  -2.23500 32.21000 22.58000
C  -2.80900 32.27600 23.97300
C  -2.35300 34.66600 21.36400
C  -1.24900 31.03900 22.27600
C  -0.59300 30.25200 23.40500
N  -3.40300 31.78600 26.73900
C  -3.97000 31.03800 25.72700
C  -4.82600 30.09700 26.26900
C  -4.74100 30.29800 27.66200
C  -3.88100 31.41500 27.85200
C  -5.68100 29.07400 25.48200
C  -5.22900 29.94300 28.98800
O  -5.85500 28.98200 29.31900
C  -4.38100 30.79700 30.02300
C  -5.34700 31.45900 30.92600
O  -5.97000 32.47500 30.74500
O  -5.69100 30.57900 31.93600
C  -6.69300 31.19300 32.85200
H  -0.38400 36.48800 29.59900
H  -0.31100 35.67100 23.34000
H  -3.80900 30.42600 23.70600
H  -3.75000 33.72700 31.44400
H  -0.83900 34.37800 31.38300
H  -1.63700 36.35500 32.32800
H  -3.23500 35.47700 32.39200
H  -2.93300 36.59100 31.04100
H  -1.82500 31.34600 31.58600
H  -3.30200 31.85700 32.37800
H  -1.70900 33.55800 33.75500
H  -0.55100 32.37100 33.19500
H  2.35500 37.81800 27.62700
H  1.20800 37.37600 29.04300
H  0.82600 38.67500 27.95900
H  1.39600 39.43000 25.58000
H  2.54400 39.27800 24.14400
H  2.98300 38.49600 25.57900
H  -0.72100 33.66900 21.91300
H  -3.06800 32.22100 21.87700
H  -2.58800 35.57500 21.91700
H  -3.23100 34.27000 20.85300
H  -1.62500 34.83500 20.57100
H  -0.49100 31.40700 21.58500
H  -1.87800 30.29900 21.78000
H  0.49200 30.20400 23.30700
H  -0.85100 29.19600 23.32800
H  -0.84800 30.62500 24.39600
H  -5.20000 28.70500 24.57600
H  -6.59200 29.63400 25.27000
H  -5.79500 28.24400 26.17900
H  -3.64500 30.21800 30.58100
H  -7.24600 30.45000 33.42500
H  -7.55800 31.62900 32.35300
H  -6.29400 31.91100 33.57000

