158

Mg 7.79100 2.68400 27.58300
C  9.06100 0.97900 30.34200
C  5.58500 4.47800 29.77600
C  6.02700 3.65200 24.90100
C  9.31800 0.11900 25.54600
N  7.32800 2.67800 29.82100
C  8.14100 2.00000 30.73000
C  7.85700 2.43400 32.17400
C  6.67500 3.54500 31.95700
C  6.52000 3.59000 30.46400
C  5.39400 3.21500 32.77400
C  9.23900 3.01800 32.72500
C  9.47800 2.75500 34.16000
H  9.37900 3.89800 35.12800
N  6.25700 4.07000 27.34900
C  5.45500 4.63200 28.33800
C  4.66600 5.66800 27.67100
C  4.79100 5.47300 26.26800
C  5.74200 4.35600 26.08000
C  3.75700 6.59400 28.50600
C  4.19600 6.28200 25.04400
O  4.32400 5.98500 23.81500
C  3.32400 7.48800 25.32600
N  7.55200 1.79100 25.46100
C  6.81300 2.52000 24.58800
C  7.08400 2.04700 23.08300
C  8.17100 0.89400 23.36300
C  8.42300 0.94000 24.87500
C  5.86500 1.61500 22.29400
C  9.49500 0.97200 22.60800
C  9.86600 -0.17600 21.73100
N  9.01600 0.98800 27.80300
C  9.56000 0.03700 26.88800
C  10.34100 -0.87600 27.62600
C  10.19600 -0.54600 28.98700
C  9.39500 0.59500 29.02300
C  11.02000 -1.99300 27.00000
C  10.58800 -0.91100 30.34300
O  11.30400 -1.74600 30.82700
C  9.90400 0.09300 31.18200
C  9.09300 -0.66300 32.19200
O  8.12800 -1.32500 31.91500
O  9.68900 -0.47500 33.41400
C  8.76700 -1.04900 34.48100
H  4.99400 5.13300 30.42000
H  5.55200 4.09000 24.02100
H  9.88400 -0.61800 24.97200
H  7.52300 1.47600 32.57300
H  7.06000 4.55300 32.10600
H  4.68400 2.78800 32.06600
H  5.03900 4.13400 33.24100
H  5.59400 2.49100 33.56400
H  9.18600 4.10700 32.69400
H  10.07000 2.75300 32.07200
H  10.48100 2.36600 34.33200
H  8.73200 2.03200 34.49100
H  4.14600 6.87800 29.48400
H  2.85600 5.99900 28.65000
H  3.42000 7.50300 28.00700
H  3.92100 8.04500 26.04800
H  2.36200 7.19700 25.74700
H  3.38700 8.19300 24.49800
H  7.55900 2.78400 22.43500
H  7.64100 -0.04800 23.22300
H  4.95600 1.69200 22.89000
H  6.02900 0.58100 21.99100
H  5.61600 2.32400 21.50300
H  10.36500 1.15200 23.23900
H  9.54900 1.89500 22.03100
H  10.38400 0.20700 20.85200
H  9.03600 -0.80000 21.40100
H  10.59400 -0.83200 22.20800
H  11.57900 -2.45500 27.81300
H  11.70600 -1.56900 26.26600
H  10.28900 -2.71300 26.63300
H  10.71100 0.65600 31.64900
H  7.70300 -1.19000 34.29100
H  8.93200 -0.38400 35.32900
H  9.22300 -1.98400 34.80800
Mg -6.24000 25.00000 25.81800
C  -4.71700 25.97200 28.72300
C  -8.10100 22.67100 27.56100
C  -7.25300 23.65400 22.96900
C  -3.74600 26.84300 24.02400
N  -6.31300 24.28800 27.89100
C  -5.71900 24.99100 28.96900
C  -6.26800 24.47800 30.32100
C  -7.02200 23.09300 29.87800
C  -7.16300 23.29400 28.34000
C  -6.28500 21.74900 30.16800
C  -7.18500 25.53700 31.02200
C  -6.72200 25.88800 32.46900
H  -6.00900 24.82800 33.36000
N  -7.58700 23.44700 25.30200
C  -8.30300 22.68300 26.15500
C  -9.19400 21.79400 25.37900
C  -9.09600 22.24000 24.00800
C  -7.95500 23.15400 24.05500
C  -10.10000 20.82500 26.17300
C  -9.84700 21.83300 22.72600
O  -9.58300 22.23700 21.57900
C  -10.95400 20.80500 22.88700
N  -5.48900 25.10500 23.67500
C  -6.13000 24.48600 22.73700
C  -5.41700 24.81100 21.38600
C  -4.32600 25.85700 21.69900
C  -4.47100 25.94800 23.18600
C  -4.81700 23.57800 20.54400
C  -4.45200 27.32200 21.11400
C  -3.44600 27.74000 20.09500
N  -4.62800 26.22200 26.25300
C  -3.78800 27.02200 25.44300
C  -2.94100 27.87200 26.28600
C  -3.27900 27.48600 27.55900
C  -4.27400 26.49000 27.49700
C  -1.90300 28.89800 25.79400
C  -2.92300 27.62600 28.91600
O  -2.06400 28.39200 29.32300
C  -3.96800 26.80400 29.81200
C  -3.20500 26.07800 30.84300
O  -2.84900 24.89400 30.77100
O  -2.84500 26.96000 31.83200
C  -1.83700 26.51700 32.83500
H  -8.58900 21.90600 28.16800
H  -7.54200 23.26300 21.99100
H  -2.96600 27.51100 23.65300
H  -5.41200 24.23600 30.95000
H  -8.00600 23.02300 30.34200
H  -6.07600 21.23700 29.22800
H  -6.90800 21.17100 30.85000
H  -5.32400 21.89500 30.66200
H  -8.23900 25.38600 30.78900
H  -7.08300 26.49900 30.52000
H  -7.59700 26.17800 33.05100
H  -6.10000 26.78200 32.42300
H  -10.96600 20.71800 25.52000
H  -10.47800 21.29500 27.08100
H  -9.61900 19.85000 26.25600
H  -11.19800 20.29000 21.95800
H  -11.76300 21.25800 23.46000
H  -10.60900 19.96500 23.49000
H  -6.17400 25.26200 20.74400
H  -3.30400 25.55800 21.46400
H  -4.94300 22.62600 21.05900
H  -3.74700 23.77400 20.47700
H  -5.27100 23.58700 19.55400
H  -4.46700 28.07400 21.90300
H  -5.32600 27.46700 20.47900
H  -3.85600 28.12200 19.16000
H  -2.80800 26.86900 19.94700
H  -2.87700 28.50700 20.62100
H  -1.17100 28.30800 25.24200
H  -1.30500 29.33600 26.59300
H  -2.28600 29.65500 25.10900
H  -4.67100 27.45000 30.33700
H  -0.94100 26.16000 32.32700
H  -2.36100 25.74600 33.39900
H  -1.64300 27.40200 33.44200

