158

Mg 17.27100 -1.89500 27.69100
C  16.18400 0.22600 30.29000
C  19.19200 -3.58600 29.95300
C  18.71400 -3.51900 25.05300
C  15.47100 0.15700 25.42900
N  17.68600 -1.64000 29.87600
C  17.03600 -0.79000 30.75500
C  17.36300 -1.05100 32.22100
C  18.45400 -2.22400 32.16000
C  18.44100 -2.54100 30.60000
C  19.94200 -1.97000 32.72600
C  16.22100 -1.39600 33.15500
C  16.20100 -0.57100 34.43500
H  17.53900 -0.44800 35.15700
N  18.77700 -3.35600 27.58600
C  19.41000 -3.93600 28.61900
C  20.24600 -5.04800 28.14000
C  20.12400 -4.97300 26.67100
C  19.24800 -3.88900 26.35000
C  21.19900 -5.90700 29.03500
C  20.90600 -5.85400 25.65000
O  20.74800 -5.62900 24.44600
C  21.93700 -6.92200 26.05700
N  17.29100 -1.59800 25.58500
C  17.88000 -2.41200 24.71000
C  17.46900 -2.13600 23.24400
C  16.18800 -1.18000 23.42400
C  16.29900 -0.87400 24.95600
C  18.70500 -1.55700 22.47600
C  14.81100 -1.84200 22.99800
C  13.94600 -2.55500 24.02100
N  16.02000 -0.17400 27.74400
C  15.34000 0.53500 26.74200
C  14.50100 1.52500 27.32600
C  14.85900 1.54400 28.71500
C  15.78400 0.40900 28.89000
C  13.39500 2.29200 26.70100
C  14.68400 2.13400 30.06700
O  13.96900 3.11700 30.28500
C  15.53700 1.35500 31.09000
C  16.38200 2.26100 31.89600
O  17.61900 2.31900 31.91000
O  15.58600 2.82100 32.86800
C  16.29400 3.49600 33.93500
H  19.72500 -4.28500 30.60100
H  19.06400 -4.14900 24.23200
H  14.75200 0.75000 24.86000
H  17.83400 -0.12400 32.54900
H  18.21700 -3.15700 32.66900
H  20.70000 -2.00100 31.94300
H  20.29500 -2.67500 33.47900
H  20.04300 -0.96200 33.12600
H  16.26100 -2.44500 33.44900
H  15.34300 -1.11500 32.57200
H  15.53600 -0.99900 35.18500
H  15.92300 0.42900 34.10200
H  20.84800 -6.93200 28.91000
H  21.21700 -5.73500 30.11100
H  22.23100 -5.82700 28.69300
H  22.22500 -7.63400 25.28400
H  21.48100 -7.49300 26.86700
H  22.80300 -6.41900 26.48600
H  17.25100 -3.13300 22.86100
H  16.35400 -0.19100 22.99700
H  18.31000 -0.73700 21.87700
H  19.17900 -2.25300 21.78500
H  19.44700 -1.20400 23.19200
H  14.79600 -2.49200 22.12300
H  14.35300 -1.00200 22.47600
H  14.43200 -2.77300 24.97100
H  13.58900 -3.50000 23.61300
H  13.06900 -1.96800 24.29500
H  13.73900 3.25900 26.33300
H  12.52300 2.31600 27.35400
H  12.97200 1.67200 25.91100
H  14.74000 0.95500 31.71700
H  17.08100 4.12300 33.51800
H  16.71400 2.83700 34.69500
H  15.67300 4.21300 34.47200
Mg 31.08500 58.37700 40.31800
C  28.15700 56.51600 39.14800
C  32.99800 55.65200 39.20700
C  33.67100 60.43300 40.56200
C  28.90700 61.11000 40.80800
N  30.62800 56.32700 39.19200
C  29.39800 55.79100 38.88500
C  29.60800 54.40900 38.18100
C  31.06300 54.02800 38.68800
C  31.62000 55.43300 39.05300
C  31.10200 53.10600 39.99700
C  29.40000 54.65700 36.67500
C  28.59600 53.50700 36.00900
H  28.29000 53.69400 34.50500
N  33.10600 58.08400 39.90800
C  33.70200 56.88700 39.48600
C  35.09300 57.22400 39.24500
C  35.35400 58.53400 39.66700
C  34.00000 59.09200 40.05700
C  36.03100 56.19700 38.77100
C  36.70400 59.21900 39.69100
O  37.71100 58.59900 39.39200
C  36.84200 60.67700 40.10700
N  31.23600 60.48700 40.66000
C  32.46500 61.02900 40.80700
C  32.35000 62.60000 41.18500
C  30.75900 62.76800 41.19700
C  30.23700 61.37800 40.92100
C  33.17100 63.14400 42.39000
C  30.22500 63.84800 40.11500
C  29.28500 64.90600 40.52000
N  28.97700 58.68300 40.24600
C  28.26300 59.88200 40.34400
C  26.86000 59.72200 40.15500
C  26.80300 58.38600 39.61200
C  28.08000 57.81000 39.70300
C  25.75300 60.67400 40.30700
C  25.88000 57.36200 39.09100
O  24.66400 57.38800 39.00100
C  26.68900 56.08300 38.89000
C  26.22200 55.01900 39.82900
O  26.96000 54.58800 40.69800
O  24.94600 54.71500 39.56800
C  24.31000 53.64600 40.36200
H  33.59700 54.80200 38.87100
H  34.45400 61.17200 40.74300
H  28.16700 61.91300 40.81100
H  29.01900 53.58900 38.59200
H  31.67000 53.57000 37.90700
H  30.16400 52.55900 40.09600
H  31.06500 53.74600 40.87900
H  32.04700 52.56600 39.93100
H  30.40500 54.81800 36.28700
H  28.85100 55.58600 36.52000
H  27.60400 53.42300 36.45300
H  29.08900 52.55100 36.18700
H  37.01400 56.37900 39.20600
H  36.14700 56.33000 37.69500
H  35.60200 55.21700 38.97800
H  36.16900 61.24000 39.46100
H  37.88000 61.01000 40.06900
H  36.57900 60.70600 41.16500
H  32.64100 63.22600 40.34100
H  30.45500 63.18500 42.15800
H  32.60200 63.55300 43.22400
H  34.10000 63.58200 42.02600
H  33.55700 62.21900 42.82100
H  29.83300 63.38400 39.21000
H  31.06100 64.48600 39.82900
H  29.67100 65.90800 40.33700
H  29.39100 64.92500 41.60500
H  28.25900 64.68400 40.22600
H  25.70800 61.17100 39.33800
H  25.89000 61.28800 41.19700
H  24.81600 60.13300 40.44100
H  26.49800 55.81700 37.85000
H  23.95800 52.84400 39.71300
H  23.46200 54.04900 40.91600
H  24.90300 53.18000 41.14900

