158

Mg 55.94100 23.89000 44.78800
C  53.76100 26.52500 44.27400
C  53.53000 21.71600 43.85600
C  58.34900 21.51400 44.70500
C  58.49000 26.38800 45.46400
N  53.91600 24.09400 44.12100
C  53.16300 25.24100 43.97400
C  51.78500 24.97200 43.43900
C  51.56800 23.46000 43.81600
C  53.09100 23.04700 43.83400
C  50.92300 23.27500 45.22400
C  51.76200 25.19400 41.90700
C  50.36200 25.28600 41.34900
H  49.94800 24.47000 40.05800
N  55.92300 21.83500 44.28000
C  54.78400 21.10800 44.04100
C  55.16800 19.70000 43.76700
C  56.56400 19.59400 43.99700
C  57.01700 21.03100 44.34700
C  54.24100 18.66000 43.43500
C  57.36200 18.26700 44.01900
O  56.81400 17.19100 43.78000
C  58.79500 18.27000 44.38100
N  58.09700 23.98700 45.16300
C  58.84800 22.81300 44.98100
C  60.32000 23.06100 45.32600
C  60.44900 24.61400 45.32500
C  58.97000 25.07900 45.36900
C  60.86800 22.34200 46.66100
C  61.19600 25.21300 44.10800
C  62.35700 26.14200 44.43900
N  56.05700 26.04100 45.06200
C  57.15000 26.82800 45.33500
C  56.65200 28.23200 45.33100
C  55.32100 28.11300 45.00200
C  55.01400 26.75900 44.78600
C  57.54100 29.52400 45.49700
C  54.08800 28.87200 44.79400
O  53.78300 30.06400 44.84500
C  53.13300 27.92300 44.17200
C  52.86300 28.30600 42.80500
O  53.66900 28.31600 41.87300
O  51.49500 28.41000 42.62500
C  50.99700 28.87900 41.34100
H  52.69900 21.03500 43.66000
H  59.20600 20.83800 44.66300
H  59.19800 27.21900 45.44600
H  51.14500 25.67800 43.96900
H  50.98600 22.94500 43.05200
H  50.08300 22.60300 45.05000
H  50.55000 24.24600 45.55000
H  51.54600 22.79900 45.98100
H  52.20900 24.35000 41.38200
H  52.33500 26.05900 41.57200
H  50.25900 26.34600 41.11600
H  49.63400 24.99800 42.10700
H  54.62900 18.27500 42.49200
H  53.20600 18.99600 43.38000
H  54.14100 17.84100 44.14800
H  59.39200 18.90100 43.72200
H  59.30900 17.31300 44.47300
H  58.93000 18.68100 45.38200
H  60.88200 22.61300 44.50700
H  60.99000 24.95000 46.21000
H  60.38300 21.38600 46.85700
H  60.70500 22.92300 47.56800
H  61.88300 22.03500 46.40900
H  60.50800 25.86600 43.57100
H  61.61000 24.44200 43.45800
H  62.44000 26.96000 43.72300
H  63.33600 25.67600 44.32500
H  62.25100 26.66400 45.39000
H  57.04400 30.40700 45.09500
H  58.52100 29.44400 45.02700
H  57.63700 29.64300 46.57700
H  52.15500 27.98800 44.65000
H  51.43000 29.86800 41.19700
H  49.94100 29.14000 41.41500
H  51.22300 28.26400 40.47000
Mg 41.42000 40.80700 27.04700
C  40.60400 43.09700 29.52300
C  42.21100 38.56300 29.50300
C  42.16600 38.62200 24.65000
C  40.70600 43.23500 24.59500
N  41.37200 40.81000 29.26000
C  40.97800 41.86600 30.02200
C  41.06400 41.45700 31.48800
C  41.51900 39.95700 31.47500
C  41.68200 39.70900 29.99100
C  42.78600 39.58100 32.24600
C  39.72700 41.83700 32.33000
C  39.96000 42.46800 33.73700
H  39.23600 41.79100 34.92400
N  42.22200 38.86900 27.06900
C  42.37800 38.05100 28.20400
C  42.98200 36.89400 27.80600
C  43.00900 36.83300 26.37200
C  42.37700 38.08600 25.94100
C  43.54400 35.81200 28.77100
C  43.37800 35.78800 25.41900
O  43.36300 35.99900 24.20300
C  43.76500 34.32800 25.86800
N  41.52400 40.91100 24.90200
C  41.78000 39.90600 24.15000
C  41.56300 40.22000 22.61700
C  41.28200 41.80100 22.64400
C  41.06800 41.99600 24.16500
C  42.66400 39.89100 21.55900
C  40.24300 42.28700 21.66100
C  38.80200 42.60300 22.10400
N  40.82400 42.79700 27.01800
C  40.66300 43.66700 25.96300
C  40.52800 45.03800 26.46100
C  40.38700 44.91000 27.81900
C  40.59200 43.48300 28.13300
C  40.45600 46.23100 25.64700
C  40.08600 45.57500 29.06700
O  39.76700 46.75000 29.32600
C  40.11200 44.39700 30.20600
C  40.99600 44.91400 31.24300
O  42.19300 44.63100 31.36300
O  40.36400 45.76300 32.09900
C  41.02300 46.08700 33.30900
H  42.54900 37.87000 30.27700
H  42.36200 38.09000 23.71700
H  40.69000 44.09800 23.92700
H  41.83000 42.02800 32.01100
H  40.68400 39.31100 31.74500
H  43.61300 39.08900 31.73500
H  42.50900 39.02600 33.14300
H  43.20800 40.52300 32.59700
H  39.19400 40.88800 32.36900
H  38.95600 42.35800 31.76300
H  39.64600 43.51000 33.68400
H  41.01200 42.30600 33.97400
H  43.59900 36.22200 29.78000
H  44.46500 35.34400 28.42400
H  42.77800 35.03600 28.80300
H  43.00700 34.09900 26.61700
H  44.77400 34.45500 26.26100
H  43.85700 33.76600 24.93900
H  40.71700 39.62300 22.27300
H  42.16600 42.40000 22.42600
H  43.26500 39.05000 21.90500
H  43.22400 40.82600 21.56300
H  42.39700 39.78800 20.50700
H  40.07200 41.44700 20.98800
H  40.59500 43.10100 21.02800
H  38.48500 41.79700 22.76600
H  38.01600 42.67900 21.35400
H  38.80800 43.55000 22.64400
H  39.46700 46.23600 25.18900
H  41.21800 46.04300 24.89100
H  40.69600 47.14100 26.19800
H  39.11800 44.27100 30.63500
H  41.23300 45.19300 33.89600
H  40.25400 46.56100 33.91900
H  41.79800 46.82000 33.08400

