158

Mg 8.79800 4.67000 28.06400
C  10.03800 3.08600 30.84800
C  6.96700 6.72000 30.24700
C  7.47600 6.12000 25.39600
C  10.28700 2.22700 26.06000
N  8.52900 4.87100 30.32000
C  9.20400 4.11600 31.25700
C  8.96300 4.62500 32.68500
C  7.75600 5.68000 32.42800
C  7.70700 5.75700 30.89800
C  6.44500 5.30500 33.20100
C  10.25300 5.18800 33.36500
C  10.61600 4.59000 34.75700
H  11.01400 5.63600 35.86400
N  7.51300 6.36700 27.89200
C  6.81700 6.96600 28.88000
C  6.07300 8.04000 28.25200
C  6.17200 7.88500 26.84700
C  7.07800 6.74600 26.63600
C  5.29500 9.01500 29.04700
C  5.58700 8.72500 25.71600
O  5.72500 8.46300 24.50800
C  4.77300 9.84900 25.96900
N  8.74000 4.09700 25.99100
C  8.26700 4.97200 25.08900
C  8.53700 4.47700 23.65900
C  9.46400 3.20600 23.85400
C  9.52600 3.17800 25.40000
C  7.26000 4.12200 22.91500
C  10.91000 3.43100 23.25700
C  11.18000 2.90300 21.81000
N  9.84700 2.98300 28.32900
C  10.41500 2.05100 27.43100
C  11.14600 1.06300 28.13500
C  11.07500 1.46500 29.48800
C  10.21400 2.57400 29.54200
C  11.89200 -0.06000 27.54400
C  11.45300 1.11600 30.85400
O  12.04400 0.12300 31.32700
C  10.93100 2.24100 31.72600
C  10.19100 1.54100 32.80300
O  9.02100 1.19800 32.71900
O  10.99400 1.49100 33.80700
C  10.50500 0.70700 35.00400
H  6.42300 7.34100 30.96200
H  7.11400 6.61000 24.49000
H  10.61800 1.45900 25.35800
H  8.69600 3.77900 33.31800
H  8.01900 6.71100 32.66000
H  6.55700 4.68600 34.09100
H  5.82000 4.77800 32.48000
H  5.91400 6.21200 33.48900
H  10.26900 6.27500 33.44600
H  11.03700 4.90500 32.66200
H  11.53600 4.03600 34.57000
H  9.87200 3.94300 35.22100
H  5.75700 9.39900 29.95700
H  4.50500 8.39400 29.47000
H  4.80600 9.83800 28.52600
H  4.01000 9.73000 26.73800
H  4.34300 10.30800 25.07900
H  5.48100 10.53100 26.44000
H  9.00500 5.30900 23.13300
H  9.01900 2.28800 23.47100
H  6.36000 4.57100 23.33300
H  7.11000 3.04200 22.91400
H  7.25400 4.49900 21.89300
H  11.68900 3.12800 23.95700
H  11.09500 4.50200 23.17800
H  11.77200 1.99000 21.87100
H  11.72700 3.70900 21.32100
H  10.32800 2.74600 21.14900
H  11.47000 -0.29100 26.56600
H  11.64100 -0.93500 28.14400
H  12.97700 0.03200 27.59400
H  11.74700 2.84400 32.12700
H  10.08400 1.42200 35.71200
H  11.28400 0.24700 35.61100
H  9.82600 -0.12900 34.83800
Mg 26.82200 50.22500 26.32000
C  24.92600 51.38600 28.91800
C  29.47000 49.76500 28.50200
C  28.80400 49.31800 23.71400
C  24.42600 51.37600 24.02200
N  27.17000 50.55400 28.48700
C  26.22500 50.99000 29.37800
C  26.78600 51.04800 30.81000
C  28.28700 50.50900 30.61900
C  28.33000 50.29700 29.14500
C  29.43300 51.38400 31.25900
C  25.89600 50.39700 31.84000
C  26.51400 49.84200 33.17200
H  26.11800 50.41300 34.51700
N  28.88700 49.67200 26.14200
C  29.77000 49.40400 27.13000
C  30.96800 48.80900 26.63700
C  30.81500 48.61500 25.28800
C  29.47400 49.19700 24.99800
C  32.18700 48.50300 27.52100
C  31.78400 48.01500 24.32700
O  31.50900 47.84200 23.17600
C  33.15200 47.43900 24.81900
N  26.68000 50.42300 24.25900
C  27.54300 49.83700 23.37700
C  26.97100 49.73400 21.92500
C  25.50300 50.23400 22.14200
C  25.57400 50.80900 23.54200
C  27.87300 50.62000 20.91700
C  24.33200 49.20400 21.92200
C  24.04900 47.99500 22.88200
N  24.98100 51.08900 26.41500
C  24.15500 51.56800 25.38200
C  23.01900 52.17800 26.03300
C  23.33600 52.11300 27.45900
C  24.48300 51.42600 27.59700
C  21.79200 52.59700 25.33700
C  22.80800 52.44100 28.81600
O  21.81800 53.03300 29.19900
C  23.85600 51.93500 29.80300
C  24.16100 53.17100 30.66300
O  25.03400 53.97200 30.37500
O  23.51500 53.11900 31.90000
C  24.00000 54.04400 32.91700
H  30.20100 49.43500 29.24300
H  29.31300 48.94500 22.82300
H  23.59800 51.67100 23.37400
H  26.75300 52.11400 31.03500
H  28.32100 49.52300 31.08200
H  30.25900 51.49400 30.55700
H  29.80300 50.92000 32.17300
H  29.14000 52.42100 31.42400
H  25.25800 49.63900 31.38500
H  25.21900 51.17400 32.19500
H  27.60400 49.85100 33.16800
H  26.35500 48.77900 33.35300
H  33.04200 49.06000 27.14000
H  32.34800 47.42500 27.53500
H  31.98900 48.77700 28.55800
H  33.83200 48.23000 25.13300
H  33.60600 46.92500 23.97200
H  33.12800 46.77100 25.68000
H  27.06800 48.65800 21.78300
H  25.29800 51.07000 21.47200
H  28.54100 49.84700 20.53800
H  28.47400 51.36000 21.44600
H  27.35000 51.13700 20.11300
H  24.48800 48.60900 21.02200
H  23.36500 49.65400 21.69600
H  24.81800 48.03900 23.65300
H  24.17600 47.07100 22.31600
H  23.09600 47.97400 23.40900
H  22.01100 53.43300 24.67400
H  21.14800 53.06000 26.08600
H  21.23400 51.82700 24.80400
H  23.43300 51.24700 30.53600
H  24.38400 54.97000 32.48900
H  24.71100 53.49100 33.53000
H  23.25900 54.31000 33.67000

