158

Mg 7.93400 2.99800 27.72900
C  9.60500 1.67000 30.53900
C  6.01100 4.90400 29.68200
C  6.05400 3.62600 24.96700
C  9.43800 0.34700 25.79000
N  7.95400 3.27400 29.85100
C  8.62300 2.60200 30.86300
C  8.28000 3.11300 32.22400
C  7.11700 4.12700 31.91200
C  6.98800 4.14200 30.37000
C  5.84900 3.73300 32.67900
C  9.53600 3.61400 32.99500
C  9.10500 4.58600 34.18500
H  9.74200 4.13900 35.45100
N  6.36800 4.22300 27.32400
C  5.69300 4.96400 28.26900
C  4.86200 5.88500 27.62300
C  4.81800 5.50400 26.25200
C  5.80700 4.43500 26.10000
C  4.21400 7.00300 28.36900
C  3.88700 6.00000 25.20500
O  3.88200 5.63000 24.03900
C  2.89400 7.14000 25.57700
N  7.90100 2.18000 25.60100
C  6.97700 2.60100 24.71000
C  7.09000 1.91500 23.40100
C  8.29900 0.86000 23.67100
C  8.58600 1.17900 25.11500
C  5.76400 1.22400 22.96000
C  9.58400 1.07300 22.78900
C  9.98600 -0.19500 21.92900
N  9.36100 1.52900 27.96700
C  9.84100 0.52500 27.11700
C  10.60300 -0.42900 27.87800
C  10.63300 0.08900 29.15300
C  9.79600 1.25000 29.18200
C  11.31400 -1.68100 27.38800
C  11.17400 -0.16900 30.39700
O  11.92500 -1.07400 30.78800
C  10.56000 0.88700 31.39800
C  9.86500 0.12500 32.52500
O  8.76100 -0.38800 32.41600
O  10.55600 0.18900 33.64200
C  10.23300 -0.69700 34.81200
H  5.50300 5.53500 30.41500
H  5.40700 3.90600 24.13300
H  9.85100 -0.53800 25.30200
H  7.96000 2.22500 32.76900
H  7.51000 5.11400 32.15300
H  5.81700 4.26000 33.63300
H  5.79400 2.66800 32.90500
H  4.99300 4.07900 32.10100
H  10.25800 4.01200 32.28200
H  9.96800 2.77200 33.53400
H  8.02300 4.63200 34.30600
H  9.59200 5.53800 33.97400
H  4.52500 7.10600 29.40900
H  3.14100 6.81300 28.33600
H  4.45800 7.94300 27.87500
H  2.26700 7.47500 24.75000
H  3.48500 7.99400 25.90700
H  2.25400 6.85900 26.41300
H  7.37800 2.61300 22.61400
H  7.98600 -0.18300 23.63500
H  4.98200 1.41700 23.69500
H  5.79900 0.15800 22.73400
H  5.43700 1.76600 22.07300
H  10.44000 1.21200 23.45000
H  9.46200 1.89400 22.08300
H  10.96900 -0.60400 22.16100
H  10.00600 -0.00400 20.85600
H  9.25700 -0.97700 22.13900
H  10.59100 -2.41900 27.04200
H  11.84900 -2.23600 28.15900
H  11.82100 -1.48300 26.44400
H  11.30500 1.54000 31.85400
H  9.71700 -1.63000 34.58700
H  9.50700 -0.09700 35.36100
H  11.13500 -0.91900 35.38300
Mg -12.50800 38.18000 40.75100
C  -10.73200 35.41800 39.85100
C  -10.25300 40.08800 38.80300
C  -14.60600 40.90700 40.86700
C  -14.98300 36.20400 41.99300
N  -10.71900 37.79300 39.43900
C  -10.14300 36.56700 39.33300
C  -8.87200 36.57800 38.49600
C  -8.51600 38.09700 38.50700
C  -9.87900 38.76800 38.95400
C  -7.39200 38.63100 39.50900
C  -9.09100 36.12400 37.04800
C  -7.90800 35.35000 36.51100
H  -6.91800 36.17000 35.62000
N  -12.37300 40.26300 40.10800
C  -11.37900 40.77600 39.32400
C  -11.61800 42.21700 39.12300
C  -12.92900 42.51400 39.73200
C  -13.35100 41.19800 40.28200
C  -10.63900 43.14700 38.22800
C  -13.59900 43.84600 39.73900
O  -13.02600 44.77400 39.17800
C  -14.85300 44.19700 40.43000
N  -14.55700 38.53700 41.31500
C  -15.17700 39.72100 41.32000
C  -16.59400 39.63400 41.87000
C  -16.62900 38.18000 42.31800
C  -15.36500 37.54700 41.78000
C  -16.95900 40.61300 43.03800
C  -17.88500 37.39300 42.11800
C  -18.93700 37.64700 43.14200
N  -12.75400 36.23200 41.02100
C  -13.75900 35.56500 41.63600
C  -13.40200 34.13100 41.79900
C  -12.26000 34.04000 41.03700
C  -11.92200 35.33900 40.62200
C  -14.19500 33.05400 42.42300
C  -11.29000 33.14000 40.57700
O  -11.25100 31.94500 40.79200
C  -10.22300 33.89500 39.71000
C  -8.87100 33.67100 40.38800
O  -8.02600 32.88900 39.92700
O  -8.68200 34.50000 41.49000
C  -7.44400 34.39100 42.10900
H  -9.67100 40.67100 38.08500
H  -15.23200 41.79900 40.80100
H  -15.51300 35.59500 42.72800
H  -7.92900 36.19100 38.88300
H  -8.29200 38.50200 37.52100
H  -7.88300 39.03200 40.39500
H  -6.77800 39.36700 38.99000
H  -6.81500 37.76400 39.83300
H  -9.26600 36.92800 36.33400
H  -9.95900 35.46500 37.06900
H  -8.39800 34.64200 35.84300
H  -7.31100 34.74700 37.19500
H  -9.62100 42.75800 38.26400
H  -10.57800 44.19600 38.51900
H  -11.07500 43.19000 37.23000
H  -15.46400 43.61400 39.74000
H  -15.02700 45.27300 40.43800
H  -14.89200 43.98500 41.49800
H  -17.39400 39.81100 41.15000
H  -16.42600 38.13200 43.38800
H  -17.12500 40.12000 43.99600
H  -17.94900 41.00000 42.79500
H  -16.21900 41.41200 43.08300
H  -17.67500 36.34700 41.89600
H  -18.21900 37.71100 41.13000
H  -19.46000 36.69100 43.12000
H  -19.63000 38.45500 42.90700
H  -18.45800 37.80700 44.10800
H  -15.23400 33.29200 42.65200
H  -13.62700 32.73700 43.29700
H  -14.21400 32.16800 41.78800
H  -10.17700 33.57200 38.67000
H  -6.56300 34.49900 41.47600
H  -7.41900 33.46300 42.68000
H  -7.49400 35.26100 42.76200

