158

Mg -2.20100 17.15500 25.88300
C  -2.39500 14.74900 28.39700
C  -2.74000 19.60100 28.21500
C  -2.52200 19.27500 23.39000
C  -1.93300 14.47900 23.60500
N  -2.57700 17.15600 28.09600
C  -2.45400 16.05400 28.92500
C  -2.67400 16.48500 30.39200
C  -2.79600 18.06200 30.29700
C  -2.67500 18.31500 28.78700
C  -4.17500 18.52700 30.89700
C  -1.63500 15.96000 31.36900
C  -1.48200 16.56000 32.72400
H  -1.91300 15.98100 34.12100
N  -2.63200 19.19600 25.81700
C  -2.72200 20.07900 26.84500
C  -2.70700 21.45500 26.31900
C  -2.61800 21.33900 24.90600
C  -2.65300 19.89600 24.66700
C  -2.88400 22.60400 27.23100
C  -2.61200 22.38400 23.86500
O  -2.56100 22.18700 22.65600
C  -2.44800 23.82600 24.25700
N  -2.13800 16.95100 23.76800
C  -2.26200 17.97300 22.93700
C  -2.06100 17.53900 21.52900
C  -1.69700 15.99500 21.62500
C  -1.90300 15.79200 23.10500
C  -3.26200 17.85800 20.59200
C  -0.34900 15.64900 21.15100
C  0.80400 16.22400 21.88100
N  -2.10100 15.07600 25.89900
C  -2.02900 14.11400 24.89500
C  -1.91300 12.79800 25.45300
C  -2.02700 13.00000 26.81600
C  -2.17800 14.40600 27.03900
C  -1.89300 11.45000 24.84600
C  -2.06000 12.33900 28.07200
O  -2.04600 11.11500 28.34900
C  -2.26600 13.51400 29.14600
C  -1.00500 13.41900 29.85800
O  -0.00800 14.05600 29.53200
O  -1.16300 12.56200 30.94600
C  -0.00800 12.58300 31.88100
H  -2.92800 20.43900 28.89000
H  -2.70600 19.88300 22.50200
H  -1.84700 13.77500 22.77500
H  -3.54900 15.88300 30.64100
H  -1.97900 18.57800 30.80000
H  -4.51600 17.67700 31.48800
H  -5.01800 18.78600 30.25600
H  -4.06600 19.37200 31.57600
H  -0.69500 15.94400 30.81800
H  -1.96900 14.94300 31.57500
H  -2.13000 17.43600 32.70700
H  -0.48700 16.99900 32.78900
H  -1.99000 23.07700 27.63800
H  -3.52200 22.38500 28.08600
H  -3.47500 23.33900 26.68400
H  -1.72600 23.90600 25.07000
H  -3.46900 24.13700 24.47900
H  -2.02500 24.39200 23.42700
H  -1.17200 17.99400 21.09100
H  -2.48800 15.39100 21.17900
H  -2.92300 18.41900 19.72100
H  -4.11100 18.30600 21.11000
H  -3.63900 16.96200 20.10000
H  -0.30600 16.19100 20.20600
H  -0.19500 14.58800 20.95600
H  0.64500 16.24500 22.95900
H  1.12700 17.15000 21.40500
H  1.65400 15.54700 21.79700
H  -1.37100 11.34100 23.89500
H  -2.88600 11.02300 24.70700
H  -1.38300 10.76100 25.51800
H  -3.13200 13.31200 29.77700
H  -0.32800 11.92900 32.69200
H  0.31900 13.53100 32.31000
H  0.91000 12.25600 31.39300
Mg 8.72600 2.85400 27.37500
C  10.05000 1.36900 30.33500
C  6.74800 4.82400 29.42200
C  7.35200 4.11300 24.52400
C  10.36300 0.27400 25.55000
N  8.40300 2.92300 29.58600
C  9.13700 2.37200 30.56700
C  8.83700 2.95500 31.90100
C  7.77000 3.97700 31.59300
C  7.55500 3.90200 30.09200
C  6.38900 3.79400 32.31400
C  10.01900 3.44600 32.82600
C  9.77800 4.29400 34.08300
H  10.45200 4.00900 35.41900
N  7.44000 4.38300 27.06100
C  6.68800 5.07700 28.00000
C  5.80200 5.91000 27.33400
C  5.99700 5.78500 25.92900
C  6.98200 4.69100 25.75100
C  4.89900 6.81900 28.08700
C  5.36600 6.61700 24.81200
O  5.62500 6.39100 23.61100
C  4.51200 7.80900 25.14800
N  8.95200 2.33000 25.37400
C  8.30500 3.03300 24.34500
C  8.51800 2.36000 22.97300
C  9.66600 1.35500 23.30800
C  9.55000 1.22100 24.82200
C  7.15700 1.83600 22.44700
C  11.14700 1.73000 22.95500
C  11.75300 0.85400 21.85200
N  9.97000 1.16400 27.78600
C  10.62400 0.26200 26.96100
C  11.37900 -0.70200 27.68100
C  11.21200 -0.26100 29.01200
C  10.35900 0.84000 29.02600
C  12.33300 -1.67900 27.07600
C  11.66900 -0.49300 30.36400
O  12.44700 -1.38600 30.79400
C  10.93100 0.52900 31.29100
C  10.23900 -0.18000 32.36200
O  9.41400 -0.95900 32.22700
O  10.78900 0.23200 33.54800
C  10.28300 -0.38700 34.76400
H  6.18900 5.47600 30.09600
H  6.93900 4.43400 23.56600
H  11.00300 -0.38900 24.96500
H  8.29300 2.18500 32.44900
H  8.00900 5.02000 31.80000
H  5.79900 3.08000 31.74000
H  5.89000 4.76000 32.38900
H  6.46500 3.32000 33.29200
H  10.65300 4.00200 32.13500
H  10.62100 2.64800 33.26100
H  8.70300 4.24200 34.25400
H  9.99500 5.29500 33.70800
H  5.11900 7.84600 27.79400
H  4.79500 6.66100 29.16000
H  3.99400 6.60700 27.51700
H  3.59900 7.46900 25.63800
H  4.18900 8.16400 24.16900
H  5.00600 8.62800 25.66900
H  8.86800 3.09200 22.24500
H  9.46800 0.38500 22.85300
H  6.87900 2.40800 21.56200
H  6.35600 1.99300 23.16900
H  7.19900 0.78700 22.15200
H  11.77600 1.97100 23.81200
H  11.03000 2.67600 22.42800
H  12.01500 1.35500 20.92000
H  11.11400 -0.00100 21.63600
H  12.60200 0.27800 22.22000
H  11.84400 -2.65100 27.02200
H  13.08900 -1.94300 27.81400
H  12.73800 -1.33800 26.12200
H  11.67600 1.16900 31.76500
H  9.23900 -0.69400 34.70000
H  10.35200 0.27600 35.62600
H  10.90700 -1.21700 35.09500

