158

Mg 47.24200 16.15100 28.10400
C  45.26600 15.75600 30.96200
C  49.32400 18.30100 29.83000
C  48.82900 17.03700 25.15100
C  44.60600 14.73100 26.24900
N  47.10600 17.05300 30.11300
C  46.40400 16.62400 31.16400
C  46.94700 17.21300 32.54700
C  48.02400 18.19600 32.09800
C  48.21000 17.85300 30.56600
C  47.73000 19.72100 32.37800
C  47.52400 16.15800 33.62500
C  46.60800 16.10900 34.93100
H  46.61100 17.47700 35.64000
N  48.97800 17.37400 27.61300
C  49.64700 18.16100 28.48500
C  50.78700 18.71500 27.83400
C  50.71500 18.28600 26.48400
C  49.46900 17.47700 26.35200
C  51.75500 19.61800 28.42300
C  51.60600 18.58600 25.29800
O  51.36600 18.21300 24.18200
C  52.78200 19.41700 25.47300
N  46.78800 15.83100 26.05600
C  47.58000 16.30700 25.07300
C  47.13200 15.88100 23.70900
C  45.88100 14.91100 24.07500
C  45.76000 15.18500 25.56600
C  46.78300 16.99800 22.68300
C  46.07800 13.38700 23.67600
C  45.18200 12.88200 22.52500
N  45.38300 15.22300 28.42900
C  44.46600 14.62300 27.61900
C  43.35900 14.02900 28.41500
C  43.65900 14.41600 29.74300
C  44.89600 15.14200 29.71800
C  42.23600 13.16900 27.90900
C  43.20900 14.38600 31.08600
O  42.24600 13.81900 31.54500
C  44.19200 15.18900 31.95800
C  43.27600 16.27500 32.51800
O  42.65500 17.04500 31.80200
O  43.31900 16.27800 33.94400
C  42.70900 17.41700 34.64100
H  50.00200 18.90800 30.43400
H  49.23500 17.25200 24.16000
H  43.88100 14.31600 25.54600
H  46.10100 17.76400 32.95500
H  49.00500 17.96000 32.51000
H  48.65300 20.16700 32.75000
H  46.87800 19.84700 33.04500
H  47.47700 20.24500 31.45600
H  48.61400 16.14200 33.63900
H  47.28400 15.18300 33.19900
H  47.05100 15.38600 35.61600
H  45.61700 15.77100 34.62900
H  51.95500 20.48600 27.79500
H  52.60700 19.08200 28.84000
H  51.36100 20.07400 29.33100
H  53.46800 19.25100 24.64300
H  53.37500 19.01400 26.29300
H  52.47300 20.44600 25.66000
H  47.89000 15.21300 23.30000
H  44.95700 15.30400 23.65200
H  45.73100 16.98700 22.39700
H  47.33100 16.99000 21.74100
H  47.07200 17.97700 23.06700
H  45.71900 12.77600 24.50400
H  47.09100 13.04300 23.46900
H  45.70700 12.90700 21.57000
H  44.25300 13.42600 22.35200
H  44.90700 11.84100 22.69200
H  42.36700 12.88200 26.86600
H  41.30600 13.73800 27.89600
H  42.04000 12.35200 28.60400
H  44.58400 14.52700 32.73000
H  43.01300 18.35800 34.18000
H  42.82900 17.32100 35.72000
H  41.65000 17.32000 34.40300
Mg 46.67000 24.77100 28.28400
C  47.55700 27.11600 30.87200
C  45.24200 22.85000 30.71500
C  46.64900 22.23500 25.94200
C  48.42800 26.73000 26.03200
N  46.49600 24.92500 30.56100
C  46.90500 25.99300 31.34600
C  46.38800 25.89100 32.75400
C  45.79300 24.36200 32.76700
C  45.84000 23.97400 31.25800
C  46.52400 23.27500 33.69600
C  45.39800 26.98600 33.08900
C  45.28200 27.23800 34.67100
H  43.92500 27.80400 35.20800
N  46.02300 22.85900 28.24800
C  45.38800 22.26200 29.38000
C  44.80000 20.98600 28.89600
C  45.14100 20.82600 27.53000
C  45.98300 22.00000 27.17500
C  44.13700 20.12100 29.91900
C  44.82200 19.72300 26.61300
O  45.09800 19.70900 25.36400
C  44.18600 18.41300 27.25200
N  47.60400 24.42700 26.37800
C  47.39700 23.34700 25.56800
C  48.29500 23.49500 24.31000
C  48.26600 25.06000 24.16700
C  48.10800 25.44300 25.59700
C  49.71500 22.89500 24.50300
C  47.16200 25.49700 23.23700
C  47.62800 26.22500 21.95600
N  47.70900 26.57600 28.35500
C  48.25300 27.26100 27.28200
C  48.63000 28.60200 27.77000
C  48.39500 28.53500 29.13600
C  47.86200 27.30600 29.49300
C  49.40200 29.62700 27.04800
C  48.64800 29.23600 30.38700
O  49.18600 30.35600 30.53700
C  48.06500 28.38200 31.54700
C  49.09600 28.23000 32.66500
O  50.13400 27.60700 32.52200
O  48.68700 28.76800 33.88500
C  49.47300 28.43500 35.08800
H  44.66100 22.48300 31.56400
H  46.63300 21.46100 25.17200
H  48.91500 27.37100 25.29400
H  47.22100 25.89600 33.45700
H  44.77400 24.45000 33.14300
H  46.70100 22.36000 33.13000
H  46.03900 23.08000 34.65200
H  47.46700 23.72500 34.00500
H  44.38300 26.72800 32.78800
H  45.51200 27.92200 32.54100
H  46.06200 27.93300 34.98200
H  45.56300 26.33200 35.20900
H  43.27000 19.53500 29.61500
H  43.64200 20.71600 30.68600
H  44.87800 19.59400 30.52100
H  43.12900 18.50000 27.50300
H  44.84200 18.18500 28.09200
H  44.26800 17.54300 26.60100
H  47.81400 23.02700 23.45100
H  49.24600 25.37600 23.81100
H  49.64300 22.33300 25.43400
H  50.53700 23.60700 24.57700
H  50.01800 22.12400 23.79400
H  46.59600 26.29100 23.72600
H  46.60000 24.58400 23.04100
H  47.33300 27.27200 22.01800
H  47.07100 25.76900 21.13700
H  48.70600 26.21800 21.79600
H  49.73900 30.37700 27.76300
H  48.70400 30.13800 26.38400
H  50.29300 29.20900 26.57900
H  47.30800 28.86200 32.16800
H  49.57500 29.29000 35.75600
H  50.48100 28.08000 34.87000
H  49.04300 27.64400 35.70200

