158

Mg 1.40200 8.46000 25.09400
C  2.47300 10.42900 27.95100
C  1.69100 5.74200 27.03600
C  0.42200 6.72000 22.39600
C  1.67900 11.33700 23.08800
N  1.90500 8.11100 27.34100
C  2.32600 9.07200 28.27800
C  2.24200 8.39500 29.68400
C  2.32800 6.86400 29.30800
C  2.03400 6.89900 27.78500
C  3.58900 6.03400 29.67900
C  0.97600 8.76200 30.43200
C  1.02300 8.84400 31.97000
H  2.08600 7.99300 32.78100
N  0.95400 6.43100 24.78100
C  1.14000 5.44100 25.74300
C  0.65000 4.26700 25.16400
C  0.31500 4.51600 23.86300
C  0.52600 5.94000 23.60900
C  0.75600 2.95700 25.81100
C  -0.14300 3.59900 22.69300
O  -0.33900 3.99100 21.59100
C  -0.31900 2.13100 22.94400
N  1.28000 8.98900 23.07400
C  0.82100 8.05500 22.15200
C  0.95500 8.56600 20.73000
C  1.05800 10.16600 21.03100
C  1.47400 10.12700 22.49500
C  2.13800 8.06700 19.83400
C  -0.33700 10.82200 20.68500
C  -0.18900 12.21600 19.98500
N  1.96500 10.50000 25.42100
C  1.97900 11.53000 24.48000
C  2.36700 12.74500 25.15100
C  2.41400 12.40600 26.56900
C  2.20300 11.00300 26.66600
C  2.66600 14.05800 24.53700
C  2.72400 12.89700 27.88700
O  3.01700 13.99500 28.33900
C  2.75800 11.59000 28.82400
C  4.00900 11.37800 29.56000
O  4.97100 10.73500 29.26700
O  3.83000 11.92100 30.76200
C  4.94500 11.57800 31.69400
H  1.69700 4.89000 27.71900
H  0.10800 6.23000 21.47200
H  1.77400 12.27000 22.52900
H  3.03900 8.83300 30.28600
H  1.53700 6.25000 29.74100
H  4.03600 6.64800 30.46100
H  4.23300 5.77900 28.83700
H  3.17800 5.12600 30.11900
H  0.22000 8.06400 30.07200
H  0.72100 9.70700 29.95200
H  0.04300 8.74400 32.43700
H  1.26400 9.86800 32.25600
H  -0.23600 2.58300 26.06200
H  1.31900 2.93000 26.74400
H  1.37900 2.20900 25.32100
H  -0.89300 2.01400 23.86300
H  0.67700 1.69900 23.03900
H  -0.74400 1.64700 22.06500
H  0.07300 8.29300 20.15100
H  1.85600 10.63700 20.45700
H  2.78200 7.31700 20.29300
H  2.76500 8.84100 19.39100
H  1.59700 7.55100 19.04100
H  -0.81500 10.94500 21.65700
H  -0.98700 10.14400 20.13200
H  -0.91700 12.29600 19.17800
H  0.73400 12.51800 19.48800
H  -0.46000 12.99400 20.69800
H  2.04100 14.10700 23.64500
H  3.74600 14.13500 24.40700
H  2.40500 14.85600 25.23200
H  1.94600 11.68200 29.54600
H  5.00700 10.51500 31.92400
H  4.70000 12.10300 32.61800
H  5.89200 11.88900 31.25300
Mg 46.82400 45.88000 43.39000
C  43.48800 44.79500 42.83500
C  47.90600 42.87900 42.32800
C  49.99300 47.28900 42.78100
C  45.50800 49.27000 43.48100
N  45.83300 44.11500 42.38400
C  44.47400 43.82100 42.54300
C  44.13300 42.43300 42.01000
C  45.51000 41.73900 42.18300
C  46.48900 42.98300 42.30000
C  45.60500 40.64800 43.28200
C  43.61000 42.52000 40.54000
C  42.30300 41.79000 40.16000
H  42.36500 41.04900 38.83200
N  48.69900 45.06600 42.86100
C  48.89300 43.77700 42.53800
C  50.31200 43.55700 42.60000
C  50.92900 44.81300 42.76700
C  49.85400 45.81600 42.81800
C  50.95200 42.20800 42.56800
C  52.49400 45.08100 42.91400
O  53.29600 44.16400 42.73500
C  53.03100 46.43200 43.23700
N  47.56800 47.91700 43.08100
C  48.92600 48.22400 42.73900
C  49.17300 49.70600 42.60100
C  47.80300 50.34800 42.86400
C  46.88500 49.11300 43.17600
C  50.44400 50.24000 43.43700
C  47.19700 51.27700 41.76700
C  47.32300 52.83600 42.08300
N  44.95700 46.85300 43.47400
C  44.59800 48.17900 43.52800
C  43.11200 48.23400 43.70800
C  42.65500 46.93000 43.44300
C  43.79800 46.11300 43.23400
C  42.32700 49.45800 44.25100
C  41.45100 46.10900 43.33400
O  40.27600 46.41600 43.34300
C  41.95200 44.69900 42.80900
C  41.40700 43.71100 43.81400
O  40.62000 42.80100 43.52700
O  41.92400 43.86300 45.03100
C  41.46100 42.96500 46.09300
H  48.11500 41.83400 42.09200
H  50.93500 47.80100 42.57400
H  45.05700 50.26200 43.41400
H  43.35400 41.90800 42.56300
H  45.85100 41.25100 41.27000
H  46.51700 40.73700 43.87200
H  45.56200 39.65100 42.84300
H  44.77100 40.75500 43.97700
H  44.45900 42.39300 39.86700
H  43.40800 43.58900 40.46600
H  41.49200 42.51800 40.14100
H  42.09000 41.10100 40.97700
H  51.84900 42.20700 43.18800
H  51.37000 41.97700 41.58900
H  50.21300 41.44000 42.79800
H  52.64300 46.70000 44.21900
H  52.97400 47.16900 42.43600
H  54.10100 46.40400 43.44300
H  49.39600 49.73200 41.53400
H  47.85000 51.02100 43.72000
H  50.68200 49.50700 44.20700
H  50.35200 51.28200 43.74500
H  51.28500 50.19300 42.74500
H  46.12600 51.09700 41.67700
H  47.67100 51.06800 40.80700
H  46.59000 53.24700 42.77800
H  47.06000 53.35300 41.16000
H  48.35300 53.01500 42.39400
H  42.65100 49.73100 45.25500
H  41.26500 49.22300 44.32700
H  42.39700 50.38400 43.68100
H  41.64400 44.41500 41.80300
H  40.60000 43.51400 46.47400
H  42.23500 42.85500 46.85300
H  41.10300 41.95700 45.88400

