158

Mg 48.42500 46.21200 43.41800
C  45.21800 46.71800 41.91100
C  48.69500 43.37100 41.68400
C  51.68200 46.12600 44.26900
C  48.31800 49.63800 44.39700
N  47.06200 45.12700 41.97500
C  45.74200 45.44000 41.65300
C  45.16200 44.38300 40.64100
C  46.29300 43.27300 40.66400
C  47.48800 43.99600 41.45200
C  45.80200 41.89500 41.11900
C  44.86900 44.90300 39.20200
C  43.60600 44.37300 38.57800
H  43.61400 43.96000 37.13600
N  49.94500 44.87700 43.02900
C  49.76400 43.68700 42.42200
C  51.05200 42.97500 42.40800
C  51.98100 43.80100 43.13000
C  51.23600 45.02400 43.52800
C  51.22900 41.62200 41.71800
C  53.42700 43.37600 43.30600
O  53.91100 42.40600 42.76300
C  54.45100 44.12600 44.10800
N  49.83600 47.71400 44.25800
C  51.11200 47.36200 44.57100
C  51.85100 48.54900 45.31000
C  50.80800 49.71700 45.19200
C  49.57000 49.02100 44.56500
C  52.28800 48.24100 46.80000
C  51.20600 50.90800 44.30400
C  51.16400 52.29300 45.05500
N  47.13100 47.84600 43.27500
C  47.16700 49.13100 43.79800
C  45.92200 49.80300 43.52900
C  45.14200 48.93100 42.75600
C  45.93000 47.71500 42.65800
C  45.50300 51.32800 43.81500
C  43.85900 48.72400 42.01600
O  42.88800 49.47200 41.80500
C  43.87600 47.26900 41.48600
C  42.74100 46.48800 42.02000
O  42.50800 46.22100 43.16200
O  41.96900 45.96300 41.02200
C  41.00100 44.92900 41.34500
H  48.75600 42.37900 41.23100
H  52.68500 45.98500 44.67700
H  48.39600 50.68500 44.69800
H  44.19900 44.04900 41.02700
H  46.68100 43.16500 39.65100
H  45.99100 41.93000 42.19200
H  46.26300 41.00200 40.69600
H  44.73200 41.88600 40.91100
H  45.73300 44.56900 38.62700
H  44.88300 45.98900 39.10500
H  42.91400 45.21400 38.60200
H  43.14800 43.65800 39.26100
H  50.37900 40.98900 41.46200
H  51.66600 40.99800 42.49800
H  51.91500 41.79100 40.88800
H  54.11200 44.18900 45.14200
H  54.45100 45.08400 43.58800
H  55.42400 43.63700 44.06200
H  52.76100 48.77300 44.75200
H  50.49500 50.00800 46.19400
H  52.16200 47.18200 47.02900
H  51.80200 48.90000 47.51900
H  53.36300 48.40100 46.87900
H  50.52500 50.98400 43.45600
H  52.21100 50.82200 43.89300
H  52.14600 52.74800 45.18200
H  50.88100 52.17700 46.10200
H  50.46300 52.91900 44.50300
H  44.44200 51.37800 44.05800
H  45.78600 51.85800 42.90500
H  46.00100 51.78400 44.67100
H  43.88100 47.24600 40.39600
H  41.42700 43.98800 40.99500
H  40.05000 45.16200 40.86600
H  40.83500 44.79100 42.41300
Mg -1.91400 34.03000 27.13700
C  -3.38100 32.37900 29.79300
C  -0.63800 36.37900 29.34800
C  -1.03900 35.88800 24.47400
C  -3.61900 31.84200 24.92100
N  -2.08700 34.42600 29.31200
C  -2.62500 33.50100 30.18700
C  -2.36900 33.98200 31.66100
C  -1.56800 35.30500 31.51300
C  -1.44800 35.44400 29.94000
C  -2.26600 36.51200 32.27700
C  -1.74700 33.00200 32.66200
C  -2.60300 32.36600 33.78800
H  -1.86000 32.08900 35.10600
N  -0.89900 35.82600 26.95900
C  -0.41600 36.60100 27.97000
C  0.22000 37.76100 27.41700
C  0.24500 37.61500 25.98000
C  -0.57300 36.45500 25.69700
C  0.79900 38.83600 28.20800
C  0.89500 38.42100 24.93400
O  0.74600 38.17500 23.74300
C  1.79900 39.66400 25.16100
N  -2.34300 33.92500 24.97300
C  -1.84600 34.82000 24.06500
C  -2.25800 34.42400 22.67500
C  -2.79500 33.00700 22.83400
C  -2.95700 32.89900 24.32100
C  -3.28600 35.54800 22.14000
C  -1.83400 31.85400 22.23000
C  -0.78400 31.14100 23.11800
N  -3.14900 32.44200 27.29600
C  -3.80600 31.62400 26.31500
C  -4.70000 30.65200 26.88600
C  -4.52300 30.87600 28.30600
C  -3.62900 31.96400 28.42900
C  -5.67600 29.73800 26.21700
C  -4.82000 30.43300 29.65900
O  -5.49000 29.48700 30.07500
C  -4.20800 31.42000 30.65200
C  -5.31400 32.06200 31.39800
O  -5.91500 33.07000 31.03300
O  -5.56800 31.39400 32.55200
C  -6.50800 32.07200 33.41600
H  -0.22500 37.05100 30.10200
H  -0.62100 36.40700 23.60900
H  -4.05500 31.26700 24.10100
H  -3.38900 34.15100 32.00700
H  -0.61500 35.12200 32.00800
H  -1.37600 37.08800 32.53200
H  -2.74300 36.19900 33.20500
H  -2.87500 37.07900 31.57300
H  -0.88700 33.46000 33.14900
H  -1.40500 32.14700 32.07900
H  -3.07600 31.42500 33.50600
H  -3.31400 33.15700 34.02700
H  1.85300 38.77600 27.93500
H  0.76800 38.62900 29.27800
H  0.25100 39.76100 28.02700
H  2.32300 39.96500 24.25300
H  2.51100 39.40400 25.94400
H  1.15500 40.45300 25.54700
H  -1.42600 34.53400 21.98000
H  -3.74700 32.80900 22.34100
H  -3.24700 36.45800 22.73900
H  -4.30300 35.16700 22.23400
H  -3.04700 35.87000 21.12600
H  -1.35100 32.40300 21.42200
H  -2.57500 31.18000 21.80000
H  -0.70400 31.39500 24.17500
H  0.22800 31.40600 22.81200
H  -0.92300 30.06200 23.18400
H  -5.53300 28.75700 26.67000
H  -5.48500 29.58900 25.15500
H  -6.64700 30.15600 26.48500
H  -3.68700 30.68400 31.26400
H  -7.40700 32.35600 32.87000
H  -6.06400 33.01200 33.74400
H  -6.73800 31.43300 34.26900

