158

Mg 41.29000 8.98300 29.58700
C  43.20900 9.86100 32.46900
C  39.01600 7.54000 31.70000
C  39.52900 7.85900 26.83900
C  43.86300 9.98000 27.64500
N  41.26300 8.61400 31.84300
C  42.16500 9.06400 32.80600
C  41.61800 8.75500 34.21700
C  40.30200 7.85900 33.90700
C  40.16800 8.07200 32.36700
C  40.35400 6.37400 34.28100
C  41.29900 10.03400 35.12600
C  40.74900 9.66100 36.47500
H  41.58500 10.10600 37.76000
N  39.50300 7.85300 29.30100
C  38.73100 7.34300 30.32700
C  37.62800 6.55800 29.71600
C  37.64300 6.78600 28.30800
C  38.91400 7.50100 28.06000
C  36.49300 5.93000 30.52200
C  36.59200 6.46100 27.19600
O  36.73600 6.72900 26.00900
C  35.25100 5.89600 27.57300
N  41.76300 8.71700 27.55800
C  40.78900 8.37400 26.60800
C  41.35600 8.67800 25.18400
C  42.73800 9.39600 25.46400
C  42.74200 9.47500 26.97100
C  41.46900 7.41800 24.17800
C  42.89600 10.69300 24.65900
C  41.75700 11.62300 24.70600
N  43.14400 9.75300 29.89400
C  44.08700 10.09600 29.03300
C  45.21600 10.68900 29.76700
C  44.80300 10.68300 31.05000
C  43.54100 10.10600 31.12000
C  46.45800 11.18000 29.06200
C  45.28600 11.07000 32.36400
O  46.31100 11.66900 32.71600
C  44.22600 10.54500 33.38500
C  44.79800 9.56500 34.37000
O  44.84600 8.31400 34.37000
O  45.34500 10.29700 35.38100
C  45.97900 9.66800 36.47000
H  38.21700 7.23900 32.38200
H  38.93300 7.69800 25.93800
H  44.70500 10.36800 27.06800
H  42.33900 8.09600 34.70100
H  39.45200 8.22800 34.48100
H  41.29700 6.06700 34.73300
H  40.15300 5.71900 33.43300
H  39.55200 6.13800 34.98100
H  40.56000 10.62600 34.58600
H  42.14000 10.69700 35.33100
H  40.55300 8.59000 36.41800
H  39.78300 10.14600 36.61800
H  36.60800 5.93700 31.60600
H  36.18300 4.91100 30.28800
H  35.56000 6.45400 30.31600
H  35.51600 4.95000 28.04600
H  34.48400 5.80100 26.80400
H  34.78600 6.53700 28.32100
H  40.71900 9.25900 24.51800
H  43.58700 8.75600 25.22100
H  40.93500 6.58900 24.64200
H  42.50200 7.15000 23.95900
H  40.83100 7.69200 23.33800
H  43.00700 10.43500 23.60600
H  43.84900 11.19500 24.82900
H  41.30600 11.73300 23.72000
H  42.09900 12.64000 24.89800
H  40.99900 11.40500 25.45800
H  46.27500 12.13400 28.56800
H  46.80000 10.40700 28.37400
H  47.20200 11.33300 29.84500
H  43.77600 11.46800 33.75200
H  46.65100 8.82600 36.30500
H  45.13700 9.33600 37.07700
H  46.55400 10.33600 37.11100
Mg -4.97400 25.83500 26.31600
C  -3.62300 27.69500 28.98500
C  -6.70900 23.91000 28.58600
C  -6.10700 24.00800 23.69600
C  -3.22600 27.82000 24.10500
N  -4.96700 25.72200 28.53000
C  -4.55500 26.70500 29.42400
C  -5.17200 26.44500 30.81700
C  -5.79400 24.98400 30.73200
C  -5.84100 24.86700 29.19100
C  -4.94300 23.86100 31.32000
C  -6.26100 27.48000 31.12100
C  -6.61200 27.56400 32.64300
H  -6.18600 26.49600 33.62900
N  -6.28700 24.26900 26.13600
C  -6.95700 23.67900 27.20000
C  -7.83000 22.65700 26.64900
C  -7.74500 22.71200 25.21400
C  -6.65900 23.68700 24.93800
C  -8.93100 22.04600 27.49800
C  -8.56800 21.90100 24.15800
O  -8.53500 22.15800 22.95900
C  -9.57000 20.80000 24.61800
N  -4.76100 25.89800 24.19200
C  -5.22000 25.02000 23.31500
C  -4.66700 25.22100 21.94300
C  -4.08200 26.64900 22.02600
C  -4.02000 26.82300 23.56600
C  -3.71000 24.11900 21.29000
C  -4.98300 27.87200 21.47800
C  -4.41600 28.50200 20.19700
N  -3.66500 27.35700 26.46100
C  -3.05900 28.13700 25.44600
C  -2.11300 29.10000 26.02800
C  -2.28700 28.97600 27.41500
C  -3.25300 27.92200 27.61100
C  -1.30400 30.12600 25.24200
C  -1.88900 29.52700 28.80000
O  -1.04300 30.28900 29.13200
C  -2.85700 28.75200 29.78200
C  -2.16300 28.07200 30.98800
O  -1.43100 27.06200 30.94600
O  -2.56600 28.74200 32.14500
C  -2.02200 28.05500 33.35600
H  -7.13900 23.26900 29.35900
H  -6.43500 23.36800 22.87400
H  -2.72800 28.55500 23.46800
H  -4.27500 26.48300 31.43400
H  -6.76000 24.89500 31.22900
H  -3.91900 24.23500 31.29700
H  -4.91200 22.95300 30.71900
H  -5.26600 23.56400 32.31700
H  -7.15400 27.12600 30.60500
H  -6.01100 28.39700 30.58700
H  -7.69100 27.64500 32.77200
H  -6.12200 28.49700 32.92400
H  -9.85300 22.53500 27.18200
H  -8.71600 22.19600 28.55600
H  -8.96800 20.97200 27.31600
H  -9.13500 20.10900 25.34100
H  -9.91600 20.24900 23.74300
H  -10.34500 21.34900 25.15200
H  -5.59700 25.39200 21.40100
H  -3.05300 26.76200 21.68300
H  -3.78800 23.14100 21.76500
H  -2.66700 24.39400 21.44700
H  -3.94900 24.11100 20.22700
H  -5.15100 28.66900 22.20300
H  -5.89900 27.47100 21.04400
H  -3.95900 27.68200 19.64300
H  -3.64800 29.22400 20.47100
H  -5.24300 29.05200 19.74900
H  -0.49400 29.59900 24.73800
H  -0.86800 31.01100 25.70400
H  -1.92600 30.39900 24.38900
H  -3.55600 29.41100 30.29600
H  -2.69100 28.36500 34.15900
H  -1.04100 28.46500 33.59300
H  -1.95500 26.96800 33.41500

