158

Mg 46.45400 15.63100 27.46300
C  44.53100 15.47600 30.43900
C  48.64300 17.66800 29.05800
C  48.22200 16.03800 24.52900
C  43.93700 14.00300 25.73600
N  46.56200 16.46600 29.50300
C  45.69100 16.31500 30.59600
C  46.24000 16.95600 31.83300
C  47.48400 17.82300 31.30600
C  47.58000 17.28800 29.89300
C  47.29200 19.31700 31.25400
C  46.56200 15.91900 32.97200
C  46.04200 16.27400 34.37000
H  46.97900 15.96900 35.53300
N  48.32200 16.48900 26.94700
C  49.01000 17.40600 27.73800
C  50.17200 17.80900 27.04300
C  50.11500 17.31500 25.76100
C  48.88600 16.49800 25.71000
C  51.29500 18.68500 27.67000
C  51.04000 17.42400 24.47200
O  50.90000 16.72600 23.51200
C  52.26800 18.26400 24.50200
N  46.14100 15.09600 25.37100
C  46.98900 15.32000 24.32400
C  46.45900 14.71900 23.01500
C  45.24200 13.84900 23.51800
C  45.12900 14.24000 24.96700
C  46.18000 15.70900 21.95300
C  45.40100 12.31300 23.29500
C  46.56100 11.68700 24.11300
N  44.60600 14.97300 27.92600
C  43.70300 14.28000 27.11100
C  42.53400 13.86300 27.92100
C  42.88500 14.37400 29.20700
C  44.11900 15.01000 29.15900
C  41.27600 13.28500 27.45900
C  42.29600 14.58100 30.49600
O  41.17000 14.33900 30.85100
C  43.36000 15.22900 31.40700
C  42.85700 16.51700 32.03500
O  42.89500 17.62400 31.46900
O  42.35000 16.37200 33.32700
C  42.36200 17.57700 34.11600
H  49.27900 18.46200 29.45500
H  48.69500 16.49600 23.65800
H  43.17500 13.32700 25.34300
H  45.51200 17.60800 32.31600
H  48.35200 17.64600 31.94100
H  46.39100 19.57300 31.81200
H  47.20200 19.68900 30.23300
H  48.22600 19.70900 31.65600
H  47.64100 15.77100 33.00500
H  46.05300 14.98400 32.73700
H  45.13100 15.75700 34.66900
H  45.77100 17.32100 34.50900
H  51.03400 19.68400 28.01800
H  52.16700 18.65900 27.01700
H  51.60400 18.12600 28.55400
H  52.82800 18.25700 23.56700
H  52.81900 17.72200 25.27000
H  52.00900 19.27600 24.81400
H  47.27400 14.06200 22.70900
H  44.37400 14.16100 22.93800
H  45.98800 16.67700 22.41500
H  45.31100 15.45000 21.35000
H  46.99700 15.76300 21.23300
H  45.53400 12.20900 22.21800
H  44.50800 11.75200 23.57000
H  47.35100 11.38500 23.42600
H  46.14800 10.95700 24.80900
H  46.99000 12.48700 24.71600
H  41.27100 13.53800 26.39900
H  40.55300 13.87400 28.02500
H  41.11700 12.23000 27.68000
H  43.59800 14.60300 32.26700
H  41.71400 18.34800 33.69800
H  43.36900 17.98700 34.18600
H  41.94600 17.28700 35.08100
Mg 37.17600 50.14100 24.73200
C  36.86100 48.52400 27.91600
C  36.17000 53.08100 26.27300
C  37.29600 51.49600 21.72800
C  37.61600 46.96600 23.33600
N  36.53600 50.75500 26.89600
C  36.61400 49.93500 28.06100
C  36.24000 50.74000 29.34800
C  35.91400 52.19100 28.76300
C  36.19200 52.02700 27.21100
C  34.56000 52.75400 29.20200
C  37.34100 50.78800 30.39900
C  37.09500 50.01600 31.72100
H  35.80300 50.32900 32.36100
N  36.72200 52.02800 24.04100
C  36.41000 53.12400 24.80600
C  36.37700 54.27100 23.95500
C  36.76900 53.79600 22.67500
C  36.97900 52.38900 22.76500
C  36.02900 55.75200 24.40400
C  37.00300 54.61400 21.34300
O  37.58800 54.14700 20.35900
C  36.62300 56.04600 21.21000
N  37.34700 49.31700 22.87600
C  37.50900 50.10700 21.83400
C  37.78400 49.25200 20.51900
C  38.07300 47.88300 21.08400
C  37.64000 48.01500 22.51900
C  36.62100 49.29800 19.40700
C  39.61000 47.49600 21.06400
C  40.15700 46.24600 20.43400
N  37.25700 48.13300 25.37800
C  37.48500 46.90100 24.72300
C  37.60300 45.78900 25.65100
C  37.34500 46.42200 26.86900
C  37.14800 47.80400 26.68600
C  37.75300 44.40800 25.36500
C  37.34200 46.09600 28.29800
O  37.57100 45.01400 28.93500
C  36.95300 47.43200 28.98700
C  35.62600 47.27900 29.62100
O  34.52300 47.57400 29.13700
O  35.81200 46.47600 30.79600
C  34.60100 45.97200 31.46400
H  35.88500 54.06800 26.64200
H  37.43700 51.93700 20.73900
H  37.82700 46.03300 22.80800
H  35.38600 50.26500 29.83100
H  36.57700 52.99600 29.07800
H  33.89900 52.01900 29.66100
H  34.03000 52.90900 28.26200
H  34.64400 53.65100 29.81400
H  37.51900 51.80600 30.74600
H  38.28500 50.35700 30.06500
H  37.85400 50.25600 32.46500
H  37.20300 48.94100 31.57400
H  35.68300 55.92300 25.42300
H  35.33900 56.11500 23.64200
H  36.94400 56.34400 24.37400
H  36.77400 56.63800 22.11300
H  35.53800 56.01800 21.11600
H  37.18500 56.52300 20.40700
H  38.67500 49.76700 20.16200
H  37.45300 47.11800 20.61700
H  36.90600 49.81600 18.49100
H  35.78400 49.87500 19.79900
H  36.18500 48.31800 19.21300
H  39.97600 47.43500 22.08900
H  40.23500 48.28600 20.64600
H  40.00300 45.44700 21.15900
H  41.21900 46.30500 20.19600
H  39.64700 46.19100 19.47200
H  38.40000 44.25400 24.50100
H  36.81900 43.89000 25.14900
H  38.18400 43.88400 26.21800
H  37.64400 47.72100 29.77900
H  34.05200 46.71900 32.03700
H  34.63800 45.10000 32.11600
H  33.81600 45.73500 30.74500

