158

Mg 17.11900 -1.36800 27.72700
C  16.20200 0.49700 30.57700
C  19.05800 -3.47500 29.81400
C  18.42300 -2.79900 24.99100
C  15.80200 1.17900 25.71500
N  17.62100 -1.43000 29.89900
C  17.13700 -0.54900 30.83500
C  17.60000 -0.93700 32.25600
C  18.66400 -2.07100 31.97600
C  18.45000 -2.38500 30.46200
C  20.17800 -1.66700 32.39000
C  16.35500 -1.25800 33.15700
C  16.41300 -0.86500 34.66100
H  17.83900 -0.37000 35.14600
N  18.48900 -2.92500 27.44100
C  19.13400 -3.67800 28.42300
C  19.72100 -4.85200 27.86100
C  19.60800 -4.67400 26.41200
C  18.78000 -3.41600 26.25100
C  20.34900 -5.99500 28.53900
C  20.31400 -5.41500 25.27300
O  19.99900 -5.35500 24.07500
C  21.28800 -6.56900 25.57600
N  16.94600 -0.95800 25.67800
C  17.65600 -1.62500 24.70500
C  17.62800 -1.03900 23.29600
C  16.63200 0.17000 23.51700
C  16.36500 0.12100 25.04600
C  18.94300 -0.77100 22.55400
C  15.32000 0.04800 22.68200
C  15.11900 1.30600 21.70300
N  16.00000 0.29000 28.02100
C  15.60400 1.24600 27.12500
C  14.90700 2.25800 27.81800
C  15.09900 1.95400 29.13100
C  15.83600 0.78800 29.25200
C  14.19000 3.41500 27.26400
C  14.85500 2.52900 30.42700
O  14.20300 3.53900 30.71600
C  15.54200 1.58100 31.37900
C  16.54900 2.44200 32.07600
O  17.73800 2.55300 31.71800
O  15.96600 2.83400 33.23600
C  16.79200 3.68000 34.13100
H  19.55500 -4.18100 30.48300
H  18.73600 -3.22400 24.03500
H  15.39800 2.02000 25.14600
H  18.16600 -0.07300 32.60300
H  18.45100 -2.84800 32.70900
H  20.91000 -1.86600 31.60700
H  20.45300 -2.28900 33.24200
H  20.35100 -0.65400 32.75100
H  16.08300 -2.30600 33.02900
H  15.52900 -0.71800 32.69400
H  16.11100 -1.68500 35.31300
H  15.62800 -0.11100 34.72700
H  20.06700 -6.98700 28.18400
H  20.17200 -5.98600 29.61400
H  21.43300 -5.87800 28.53100
H  21.95900 -6.32400 26.40000
H  21.96700 -6.63000 24.72500
H  20.78900 -7.44800 25.98400
H  17.14900 -1.77100 22.64500
H  17.10300 1.14700 23.41300
H  18.93200 0.27500 22.24700
H  19.06200 -1.41800 21.68400
H  19.75200 -0.98900 23.25200
H  14.43300 0.25400 23.28200
H  15.23100 -0.93400 22.21700
H  14.85000 0.92500 20.71800
H  16.06000 1.84700 21.80700
H  14.30300 1.88100 22.14000
H  13.54900 3.07600 26.45000
H  14.80400 4.22300 26.86800
H  13.50700 3.78800 28.02800
H  14.79900 1.22800 32.09400
H  17.58000 4.19100 33.57800
H  17.08300 3.11300 35.01500
H  16.08600 4.37500 34.58500
Mg 40.60600 8.66900 29.68900
C  42.31000 10.03600 32.53300
C  38.35900 7.25100 31.85500
C  39.10400 7.33600 27.01200
C  42.96400 10.19500 27.69100
N  40.49500 8.53500 31.98200
C  41.22200 9.21700 32.88700
C  40.61600 9.07200 34.30200
C  39.55300 7.97800 34.05300
C  39.46900 7.85100 32.50800
C  39.80300 6.65100 34.74500
C  40.11300 10.55800 34.70700
C  40.77700 11.19500 35.94000
H  39.93000 11.87800 36.97000
N  38.97900 7.50600 29.48300
C  38.18500 7.03200 30.43400
C  37.11400 6.28700 29.89000
C  37.22000 6.40100 28.48200
C  38.46800 7.06700 28.26200
C  36.04500 5.61800 30.74500
C  36.16600 5.98400 27.38700
O  36.32400 6.11800 26.15200
C  34.86100 5.22800 27.84500
N  40.89700 8.87800 27.66900
C  40.19600 8.17200 26.72600
C  40.75600 8.34600 25.24100
C  41.93900 9.28200 25.47900
C  41.92200 9.45600 27.06100
C  41.15500 7.03400 24.48600
C  41.83800 10.71900 24.79100
C  42.95700 11.08700 23.77200
N  42.37100 9.85800 29.98600
C  43.24000 10.33800 29.07100
C  44.30400 11.02500 29.72700
C  44.00100 10.96900 31.02800
C  42.79500 10.23300 31.14800
C  45.40700 11.70600 29.09100
C  44.36100 11.41800 32.34700
O  45.27000 12.14100 32.73600
C  43.26800 10.91400 33.26200
C  43.93600 10.17900 34.42800
O  44.40700 9.11000 34.34900
O  44.03300 11.02100 35.54300
C  44.72700 10.34400 36.66400
H  37.49300 7.03700 32.48600
H  38.66200 6.81900 26.15800
H  43.65900 10.63000 26.97000
H  41.43000 8.65800 34.89800
H  38.57700 8.42100 34.25000
H  39.88700 5.77700 34.10000
H  38.97800 6.38300 35.40500
H  40.71000 6.74700 35.34300
H  39.08400 10.31700 34.97100
H  40.10900 11.34900 33.95700
H  41.53700 11.91200 35.62900
H  41.40900 10.43300 36.39600
H  36.59900 5.13500 31.55000
H  35.52900 4.78400 30.26800
H  35.27500 6.29800 31.11000
H  34.31100 5.81200 28.58300
H  35.36900 4.30300 28.11800
H  34.23300 5.23300 26.95400
H  39.86100 8.75200 24.77000
H  42.88900 8.87500 25.13200
H  40.47100 6.95000 23.64200
H  41.02600 6.25000 25.23300
H  42.20800 7.10900 24.21800
H  41.77200 11.55300 25.49000
H  40.86500 10.81000 24.30800
H  43.76900 10.36100 23.80200
H  43.32400 11.97300 24.29000
H  42.46600 11.08000 22.79900
H  45.13600 12.67500 28.67300
H  45.72200 11.04800 28.28100
H  46.28200 11.68100 29.74100
H  42.93600 11.87500 33.65600
H  45.79300 10.14100 36.55900
H  44.15000 9.51100 37.06600
H  44.67500 10.96700 37.55700

