158

Mg 49.18200 46.57000 43.21900
C  46.00300 47.35000 42.19600
C  48.91900 43.58800 41.53400
C  52.49800 46.24700 43.54200
C  49.57500 49.97000 44.21900
N  47.57600 45.58900 42.07700
C  46.34700 46.09100 41.73700
C  45.51200 45.04700 40.97200
C  46.53400 43.88100 40.85200
C  47.73500 44.40600 41.49900
C  45.90800 42.46900 41.36600
C  45.01600 45.54300 39.58900
C  43.93400 44.69300 38.96100
H  44.32100 43.78400 37.75000
N  50.50400 44.95800 42.76400
C  50.17500 43.81000 42.17700
C  51.35500 42.97700 42.04500
C  52.42200 43.69700 42.70600
C  51.91600 45.05900 42.96900
C  51.29900 41.59100 41.50900
C  53.89800 43.18100 42.97600
O  54.20600 42.05200 42.56700
C  54.96200 43.94500 43.61200
N  50.87800 47.96300 43.64100
C  52.10300 47.51600 43.89800
C  53.02300 48.70900 44.39100
C  52.11600 49.91100 44.23400
C  50.73600 49.26900 43.99300
C  53.46300 48.38400 45.78600
C  52.61700 50.95800 43.19200
C  52.30700 52.41900 43.57800
N  48.04700 48.29800 43.37400
C  48.31500 49.60000 43.82700
C  47.07500 50.35500 43.80800
C  46.16000 49.46900 43.23000
C  46.79500 48.29300 42.89900
C  46.91600 51.76600 44.30000
C  44.78700 49.40900 42.79600
O  43.81900 50.16000 42.92600
C  44.66300 48.02700 42.06900
C  43.70900 47.09000 42.70100
O  43.73900 46.84400 43.91400
O  42.80800 46.60500 41.71700
C  41.78600 45.71800 42.25500
H  48.86800 42.63100 41.01100
H  53.58400 46.13900 43.57500
H  49.67000 50.96300 44.66300
H  44.66500 44.69200 41.55900
H  46.87000 43.78700 39.82000
H  44.88600 42.43400 40.99000
H  45.87100 42.38800 42.45200
H  46.25300 41.53600 40.92000
H  45.91000 45.66900 38.97700
H  44.54400 46.51500 39.73100
H  43.12400 45.38200 38.72200
H  43.49900 44.09200 39.75900
H  50.78000 40.86800 42.13900
H  52.26900 41.15000 41.28200
H  50.72700 41.74100 40.59400
H  54.55900 44.39200 44.52100
H  55.35800 44.67700 42.90900
H  55.76400 43.27500 43.92000
H  53.83300 48.71700 43.66100
H  52.19800 50.33300 45.23600
H  53.71100 47.32300 45.77900
H  52.67600 48.49400 46.53200
H  54.42300 48.85500 46.00200
H  52.09500 50.80900 42.24700
H  53.69500 51.04600 43.05800
H  51.33900 52.52100 43.08800
H  53.11400 53.03200 43.17500
H  52.34300 52.67100 44.63800
H  45.83200 51.87200 44.28300
H  47.47200 52.41300 43.62100
H  47.27500 51.99100 45.30500
H  44.45800 48.25500 41.02300
H  41.28300 46.19800 43.09400
H  42.35000 44.85000 42.59600
H  41.08900 45.48000 41.45200
Mg 30.63100 59.09400 40.90800
C  28.19500 57.13700 39.45700
C  33.02000 56.85000 39.64200
C  33.13500 61.39200 41.47900
C  28.28700 61.56800 41.35600
N  30.62200 57.18800 39.68500
C  29.48100 56.63600 39.27300
C  29.82200 55.46500 38.38000
C  31.34900 55.15900 38.67400
C  31.72900 56.42000 39.43000
C  31.71200 53.97900 39.64500
C  29.56700 55.72900 36.90800
C  28.67200 54.67600 36.11700
H  27.69500 55.38600 35.11400
N  32.68500 59.05900 40.71400
C  33.48900 58.00700 40.23100
C  34.93200 58.29000 40.46100
C  34.97700 59.58600 41.08000
C  33.56000 60.05400 41.14600
C  35.95900 57.26600 40.02000
C  36.27700 60.29700 41.56600
O  37.38800 59.72500 41.48700
C  36.21500 61.54100 42.33800
N  30.74100 61.34400 41.13300
C  31.85900 61.98200 41.64400
C  31.48900 63.35400 42.31800
C  29.95400 63.37600 42.15700
C  29.62800 61.99500 41.51600
C  32.06800 63.39300 43.70700
C  29.24700 64.57200 41.35500
C  29.31900 64.62700 39.83800
N  28.59300 59.31800 40.64800
C  27.73600 60.35000 40.92500
C  26.36500 59.92300 40.57800
C  26.50300 58.65000 39.93900
C  27.90800 58.35200 40.05800
C  25.21700 60.80800 40.71700
C  25.78500 57.59400 39.29500
O  24.57200 57.44200 38.98900
C  26.93400 56.47500 39.02100
C  26.51000 55.22700 39.72200
O  26.97700 54.92500 40.81900
O  25.45900 54.64100 39.07800
C  25.02800 53.30100 39.64400
H  33.75000 56.10300 39.32300
H  33.96100 62.09000 41.63200
H  27.48100 62.29400 41.48100
H  29.18400 54.61900 38.63600
H  32.02600 55.23600 37.82400
H  32.19700 53.15600 39.12000
H  30.76000 53.68500 40.08800
H  32.44600 54.32300 40.37300
H  30.51900 55.81200 36.38400
H  29.34400 56.77800 36.71200
H  28.01700 54.02100 36.69100
H  29.35400 54.02600 35.56800
H  36.97500 57.56400 40.27700
H  35.94300 57.21400 38.93200
H  35.64900 56.27400 40.35100
H  37.22300 61.83900 42.62700
H  35.47000 61.61100 43.13100
H  35.91800 62.34700 41.66700
H  31.92800 64.24600 41.87100
H  29.52900 63.33600 43.16000
H  31.59700 62.66700 44.36900
H  31.68200 64.29000 44.19100
H  33.15700 63.38900 43.74900
H  29.70700 65.45200 41.80600
H  28.19500 64.54500 41.63900
H  29.50300 65.67300 39.59300
H  28.38300 64.20600 39.47100
H  30.16500 64.08100 39.42200
H  24.39600 60.22300 40.30200
H  25.20400 61.70700 40.10100
H  25.08400 61.21100 41.72100
H  26.94200 56.28900 37.94700
H  24.19400 52.93400 39.04400
H  24.76100 53.43400 40.69200
H  25.74300 52.48100 39.70600

