158

Mg 44.32900 3.78600 47.92000
C  41.73700 6.15100 47.23300
C  41.90800 1.36800 47.95800
C  46.74400 1.48500 47.96500
C  46.61000 6.25400 47.21400
N  42.02100 3.80600 47.64000
C  41.18800 4.88400 47.43200
C  39.73200 4.44500 47.29600
C  39.83000 2.92900 47.86300
C  41.36400 2.62400 47.83300
C  39.37100 2.85100 49.30100
C  39.22400 4.45000 45.84100
C  38.06500 5.37500 45.58000
H  38.01700 6.17100 44.21000
N  44.33900 1.63700 47.87800
C  43.23700 0.88400 47.97700
C  43.65700 -0.55200 47.97200
C  45.07900 -0.58700 47.95000
C  45.46000 0.84600 48.00500
C  42.71800 -1.67400 48.20700
C  45.95500 -1.87900 48.01500
O  45.50700 -3.01300 47.93200
C  47.47300 -1.74300 48.20700
N  46.33900 3.86400 47.56200
C  47.14900 2.83200 47.84100
C  48.60300 3.22800 48.02200
C  48.56500 4.67200 47.38800
C  47.07600 4.96800 47.45100
C  49.23900 2.94500 49.34200
C  49.15900 4.75900 45.92000
C  50.66700 5.02000 45.85600
N  44.26300 5.84800 47.46600
C  45.29400 6.66000 47.17000
C  44.75000 7.95300 46.91500
C  43.34700 7.86700 46.95800
C  43.11100 6.46000 47.25400
C  45.37400 9.22300 46.39600
C  42.12200 8.49700 46.75700
O  41.88600 9.63100 46.40300
C  41.01400 7.48100 47.20100
C  40.56200 7.80500 48.61000
O  41.29100 8.25200 49.49500
O  39.21400 7.41300 48.74500
C  38.66300 7.85300 50.05200
H  41.11200 0.63000 47.84400
H  47.49000 0.75200 48.28000
H  47.35300 7.04400 47.09000
H  39.05000 4.90900 48.00900
H  39.30600 2.12800 47.34000
H  40.19800 2.70600 49.99600
H  38.72700 1.97100 49.30000
H  38.82000 3.71300 49.67700
H  38.86900 3.49700 45.45100
H  40.04700 4.72900 45.18300
H  38.12000 6.00700 46.46600
H  37.16600 4.75900 45.54200
H  41.74300 -1.24300 48.43200
H  43.00600 -2.37500 48.99000
H  42.70500 -2.12800 47.21600
H  47.68600 -1.24100 49.15100
H  48.00900 -1.22100 47.41500
H  47.90100 -2.74400 48.24700
H  49.29900 2.76400 47.32300
H  49.09400 5.35800 48.04900
H  48.48200 2.69900 50.08600
H  49.63300 3.86800 49.76900
H  50.06300 2.24400 49.20700
H  48.68000 5.51100 45.29200
H  48.87500 3.84400 45.40000
H  50.84500 5.99800 46.30400
H  51.24700 4.97600 44.93400
H  51.19400 4.40500 46.58500
H  44.92000 9.46100 45.43400
H  46.45500 9.15000 46.28000
H  45.21400 10.01400 47.12900
H  40.13300 7.37900 46.56600
H  38.57100 8.93500 50.15200
H  39.32700 7.49900 50.84000
H  37.67400 7.40500 50.14300
Mg 35.86600 1.56300 30.44600
C  33.45300 2.25300 32.80500
C  38.24000 1.87000 32.92900
C  38.25800 1.15300 28.06400
C  33.45600 1.97300 27.85800
N  35.79300 2.06800 32.59300
C  34.70300 2.15500 33.38300
C  35.03500 2.24700 34.82400
C  36.58400 2.59600 34.83500
C  36.88300 2.10100 33.37000
C  36.82300 4.09900 35.15400
C  34.63900 1.00400 35.56500
C  33.95200 1.09500 36.91000
H  34.53700 2.24200 37.77700
N  37.93700 1.31800 30.54800
C  38.79400 1.41800 31.62700
C  40.19500 1.06200 31.21200
C  40.18400 0.92000 29.82400
C  38.73700 1.18500 29.39100
C  41.31100 1.09600 32.25500
C  41.35000 0.58600 28.88500
O  41.20600 0.42700 27.70600
C  42.77100 0.12100 29.49000
N  35.87400 1.81100 28.22400
C  36.95800 1.33600 27.56800
C  36.63000 1.22800 26.07900
C  35.10400 1.46400 25.98200
C  34.74900 1.70800 27.40200
C  37.57500 2.07100 25.10000
C  34.34200 0.34900 25.09700
C  33.70000 -0.76500 25.96400
N  33.87300 2.13100 30.28000
C  33.01500 2.13400 29.18200
C  31.67800 2.35100 29.67600
C  31.78900 2.39400 31.07000
C  33.12400 2.31700 31.38900
C  30.46500 2.59000 28.73100
C  31.05400 2.53500 32.26700
O  29.84500 2.71600 32.51500
C  32.15300 2.52600 33.48000
C  32.05900 3.87300 34.05700
O  32.69700 4.85400 33.73500
O  31.25400 3.80300 35.19600
C  31.27500 5.01200 36.15600
H  38.95300 2.07000 33.73200
H  39.01900 0.87900 27.32900
H  32.68200 1.77700 27.11200
H  34.44700 3.08100 35.20600
H  37.13800 1.95300 35.51800
H  37.09900 4.15000 36.20800
H  35.88900 4.64900 35.03900
H  37.62400 4.45800 34.50900
H  35.50900 0.40700 35.83900
H  34.23300 0.33200 34.80900
H  34.03700 0.12700 37.40500
H  32.92800 1.24900 36.57000
H  41.76800 0.11700 32.39900
H  40.84300 1.37500 33.19900
H  42.08500 1.81400 31.98300
H  43.28100 1.02000 29.83700
H  43.41600 -0.30500 28.72200
H  42.65200 -0.68200 30.21700
H  36.79100 0.16900 25.87300
H  34.93600 2.41900 25.48300
H  38.50500 2.38800 25.57100
H  37.04400 2.98300 24.82800
H  37.82700 1.53100 24.18700
H  34.97200 -0.04900 24.30200
H  33.43200 0.76900 24.66800
H  32.63800 -0.84100 25.73000
H  33.83500 -0.64500 27.03900
H  34.15500 -1.74000 25.79300
H  30.06700 1.64600 28.35700
H  30.73300 3.15900 27.84100
H  29.64300 3.10500 29.22700
H  31.94600 1.77800 34.24600
H  30.25500 5.34500 36.35200
H  31.82700 5.85700 35.74400
H  31.78200 4.73000 37.07900

