158

Mg 43.18000 41.80000 27.05300
C  42.36400 44.11800 29.62700
C  44.24900 39.68000 29.41200
C  44.00200 39.78900 24.61800
C  42.40300 44.31600 24.70300
N  43.23300 41.92300 29.30800
C  42.81900 42.89000 30.12800
C  42.76700 42.40600 31.60300
C  43.71500 41.11100 31.51600
C  43.73200 40.88400 29.96600
C  45.15400 41.23000 32.11500
C  41.31700 42.03600 32.13100
C  40.81600 42.63500 33.41400
H  41.88300 42.85500 34.53100
N  44.08400 39.90800 27.06100
C  44.43200 39.21900 28.12500
C  44.80400 37.81300 27.74900
C  44.57400 37.80200 26.34400
C  44.26700 39.22000 25.95500
C  45.28000 36.70900 28.71700
C  44.68100 36.64200 25.35700
O  44.57600 36.76000 24.17100
C  44.93800 35.22800 25.90700
N  43.33200 42.13600 24.86200
C  43.60200 41.04700 24.15900
C  43.44600 41.38600 22.62900
C  42.70000 42.69600 22.72400
C  42.84800 43.09500 24.14200
C  44.82400 41.44900 21.95200
C  41.27400 42.53200 22.13300
C  40.32800 41.56500 22.84100
N  42.49000 43.81500 27.07200
C  42.23800 44.71000 26.06600
C  41.58300 45.89100 26.62100
C  41.70900 45.70100 27.99000
C  42.23000 44.47300 28.26600
C  40.99100 47.00800 25.79300
C  41.40500 46.31500 29.30200
O  40.93300 47.39500 29.63600
C  41.78200 45.22800 30.37400
C  42.68300 45.91800 31.32600
O  43.89800 46.03700 31.35200
O  41.86700 46.47500 32.25300
C  42.60900 47.16300 33.31200
H  44.44200 38.87300 30.12100
H  44.02900 39.04900 23.81500
H  42.06600 44.96400 23.89100
H  43.31100 43.11500 32.22800
H  43.22000 40.22800 31.92100
H  45.91600 41.03900 31.36000
H  45.23800 40.59300 32.99600
H  45.40600 42.24900 32.40600
H  41.19400 40.95800 32.23100
H  40.58400 42.39800 31.41100
H  39.98100 42.03800 33.78200
H  40.50500 43.64600 33.15000
H  46.23600 36.29400 28.39900
H  44.52400 35.93000 28.61500
H  45.42700 36.94600 29.77000
H  44.85300 34.41500 25.18500
H  44.12300 35.01600 26.60000
H  45.88600 34.99700 26.39200
H  42.95900 40.54800 22.13000
H  43.19600 43.51300 22.20100
H  45.54900 41.50900 22.76400
H  44.87600 42.23000 21.19400
H  44.93000 40.52100 21.38900
H  41.39300 42.10500 21.13700
H  40.87800 43.54800 22.11900
H  40.80400 40.68300 23.27000
H  39.46000 41.20800 22.28600
H  39.93800 42.19500 23.64000
H  40.33800 47.54600 26.47900
H  40.37400 46.51000 25.04600
H  41.77300 47.59300 25.30700
H  40.80400 44.92600 30.75000
H  43.41100 47.83500 33.00600
H  43.06700 46.40200 33.94400
H  42.02500 47.72400 34.04200
Mg 17.40800 51.01000 26.20700
C  19.03500 49.61000 28.89600
C  14.99800 52.14100 28.26800
C  15.60300 52.04900 23.43100
C  19.71400 49.51100 24.07900
N  17.00100 50.75500 28.34600
C  17.87800 50.28400 29.26800
C  17.38300 50.71800 30.62900
C  15.99000 51.27900 30.34900
C  15.99500 51.42200 28.92900
C  14.81300 50.53600 30.99400
C  18.46500 51.73300 31.27100
C  18.18900 52.28100 32.69800
H  17.28800 51.39300 33.60000
N  15.68000 52.09000 25.93000
C  14.82900 52.38900 26.92700
C  13.71000 53.21700 26.38100
C  13.86800 53.15200 24.96600
C  15.11400 52.41900 24.72700
C  12.58800 53.79800 27.20900
C  12.79600 53.68000 23.87500
O  12.96900 53.63300 22.64200
C  11.55100 54.28100 24.33800
N  17.58200 50.89100 24.05400
C  16.73100 51.33100 23.16500
C  17.17600 51.10800 21.74100
C  18.57300 50.34900 21.96200
C  18.64800 50.25700 23.49900
C  16.25600 50.25300 20.87700
C  19.83700 51.07100 21.33200
C  20.70200 52.03700 22.15600
N  19.07700 49.82700 26.40200
C  19.93100 49.28300 25.44800
C  20.94100 48.49300 26.05900
C  20.66300 48.57900 27.45800
C  19.50800 49.40400 27.58100
C  21.89900 47.63400 25.31600
C  21.01600 48.16300 28.79300
O  21.82000 47.37100 29.22200
C  20.08500 48.95200 29.75700
C  19.52200 48.12600 30.77800
O  18.62300 47.28000 30.70800
O  20.03400 48.44500 31.94700
C  19.58500 47.71700 33.09600
H  14.25900 52.51000 28.98200
H  14.95400 52.24000 22.57400
H  20.51500 49.09000 23.46800
H  17.26500 49.79500 31.19700
H  16.01900 52.33800 30.60700
H  14.97900 50.47200 32.06900
H  14.65700 49.52500 30.61900
H  13.87600 51.09300 30.97300
H  18.44700 52.58500 30.59100
H  19.46700 51.33900 31.10400
H  17.90700 53.31600 32.50400
H  19.16900 52.31500 33.17300
H  12.66200 53.66300 28.28800
H  11.58600 53.44700 26.96500
H  12.65600 54.84500 26.91400
H  11.85700 55.06200 25.03300
H  11.02200 53.54800 24.94600
H  10.95200 54.59500 23.48300
H  17.33400 52.08200 21.27700
H  18.48700 49.30700 21.65400
H  16.78400 49.60100 20.18100
H  15.51500 50.90400 20.41300
H  15.92200 49.56500 21.65300
H  19.38700 51.54000 20.45600
H  20.57300 50.36800 20.94200
H  20.99500 52.87900 21.53000
H  21.51000 51.51500 22.66900
H  20.11500 52.55100 22.91800
H  21.48700 47.04300 24.49700
H  22.44000 46.88100 25.89000
H  22.51600 48.43800 24.91500
H  20.58900 49.74300 30.31100
H  19.79500 46.65800 32.94500
H  18.52000 47.78300 33.31600
H  20.11700 48.07100 33.97900

