158

Mg 48.63600 24.52300 28.89400
C  49.59100 26.89500 31.49600
C  47.67100 22.38100 31.43400
C  48.01900 22.17500 26.46700
C  49.63400 26.80300 26.58000
N  48.67000 24.66700 31.19200
C  48.97800 25.72900 32.01200
C  48.56100 25.44600 33.46100
C  48.10000 23.85900 33.37200
C  48.10800 23.62600 31.85900
C  48.91200 22.79100 34.30400
C  47.65100 26.54800 34.06000
C  48.06600 27.28000 35.36400
H  47.10200 27.16900 36.54700
N  47.94800 22.55600 28.93400
C  47.61500 21.82300 30.05800
C  47.16200 20.48200 29.60400
C  47.32100 20.48300 28.17200
C  47.80000 21.79300 27.78300
C  46.68000 19.45000 30.53200
C  47.09400 19.30400 27.23400
O  47.54800 19.35200 26.09800
C  46.53000 18.01500 27.69000
N  49.05200 24.43700 26.85600
C  48.60100 23.37400 26.02600
C  48.71300 23.72300 24.48700
C  48.88500 25.24600 24.59800
C  49.29900 25.49000 26.11800
C  49.93800 23.16500 23.87800
C  47.64100 26.07000 24.15600
C  47.89300 27.27800 23.21700
N  49.53200 26.40200 28.92200
C  49.86500 27.23700 27.87100
C  50.32100 28.54900 28.38900
C  50.21400 28.44700 29.77300
C  49.76500 27.13300 30.10000
C  50.82300 29.74300 27.61400
C  50.50500 29.15400 31.05600
O  50.92500 30.32700 31.15800
C  50.03300 28.23400 32.21600
C  51.11600 28.04900 33.15800
O  51.84100 27.10500 33.25700
O  51.20100 29.09100 34.08600
C  52.21200 28.95900 35.16900
H  47.24400 21.66700 32.14100
H  47.69300 21.51000 25.66400
H  49.81500 27.46300 25.72900
H  49.50700 25.58300 33.98300
H  47.07100 23.79500 33.72600
H  49.46100 22.03900 33.73800
H  48.31900 22.34400 35.10200
H  49.68300 23.42700 34.73700
H  46.68300 26.05500 34.14600
H  47.53200 27.23500 33.22300
H  48.18100 28.33200 35.10100
H  48.94100 26.89700 35.88800
H  46.60700 19.84900 31.54400
H  47.30000 18.55500 30.47300
H  45.65000 19.18300 30.29500
H  45.62400 18.16500 28.27800
H  47.22000 17.44300 28.31000
H  46.28600 17.31800 26.88800
H  47.90300 23.28600 23.90400
H  49.77500 25.51700 24.03000
H  49.81100 22.08300 23.91400
H  50.85900 23.52400 24.33900
H  50.10300 23.47300 22.84500
H  47.18700 26.50200 25.04800
H  46.96400 25.38700 23.64200
H  47.75300 26.95500 22.18500
H  48.94300 27.53300 23.35800
H  47.29700 28.10600 23.60000
H  50.36400 30.66800 27.96400
H  50.41400 29.59300 26.61400
H  51.87800 29.73500 27.34100
H  49.25200 28.83500 32.68200
H  53.16900 28.64300 34.75300
H  51.90700 28.20800 35.89700
H  52.39600 29.98300 35.49600
Mg 9.73900 47.68000 25.73800
C  7.69000 48.34600 28.47200
C  12.41500 48.53100 27.71000
C  11.82600 46.87400 23.11400
C  6.96500 47.68900 23.65900
N  9.99900 48.06600 27.90700
C  9.04300 48.34900 28.79700
C  9.66500 48.57400 30.22700
C  11.08000 49.13400 29.77700
C  11.17100 48.56600 28.35900
C  11.21800 50.68200 29.70800
C  9.75200 47.22000 30.96300
C  10.31000 47.24400 32.39200
H  9.39100 46.64400 33.53000
N  11.80500 47.63500 25.44300
C  12.80200 48.04600 26.40600
C  14.15100 47.91600 25.81800
C  13.93900 47.46400 24.47000
C  12.49500 47.25700 24.33900
C  15.42200 48.32500 26.57700
C  14.98400 47.20800 23.31800
O  14.69600 46.88300 22.15500
C  16.48300 47.05900 23.72600
N  9.45500 47.27800 23.71100
C  10.40800 46.95200 22.75700
C  9.81100 46.42300 21.46600
C  8.30500 46.90000 21.68500
C  8.22000 47.30800 23.11000
C  10.51300 47.00900 20.18500
C  7.29400 45.87500 21.07700
C  6.15900 46.47400 20.21000
N  7.78500 47.92700 25.92100
C  6.71200 47.95900 25.02100
C  5.45300 48.16900 25.65400
C  5.76000 48.34200 27.02300
C  7.21100 48.20800 27.16800
C  4.10400 48.34800 25.03900
C  5.25700 48.68000 28.34800
O  4.12800 48.87600 28.57400
C  6.48500 48.66400 29.36000
C  6.02300 47.66700 30.36800
O  5.87700 46.47200 30.27500
O  5.92100 48.30200 31.55400
C  5.22300 47.57400 32.57700
H  13.25000 49.04500 28.18900
H  12.42800 46.32700 22.38600
H  6.03400 47.80600 23.10200
H  9.07300 49.24800 30.84500
H  11.84500 48.80500 30.48100
H  10.24400 51.15400 29.83900
H  11.62200 50.96700 28.73700
H  11.90700 51.10100 30.44100
H  10.30000 46.47500 30.38600
H  8.71800 46.88000 31.01400
H  10.55800 48.27800 32.63200
H  11.27100 46.73200 32.39600
H  15.25100 48.16500 27.64200
H  15.81500 49.32900 26.41700
H  16.24700 47.61800 26.48700
H  17.15500 46.93700 22.87600
H  16.53300 46.10800 24.25500
H  16.76400 47.90800 24.34900
H  9.92900 45.34700 21.34100
H  8.03500 47.79600 21.12600
H  10.99900 47.96100 20.39900
H  9.77100 47.21500 19.41400
H  11.19200 46.29400 19.72100
H  6.70800 45.38700 21.85600
H  7.81000 45.04800 20.58900
H  6.47200 47.37400 19.67900
H  5.28300 46.90700 20.69200
H  5.82000 45.73400 19.48400
H  3.92300 47.37600 24.57900
H  4.02100 49.21200 24.37900
H  3.37800 48.38000 25.85100
H  6.66600 49.58500 29.91500
H  5.96800 46.88400 32.97200
H  4.31900 47.10200 32.19300
H  4.82300 48.26300 33.32100

