158

Mg 25.58800 0.12600 29.07400
C  27.34700 -0.22400 32.07000
C  22.68900 0.25500 30.97600
C  23.91000 0.61100 26.26500
C  28.46800 -0.51400 27.24200
N  25.05700 0.09500 31.35000
C  25.96000 -0.16900 32.33600
C  25.12200 -0.09800 33.68900
C  23.62500 -0.05000 33.27500
C  23.79100 0.04000 31.82300
C  22.68900 -1.24800 33.58200
C  25.43100 1.23300 34.45800
C  25.88800 1.02000 35.95000
H  25.68600 2.22100 36.87500
N  23.58600 0.37400 28.66800
C  22.56200 0.36300 29.54700
C  21.29000 0.54800 28.80900
C  21.64800 0.67400 27.45300
C  23.10200 0.56900 27.39800
C  19.94100 0.58000 29.43900
C  20.72900 0.84100 26.25400
O  21.14400 0.88200 25.13800
C  19.29100 0.88900 26.45400
N  26.03500 -0.26500 27.03000
C  25.26000 0.31400 26.08400
C  25.93000 0.43400 24.74300
C  27.31400 -0.20700 24.97500
C  27.25600 -0.36000 26.49700
C  25.18400 -0.05900 23.53100
C  28.58500 0.56100 24.45500
C  29.50400 -0.40300 23.57300
N  27.48500 -0.18200 29.49700
C  28.57500 -0.54600 28.67900
C  29.74800 -0.74800 29.50000
C  29.44100 -0.52700 30.87000
C  27.99500 -0.25100 30.77600
C  31.18400 -1.22000 29.00900
C  29.84700 -0.53800 32.25100
O  30.93300 -0.85100 32.77800
C  28.50100 -0.29000 33.09900
C  28.33500 -1.39900 34.13500
O  27.92400 -2.56400 33.85400
O  28.85500 -1.07000 35.38700
C  28.81400 -1.95300 36.53800
H  21.80000 0.34200 31.60400
H  23.43100 0.93400 25.33800
H  29.37300 -0.81500 26.70900
H  25.44600 -0.95400 34.28000
H  23.02900 0.83300 33.50300
H  22.77500 -1.79700 34.52000
H  22.75400 -2.03200 32.82700
H  21.68300 -0.84200 33.47300
H  24.56600 1.89700 34.46800
H  26.23700 1.74400 33.93200
H  26.93200 0.71400 35.89200
H  25.29000 0.25600 36.44800
H  19.95300 0.51300 30.52700
H  19.44700 -0.23500 28.91000
H  19.44300 1.48800 29.09700
H  18.98100 1.68600 27.13100
H  19.14900 -0.11000 26.86500
H  18.82900 0.96500 25.47000
H  25.99500 1.51300 24.59800
H  27.31200 -1.27100 24.73700
H  25.11100 0.77100 22.82900
H  24.23600 -0.52700 23.79800
H  25.69200 -0.89300 23.04700
H  29.17700 0.83800 25.32800
H  28.43300 1.46300 23.86300
H  28.92500 -1.05200 22.91500
H  30.18200 -1.03000 24.15200
H  30.14800 0.16900 22.90400
H  31.39700 -0.98400 27.96700
H  31.25100 -2.27500 29.27400
H  31.86900 -0.63100 29.61900
H  28.69600 0.53600 33.78300
H  28.60700 -3.01600 36.41600
H  28.07500 -1.60200 37.25800
H  29.67200 -1.89400 37.20800
Mg 29.24200 58.87700 41.10300
C  26.08300 57.45600 40.46800
C  30.80600 56.20100 39.67500
C  32.04900 60.62600 41.39000
C  27.44700 61.95800 41.79800
N  28.48500 57.11100 40.04300
C  27.16300 56.66700 40.01900
C  27.10000 55.36700 39.26400
C  28.59200 54.94000 39.18100
C  29.38500 56.15400 39.64800
C  28.94300 53.73000 40.04200
C  26.40700 55.66100 37.85400
C  25.08900 55.02300 37.42300
H  25.03000 54.40500 36.05900
N  31.19200 58.43600 40.63300
C  31.67400 57.26100 40.11800
C  33.17100 57.41000 40.06100
C  33.52900 58.73300 40.56300
C  32.22800 59.31000 40.94700
C  34.09900 56.42500 39.39900
C  35.00600 59.23500 40.71000
O  35.84900 58.42200 40.53600
C  35.36400 60.61900 41.06900
N  29.64100 61.01000 41.27500
C  30.88000 61.38900 41.57900
C  30.89500 62.90100 41.94400
C  29.42000 63.34500 41.78900
C  28.75100 62.03200 41.56600
C  31.57300 63.30600 43.28000
C  29.24200 64.49500 40.75800
C  28.42500 65.64400 41.35800
N  27.21900 59.57000 41.23800
C  26.67400 60.82400 41.54600
C  25.23000 60.73600 41.64700
C  24.93700 59.44200 41.27200
C  26.21200 58.77100 41.01200
C  24.30800 61.78900 41.80500
C  23.85800 58.52700 41.03600
O  22.63000 58.69600 41.13900
C  24.58300 57.16300 40.46800
C  24.25000 56.09600 41.48600
O  24.62800 56.15400 42.62300
O  23.69900 54.96700 40.89600
C  23.68100 53.75700 41.74300
H  31.26600 55.23700 39.44700
H  32.98700 61.08900 41.70400
H  26.93600 62.89300 42.03500
H  26.46000 54.63100 39.75000
H  28.87300 54.60200 38.18400
H  29.96100 53.58100 40.40300
H  28.61900 52.73400 39.74000
H  28.26400 53.69100 40.89400
H  27.10200 55.42600 37.04800
H  26.21000 56.73200 37.82400
H  24.39700 55.86400 37.37000
H  24.79800 54.29600 38.18000
H  33.58400 55.46400 39.38900
H  34.96500 56.23800 40.03400
H  34.40000 56.71900 38.39400
H  35.01600 61.32800 40.31800
H  36.43900 60.78400 41.14200
H  35.02700 60.82100 42.08500
H  31.53500 63.33400 41.17500
H  28.96000 63.62300 42.73800
H  31.91700 62.39400 43.76900
H  30.84100 63.76000 43.94800
H  32.45800 63.89800 43.04500
H  28.75900 64.05600 39.88500
H  30.16500 64.94200 40.39100
H  28.99800 66.54000 41.12100
H  28.21300 65.67300 42.42600
H  27.48500 65.61700 40.80700
H  24.39600 62.49800 40.98200
H  24.51500 62.26000 42.76600
H  23.26900 61.46200 41.81800
H  24.12700 56.85200 39.52800
H  22.62700 53.55000 41.93100
H  24.30400 53.77800 42.63700
H  24.17300 53.00700 41.12500

