158

Mg 8.14600 3.17200 27.11300
C  9.74100 1.84000 29.94200
C  6.16500 5.09000 29.17100
C  6.60000 4.22100 24.36700
C  9.72600 0.57800 25.24900
N  7.91400 3.33000 29.28500
C  8.73800 2.78100 30.19900
C  8.57400 3.48400 31.58900
C  7.25500 4.30000 31.38500
C  7.11200 4.31900 29.83900
C  5.90200 3.66400 31.97300
C  9.82700 4.32000 32.09600
C  9.52500 5.04500 33.42300
H  10.53700 4.94300 34.49900
N  6.65600 4.55400 26.80400
C  5.93300 5.20800 27.77100
C  5.08500 6.18800 27.15400
C  5.19300 5.97200 25.74400
C  6.18600 4.85200 25.59800
C  4.09300 7.13400 27.85000
C  4.48200 6.67600 24.62200
O  4.71900 6.48700 23.44800
C  3.42200 7.62600 24.84800
N  8.18500 2.51400 25.11100
C  7.40600 3.10900 24.13000
C  7.54000 2.47300 22.73500
C  8.62600 1.32900 23.03000
C  8.89000 1.50200 24.55100
C  6.20200 2.06500 22.03700
C  9.83800 1.31700 22.06200
C  9.84600 0.23500 21.00100
N  9.47300 1.52800 27.45000
C  10.00500 0.61200 26.62800
C  10.94500 -0.26900 27.38600
C  10.89600 0.19400 28.66900
C  9.95600 1.26900 28.69000
C  11.67100 -1.38100 26.88900
C  11.40000 -0.01700 30.02000
O  12.19300 -0.81400 30.43100
C  10.76000 1.06300 30.89600
C  10.05000 0.34800 31.97100
O  8.87400 -0.12200 31.88800
O  10.84300 0.46900 33.12400
C  10.10100 -0.09200 34.33900
H  5.61200 5.81300 29.77300
H  6.07400 4.53500 23.46300
H  10.15400 -0.21500 24.63300
H  8.47600 2.71100 32.35100
H  7.35500 5.33900 31.70000
H  5.49800 4.12500 32.87400
H  6.08300 2.61600 32.21400
H  5.14600 3.56900 31.19400
H  10.07900 5.10900 31.38800
H  10.69200 3.66600 32.20900
H  8.53500 4.85500 33.83700
H  9.56500 6.11500 33.22100
H  3.09600 6.91100 27.47000
H  4.21700 8.18000 27.57100
H  4.07000 7.07700 28.93900
H  2.63500 7.16900 25.44900
H  2.78800 7.68000 23.96300
H  3.74500 8.52100 25.38000
H  8.01500 3.22400 22.10500
H  8.12600 0.36200 22.98800
H  5.34200 2.20700 22.69200
H  6.37300 1.02900 21.74200
H  6.11100 2.63900 21.11500
H  10.77600 1.15000 22.59200
H  9.94300 2.24900 21.50700
H  9.93800 0.71900 20.02900
H  8.85600 -0.22000 21.02800
H  10.60400 -0.54500 21.07700
H  12.69500 -1.10200 26.64100
H  11.27500 -1.57100 25.89200
H  11.53700 -2.19500 27.60200
H  11.41300 1.85300 31.26600
H  9.53700 -0.98400 34.06600
H  9.33900 0.58400 34.72700
H  10.81700 -0.33800 35.12300
Mg 16.77000 -1.35600 27.55200
C  15.60700 0.78200 29.96600
C  18.47500 -3.04300 29.76500
C  18.15200 -3.22900 24.95100
C  14.80500 0.39500 25.12200
N  17.08600 -1.06000 29.60700
C  16.51200 -0.17000 30.47200
C  16.99000 -0.38900 31.88500
C  18.02900 -1.54800 31.74400
C  17.83700 -1.93900 30.26600
C  19.41200 -1.22800 32.15800
C  15.88900 -0.67000 32.89300
C  15.88400 0.10000 34.22900
H  17.23200 0.81700 34.72100
N  18.12700 -2.88600 27.39900
C  18.70900 -3.52400 28.47400
C  19.52300 -4.60100 28.02900
C  19.45200 -4.65000 26.60400
C  18.55600 -3.54500 26.23900
C  20.23200 -5.49600 29.03600
C  19.97900 -5.70600 25.62600
O  19.77500 -5.62200 24.43500
C  20.67300 -6.95400 26.15500
N  16.55100 -1.40900 25.33600
C  17.21400 -2.18500 24.46100
C  16.76200 -1.96700 23.00200
C  15.65600 -0.86300 23.10800
C  15.60000 -0.58700 24.61600
C  17.81100 -1.67300 21.82200
C  14.25700 -1.29400 22.60400
C  13.45600 -2.36600 23.53500
N  15.41100 0.27300 27.50700
C  14.71200 0.83000 26.46500
C  13.92400 1.95900 27.06900
C  14.24000 1.95400 28.46100
C  15.13000 0.90200 28.64700
C  12.96800 3.01300 26.30900
C  13.91100 2.63500 29.65000
O  13.27400 3.64900 29.93300
C  14.74600 1.79900 30.79400
C  15.54700 2.83800 31.46400
O  16.61600 3.27300 31.09300
O  14.94400 3.25800 32.58700
C  15.57900 4.36100 33.34200
H  19.11900 -3.53200 30.49900
H  18.49600 -3.74000 24.04900
H  14.26700 0.93800 24.34200
H  17.60300 0.46800 32.16300
H  17.71800 -2.30600 32.46300
H  19.98000 -1.12100 31.23300
H  19.93700 -2.03800 32.66500
H  19.52400 -0.28100 32.68700
H  16.07600 -1.69600 33.21300
H  14.87000 -0.54900 32.52600
H  15.65800 -0.63400 35.00200
H  15.07800 0.82200 34.10000
H  20.68600 -4.82600 29.76600
H  21.00000 -6.12100 28.58000
H  19.46700 -6.19500 29.37500
H  21.62400 -6.54100 26.49300
H  20.85800 -7.58800 25.28900
H  20.13800 -7.49600 26.93500
H  16.29100 -2.90100 22.69600
H  15.93500 0.00500 22.51100
H  18.78400 -1.57500 22.30500
H  17.52400 -0.78200 21.26300
H  17.79700 -2.50300 21.11600
H  14.22400 -1.77900 21.62900
H  13.69400 -0.37800 22.42700
H  12.71000 -1.92000 24.19300
H  14.17500 -2.99300 24.06300
H  12.89200 -2.94000 22.79900
H  12.63600 3.59000 27.17200
H  12.16000 2.42000 25.88000
H  13.44500 3.57500 25.50600
H  14.09900 1.40800 31.57900
H  15.69000 5.22000 32.68000
H  16.54000 4.13800 33.80500
H  14.86700 4.61400 34.12700

