158

Mg 25.10300 -7.27600 48.01400
C  27.34600 -5.09000 46.82400
C  22.97800 -6.51700 45.36500
C  23.08300 -9.93800 48.76700
C  27.44700 -8.47800 50.21100
N  25.14500 -5.97100 46.26900
C  26.19300 -5.14000 46.01900
C  25.90100 -4.19300 44.80600
C  24.34800 -4.46000 44.63100
C  24.12500 -5.73600 45.45100
C  23.35100 -3.27100 45.08600
C  26.75200 -4.49400 43.48500
C  27.45400 -3.25900 42.88800
H  27.07900 -2.80400 41.46600
N  23.19500 -8.06900 47.23200
C  22.56400 -7.56100 46.14600
C  21.33600 -8.32300 45.89800
C  21.33400 -9.42700 46.83100
C  22.53600 -9.15600 47.70200
C  20.29900 -7.90400 44.83400
C  20.30300 -10.59300 46.81500
O  19.45200 -10.66100 45.89500
C  20.21800 -11.67400 47.82600
N  25.25000 -8.99800 49.32700
C  24.29500 -9.89900 49.53900
C  24.83600 -11.13100 50.29000
C  26.15900 -10.59600 50.78000
C  26.30900 -9.25100 50.05400
C  23.96500 -11.54000 51.57600
C  27.40300 -11.56200 50.39300
C  28.29900 -11.96400 51.60800
N  26.94800 -6.80500 48.48200
C  27.80500 -7.33100 49.48800
C  28.97100 -6.48000 49.60400
C  28.86400 -5.62100 48.54200
C  27.61500 -5.84600 47.88900
C  30.10100 -6.60000 50.59100
C  29.50700 -4.52900 47.87500
O  30.59400 -4.04200 48.01800
C  28.49300 -4.14400 46.73000
C  28.25700 -2.72700 46.94500
O  28.05000 -2.16700 48.03200
O  28.08000 -2.08400 45.76000
C  27.68200 -0.63800 45.78800
H  22.44100 -6.34000 44.43000
H  22.68700 -10.93900 48.94600
H  28.22000 -8.92600 50.84000
H  25.92000 -3.14800 45.11600
H  24.01800 -4.60700 43.60300
H  23.82300 -2.34600 45.41700
H  22.95000 -3.69100 46.00900
H  22.59400 -3.06400 44.33000
H  25.95000 -4.74000 42.78800
H  27.48000 -5.29600 43.60500
H  28.51500 -3.49500 42.80000
H  27.37700 -2.33700 43.46500
H  20.57900 -7.96700 43.78200
H  20.13000 -6.83000 44.90100
H  19.33900 -8.37800 45.04200
H  20.09800 -11.25200 48.82400
H  21.07800 -12.34000 47.74800
H  19.26500 -12.18000 47.66900
H  24.82800 -12.04100 49.68900
H  26.10600 -10.20100 51.79500
H  23.50900 -10.58800 51.85000
H  24.48500 -11.94700 52.44300
H  23.27600 -12.25600 51.12900
H  27.89900 -11.16100 49.50900
H  26.97400 -12.54100 50.17900
H  29.34400 -11.89700 51.30500
H  28.17600 -13.02100 51.84500
H  28.08200 -11.30800 52.45100
H  29.89200 -6.33300 51.62700
H  30.98000 -6.05700 50.24300
H  30.47900 -7.62300 50.57800
H  29.05300 -4.16300 45.79500
H  28.16300 -0.18100 46.65300
H  26.61500 -0.49800 45.96100
H  27.97500 -0.25500 44.81000
Mg 40.98500 41.35000 25.90900
C  40.39400 43.41900 28.55000
C  42.23900 38.98700 28.48400
C  42.46500 39.49100 23.49100
C  40.08500 43.73300 23.68000
N  41.27000 41.15000 28.24800
C  40.91900 42.23100 29.04000
C  41.08700 41.83900 30.52200
C  41.82000 40.45400 30.49200
C  41.83400 40.17900 29.00400
C  43.19500 40.51100 31.15300
C  39.71900 41.89000 31.26600
C  39.66300 42.80200 32.46300
H  39.03600 42.31400 33.85700
N  42.08900 39.47700 25.92600
C  42.34300 38.66700 27.07600
C  43.01300 37.48600 26.54900
C  43.21300 37.57500 25.17800
C  42.56600 38.87300 24.80700
C  43.23900 36.22000 27.36800
C  43.79300 36.58100 24.06800
O  43.91600 36.81400 22.88700
C  44.16600 35.20100 24.54900
N  41.23400 41.51000 23.96000
C  41.87400 40.69300 23.14900
C  41.68500 41.07400 21.62400
C  40.65600 42.17100 21.75600
C  40.66200 42.55200 23.22300
C  42.91100 41.36400 20.78300
C  39.22600 41.84500 21.23400
C  38.32400 40.77500 21.99700
N  40.30400 43.24500 26.05600
C  39.94700 44.12200 25.04200
C  39.69100 45.39000 25.61100
C  39.83900 45.17900 27.00900
C  40.20700 43.82400 27.22600
C  39.39000 46.68100 24.89400
C  39.68300 45.80300 28.28200
O  39.36100 46.93900 28.66600
C  39.97100 44.69900 29.35500
C  41.03300 45.28000 30.27700
O  42.24200 44.95300 30.24500
O  40.39600 46.06400 31.24100
C  41.31500 46.85700 32.03000
H  42.56200 38.24300 29.21500
H  42.97400 39.06900 22.62200
H  39.79500 44.39400 22.86000
H  41.73200 42.58700 30.98400
H  41.19800 39.74400 31.03800
H  43.94600 40.59700 30.36800
H  43.48400 39.63700 31.73700
H  43.40900 41.35300 31.81100
H  39.23600 40.96300 31.57400
H  39.02800 42.36100 30.56600
H  38.94000 43.57900 32.21300
H  40.62200 43.31500 32.51600
H  44.25700 35.84000 27.28100
H  42.52200 35.46600 27.04300
H  43.17000 36.45000 28.43100
H  45.09500 35.32700 25.10400
H  44.27900 34.42500 23.79100
H  43.47400 34.75300 25.26200
H  41.20900 40.20000 21.17900
H  41.04600 43.06800 21.27500
H  43.83600 41.64300 21.28800
H  42.72400 42.06500 19.96900
H  43.00500 40.47400 20.16100
H  39.25000 41.65000 20.16200
H  38.73600 42.78200 21.49800
H  37.89300 41.28700 22.85700
H  38.82800 39.83100 22.20900
H  37.53000 40.59100 21.27400
H  38.92100 46.42500 23.94500
H  40.34300 47.16100 24.67000
H  38.68400 47.27100 25.47900
H  39.06200 44.53900 29.93400
H  42.22800 47.08300 31.47900
H  41.57500 46.39100 32.98000
H  40.80800 47.79600 32.25600

