158

Mg 53.63300 24.04700 44.62600
C  50.90700 25.95800 43.56900
C  52.06200 21.33400 43.27300
C  56.48300 22.56300 45.02500
C  55.08000 27.17300 45.88400
N  51.76100 23.70700 43.42400
C  50.83700 24.61600 43.07700
C  49.72900 23.97700 42.16800
C  49.80800 22.50200 42.57100
C  51.31000 22.47800 43.07200
C  48.80300 22.10000 43.68800
C  50.03500 24.36500 40.70700
C  48.89300 24.82300 39.76400
H  49.20700 25.23900 38.31900
N  54.20300 22.09500 44.28500
C  53.42200 21.10000 43.69800
C  54.08300 19.86200 43.86600
C  55.41400 20.20100 44.33400
C  55.44800 21.70200 44.58500
C  53.44500 18.56500 43.38700
C  56.52600 19.17900 44.48100
O  56.39300 17.96800 44.24600
C  57.83400 19.57100 45.01500
N  55.57300 24.84700 45.18100
C  56.58700 23.92600 45.26100
C  57.83500 24.52800 45.96200
C  57.36500 26.12100 45.99200
C  55.90700 26.03800 45.69400
C  58.32800 24.00200 47.37600
C  58.07100 27.00200 44.90400
C  58.92600 28.05300 45.55700
N  53.21500 26.18300 44.71700
C  53.79600 27.25900 45.34000
C  52.86400 28.39800 45.36900
C  51.75300 27.91200 44.70100
C  51.99600 26.51100 44.31800
C  53.06300 29.70900 45.95500
C  50.42800 28.23900 44.26600
O  49.80900 29.26600 44.39100
C  49.83600 26.97700 43.52800
C  49.29200 27.39200 42.26600
O  49.96800 27.71300 41.31200
O  47.92100 27.43500 42.27400
C  47.17400 27.84900 41.03200
H  51.43200 20.45900 43.09300
H  57.49000 22.14000 45.03700
H  55.57200 28.03500 46.34000
H  48.71800 24.28800 42.43200
H  49.71200 21.90600 41.66300
H  49.26400 21.21200 44.12100
H  47.88800 21.81000 43.17200
H  48.63700 22.92500 44.38100
H  50.49900 23.48500 40.26200
H  50.75800 25.17500 40.79200
H  48.23500 25.55500 40.23200
H  48.24300 23.95000 39.69800
H  52.44600 18.39000 43.78800
H  54.08300 17.69200 43.52300
H  53.40100 18.78200 42.32000
H  57.54500 20.11500 45.91400
H  58.43200 20.25600 44.41300
H  58.39600 18.68900 45.32200
H  58.70200 24.42500 45.30900
H  57.55100 26.41600 47.02500
H  58.03700 22.96100 47.52000
H  57.88000 24.56000 48.19800
H  59.39500 24.11000 47.57000
H  57.33400 27.38800 44.20100
H  58.87900 26.46200 44.41100
H  59.97900 27.81400 45.41000
H  58.83500 28.14200 46.63900
H  58.81200 29.04400 45.11800
H  52.59900 30.31400 45.17600
H  54.12700 29.92700 46.04600
H  52.58800 29.73200 46.93600
H  49.02100 26.57100 44.12800
H  46.58800 28.72700 41.30100
H  46.54700 27.04300 40.65000
H  47.85600 28.05400 40.20700
Mg -10.67000 39.64200 41.76900
C  -9.44000 36.54600 40.37000
C  -8.14600 41.28500 40.17600
C  -12.39200 42.35200 42.31900
C  -13.62600 37.64100 42.57100
N  -9.07100 38.96900 40.32700
C  -8.65500 37.69800 40.00900
C  -7.30200 37.72000 39.30900
C  -6.96300 39.25900 39.18000
C  -8.09600 39.93900 39.91400
C  -5.50600 39.62700 39.63400
C  -7.37000 36.99600 37.84800
C  -6.52600 35.71700 37.77200
H  -5.46300 35.64400 36.65700
N  -10.31500 41.58200 41.37500
C  -9.25400 42.09300 40.67500
C  -9.33000 43.57100 40.63800
C  -10.64100 43.89600 41.15300
C  -11.18300 42.59400 41.72300
C  -8.27900 44.57400 40.09300
C  -11.36100 45.24400 41.07100
O  -10.84500 46.12600 40.35000
C  -12.58000 45.59800 41.84100
N  -12.71900 39.92200 42.41000
C  -13.12500 41.17300 42.67600
C  -14.59500 41.17100 43.15200
C  -14.94200 39.67200 43.30500
C  -13.68400 39.03400 42.67300
C  -14.89100 42.06400 44.39900
C  -16.27900 39.19300 42.56200
C  -17.36100 38.46800 43.34500
N  -11.33100 37.49200 41.70700
C  -12.52100 36.88400 42.08900
C  -12.46000 35.44000 41.80900
C  -11.25200 35.29700 41.21400
C  -10.65800 36.59000 41.10100
C  -13.45200 34.40000 42.15200
C  -10.35700 34.30300 40.68700
O  -10.48900 33.09400 40.51700
C  -9.10500 35.06100 40.29500
C  -8.01500 34.65000 41.25900
O  -7.80800 35.19000 42.33100
O  -7.33100 33.55600 40.77000
C  -6.36700 32.84400 41.65600
H  -7.28900 41.88300 39.86000
H  -13.02500 43.22600 42.48300
H  -14.41200 36.94400 42.86900
H  -6.58700 37.25200 39.98500
H  -6.97600 39.52700 38.12400
H  -5.09600 38.66100 39.92700
H  -5.46400 40.38200 40.42000
H  -4.92600 39.91400 38.75800
H  -7.05400 37.65800 37.04200
H  -8.44100 36.81100 37.77400
H  -7.09500 34.81700 37.53500
H  -6.07900 35.52400 38.74700
H  -7.40500 44.01000 39.76600
H  -7.98900 45.38200 40.76500
H  -8.75600 45.00500 39.21300
H  -13.47700 45.31500 41.29100
H  -12.62500 46.68000 41.97200
H  -12.54100 45.07300 42.79500
H  -15.20500 41.61300 42.36300
H  -14.89600 39.38500 44.35500
H  -15.52300 42.89700 44.09300
H  -13.98200 42.35900 44.92500
H  -15.50400 41.50500 45.10700
H  -15.95400 38.50500 41.78100
H  -16.74600 40.04800 42.07400
H  -18.34600 38.92700 43.43000
H  -17.10700 38.19200 44.36800
H  -17.63700 37.57500 42.78500
H  -13.34800 34.04500 43.17800
H  -13.34400 33.48600 41.56900
H  -14.42200 34.84500 41.92800
H  -8.83200 34.63500 39.33000
H  -5.78200 33.61100 42.16400
H  -5.66100 32.24300 41.08300
H  -6.88000 32.22900 42.39400

