158

Mg 47.29400 25.32400 28.81000
C  48.51100 27.61200 31.24000
C  46.11700 23.40200 31.39300
C  46.94700 22.68200 26.75200
C  49.08800 26.93900 26.46000
N  47.31200 25.50900 31.04700
C  47.73500 26.58300 31.80500
C  47.26100 26.41000 33.22500
C  46.74400 24.96300 33.29400
C  46.62900 24.64300 31.82300
C  47.45100 23.84100 34.23900
C  46.31500 27.63600 33.65600
C  45.46800 27.54900 34.90400
H  46.09400 27.86300 36.19500
N  46.44200 23.47900 28.96800
C  45.98800 22.83600 30.11200
C  45.37400 21.58800 29.80200
C  45.46300 21.40500 28.45000
C  46.32800 22.53200 27.99700
C  44.77500 20.67000 30.88500
C  44.85700 20.29100 27.51600
O  44.96900 20.25200 26.32200
C  44.13900 19.10200 28.13000
N  47.93400 24.92600 26.82500
C  47.59900 23.78600 26.18300
C  48.15700 23.75400 24.73300
C  48.51500 25.28600 24.55600
C  48.47600 25.74600 26.01800
C  49.40100 22.87100 24.51600
C  47.43400 26.18500 23.78700
C  47.99100 27.07800 22.67000
N  48.44100 27.03900 28.72300
C  49.16400 27.53300 27.70900
C  49.87500 28.71200 28.11100
C  49.60600 28.86400 29.51700
C  48.82100 27.73700 29.86100
C  50.62400 29.61700 27.13000
C  49.85300 29.65100 30.69200
O  50.43300 30.69100 30.86300
C  49.16000 28.86500 31.88400
C  50.27400 28.55900 32.81200
O  51.39600 28.11800 32.49100
O  49.85600 28.68700 34.13700
C  50.77200 28.08700 35.17700
H  45.70400 22.72200 32.14200
H  46.64400 21.96700 25.98400
H  49.51200 27.43400 25.58300
H  48.17500 26.44600 33.81800
H  45.69800 25.04500 33.59100
H  48.39100 24.19200 34.66400
H  47.72800 22.92300 33.72000
H  46.66300 23.54500 34.93200
H  45.69000 27.57500 32.76500
H  46.80900 28.60700 33.65200
H  45.00300 26.56300 34.92200
H  44.60200 28.20800 34.84000
H  44.90800 21.01500 31.91100
H  45.28200 19.71200 31.00500
H  43.70900 20.51200 30.72600
H  43.19000 19.41400 28.56500
H  44.62200 18.72700 29.03200
H  43.98100 18.36800 27.34000
H  47.30200 23.53300 24.09400
H  49.52900 25.47200 24.20200
H  49.75600 22.29400 25.36900
H  50.26600 23.37600 24.08600
H  49.21700 22.16900 23.70200
H  46.92000 26.81200 24.51600
H  46.71100 25.50900 23.33000
H  47.17100 27.06700 21.95200
H  48.93400 26.73900 22.24200
H  48.13900 28.07800 23.07700
H  51.19700 30.36400 27.67900
H  49.92800 30.08200 26.43300
H  51.32400 28.93700 26.64500
H  48.49600 29.60300 32.33400
H  50.29100 27.58200 36.01400
H  51.33400 28.90900 35.62000
H  51.54600 27.46400 34.72900
Mg 7.02500 53.92100 41.38800
C  5.83100 50.77400 40.47600
C  10.18100 53.15600 40.44500
C  7.81100 57.40800 41.44000
C  3.65900 54.80700 42.11500
N  7.82000 52.22400 40.32400
C  7.16100 51.02000 40.12300
C  8.18200 49.91500 39.71700
C  9.54400 50.62600 40.13600
C  9.21500 52.11400 40.24100
C  10.24800 50.04800 41.42500
C  8.02300 49.49200 38.23600
C  7.00900 50.02400 37.18900
H  6.67800 49.17900 36.01600
N  8.78000 55.04800 41.01700
C  9.95300 54.52300 40.63300
C  10.95500 55.49700 40.72600
C  10.34200 56.76100 40.98400
C  8.84800 56.45600 41.15300
C  12.42300 55.25300 40.28300
C  10.98200 58.08200 41.07300
O  12.19600 58.11200 40.80000
C  10.34400 59.36900 41.42100
N  5.88300 55.86500 41.73100
C  6.42200 57.10000 41.60200
C  5.37900 58.19300 41.94000
C  4.11800 57.36100 42.25200
C  4.51700 55.92700 41.96400
C  5.81600 59.31000 43.00300
C  2.82300 57.74400 41.42400
C  1.81300 58.66100 42.15700
N  5.08600 52.98200 41.52400
C  3.87400 53.49900 41.78200
C  2.92400 52.40900 41.77100
C  3.62900 51.33300 41.21800
C  4.94300 51.73500 41.05900
C  1.47900 52.44000 42.25100
C  3.56700 49.82300 40.89300
O  2.69300 48.99600 41.03300
C  5.01700 49.49700 40.57900
C  4.90200 48.54700 39.38000
O  4.28500 48.65600 38.35600
O  5.67800 47.39000 39.66200
C  5.50700 46.20800 38.77000
H  11.25200 52.96700 40.54200
H  8.06000 58.46000 41.59700
H  2.62600 55.01400 42.40500
H  7.99500 49.06000 40.36700
H  10.26300 50.44400 39.33700
H  10.63700 50.91500 41.95900
H  11.05200 49.38900 41.09800
H  9.56200 49.43100 42.00500
H  7.82800 48.42500 38.13000
H  8.90900 49.63700 37.61700
H  7.23800 51.04700 36.89100
H  6.04100 50.25100 37.63500
H  12.68300 55.99100 39.52500
H  12.54400 54.23400 39.91700
H  13.06300 55.43300 41.14700
H  9.84800 59.13300 42.36300
H  9.76100 59.59900 40.52900
H  11.12700 60.10600 41.59700
H  5.16600 58.66800 40.98200
H  3.93800 57.39400 43.32600
H  6.83900 59.15200 43.34400
H  5.10400 59.33000 43.82800
H  5.69300 60.25300 42.46900
H  2.30300 56.86300 41.04800
H  3.08400 58.23400 40.48600
H  0.96700 58.05900 42.48800
H  1.50500 59.53100 41.57800
H  2.24800 59.05900 43.07400
H  1.44700 52.71600 43.30500
H  1.05800 51.45400 42.05900
H  1.04300 53.21900 41.62500
H  5.33700 48.93200 41.45500
H  5.30900 45.26000 39.27100
H  6.31300 45.99200 38.06900
H  4.70000 46.25800 38.03900

