158

Mg -1.71600 17.89700 27.38600
C  -2.53600 15.81000 29.99700
C  -2.61100 20.61900 29.37600
C  -1.19400 19.94100 24.77200
C  -1.32000 15.16000 25.28600
N  -2.37700 18.16900 29.50400
C  -2.74100 17.20400 30.35400
C  -3.10500 17.79100 31.72000
C  -3.44200 19.29700 31.29100
C  -2.80500 19.38700 29.98000
C  -4.90200 19.72500 31.25400
C  -1.95300 17.69700 32.71500
C  -2.19800 17.14000 34.12200
H  -1.01500 16.98400 35.05100
N  -1.62700 19.93300 27.20800
C  -1.97600 20.93300 28.14600
C  -1.78200 22.25000 27.56400
C  -1.40100 22.09700 26.19400
C  -1.36300 20.62400 26.02500
C  -2.19900 23.47900 28.33100
C  -1.23300 23.16600 25.03500
O  -0.81800 22.79600 23.94600
C  -1.29600 24.55300 25.45300
N  -1.40700 17.61300 25.25900
C  -1.16700 18.58000 24.39900
C  -0.97400 18.09900 23.01400
C  -0.80700 16.57700 23.22500
C  -1.21000 16.38600 24.69900
C  -2.08700 18.47800 21.97600
C  0.66600 16.00400 22.89800
C  1.85400 16.67600 23.65900
N  -1.94400 15.90100 27.53300
C  -1.72500 14.89300 26.64900
C  -1.80100 13.62900 27.34400
C  -2.09300 13.89600 28.66700
C  -2.16900 15.37100 28.72400
C  -1.85100 12.28800 26.73900
C  -2.37500 13.30000 29.92900
O  -2.34900 12.13900 30.31000
C  -2.67300 14.53400 30.82800
C  -1.65100 14.34600 31.90100
O  -0.49600 14.70000 31.78800
O  -2.16900 13.69700 32.95500
C  -1.22600 13.04600 33.88400
H  -2.88200 21.41200 30.07700
H  -0.88900 20.58000 23.94000
H  -1.11900 14.27800 24.67300
H  -3.97000 17.30300 32.16900
H  -3.00400 19.99000 32.01000
H  -5.51500 18.86200 31.51100
H  -5.17500 20.11400 30.27200
H  -5.11900 20.42400 32.06200
H  -1.66000 18.71100 32.98700
H  -1.13700 17.14100 32.25400
H  -2.50900 16.12100 33.89200
H  -2.97300 17.74400 34.59300
H  -1.35500 24.16700 28.38000
H  -2.50700 23.29600 29.36000
H  -3.06300 23.88400 27.80300
H  -2.30300 24.85100 25.74600
H  -0.98000 25.19000 24.62700
H  -0.51600 24.69800 26.20000
H  -0.02100 18.55200 22.74300
H  -1.44500 16.01500 22.54300
H  -2.80800 19.14600 22.44800
H  -2.57800 17.73000 21.35400
H  -1.52200 19.10600 21.28700
H  0.90500 16.32000 21.88300
H  0.69700 14.91500 22.88500
H  1.54100 17.20000 24.56200
H  2.56100 17.29100 23.10300
H  2.45000 15.81700 23.96900
H  -2.73800 11.76500 27.09500
H  -0.92500 11.76800 26.98500
H  -2.02500 12.45900 25.67700
H  -3.65100 14.49900 31.30900
H  -1.27900 11.97400 33.69200
H  -1.56200 13.17200 34.91300
H  -0.17700 13.31300 33.75600
Mg 25.70600 1.22100 29.11500
C  27.69500 0.74900 31.94100
C  22.94000 1.56900 31.31000
C  23.76100 1.40600 26.43300
C  28.57300 0.32000 27.08900
N  25.37200 1.17000 31.30800
C  26.40900 1.13300 32.24400
C  25.93400 1.33500 33.68100
C  24.35300 1.24200 33.49000
C  24.18200 1.39100 31.93400
C  23.73300 -0.08900 34.02900
C  26.50600 2.69600 34.34000
C  27.16100 2.66100 35.69700
H  26.53600 3.53600 36.83500
N  23.59400 1.44200 28.92600
C  22.67000 1.54600 29.92900
C  21.35500 1.70600 29.34000
C  21.62900 1.61900 27.91500
C  23.02500 1.51800 27.69000
C  20.10200 1.86000 30.14400
C  20.67300 1.80800 26.71200
O  21.09000 1.78000 25.59000
C  19.20900 2.12800 26.94800
N  26.05800 0.99100 27.08700
C  25.10600 1.08900 26.15100
C  25.65900 0.73100 24.70200
C  27.14500 0.33300 24.98000
C  27.25800 0.56800 26.46700
C  24.83300 -0.38000 24.03700
C  28.19700 0.98900 23.99700
C  28.63400 0.12100 22.81300
N  27.76600 0.71600 29.36400
C  28.75600 0.38600 28.49600
C  29.97800 0.09800 29.26900
C  29.58400 0.18500 30.57200
C  28.29100 0.59900 30.63000
C  31.40400 -0.05700 28.79500
C  30.10400 0.11900 31.88400
O  31.30500 -0.00200 32.33800
C  28.84600 0.42300 32.87300
C  28.61900 -0.62700 33.85700
O  27.95500 -1.68700 33.66600
O  29.24300 -0.33200 35.06000
C  28.96400 -1.29400 36.10400
H  22.18600 1.67000 32.09300
H  23.32000 1.57200 25.44800
H  29.31500 -0.15000 26.44000
H  26.23500 0.51000 34.32700
H  23.82800 2.04000 34.01400
H  23.32400 -0.09600 35.04000
H  24.51400 -0.84800 33.97100
H  22.98000 -0.52300 33.37200
H  25.77600 3.49200 34.48200
H  27.28100 3.11100 33.69500
H  28.21000 2.95700 35.67200
H  27.17600 1.64300 36.08600
H  19.64700 0.87900 30.00500
H  19.48500 2.62700 29.67600
H  20.27400 2.00400 31.21100
H  18.57400 1.97900 26.07500
H  19.06900 3.18500 27.17400
H  18.69700 1.43800 27.61800
H  25.58200 1.63500 24.09800
H  27.19200 -0.75000 24.86600
H  24.19200 -0.83800 24.79000
H  25.49700 -1.08600 23.53800
H  24.24300 0.04600 23.22600
H  29.02500 1.35700 24.60200
H  27.62700 1.85900 23.67100
H  28.52400 0.50000 21.79800
H  28.02100 -0.77500 22.90800
H  29.66100 -0.20100 22.98700
H  31.56900 0.11100 27.73100
H  31.48000 -1.12900 28.97600
H  32.06800 0.59400 29.36400
H  29.13600 1.32300 33.41500
H  29.27100 -2.28400 35.76800
H  27.91400 -1.33700 36.39400
H  29.47100 -1.06300 37.04100

