158

Mg 36.74900 49.32400 24.93100
C  36.62500 47.29800 27.75600
C  34.94700 51.68600 26.68000
C  36.19100 50.87900 22.01300
C  38.03600 46.49500 23.12400
N  35.79800 49.39300 26.88700
C  36.13400 48.61000 27.98700
C  35.65600 49.15300 29.38200
C  34.88500 50.40500 28.86600
C  35.19100 50.50400 27.36900
C  33.43700 50.52100 29.29700
C  36.81100 49.33300 30.40400
C  36.39100 48.88500 31.86000
H  34.88700 48.85900 32.24500
N  35.88900 51.20000 24.45600
C  35.16300 52.00000 25.27700
C  34.80300 53.14200 24.52800
C  35.21000 52.94000 23.10500
C  35.84800 51.66800 23.19000
C  34.04100 54.22400 25.12500
C  35.13800 53.85100 21.93800
O  35.40600 53.53500 20.78900
C  34.61600 55.27700 22.04600
N  37.13900 48.85100 22.94300
C  36.70900 49.64100 21.89300
C  37.18900 49.02500 20.52800
C  38.08200 47.80300 20.99500
C  37.73300 47.65600 22.44000
C  35.97800 48.53100 19.65800
C  39.56700 47.88200 20.68500
C  40.34600 48.99400 21.38400
N  37.32100 47.33100 25.34500
C  37.83400 46.30800 24.53000
C  38.00500 45.07700 25.32400
C  37.55400 45.46100 26.61500
C  37.14200 46.81100 26.56700
C  38.36200 43.74000 24.77500
C  37.26300 44.96600 27.90500
O  37.33200 43.83300 28.35600
C  36.68200 46.17900 28.76900
C  35.34600 45.75300 29.19700
O  34.43600 45.62500 28.46500
O  35.33100 45.38400 30.50500
C  34.26400 44.45500 30.93100
H  34.34900 52.37200 27.28400
H  35.96700 51.32600 21.04200
H  38.44700 45.60500 22.64200
H  34.91600 48.42900 29.72500
H  35.40400 51.21200 29.38300
H  32.84100 50.97300 28.50400
H  33.42500 51.17700 30.16800
H  32.93600 49.64800 29.71600
H  37.09200 50.38600 30.42100
H  37.66100 48.75400 30.04200
H  36.90600 49.51400 32.58700
H  36.78900 47.88600 32.03500
H  33.86400 54.24800 26.20000
H  33.10800 54.31500 24.56800
H  34.65400 55.11500 24.98300
H  34.60100 55.86900 21.13000
H  35.33900 55.87800 22.59700
H  33.60700 55.39500 22.43900
H  37.77800 49.77900 20.00800
H  37.73000 46.90500 20.48700
H  36.06200 47.53400 19.22500
H  35.93600 49.28000 18.86700
H  35.12900 48.58900 20.33900
H  39.71900 47.97200 19.60900
H  40.00500 46.96000 21.06600
H  40.00800 49.17000 22.40500
H  40.06700 49.89900 20.84500
H  41.42600 48.86600 21.30700
H  37.91900 43.68200 23.78100
H  37.81800 42.93800 25.27300
H  39.43000 43.53100 24.70100
H  37.39200 46.41600 29.56200
H  33.52000 45.08800 31.41500
H  34.55300 43.92100 31.83500
H  33.90800 43.73500 30.19400
Mg 9.98700 48.24700 26.49500
C  8.20500 48.24400 29.38600
C  12.66300 49.58100 28.21600
C  11.67300 48.30600 23.59000
C  7.03900 47.33500 24.66200
N  10.35200 48.88700 28.47200
C  9.50700 48.68100 29.57200
C  10.12900 49.19000 30.89900
C  11.24600 50.13200 30.37200
C  11.46300 49.50700 28.94300
C  11.07200 51.70000 30.29200
C  10.64900 48.13100 31.84600
C  10.34600 48.25800 33.34700
H  10.13900 46.99900 34.19900
N  11.92200 48.72500 25.95000
C  12.89800 49.22400 26.86100
C  14.08600 49.44400 26.09200
C  13.85900 49.11100 24.71600
C  12.44900 48.70700 24.70900
C  15.27300 50.20500 26.75500
C  14.77400 49.22100 23.51200
O  14.43400 48.85200 22.40900
C  16.24200 49.49800 23.73800
N  9.34600 47.91500 24.40000
C  10.31000 47.87300 23.42000
C  9.70300 47.45400 22.06400
C  8.24600 46.94000 22.55100
C  8.17600 47.43300 23.92100
C  9.58300 48.67500 21.19000
C  8.03900 45.37700 22.37100
C  9.03800 44.41000 23.14200
N  8.03300 47.93600 26.92100
C  6.95000 47.53800 26.11100
C  5.75800 47.36900 26.87200
C  6.20700 47.52400 28.20900
C  7.60600 47.92600 28.13400
C  4.40700 47.20500 26.33100
C  5.81300 47.60700 29.58700
O  4.68300 47.48000 29.98500
C  7.11800 47.96100 30.44500
C  7.41200 46.83800 31.36200
O  8.20900 45.98400 31.10700
O  6.59400 46.80500 32.49000
C  6.78400 45.60600 33.35100
H  13.51100 50.10300 28.66400
H  12.21500 48.13400 22.65800
H  6.11900 46.90000 24.26700
H  9.33100 49.71600 31.42200
H  12.19000 49.91500 30.87300
H  10.17700 51.87300 30.89000
H  10.75600 51.96000 29.28200
H  11.92800 52.26100 30.66800
H  11.72900 48.27100 31.86500
H  10.45100 47.14700 31.42000
H  9.55000 48.98400 33.51200
H  11.21500 48.69700 33.83700
H  16.05000 49.55200 27.15300
H  15.01600 50.97300 27.48500
H  15.64900 50.81700 25.93500
H  16.25300 50.57500 23.57300
H  16.85500 49.09800 22.93000
H  16.50200 49.08200 24.71100
H  10.38100 46.63900 21.80600
H  7.43300 47.39600 21.98600
H  9.19900 49.52600 21.75300
H  8.87700 48.58900 20.36400
H  10.56300 49.06300 20.91200
H  8.30900 45.33600 21.31600
H  6.99000 45.21100 22.61700
H  9.40100 44.98700 23.99200
H  9.84600 44.01900 22.52300
H  8.48600 43.55600 23.53400
H  4.19500 48.05800 25.68600
H  3.73800 47.01900 27.17100
H  4.34900 46.27000 25.77400
H  7.04100 48.74700 31.19600
H  5.85900 45.03000 33.39900
H  7.14800 45.95900 34.31600
H  7.63200 44.95900 33.12700

