158

Mg 26.34200 51.69100 26.31700
C  23.94100 52.68400 28.79700
C  28.32000 50.43100 28.92000
C  28.60500 50.66200 24.04100
C  24.18200 52.82900 23.88600
N  26.15600 51.69500 28.62200
C  25.09400 52.13100 29.39200
C  25.29900 51.80200 30.87300
C  26.78600 51.21000 30.88900
C  27.13500 51.08000 29.39900
C  27.87100 52.03000 31.72500
C  24.29800 50.83200 31.55600
C  24.03800 51.04000 33.04400
H  24.22100 49.84300 33.93900
N  28.32000 50.77500 26.41700
C  28.91500 50.34700 27.61800
C  30.17700 49.73800 27.30500
C  30.28900 49.72900 25.83900
C  29.01700 50.44600 25.37200
C  31.08900 49.18100 28.31300
C  31.51000 49.27400 25.03400
O  31.63700 49.55900 23.85800
C  32.58200 48.43900 25.68400
N  26.47800 51.97000 24.14300
C  27.57900 51.41900 23.44500
C  27.26900 51.41900 21.99600
C  25.71900 51.83200 21.94500
C  25.38800 52.30800 23.32000
C  28.23500 52.26100 21.13000
C  24.75700 50.69600 21.35400
C  23.95300 50.92100 20.06400
N  24.51900 52.75600 26.30200
C  23.80300 53.15400 25.21500
C  22.66100 53.81400 25.65100
C  22.61900 53.66300 27.02300
C  23.78900 52.93100 27.38100
C  21.56900 54.20900 24.76900
C  21.86500 53.83000 28.29900
O  20.79500 54.38500 28.44900
C  22.68600 53.13000 29.47200
C  22.98700 54.15600 30.46200
O  23.46900 55.29800 30.30900
O  22.61200 53.67400 31.67600
C  22.54300 54.52700 32.85200
H  29.05700 50.11500 29.66200
H  29.27900 50.13200 23.36400
H  23.41300 52.98600 23.12600
H  25.25200 52.74900 31.41100
H  26.76400 50.16900 31.21000
H  28.75300 52.25000 31.12400
H  28.03300 51.45300 32.63500
H  27.37900 52.94700 32.04900
H  24.66100 49.80500 31.58200
H  23.32700 50.74800 31.06800
H  23.05400 51.50700 33.09500
H  24.65000 51.89900 33.32000
H  30.65700 49.30200 29.30700
H  32.00300 49.77300 28.34100
H  31.21300 48.12500 28.07400
H  33.33000 48.14600 24.94700
H  32.20800 47.55000 26.19200
H  32.91200 49.20600 26.38500
H  27.30400 50.38400 21.65600
H  25.66600 52.69800 21.28500
H  29.23500 51.91700 21.39600
H  28.15700 53.24900 21.58500
H  27.95700 52.33000 20.07800
H  24.20500 50.20500 22.15600
H  25.36900 49.84800 21.04800
H  24.06000 50.28400 19.18600
H  24.24900 51.87200 19.62100
H  22.94700 51.15200 20.41600
H  21.86400 55.18000 24.37200
H  20.60500 54.29700 25.27100
H  21.53000 53.41600 24.02200
H  22.05500 52.36900 29.93200
H  21.50600 54.79100 33.06200
H  23.05900 55.47800 32.72200
H  23.06500 54.10700 33.71200
Mg -10.54000 39.49000 41.68400
C  -10.14800 36.11500 41.12400
C  -7.34900 40.04800 40.45600
C  -11.22300 42.78900 41.80200
C  -13.70300 38.75700 43.06400
N  -8.97500 38.18200 40.76100
C  -8.98100 36.86500 40.71300
C  -7.73500 36.26600 40.06300
C  -6.74400 37.55300 40.25300
C  -7.73000 38.65900 40.58400
C  -5.69900 37.43200 41.36500
C  -8.05100 35.91600 38.60000
C  -7.38400 34.63400 38.10400
H  -6.34500 34.89300 37.02400
N  -9.50400 41.19500 41.04700
C  -8.19200 41.21800 40.57400
C  -7.80800 42.55000 40.44300
C  -8.88700 43.41900 40.79100
C  -9.96700 42.44800 41.28600
C  -6.42500 42.90500 39.96800
C  -8.85200 44.97300 40.75000
O  -7.85600 45.56600 40.35400
C  -10.13200 45.74900 41.16800
N  -12.30500 40.60400 42.19700
C  -12.28200 41.99900 42.22700
C  -13.64500 42.59700 42.71800
C  -14.42200 41.27700 43.22300
C  -13.43200 40.09800 42.84000
C  -13.52800 43.77900 43.73300
C  -15.89000 41.03200 42.68700
C  -17.04700 40.85900 43.72300
N  -11.82600 37.83000 41.95800
C  -13.01100 37.64800 42.62200
C  -13.31400 36.20900 42.79400
C  -12.19700 35.60400 42.23200
C  -11.32600 36.63300 41.77600
C  -14.49000 35.58000 43.45900
C  -11.63900 34.38300 41.89400
O  -12.00600 33.25600 42.11000
C  -10.28500 34.61800 41.06500
C  -9.12900 33.72700 41.60600
O  -8.62100 33.80200 42.73700
O  -8.64700 32.83700 40.68200
C  -7.43900 32.09300 41.07300
H  -6.28100 40.15600 40.25800
H  -11.39100 43.84500 42.02600
H  -14.61800 38.48700 43.59500
H  -7.30600 35.43800 40.62600
H  -6.26800 37.88600 39.33100
H  -4.81900 37.95100 40.98600
H  -5.53600 36.38200 41.60500
H  -6.10900 37.96000 42.22600
H  -7.60200 36.71800 38.01500
H  -9.13700 35.82700 38.54900
H  -8.18700 33.99500 37.73600
H  -6.89400 34.10000 38.91700
H  -6.35700 42.86500 38.88100
H  -5.68500 42.22000 40.38300
H  -6.00200 43.88300 40.19900
H  -10.20600 45.77700 42.25600
H  -11.03900 45.39300 40.68100
H  -9.93800 46.77100 40.84300
H  -14.19600 42.93400 41.84000
H  -14.53100 41.22500 44.30600
H  -12.49400 44.08100 43.89700
H  -14.02600 43.53200 44.67100
H  -14.05700 44.65900 43.36800
H  -15.90400 40.06800 42.17800
H  -16.20700 41.66800 41.86100
H  -17.37900 39.82100 43.72500
H  -17.88100 41.48900 43.41100
H  -16.72700 41.20000 44.70800
H  -14.37400 34.51100 43.64200
H  -15.35300 35.81000 42.83400
H  -14.52500 36.02300 44.45400
H  -10.49700 34.44600 40.01000
H  -6.74100 32.64700 41.70100
H  -6.81600 31.87900 40.20400
H  -7.76400 31.14600 41.50300

