158

Mg 49.63500 46.89300 42.59100
C  46.37000 47.08300 41.24600
C  49.67600 43.51200 41.90600
C  53.04800 47.01100 42.88400
C  49.56900 50.41700 43.06700
N  48.20700 45.57100 41.64600
C  46.92300 45.76700 41.18600
C  46.18900 44.40500 40.81700
C  47.29400 43.36600 41.12500
C  48.51700 44.20300 41.64900
C  46.95200 42.26200 42.20900
C  45.79300 44.52700 39.27600
C  44.38600 43.97600 38.88200
H  43.97500 44.35600 37.44400
N  51.14500 45.48200 42.52900
C  50.89200 44.16600 42.30000
C  52.13600 43.43300 42.52100
C  53.14800 44.44700 42.72200
C  52.46100 45.74100 42.74200
C  52.26000 41.90700 42.62600
C  54.64200 44.08600 42.82700
O  55.02700 42.91600 42.74900
C  55.76500 45.12000 43.00400
N  51.05900 48.46900 42.91900
C  52.37300 48.22400 43.03700
C  53.18200 49.46800 43.53200
C  52.05700 50.67000 43.49900
C  50.82300 49.79900 43.21500
C  53.81800 49.27400 44.95600
C  52.35900 51.91300 42.55300
C  53.25900 53.04300 43.15900
N  48.20600 48.54300 42.29100
C  48.30600 49.89600 42.52300
C  46.98400 50.49800 42.23000
C  46.21600 49.43700 41.75900
C  46.99300 48.25400 41.77400
C  46.60700 51.85600 42.46300
C  44.92300 49.12600 41.14100
O  44.05600 49.86000 40.72900
C  44.93800 47.55800 40.89800
C  43.91300 46.90800 41.80700
O  44.06500 46.61100 42.95900
O  42.65700 46.88300 41.29100
C  41.55000 46.93200 42.15400
H  49.84300 42.45000 41.71800
H  54.12000 47.21700 42.90800
H  49.59700 51.49500 43.23900
H  45.31800 44.32500 41.46800
H  47.55200 42.83600 40.20800
H  47.19500 41.25300 41.87500
H  45.87200 42.36200 42.31700
H  47.36400 42.43800 43.20300
H  46.46200 43.80200 38.81300
H  46.01800 45.49100 38.82000
H  43.59800 44.51100 39.41200
H  44.27300 42.89900 39.00900
H  52.93800 41.69700 43.45300
H  52.66600 41.49000 41.70500
H  51.38300 41.40400 43.03400
H  55.75600 45.76600 42.12600
H  56.71500 44.60500 43.14300
H  55.60600 45.74300 43.88400
H  53.98000 49.63200 42.80800
H  51.84700 51.05900 44.49600
H  53.46900 49.98700 45.70200
H  54.88500 49.38400 44.76100
H  53.52700 48.30400 45.35900
H  51.40300 52.27400 42.17400
H  52.85200 51.57100 41.64200
H  53.87300 52.65000 43.96900
H  52.59900 53.90300 43.27300
H  54.00200 53.39000 42.44000
H  47.18500 52.61300 41.93300
H  46.66500 51.99400 43.54200
H  45.53800 51.98000 42.28900
H  44.74100 47.40700 39.83600
H  41.39400 47.98900 42.37100
H  41.43000 46.27700 43.01700
H  40.75700 46.56700 41.50100
Mg 6.00500 53.57500 41.36700
C  5.42500 50.12200 40.79200
C  8.97000 53.37600 39.82000
C  6.10500 56.94500 41.39700
C  2.73500 53.77200 42.76100
N  6.88800 51.92400 40.25200
C  6.57600 50.58900 40.18600
C  7.63100 49.90800 39.31200
C  8.85000 50.85300 39.36500
C  8.16700 52.22400 39.83300
C  10.00300 50.35600 40.26800
C  6.95800 49.77100 37.89600
C  7.30100 48.49000 37.15800
H  6.37600 47.83900 36.17400
N  7.37600 54.97300 40.82600
C  8.57500 54.71000 40.21900
C  9.35600 55.85700 40.06800
C  8.57300 56.93400 40.47600
C  7.25500 56.34600 40.89600
C  10.85600 55.72100 39.59800
C  9.06900 58.40100 40.44100
O  10.12200 58.70800 39.86600
C  8.21100 59.56700 40.91000
N  4.60500 55.14900 41.87100
C  4.89200 56.47100 41.75200
C  3.71000 57.41100 42.12100
C  2.73200 56.34300 42.66400
C  3.34700 55.00900 42.40700
C  4.10400 58.52400 43.17800
C  1.31500 56.57800 42.15100
C  0.61100 57.86600 42.65900
N  4.41100 52.27400 41.75100
C  3.18900 52.46200 42.39100
C  2.59600 51.18200 42.62900
C  3.37800 50.18900 41.92700
C  4.52600 50.88800 41.51500
C  1.30600 50.97400 43.49600
C  3.58700 48.83700 41.69200
O  2.81200 47.91500 41.91400
C  4.91700 48.69300 40.96500
C  4.93800 47.71800 39.87300
O  4.57300 47.89800 38.71900
O  5.33500 46.51000 40.29500
C  5.06300 45.30300 39.47700
H  9.93100 53.24600 39.31900
H  6.29300 58.01800 41.47800
H  1.79500 53.87900 43.30700
H  7.75100 48.91800 39.75300
H  9.28500 51.01600 38.37900
H  9.73800 49.45000 40.81400
H  10.31400 51.12300 40.97700
H  10.78700 50.07900 39.56200
H  7.25200 50.54300 37.18500
H  5.87200 49.86200 37.93600
H  7.48000 47.83100 38.00700
H  8.25400 48.60300 36.64300
H  11.51800 56.52100 39.93000
H  10.95100 55.57000 38.52200
H  11.25700 54.80700 40.03600
H  8.77600 60.49300 40.80800
H  7.84300 59.40900 41.92400
H  7.38800 59.45400 40.20500
H  3.39700 57.86500 41.18100
H  2.71500 56.50900 43.74100
H  5.06900 58.28700 43.62600
H  3.38100 58.63700 43.98600
H  4.29200 59.43100 42.60400
H  0.62500 55.79200 42.45900
H  1.33900 56.55500 41.06200
H  -0.29500 57.68800 43.23900
H  0.41800 58.50000 41.79300
H  1.30800 58.39100 43.31200
H  1.21200 49.88800 43.51700
H  0.48400 51.46600 42.97600
H  1.52000 51.28400 44.51900
H  5.62400 48.29700 41.69300
H  4.01000 45.05300 39.34700
H  5.51900 44.44300 39.96600
H  5.53900 45.37600 38.49900

