158

Mg 25.64400 1.46200 29.74200
C  27.58800 1.00300 32.64600
C  22.84900 1.52500 31.72100
C  23.69800 1.11100 26.94400
C  28.46300 0.67400 27.80200
N  25.19900 1.15600 31.95300
C  26.19100 1.09600 32.92000
C  25.56700 1.14200 34.33300
C  24.07400 1.51200 33.97700
C  23.99400 1.35600 32.49000
C  22.97900 0.83000 34.79300
C  26.27500 2.18600 35.28600
C  25.39000 3.03400 36.10300
H  25.91200 3.25700 37.62300
N  23.58700 1.51700 29.38200
C  22.57800 1.62800 30.35400
C  21.28300 1.79200 29.72300
C  21.51300 1.64500 28.37300
C  22.97400 1.40600 28.15000
C  20.00400 1.98800 30.55500
C  20.44900 1.75000 27.30100
O  20.62000 1.42600 26.09900
C  19.07300 2.30900 27.65300
N  26.02400 1.01100 27.69100
C  25.07500 0.94400 26.79300
C  25.77400 0.97500 25.37800
C  27.27900 0.83900 25.59400
C  27.22500 0.84400 27.14200
C  25.27800 0.05500 24.18500
C  28.06200 1.95200 25.01500
C  29.51500 1.67700 24.73500
N  27.62200 0.93000 30.11100
C  28.65800 0.64200 29.21500
C  29.82300 0.25100 29.90300
C  29.50300 0.48300 31.24900
C  28.13500 0.87500 31.29900
C  31.03400 -0.32700 29.29800
C  30.03000 0.39500 32.60300
O  31.15000 0.06100 33.00200
C  28.81700 0.67500 33.59000
C  28.60600 -0.54500 34.54000
O  27.86200 -1.49300 34.33100
O  29.18000 -0.31200 35.76100
C  29.14200 -1.54500 36.61900
H  22.06100 1.78000 32.43400
H  23.14700 0.97300 26.01200
H  29.30900 0.41200 27.16400
H  25.47100 0.19500 34.86300
H  23.82300 2.56700 34.09100
H  22.17100 1.54200 34.96300
H  23.37000 0.47700 35.74700
H  22.56900 0.03600 34.16900
H  26.68800 2.92600 34.60200
H  27.01600 1.70300 35.92400
H  24.42000 2.57100 36.28200
H  25.24000 3.97900 35.58100
H  20.25900 2.12800 31.60600
H  19.48500 1.03500 30.45700
H  19.30500 2.72200 30.15400
H  18.40800 1.98400 26.85300
H  19.14200 3.38500 27.81300
H  18.53400 1.79200 28.44600
H  25.56500 1.96100 24.96200
H  27.67800 -0.16700 25.46000
H  24.63100 -0.69400 24.64300
H  26.12800 -0.40200 23.67900
H  24.66800 0.70100 23.55300
H  27.95700 2.76300 25.73600
H  27.72300 2.30700 24.04200
H  30.10700 2.29100 25.41300
H  29.79900 1.84800 23.69600
H  29.65600 0.64300 25.04900
H  31.53600 0.59500 29.00400
H  30.97400 -0.82900 28.33200
H  31.60900 -0.96300 29.97100
H  29.10400 1.53300 34.19900
H  29.15700 -2.49600 36.08600
H  28.26800 -1.55800 37.27100
H  30.00600 -1.40300 37.26800
Mg 48.02500 34.79300 27.67700
C  45.94000 33.34700 30.19300
C  48.32300 37.46300 29.85700
C  49.17000 36.70700 25.17300
C  47.19200 32.17300 25.55000
N  47.10600 35.38100 29.74200
C  46.44200 34.60800 30.66100
C  46.72200 34.96100 32.08500
C  47.05600 36.44600 31.85200
C  47.60800 36.39100 30.42900
C  45.99400 37.51100 32.25000
C  47.99400 34.15200 32.47900
C  48.31100 34.18100 33.89200
H  47.37300 35.02700 34.82300
N  48.80500 36.77800 27.61600
C  48.84200 37.69900 28.56800
C  49.37500 39.00200 28.06400
C  49.65300 38.76300 26.67100
C  49.14200 37.40300 26.43200
C  49.46200 40.24400 28.97000
C  50.25100 39.69600 25.66000
O  50.33100 39.44500 24.46000
C  50.82400 40.93200 26.16600
N  48.11800 34.50400 25.67800
C  48.72700 35.40300 24.84000
C  48.82400 34.88800 23.40200
C  48.48900 33.35000 23.62000
C  47.88800 33.31600 25.04100
C  47.81500 35.61000 22.51000
C  49.74500 32.47000 23.61900
C  49.90000 31.39500 22.55500
N  46.90700 33.04500 27.83300
C  46.67800 32.00800 26.88000
C  46.10400 30.91000 27.59400
C  45.72000 31.42200 28.85100
C  46.25800 32.68800 28.96600
C  45.82000 29.52900 27.13200
C  45.13800 31.06100 30.10600
O  44.78400 29.94400 30.40700
C  45.02400 32.32500 30.95300
C  45.35500 31.94100 32.42200
O  46.25900 31.23300 32.79400
O  44.37400 32.46900 33.28500
C  44.44000 32.33100 34.72500
H  48.33200 38.31400 30.54100
H  49.47600 37.38500 24.37300
H  47.17400 31.26800 24.94000
H  45.83800 34.82400 32.70800
H  47.83800 36.63000 32.58900
H  45.03800 37.02900 32.45900
H  45.66500 38.10300 31.39700
H  46.28100 38.02200 33.16900
H  48.86200 34.52200 31.93200
H  47.79000 33.14200 32.12300
H  49.27500 34.68200 33.97500
H  48.27400 33.15900 34.26900
H  50.45500 40.58500 29.26000
H  49.01400 40.18400 29.96200
H  48.80600 41.02600 28.58600
H  51.50000 41.39400 25.44600
H  51.47200 40.65800 26.99900
H  50.03200 41.65300 26.36600
H  49.84100 35.01500 23.03100
H  47.74200 33.06500 22.87900
H  47.12500 36.23900 23.07400
H  47.18200 34.86200 22.03300
H  48.43600 36.21600 21.85100
H  49.81100 31.84600 24.51000
H  50.56900 33.18200 23.57000
H  49.09900 31.47800 21.82000
H  49.97900 30.40200 22.99800
H  50.78300 31.52200 21.92900
H  46.21600 28.80700 27.84700
H  46.22100 29.34900 26.13400
H  44.75400 29.41800 26.93500
H  44.02900 32.76500 30.89300
H  45.46200 32.21900 35.08700
H  43.94800 31.43700 35.10900
H  44.02600 33.13300 35.33600

