158

Mg 2.35800 -1.46800 44.29100
C  5.38200 -0.02700 43.26600
C  0.64200 0.83500 42.40700
C  -0.45600 -3.10200 44.97900
C  4.21300 -4.20200 45.57600
N  2.97500 0.22800 43.14500
C  4.25100 0.64900 42.80400
C  4.18300 1.85500 41.86000
C  2.62900 2.21500 41.76600
C  2.02400 0.97700 42.47800
C  2.16300 3.64700 42.40300
C  4.99100 1.72200 40.58000
C  6.03600 2.82600 40.23000
H  5.93800 3.52900 38.85700
N  0.26200 -1.17000 43.82400
C  -0.17900 -0.16900 42.99300
C  -1.59800 -0.32900 42.79400
C  -1.95100 -1.48600 43.51100
C  -0.70500 -1.97400 44.08900
C  -2.38700 0.64700 41.93000
C  -3.34500 -2.09100 43.49400
O  -4.24700 -1.68300 42.78900
C  -3.65200 -3.32800 44.33200
N  1.92900 -3.46400 45.10700
C  0.72300 -3.68200 45.55500
C  0.71500 -4.97000 46.38500
C  2.24000 -5.41600 46.37400
C  2.81300 -4.28600 45.70000
C  0.05800 -5.00300 47.87000
C  2.43400 -6.83700 45.74200
C  3.36400 -7.66600 46.57200
N  4.33300 -2.08800 44.35400
C  4.91300 -3.20500 44.93000
C  6.36800 -3.16900 44.68900
C  6.57200 -1.91000 44.08900
C  5.32600 -1.26100 43.96400
C  7.27600 -4.19300 45.29400
C  7.55600 -0.97900 43.65200
O  8.79500 -1.10100 43.70500
C  6.84700 0.29300 43.07100
C  7.27700 1.47300 43.85900
O  6.85800 1.68300 44.98100
O  8.27100 2.24500 43.25600
C  8.78500 3.38900 44.04500
H  0.02500 1.54700 41.85400
H  -1.36100 -3.53500 45.41200
H  4.71700 -5.03100 46.07800
H  4.65200 2.67700 42.40000
H  2.31200 2.24300 40.72300
H  1.44700 3.61100 43.22500
H  1.67300 4.17800 41.58800
H  2.99200 4.22400 42.81100
H  4.32700 1.68800 39.71600
H  5.42000 0.72400 40.66400
H  6.99000 2.30100 40.17100
H  5.96200 3.52200 41.06500
H  -2.64000 0.24100 40.95100
H  -1.96200 1.63500 41.75300
H  -3.34600 0.86200 42.40100
H  -4.68300 -3.54600 44.05300
H  -3.59100 -3.01800 45.37500
H  -2.98200 -4.12000 43.99900
H  0.12000 -5.69000 45.82300
H  2.53900 -5.41200 47.42200
H  0.09800 -4.12000 48.50700
H  0.68500 -5.63700 48.49700
H  -0.96100 -5.33200 47.66800
H  3.01500 -6.73500 44.82600
H  1.57300 -7.45800 45.49500
H  3.36300 -8.65300 46.11000
H  3.01700 -7.71800 47.60400
H  4.31800 -7.14000 46.60000
H  7.21900 -5.08900 44.67600
H  7.01700 -4.59100 46.27500
H  8.25900 -3.79700 45.03500
H  7.32100 0.58600 42.13500
H  9.49700 3.10400 44.81900
H  7.96600 3.86600 44.58400
H  9.14200 4.22100 43.43800
Mg 41.83000 40.72500 26.40200
C  41.02500 43.13800 28.80700
C  42.77400 38.56200 28.73800
C  42.63700 38.76800 23.92800
C  41.26200 43.35300 24.02100
N  42.00100 40.90200 28.52600
C  41.56900 41.94700 29.33600
C  41.56800 41.50100 30.79500
C  42.23200 40.05800 30.74400
C  42.27300 39.81300 29.24700
C  43.59100 39.83200 31.38700
C  40.14600 41.68900 31.46100
C  39.74000 40.80100 32.67500
H  39.03000 41.40500 33.83900
N  42.46100 38.87900 26.38500
C  42.84300 38.08100 27.43800
C  43.18100 36.77500 26.93900
C  43.08600 36.79900 25.46200
C  42.75300 38.17000 25.18000
C  43.52500 35.62000 27.88400
C  43.32900 35.71000 24.48700
O  43.05900 35.73600 23.31400
C  43.67900 34.35100 24.98400
N  42.10900 41.08000 24.20900
C  42.30200 40.00300 23.44400
C  42.16800 40.35700 21.92000
C  41.41900 41.77100 21.96400
C  41.53000 42.11000 23.53900
C  43.58500 40.44700 21.27400
C  40.01200 41.73100 21.32500
C  39.09500 40.73000 22.07000
N  41.25100 42.77000 26.33600
C  41.07900 43.63700 25.34700
C  40.66000 44.98700 25.84200
C  40.64800 44.80300 27.24000
C  40.93800 43.43900 27.47900
C  40.50700 46.21000 25.00400
C  40.27900 45.43700 28.54500
O  39.74000 46.50800 28.84300
C  40.52400 44.33700 29.65200
C  41.38000 44.77600 30.77000
O  42.58500 44.81100 30.67000
O  40.53000 45.10000 31.85200
C  41.37200 45.60700 32.89100
H  42.95300 37.92500 29.60700
H  42.75200 37.98500 23.17500
H  40.93800 44.13200 23.32800
H  42.22200 42.27300 31.20100
H  41.55000 39.34300 31.20600
H  43.85100 40.84800 31.68400
H  44.28400 39.32900 30.71200
H  43.44300 39.10900 32.19000
H  39.32600 41.58300 30.75000
H  40.15000 42.68000 31.91500
H  40.65400 40.32700 33.03200
H  39.16300 39.95000 32.31200
H  44.54500 35.23900 27.85100
H  42.91000 34.77500 27.57400
H  43.25000 35.80400 28.92300
H  44.46300 34.44400 25.73600
H  44.12000 33.82000 24.14100
H  42.92100 33.83700 25.57600
H  41.50600 39.61900 21.46700
H  42.11400 42.47500 21.50700
H  44.21400 39.70800 21.77100
H  44.03100 41.43600 21.37600
H  43.42400 40.16600 20.23300
H  40.06400 41.33700 20.31000
H  39.51500 42.69900 21.26300
H  39.57200 40.19100 22.88900
H  38.57700 40.04600 21.39900
H  38.28200 41.30600 22.51200
H  41.16600 46.24300 24.13600
H  40.80600 47.01000 25.68100
H  39.51500 46.42300 24.60400
H  39.56100 44.12100 30.11500
H  42.17300 46.24700 32.52100
H  41.84000 44.78800 33.43800
H  40.80000 46.28500 33.52400

