158

Mg 35.80300 1.77100 29.03200
C  33.47200 2.90100 31.44800
C  38.24400 1.95700 31.31400
C  37.90400 1.30600 26.49100
C  33.07500 2.05500 26.66200
N  35.81000 2.52300 31.07400
C  34.78600 2.67400 31.94500
C  35.24300 2.80600 33.47300
C  36.83800 2.70600 33.33600
C  36.99000 2.29500 31.85300
C  37.65600 3.91600 33.78500
C  34.62300 1.75100 34.35600
C  34.24200 2.38400 35.76600
H  35.05800 3.58700 36.31900
N  37.75600 1.59100 28.90400
C  38.63300 1.60900 29.98800
C  40.02700 1.25200 29.49800
C  39.91100 1.03000 28.09300
C  38.48800 1.34700 27.80400
C  41.17700 0.95000 30.48800
C  41.15100 0.68700 27.15500
O  41.01600 0.56200 25.96600
C  42.50100 0.45000 27.71100
N  35.53400 1.70500 26.89100
C  36.59200 1.62200 26.07400
C  36.14100 1.79200 24.62700
C  34.55700 1.71300 24.60800
C  34.38000 1.76300 26.13800
C  36.67200 3.12900 24.04700
C  33.94300 0.49200 23.92100
C  34.04100 0.49900 22.36500
N  33.78400 2.30600 29.01000
C  32.86800 2.40500 27.99900
C  31.55900 2.87000 28.46600
C  31.79600 3.06900 29.84900
C  33.15500 2.78700 30.06600
C  30.28200 3.06800 27.77200
C  31.13400 3.46000 31.12500
O  29.93400 3.60200 31.40600
C  32.21900 3.38000 32.18800
C  32.34500 4.70200 32.85400
O  33.11000 5.62800 32.54300
O  31.53900 4.78200 33.98900
C  31.68700 5.94900 34.90100
H  39.07600 2.01700 32.01900
H  38.63500 1.03200 25.72800
H  32.25000 2.10700 25.94800
H  34.88400 3.78900 33.77500
H  37.17900 1.80900 33.85300
H  38.20300 4.46400 33.01800
H  38.46800 3.57500 34.42700
H  37.02500 4.60900 34.34100
H  35.33200 0.93100 34.47200
H  33.65000 1.50100 33.93500
H  34.27500 1.58300 36.50400
H  33.18000 2.62900 35.73400
H  40.78100 0.81200 31.49400
H  41.81900 1.82800 30.55800
H  41.72500 0.03800 30.24900
H  43.09200 0.39500 26.79800
H  42.49700 -0.54300 28.16200
H  42.82400 1.25900 28.36700
H  36.52100 0.95400 24.04200
H  34.15300 2.61200 24.14300
H  37.45600 3.63000 24.61400
H  35.92000 3.81600 23.65800
H  36.96900 2.83900 23.03900
H  32.95100 0.27900 24.32000
H  34.55400 -0.30400 24.34500
H  34.94900 -0.01000 22.04100
H  34.10200 1.50400 21.94800
H  33.20800 -0.03900 21.91200
H  29.69600 2.14900 27.74500
H  30.58800 3.43100 26.79100
H  29.67100 3.88200 28.16300
H  31.97700 2.59100 32.90000
H  30.83400 6.62300 34.81900
H  32.61900 6.48500 34.72100
H  31.59500 5.69900 35.95800
Mg -11.74300 38.25600 42.33500
C  -9.53000 35.61900 41.78700
C  -9.23100 40.34600 41.41100
C  -14.02300 40.66700 42.21500
C  -14.25700 35.89100 42.86300
N  -9.61600 37.99200 41.71000
C  -8.91100 36.82200 41.50600
C  -7.48900 37.08800 40.94400
C  -7.28900 38.56900 41.19400
C  -8.78500 39.06000 41.50400
C  -6.27200 39.17200 42.24600
C  -7.27800 36.55900 39.42200
C  -6.32700 35.30400 39.24900
H  -6.54500 34.35600 38.09800
N  -11.67200 40.25800 41.82900
C  -10.53400 40.95600 41.62600
C  -10.89200 42.37900 41.53200
C  -12.29300 42.51500 41.64900
C  -12.73000 41.12800 41.84800
C  -9.87900 43.48600 41.23200
C  -13.11200 43.85700 41.54500
O  -12.55500 44.97200 41.34100
C  -14.55800 43.79600 41.59500
N  -13.80600 38.30600 42.48800
C  -14.47400 39.42400 42.48800
C  -16.06000 39.17700 42.60700
C  -16.00700 37.64700 42.98700
C  -14.63300 37.27500 42.74000
C  -16.61300 40.07600 43.77700
C  -17.14900 36.85800 42.32300
C  -16.81900 36.23700 40.92100
N  -11.94500 36.14500 42.42400
C  -13.02000 35.31200 42.53300
C  -12.61900 33.92200 42.57300
C  -11.22400 33.98300 42.27800
C  -10.89500 35.37200 42.17800
C  -13.57800 32.80700 42.75500
C  -9.98500 33.26200 41.93900
O  -9.89600 32.02500 41.75300
C  -8.86000 34.24200 41.73900
C  -7.71200 34.13800 42.71200
O  -7.70600 34.75000 43.79700
O  -6.72000 33.39000 42.19600
C  -5.46200 33.22300 42.92100
H  -8.40100 41.05300 41.35400
H  -14.80800 41.42300 42.27100
H  -14.97500 35.16300 43.24600
H  -6.82600 36.59700 41.65500
H  -6.94400 38.95900 40.23700
H  -5.74800 38.43600 42.85500
H  -6.80000 39.85500 42.91300
H  -5.51200 39.74300 41.71200
H  -6.81200 37.31100 38.78600
H  -8.21100 36.28500 38.93000
H  -6.15300 34.78400 40.19100
H  -5.35700 35.78000 39.11100
H  -9.98900 43.66800 40.16300
H  -8.92600 43.07100 41.56000
H  -10.04900 44.35900 41.86200
H  -15.02000 43.04500 40.95500
H  -14.92300 44.78300 41.31200
H  -14.88200 43.70800 42.63200
H  -16.49600 39.36200 41.62600
H  -16.10100 37.56800 44.07000
H  -15.81500 40.64400 44.25500
H  -17.12100 39.59100 44.61200
H  -17.39400 40.74800 43.42100
H  -18.03500 37.49200 42.30000
H  -17.28300 36.01700 43.00300
H  -17.65900 36.36900 40.23900
H  -16.68700 35.16200 41.04500
H  -16.01500 36.72100 40.36700
H  -13.92600 32.70900 43.78300
H  -13.05300 31.90000 42.45700
H  -14.39700 32.94400 42.04800
H  -8.51600 34.01000 40.73000
H  -4.70400 32.95700 42.18400
H  -5.41900 32.55200 43.77800
H  -5.13400 34.19400 43.29300

