158

Mg 27.04100 51.22100 26.14000
C  25.12700 52.14200 29.03100
C  29.39700 50.04900 28.38500
C  28.98900 50.72800 23.54200
C  24.65200 52.81200 24.11600
N  27.24200 51.16800 28.44300
C  26.31100 51.40100 29.39900
C  26.73900 50.97600 30.72400
C  28.24500 50.47400 30.57300
C  28.32500 50.58500 29.04000
C  29.28600 51.45200 31.17500
C  25.67500 49.91500 31.30200
C  24.91800 50.32200 32.60600
H  24.63300 49.22300 33.71700
N  28.86300 50.48200 25.97300
C  29.69400 49.99700 26.97300
C  30.90800 49.54600 26.39600
C  30.87900 49.75700 24.98100
C  29.55100 50.35300 24.80700
C  31.97700 48.72100 27.15200
C  31.93900 49.50400 24.01100
O  31.84800 49.86700 22.84800
C  33.25400 48.87700 24.45000
N  26.79400 51.56800 24.09600
C  27.76500 51.28800 23.18600
C  27.26800 51.58100 21.67500
C  25.79200 52.15100 21.93400
C  25.75500 52.25200 23.43100
C  28.22400 52.47800 20.78800
C  24.65600 51.21100 21.34300
C  23.55300 52.04700 20.71800
N  25.28700 52.24800 26.41200
C  24.44800 52.81900 25.50900
C  23.38200 53.43500 26.17700
C  23.57500 53.20400 27.51100
C  24.78800 52.49500 27.65500
C  22.23900 54.08700 25.60600
C  22.97300 53.34400 28.84900
O  21.93100 53.81200 29.25700
C  23.98300 52.71200 29.80500
C  24.47200 53.87100 30.70200
O  25.04100 54.87200 30.34100
O  24.23200 53.47300 32.02400
C  24.82100 54.48600 32.96500
H  30.04400 49.71600 29.20000
H  29.60900 50.52100 22.66800
H  24.04900 53.47000 23.48700
H  26.82400 51.81700 31.41200
H  28.33300 49.44700 30.92800
H  28.76900 52.29700 31.63000
H  29.99000 51.84600 30.44200
H  29.88300 50.87800 31.88300
H  26.20600 49.03300 31.66000
H  24.95400 49.50500 30.59500
H  23.92900 50.71800 32.37500
H  25.38800 51.20500 33.03800
H  32.87700 49.33500 27.12800
H  32.20600 47.75900 26.69500
H  31.74400 48.67700 28.21600
H  33.93200 48.71800 23.61000
H  33.00900 47.87800 24.81000
H  33.72800 49.54500 25.16800
H  27.24200 50.60100 21.19900
H  25.72700 53.18900 21.60800
H  28.86100 51.92400 20.09900
H  28.92200 53.08600 21.36300
H  27.57500 53.18100 20.26700
H  24.26100 50.45800 22.02500
H  25.02900 50.65200 20.48400
H  22.62400 51.71700 21.18300
H  23.43600 52.01100 19.63500
H  23.70700 53.09100 20.99400
H  21.50400 54.11600 26.41100
H  21.90300 53.42000 24.81300
H  22.43300 55.08800 25.22000
H  23.50100 51.85000 30.26700
H  23.98700 55.16900 33.12500
H  25.77900 54.92900 32.69200
H  24.98800 54.03900 33.94500
Mg -1.08400 34.01400 26.88100
C  -2.86400 32.49500 29.30600
C  0.15000 36.25100 29.28700
C  0.33400 35.92800 24.41100
C  -2.68800 32.17700 24.49400
N  -1.45200 34.33800 29.10900
C  -2.06700 33.42200 29.88400
C  -1.68500 33.63300 31.41100
C  -0.83400 34.98300 31.31900
C  -0.72300 35.25500 29.78300
C  -1.27300 36.18400 32.18000
C  -1.04500 32.30400 31.98900
C  -1.92200 31.59900 33.13600
H  -1.25600 31.41700 34.53500
N  0.09300 35.77700 26.88100
C  0.47000 36.52100 27.98800
C  1.33800 37.56000 27.54900
C  1.38500 37.52300 26.11900
C  0.59400 36.38100 25.72700
C  2.01400 38.51200 28.51300
C  2.10800 38.37900 25.09600
O  2.04700 38.23000 23.88300
C  2.93400 39.53400 25.60400
N  -1.19800 34.03900 24.72800
C  -0.37000 34.83300 23.95600
C  -0.35400 34.38600 22.49600
C  -1.42800 33.21600 22.48900
C  -1.72900 33.03100 24.01500
C  -0.62400 35.40900 21.41400
C  -1.03700 31.98600 21.57400
C  -0.37800 30.74000 22.31800
N  -2.53800 32.67700 26.85800
C  -3.13900 31.98400 25.82500
C  -4.14300 31.16100 26.34200
C  -4.06800 31.22800 27.72400
C  -3.08100 32.20000 28.00500
C  -5.03700 30.18200 25.55700
C  -4.60600 30.77200 28.98700
O  -5.47500 29.92900 29.16900
C  -3.77500 31.56400 30.09200
C  -4.83100 32.23000 30.88100
O  -5.30400 33.30400 30.53800
O  -5.19300 31.47800 32.00500
C  -6.34200 32.03500 32.77900
H  0.67900 36.81300 30.05900
H  0.70600 36.54300 23.58900
H  -3.00200 31.51400 23.68500
H  -2.60600 33.98200 31.87800
H  0.22300 35.00300 31.58800
H  -2.00100 35.83000 32.90900
H  -1.78800 36.89200 31.53000
H  -0.45900 36.76500 32.61400
H  -0.08800 32.57100 32.43600
H  -0.86000 31.51400 31.26100
H  -2.19300 30.58000 32.86100
H  -2.79500 32.18800 33.41500
H  3.06500 38.59500 28.23800
H  1.94100 38.12600 29.52900
H  1.59300 39.51800 28.51500
H  3.03600 40.37200 24.91400
H  3.90400 39.11400 25.86700
H  2.40400 39.87900 26.49200
H  0.64200 33.96500 22.35900
H  -2.42000 33.55600 22.19200
H  -1.02800 36.32300 21.84800
H  -1.27000 34.94700 20.66700
H  0.38400 35.61800 21.05600
H  -0.28500 32.30900 20.85400
H  -1.91100 31.64200 21.01900
H  0.49100 30.46300 21.72100
H  -1.05300 29.88500 22.36300
H  -0.15100 31.10500 23.32000
H  -4.55000 29.70800 24.70400
H  -5.89700 30.64400 25.07200
H  -5.23900 29.36500 26.25000
H  -3.31400 30.75100 30.65300
H  -6.95300 32.75900 32.24000
H  -5.74300 32.47300 33.57700
H  -6.94400 31.21300 33.16500

