158

Mg -9.55400 39.30700 42.11900
C  -8.96700 35.87800 41.74800
C  -6.55700 39.92000 40.71800
C  -10.58900 42.51600 41.71000
C  -12.79700 38.60100 43.48100
N  -8.08400 38.06100 41.25800
C  -7.94100 36.66900 41.22900
C  -6.70400 36.17800 40.48200
C  -5.84500 37.41400 40.65900
C  -6.90100 38.61000 40.93200
C  -4.89700 37.44000 41.90500
C  -7.00900 35.71800 39.01000
C  -5.77600 35.18800 38.28000
H  -4.99500 36.02500 37.29200
N  -8.73700 40.98300 41.24200
C  -7.46700 41.06000 40.75800
C  -7.20600 42.41500 40.53400
C  -8.43000 43.08900 40.54800
C  -9.31600 42.17100 41.21900
C  -5.81600 42.88300 40.12800
C  -8.70100 44.50000 40.00300
O  -7.78200 45.08600 39.51100
C  -10.10500 45.12100 39.80300
N  -11.46200 40.40400 42.54200
C  -11.54500 41.75800 42.30100
C  -12.88100 42.33500 42.77300
C  -13.65500 41.00800 43.16200
C  -12.53900 39.94300 43.16100
C  -12.90900 43.34400 44.01000
C  -14.75300 40.65000 42.13100
C  -16.18400 40.77100 42.63000
N  -10.71200 37.63200 42.58900
C  -11.96100 37.50900 43.17200
C  -12.25900 36.09700 43.19600
C  -11.09700 35.42300 42.70400
C  -10.16300 36.41600 42.30700
C  -13.49500 35.44300 43.60900
C  -10.50500 34.13700 42.45600
O  -10.90200 33.03900 42.67900
C  -9.12300 34.38300 41.79200
C  -8.11500 33.65400 42.58600
O  -8.16400 33.29900 43.76300
O  -7.06700 33.32100 41.74800
C  -5.87300 32.68500 42.33300
H  -5.58500 40.09100 40.25100
H  -10.90800 43.55800 41.77600
H  -13.79400 38.45800 43.90300
H  -6.18300 35.42000 41.06700
H  -5.30600 37.74100 39.77100
H  -5.35600 37.87200 42.79400
H  -4.09400 38.11900 41.61900
H  -4.59600 36.40200 42.04800
H  -7.48000 36.51100 38.43100
H  -7.69000 34.87000 38.92300
H  -6.05400 34.25300 37.79400
H  -5.02800 35.00700 39.05200
H  -5.60600 42.61400 39.09300
H  -5.00700 42.64400 40.81800
H  -5.73200 43.96600 40.03700
H  -10.45000 45.55700 40.74000
H  -10.84600 44.36400 39.54600
H  -10.10300 45.95400 39.10000
H  -13.35600 42.89600 41.96800
H  -14.10400 41.07400 44.15300
H  -13.14500 42.72100 44.87300
H  -13.75700 44.01900 43.89700
H  -11.87900 43.70000 43.99500
H  -14.55000 39.64700 41.75300
H  -14.53700 41.28600 41.27300
H  -16.65100 41.66800 42.22400
H  -16.32900 40.80500 43.71000
H  -16.65700 39.88400 42.21000
H  -13.67900 35.76300 44.63400
H  -13.34600 34.36400 43.57000
H  -14.35800 35.78600 43.03800
H  -9.06600 34.14700 40.72900
H  -5.23200 32.21400 41.58800
H  -6.14100 31.91700 43.05900
H  -5.40700 33.49000 42.90100
Mg -5.26400 25.57800 26.26800
C  -3.66200 26.75500 29.07200
C  -6.89700 23.28300 28.37100
C  -6.52500 23.99000 23.57200
C  -3.17500 27.43600 24.18400
N  -5.31500 25.10800 28.45100
C  -4.64300 25.77600 29.40300
C  -5.20400 25.58700 30.84400
C  -5.85900 24.23400 30.62100
C  -6.10400 24.25400 29.11700
C  -5.06700 22.95200 31.14200
C  -6.08000 26.71500 31.42500
C  -5.87600 27.12500 32.94200
H  -5.58500 26.01500 33.92400
N  -6.50900 23.88200 25.94900
C  -7.08000 23.08600 26.96200
C  -7.79700 21.96000 26.33400
C  -7.63100 22.07700 24.91800
C  -6.83200 23.35500 24.75400
C  -8.35300 20.84200 27.20100
C  -8.13000 21.20000 23.75700
O  -7.97000 21.51500 22.54100
C  -8.89700 19.93900 24.07300
N  -4.89200 25.66900 24.21200
C  -5.64900 25.01400 23.31900
C  -5.14000 25.28500 21.87300
C  -4.34500 26.64200 22.03900
C  -4.01200 26.55400 23.54100
C  -4.39800 24.10800 21.22900
C  -5.05300 28.01900 21.72000
C  -5.78000 28.27900 20.33300
N  -3.72300 26.90700 26.53000
C  -2.98500 27.62500 25.58900
C  -2.09100 28.48900 26.28600
C  -2.29200 28.16800 27.63500
C  -3.27900 27.18400 27.72600
C  -1.09200 29.50500 25.68300
C  -1.84100 28.51800 28.95200
O  -1.03700 29.42200 29.27100
C  -2.77200 27.62100 29.98800
C  -1.96900 26.66400 30.88900
O  -1.44400 25.62200 30.57100
O  -1.85500 27.25300 32.07000
C  -1.10300 26.60300 33.13600
H  -7.31700 22.50200 29.00800
H  -7.04200 23.62400 22.68200
H  -2.42100 28.00600 23.63600
H  -4.40800 25.45600 31.57700
H  -6.73200 24.25500 31.27500
H  -4.66400 23.06100 32.14900
H  -4.32700 22.75700 30.36500
H  -5.75200 22.11400 31.27200
H  -7.12200 26.40200 31.35000
H  -5.87900 27.58600 30.80200
H  -6.79100 27.47000 33.42400
H  -5.19200 27.97200 32.99300
H  -8.71400 21.14500 28.18300
H  -7.55600 20.10400 27.30100
H  -9.18100 20.42100 26.63000
H  -9.00100 19.42600 23.11700
H  -9.93900 20.10000 24.34800
H  -8.45400 19.33800 24.86700
H  -6.02800 25.50400 21.28000
H  -3.38100 26.61300 21.53100
H  -4.49600 23.26400 21.91100
H  -3.36700 24.37700 21.00100
H  -4.86500 23.79200 20.29600
H  -4.18800 28.64600 21.94100
H  -5.78700 28.11100 22.52100
H  -6.84200 28.03800 20.37900
H  -5.29500 27.72100 19.53300
H  -5.75400 29.35400 20.15100
H  -0.85600 29.18800 24.66700
H  -0.20400 29.43400 26.31000
H  -1.45700 30.52900 25.60100
H  -3.50400 28.21500 30.53600
H  -0.11300 27.04300 33.25500
H  -0.93700 25.53200 33.02000
H  -1.67300 26.87100 34.02600

