158

Mg -0.90000 17.81500 27.49300
C  -1.65300 15.23400 30.02200
C  -1.55200 20.05300 30.05100
C  -0.94400 20.08400 25.17200
C  -0.84000 15.20300 25.21200
N  -1.47800 17.61300 29.79200
C  -1.67600 16.54700 30.52600
C  -1.76500 16.92200 32.06800
C  -1.93400 18.50900 32.03900
C  -1.46900 18.77300 30.57600
C  -3.39300 19.02500 32.41900
C  -0.59400 16.34200 32.86900
C  -0.01300 17.07200 34.13600
H  0.63300 16.27900 35.26300
N  -1.22600 19.73500 27.57400
C  -1.56800 20.47700 28.66800
C  -1.73100 21.87600 28.29100
C  -1.57000 21.96400 26.90200
C  -1.15200 20.57100 26.51300
C  -2.04800 22.94800 29.24000
C  -1.72700 23.15300 25.93000
O  -1.55100 23.12800 24.71100
C  -1.96500 24.46300 26.48100
N  -0.86000 17.60500 25.51400
C  -0.78500 18.78800 24.74800
C  -0.66500 18.36600 23.23300
C  -0.39600 16.78300 23.30400
C  -0.67100 16.49500 24.77300
C  -1.89200 18.80100 22.37300
C  0.98700 16.20100 22.88200
C  2.11700 16.40300 23.96600
N  -1.11000 15.61800 27.60400
C  -1.14100 14.74000 26.49500
C  -1.31100 13.35800 27.00300
C  -1.57200 13.51500 28.39200
C  -1.41400 14.91700 28.65100
C  -1.32500 12.11400 26.25800
C  -1.94700 12.84500 29.59600
O  -2.16600 11.62800 29.78400
C  -1.97300 13.92100 30.73900
C  -0.85800 13.48000 31.60000
O  0.35800 13.72200 31.42500
O  -1.35500 12.83900 32.68400
C  -0.32500 12.28500 33.65100
H  -1.78500 20.81200 30.80100
H  -0.84800 20.88200 24.43300
H  -0.68700 14.49500 24.39500
H  -2.74000 16.55700 32.38900
H  -1.17100 18.97300 32.66500
H  -3.92700 18.40800 33.14200
H  -3.98700 19.18800 31.51900
H  -3.36100 19.99000 32.92500
H  0.30600 16.23300 32.26400
H  -0.89000 15.41100 33.35200
H  -0.85900 17.61300 34.56000
H  0.77800 17.76600 33.85400
H  -3.12300 22.93100 29.41900
H  -1.84600 23.96500 28.90700
H  -1.67600 22.82500 30.25700
H  -2.87000 24.31300 27.07000
H  -2.14500 25.06000 25.58700
H  -1.06800 24.78700 27.00800
H  0.11000 18.97600 22.76900
H  -1.19300 16.32500 22.71900
H  -2.47600 17.98700 21.94500
H  -1.60600 19.40700 21.51300
H  -2.59100 19.33300 23.01900
H  1.25600 16.62600 21.91500
H  0.96600 15.11400 22.80300
H  2.19600 15.49500 24.56400
H  2.09300 17.23400 24.67000
H  3.07200 16.56400 23.46600
H  -0.64300 12.13900 25.40800
H  -2.32600 11.96500 25.85300
H  -1.05400 11.24300 26.85500
H  -2.92800 13.85900 31.26100
H  0.68400 12.25300 33.23900
H  -0.64100 11.29700 33.98700
H  -0.38900 12.92500 34.53100
Mg 9.03400 3.68300 27.15000
C  10.52000 2.19700 30.13100
C  7.00600 5.44000 29.16800
C  7.63500 4.83300 24.36800
C  10.75300 1.21600 25.25900
N  8.68200 3.65900 29.40900
C  9.47400 3.11600 30.42000
C  9.06800 3.61800 31.78600
C  7.86800 4.55400 31.42600
C  7.80300 4.53200 29.88000
C  6.47200 4.25500 32.09900
C  10.19500 4.42000 32.44800
C  9.92000 4.69000 33.90500
H  10.98000 4.30100 35.00500
N  7.56400 4.97500 26.78300
C  6.78100 5.61300 27.82000
C  5.95800 6.57900 27.10600
C  6.13400 6.48000 25.73700
C  7.11600 5.35900 25.56800
C  4.93700 7.45200 27.88900
C  5.51800 7.28800 24.66300
O  5.77600 7.14100 23.46300
C  4.48300 8.33500 25.07000
N  9.26900 3.17700 25.05000
C  8.57500 3.82600 24.13300
C  8.96300 3.31600 22.75200
C  10.08400 2.20500 23.02400
C  10.12000 2.20600 24.49000
C  7.66800 2.70800 22.03000
C  11.47500 2.41100 22.37000
C  12.63400 3.02300 23.10500
N  10.29800 2.09800 27.58100
C  10.89900 1.16500 26.67800
C  11.67100 0.19500 27.44600
C  11.58800 0.61600 28.75900
C  10.72900 1.72000 28.79500
C  12.27200 -1.06500 26.83100
C  12.04300 0.36100 30.06100
O  12.84300 -0.51400 30.43600
C  11.34900 1.37500 30.99100
C  10.68700 0.68000 32.11000
O  9.67100 -0.03400 31.97400
O  11.18500 1.14300 33.27300
C  10.68300 0.49600 34.51000
H  6.45400 6.05500 29.88200
H  7.27000 5.07500 23.36800
H  11.29800 0.46200 24.68800
H  8.87100 2.79700 32.47500
H  8.12300 5.56300 31.74800
H  6.70700 3.92700 33.11200
H  5.91700 3.43100 31.65200
H  5.69500 5.02000 32.10600
H  10.31600 5.36700 31.92300
H  11.11300 3.83300 32.46800
H  8.98000 4.18800 34.13400
H  9.68000 5.75300 33.91000
H  5.26200 8.48800 27.79000
H  4.99800 7.18700 28.94500
H  3.90500 7.26400 27.59100
H  3.52800 7.86600 25.30800
H  4.38700 8.99800 24.21000
H  4.96800 8.98500 25.79900
H  9.36300 4.18500 22.22900
H  9.68600 1.28600 22.59400
H  6.86400 2.77600 22.76300
H  7.68800 1.63400 21.84400
H  7.43800 3.19200 21.08100
H  11.37600 3.18000 21.60400
H  11.80600 1.45600 21.96200
H  13.59100 2.78500 22.64000
H  12.62200 2.57200 24.09700
H  12.47600 4.10100 23.13000
H  13.33600 -0.92800 26.63600
H  11.72200 -1.50200 25.99700
H  12.18500 -1.86400 27.56800
H  12.16300 1.93800 31.44800
H  9.84300 -0.19100 34.40200
H  10.65900 1.30700 35.23700
H  11.49800 -0.15300 34.83000

