158

Mg 17.35600 51.04400 25.87800
C  19.31300 49.88100 28.46400
C  15.36700 52.65500 28.32300
C  15.88100 52.68900 23.49100
C  19.81300 49.83800 23.56900
N  17.28900 51.20200 28.13100
C  18.14800 50.53600 28.95300
C  17.88500 50.96900 30.45900
C  16.41600 51.54500 30.33100
C  16.36500 51.85200 28.90100
C  15.28400 50.53300 30.71300
C  18.92200 51.92400 31.23000
C  18.82900 51.87300 32.76900
H  17.86400 50.98700 33.50100
N  15.67500 52.24000 25.87000
C  15.04100 52.81800 26.94700
C  13.96600 53.65900 26.45600
C  14.08900 53.76800 25.07100
C  15.26300 52.84400 24.72800
C  12.98500 54.30200 27.31200
C  13.14700 54.46900 24.06200
O  13.16700 54.16700 22.87100
C  12.00900 55.47100 24.55700
N  17.96800 51.39000 23.88400
C  17.09400 52.09300 23.04100
C  17.45800 51.97500 21.56800
C  18.81700 51.27800 21.67200
C  18.88800 50.76900 23.09900
C  16.45600 51.41100 20.48000
C  19.98000 52.38900 21.44400
C  21.19500 51.74900 20.70100
N  19.07500 49.82700 25.98400
C  20.02700 49.47700 24.99300
C  21.13900 48.68500 25.60400
C  20.87000 48.78000 26.96500
C  19.64300 49.59900 27.13300
C  22.28700 47.96300 24.89900
C  21.37200 48.45100 28.29800
O  22.32300 47.86100 28.63300
C  20.32900 49.12800 29.32000
C  19.75200 48.18200 30.26000
O  18.93800 47.33000 29.89200
O  20.29400 48.33500 31.54700
C  19.69400 47.45000 32.51400
H  14.71000 53.11400 29.06500
H  15.38500 53.18200 22.65200
H  20.61900 49.45600 22.93900
H  17.91800 49.97900 30.91400
H  16.14200 52.49700 30.78400
H  14.80400 50.20300 29.79200
H  14.55500 50.95200 31.40700
H  15.71000 49.73200 31.31600
H  18.92600 52.98300 30.97000
H  19.94100 51.63700 30.97200
H  18.59900 52.87700 33.12500
H  19.81600 51.54300 33.09300
H  12.05000 54.01000 26.83400
H  13.12200 55.38200 27.25100
H  12.99700 53.93700 28.33900
H  11.16000 54.87600 24.89300
H  11.71700 56.16700 23.77000
H  12.54800 56.11000 25.25600
H  17.47900 53.03200 21.30400
H  18.85100 50.44100 20.97500
H  17.04800 50.84200 19.76400
H  15.89700 52.20200 19.98000
H  15.68200 50.79100 20.93300
H  20.37400 52.80300 22.37200
H  19.60800 53.15400 20.76200
H  21.42000 52.39800 19.85500
H  20.85400 50.82700 20.22900
H  22.03200 51.52900 21.36500
H  21.90500 47.26500 24.15400
H  22.83800 47.28000 25.54500
H  23.04300 48.62000 24.47000
H  20.91200 49.84700 29.89500
H  18.60700 47.50300 32.45400
H  19.90000 47.78000 33.53300
H  19.97700 46.40500 32.38800
Mg -12.10300 37.73400 42.05800
C  -9.83200 35.30500 41.31800
C  -10.11900 40.19600 41.04800
C  -14.81200 39.92200 42.32600
C  -14.24000 35.18800 43.49800
N  -10.30100 37.67100 41.05800
C  -9.42900 36.58900 40.95700
C  -8.10300 37.06000 40.43100
C  -8.09600 38.59000 40.74600
C  -9.60200 38.85100 40.96700
C  -7.27100 38.92300 42.03500
C  -8.01700 36.74700 38.88600
C  -6.79000 35.79600 38.40100
H  -5.84700 36.41300 37.26100
N  -12.38400 39.82100 41.70300
C  -11.41500 40.66300 41.26300
C  -11.98700 41.97900 41.22500
C  -13.36900 41.86300 41.37400
C  -13.62600 40.49800 41.79000
C  -11.20100 43.18200 40.81500
C  -14.37400 42.99400 41.23300
O  -13.93300 44.17200 41.05000
C  -15.89500 42.86700 41.41100
N  -14.21500 37.52500 42.77800
C  -15.05600 38.61600 42.82700
C  -16.34100 38.31500 43.56100
C  -16.13900 36.81600 44.00100
C  -14.81600 36.48800 43.44500
C  -16.70400 39.33000 44.69700
C  -17.27000 35.80900 43.44900
C  -18.22300 35.13600 44.48600
N  -12.22100 35.56200 42.16900
C  -13.06600 34.69400 42.90700
C  -12.44500 33.38600 42.88700
C  -11.18400 33.53200 42.22800
C  -11.11400 34.90800 41.80100
C  -13.01300 32.23200 43.65300
C  -9.89200 32.97400 42.00000
O  -9.46300 31.86900 42.26100
C  -8.97500 34.09900 41.35100
C  -7.60500 34.22300 42.04000
O  -6.56300 33.92800 41.42400
O  -7.62500 34.81400 43.27600
C  -6.34500 34.96100 43.94600
H  -9.26400 40.85300 40.87600
H  -15.65600 40.60300 42.45100
H  -14.85300 34.45800 44.03100
H  -7.30700 36.52400 40.94800
H  -7.74000 39.25000 39.95600
H  -7.80400 39.44300 42.83100
H  -6.58700 39.70000 41.69400
H  -6.73200 38.04600 42.39400
H  -7.86800 37.69100 38.36300
H  -8.97600 36.36100 38.54000
H  -7.35300 34.97900 37.95000
H  -6.22700 35.36100 39.22700
H  -11.39000 43.43500 39.77100
H  -10.14000 42.96300 40.93600
H  -11.48700 43.99800 41.47900
H  -16.49800 43.61200 40.89200
H  -16.30200 42.83600 42.42100
H  -16.13600 41.94400 40.88300
H  -17.03300 38.33900 42.71800
H  -16.08500 36.70900 45.08500
H  -17.12800 38.73900 45.51000
H  -17.57000 39.85700 44.29700
H  -15.91700 40.05200 44.91200
H  -16.77300 35.12900 42.75700
H  -17.95700 36.39700 42.84100
H  -19.25500 35.35600 44.21300
H  -17.91200 35.54800 45.44600
H  -18.16100 34.04700 44.47800
H  -13.09000 31.33600 43.03700
H  -13.98700 32.41700 44.10500
H  -12.39300 31.90300 44.48700
H  -8.72400 33.87400 40.31400
H  -5.78600 35.78300 43.49800
H  -5.71300 34.09200 44.13000
H  -6.62500 35.31700 44.93800

