158

Mg -11.24800 38.45900 42.34400
C  -9.24300 35.73800 41.25700
C  -9.16200 40.57500 40.58900
C  -13.40600 40.97400 42.88200
C  -13.75200 36.09500 43.39300
N  -9.41500 38.18500 41.07700
C  -8.75300 36.98900 40.82000
C  -7.51300 37.21900 39.93600
C  -7.40100 38.79100 39.94300
C  -8.73800 39.26500 40.62300
C  -6.17800 39.27100 40.72000
C  -7.63300 36.57400 38.49700
C  -6.52800 35.68400 38.10900
H  -5.60000 36.23400 37.02100
N  -11.21700 40.55800 41.87800
C  -10.29700 41.20500 41.09800
C  -10.73500 42.59500 40.89800
C  -12.06700 42.64900 41.41800
C  -12.31100 41.36300 42.08500
C  -9.90100 43.59400 40.11400
C  -13.01400 43.78700 41.09800
O  -12.70900 44.72400 40.38000
C  -14.34300 43.85200 41.70700
N  -13.29700 38.48300 42.91700
C  -13.79500 39.70800 43.29500
C  -15.12700 39.47900 44.02700
C  -15.24000 37.98400 44.19800
C  -14.04600 37.44700 43.40900
C  -15.55700 40.27300 45.22700
C  -16.55200 37.22800 43.76200
C  -17.11600 36.31800 44.85200
N  -11.55700 36.36700 42.32900
C  -12.56800 35.54500 42.83400
C  -12.04300 34.18900 42.88900
C  -10.73500 34.17800 42.24500
C  -10.51200 35.54300 41.92200
C  -12.71000 33.04700 43.55400
C  -9.62300 33.41900 41.86400
O  -9.41500 32.19600 42.01700
C  -8.65000 34.36100 41.16200
C  -7.26600 34.26000 41.65500
O  -6.85600 34.87100 42.64200
O  -6.47700 33.42700 40.89600
C  -5.02500 33.52500 41.13900
H  -8.45100 41.24200 40.09700
H  -13.93200 41.81200 43.34600
H  -14.53200 35.44100 43.78700
H  -6.63600 36.73300 40.36500
H  -7.36400 39.15300 38.91600
H  -6.49100 40.03000 41.43700
H  -5.55600 39.80800 40.00400
H  -5.61600 38.48800 41.22900
H  -7.67700 37.29500 37.68000
H  -8.58600 36.04500 38.48700
H  -6.88300 34.70100 37.80100
H  -5.88200 35.29000 38.89500
H  -8.87900 43.26300 39.92800
H  -9.83500 44.53700 40.65600
H  -10.27200 43.81800 39.11300
H  -14.82300 42.87400 41.74000
H  -14.92800 44.52900 41.08500
H  -14.20700 44.12900 42.75200
H  -15.89600 39.71200 43.29100
H  -15.10100 37.73800 45.25100
H  -14.70000 40.78500 45.66400
H  -15.97800 39.59300 45.96800
H  -16.34800 40.98500 44.99300
H  -16.47600 36.60300 42.87200
H  -17.39300 37.87800 43.51900
H  -17.56900 35.44500 44.38400
H  -17.96300 36.74900 45.38600
H  -16.29000 35.90200 45.42900
H  -13.78100 33.24800 43.56700
H  -12.25200 32.92300 44.53600
H  -12.57200 32.15200 42.94700
H  -8.53900 34.07300 40.11600
H  -4.55900 33.70100 40.16900
H  -4.70600 32.60900 41.63700
H  -4.72400 34.34200 41.79600
Mg -10.56100 16.11100 41.97900
C  -7.25700 15.00600 41.56300
C  -9.54900 19.16800 40.62800
C  -13.82300 17.06100 41.98200
C  -11.44200 12.76200 42.43700
N  -8.60300 16.88100 41.08800
C  -7.38700 16.29300 41.09900
C  -6.27900 17.24300 40.63300
C  -7.01700 18.63200 40.50700
C  -8.46700 18.23500 40.69700
C  -6.46300 19.68700 41.54100
C  -5.71400 16.74600 39.28600
C  -4.30600 17.34500 38.95200
H  -4.14400 18.27900 37.68000
N  -11.53300 17.89700 41.48000
C  -10.93700 19.01100 40.91700
C  -11.92100 20.09500 40.78500
C  -13.17700 19.49800 41.08900
C  -12.86700 18.08800 41.53600
C  -11.58200 21.60100 40.46700
C  -14.44800 20.29200 41.17400
O  -14.55100 21.49500 40.90400
C  -15.75100 19.54700 41.30400
N  -12.42300 15.07800 42.23200
C  -13.63700 15.70200 42.29600
C  -14.76100 14.69900 42.44800
C  -13.99300 13.36900 42.65800
C  -12.51500 13.73800 42.44600
C  -15.84900 15.00200 43.43100
C  -14.56400 12.16600 41.78800
C  -14.90700 10.95600 42.58500
N  -9.63100 14.25300 42.07600
C  -10.06600 12.96500 42.33300
C  -8.98600 12.09500 42.42300
C  -7.81000 12.81400 42.21400
C  -8.26900 14.12400 41.99400
C  -9.05500 10.57100 42.62100
C  -6.28900 12.88300 42.19300
O  -5.39300 12.08600 42.47300
C  -5.92300 14.33300 41.79800
C  -5.08100 14.80900 42.91500
O  -5.45800 15.17000 44.02200
O  -3.76300 14.78900 42.41300
C  -2.62600 15.26300 43.33800
H  -9.22500 20.19700 40.45800
H  -14.88000 17.29900 42.11700
H  -11.63500 11.68800 42.48500
H  -5.40900 17.34600 41.28100
H  -6.88400 19.22400 39.60100
H  -5.37700 19.60000 41.55100
H  -6.86900 19.42500 42.51800
H  -6.71100 20.70900 41.25300
H  -6.40900 17.13600 38.54300
H  -5.77600 15.68400 39.04500
H  -3.67800 16.47500 38.76100
H  -3.90800 18.01900 39.71100
H  -11.09100 21.59100 39.49400
H  -10.85400 21.90800 41.21800
H  -12.40300 22.31700 40.42600
H  -16.55000 20.13300 40.85000
H  -16.00100 19.49200 42.36400
H  -15.74800 18.57200 40.81700
H  -15.16200 14.69000 41.43500
H  -13.89600 13.18000 43.72700
H  -15.48400 15.89300 43.94300
H  -15.90100 14.14600 44.10300
H  -16.77200 15.05900 42.85400
H  -13.71200 11.86700 41.17700
H  -15.38600 12.43600 41.12500
H  -15.31300 11.24100 43.55500
H  -14.09100 10.24100 42.68800
H  -15.81900 10.51200 42.18700
H  -8.55700 10.21000 43.52100
H  -8.50500 10.12200 41.79400
H  -10.08100 10.26700 42.41300
H  -5.33300 14.37000 40.88200
H  -2.06900 16.06300 42.85100
H  -1.97200 14.44900 43.64900
H  -3.09200 15.59900 44.26500

