158

Mg 6.16100 53.94900 40.95800
C  5.72400 50.46400 40.85400
C  9.41100 53.50600 39.95900
C  6.26100 57.28200 40.27300
C  2.67900 54.09600 41.44900
N  7.38000 52.28900 40.37900
C  6.97800 50.95900 40.43900
C  8.12100 50.05700 40.03100
C  9.39700 50.92000 40.25800
C  8.68000 52.33200 40.12100
C  10.12400 50.66800 41.62200
C  7.96700 49.42500 38.66300
C  7.55900 50.41300 37.47500
H  6.36300 49.99900 36.49000
N  7.67100 55.19600 40.28100
C  8.95900 54.85800 40.03600
C  9.68800 56.07200 39.68700
C  8.83800 57.20300 39.84100
C  7.52300 56.61300 40.13100
C  11.14900 56.00400 39.38200
C  9.25200 58.75000 39.75400
O  10.39100 59.03600 39.59400
C  8.23700 59.80300 40.06000
N  4.68900 55.40700 40.79500
C  4.99200 56.72100 40.54300
C  3.73200 57.63500 40.40000
C  2.60300 56.62200 40.78300
C  3.32800 55.27100 40.96100
C  3.69400 58.80000 41.40300
C  1.36900 56.70400 39.90200
C  0.00500 56.70800 40.69600
N  4.53800 52.60700 41.40600
C  3.21500 52.84100 41.65600
C  2.51800 51.56700 41.96200
C  3.51200 50.62400 41.65300
C  4.68700 51.28600 41.35100
C  1.08100 51.40300 42.33600
C  3.72700 49.22300 41.59800
O  3.01100 48.30200 41.92300
C  5.16500 49.03900 40.94600
C  4.89600 48.33500 39.65600
O  4.22800 48.79600 38.74000
O  5.32100 47.02300 39.71400
C  4.92000 46.25200 38.56400
H  10.47100 53.31200 39.78800
H  6.28500 58.37000 40.17900
H  1.61400 54.22000 41.65400
H  8.13900 49.23400 40.74600
H  10.13200 50.79000 39.46400
H  11.19900 50.70900 41.44500
H  9.95100 49.62200 41.87500
H  9.74100 51.32700 42.40100
H  7.22900 48.63400 38.79600
H  8.94400 49.01800 38.40000
H  8.47100 50.67300 36.93700
H  7.08100 51.31300 37.86100
H  11.63200 55.41200 40.15900
H  11.81000 56.87100 39.37700
H  11.38700 55.56300 38.41400
H  7.46900 59.95000 39.30200
H  8.65300 60.79100 40.25800
H  7.79600 59.54600 41.02400
H  3.69600 58.08000 39.40600
H  2.26000 56.78200 41.80500
H  4.04800 59.66900 40.85000
H  4.44000 58.63100 42.18000
H  2.70600 58.94000 41.84000
H  1.38600 55.83000 39.25100
H  1.36500 57.55200 39.21600
H  -0.59000 57.55100 40.34400
H  0.00600 56.60000 41.78100
H  -0.36100 55.74100 40.35300
H  1.08600 50.54200 43.00500
H  0.54800 51.11600 41.43000
H  0.67400 52.26800 42.85900
H  5.77300 48.49700 41.67000
H  5.27100 46.75000 37.66000
H  3.84200 46.29300 38.40800
H  5.33300 45.25300 38.70400
Mg -0.02300 43.14700 26.22300
C  2.12200 43.06300 29.02000
C  -2.57600 42.06600 28.18600
C  -1.80700 42.92100 23.45000
C  2.76100 44.13000 24.29900
N  -0.25500 42.79500 28.36500
C  0.80600 42.75100 29.31600
C  0.21600 42.32900 30.69000
C  -1.24900 41.77000 30.36700
C  -1.40900 42.25400 28.86600
C  -1.45900 40.21200 30.46200
C  0.15500 43.50500 31.66600
C  0.65100 43.19300 33.08300
H  0.15000 41.85800 33.74500
N  -1.91200 42.59200 25.85500
C  -2.78400 42.20800 26.79500
C  -4.04600 41.98300 26.07700
C  -3.81800 42.04700 24.67900
C  -2.44500 42.57000 24.62100
C  -5.32300 41.53500 26.81200
C  -4.78200 41.81200 23.54100
O  -4.48400 42.12300 22.37200
C  -6.19700 41.22300 23.81700
N  0.41800 43.46600 24.13300
C  -0.50700 43.37800 23.15600
C  0.01800 43.82500 21.78000
C  1.41800 44.38800 22.15700
C  1.53300 43.98600 23.63300
C  -0.05500 42.61900 20.75400
C  1.60200 45.83000 21.91100
C  0.97000 46.44900 20.65800
N  1.97900 43.62300 26.52000
C  2.98300 44.02800 25.70200
C  4.19800 44.14600 26.40200
C  3.86300 43.84600 27.71800
C  2.54500 43.48100 27.77100
C  5.56600 44.30900 25.85900
C  4.38200 43.75200 29.11500
O  5.50900 44.03500 29.60600
C  3.22400 43.28200 30.03900
C  3.65900 42.04900 30.67100
O  3.95500 40.97700 30.24700
O  3.77500 42.32500 32.04900
C  4.26200 41.28000 32.97400
H  -3.41100 41.59600 28.71000
H  -2.33000 42.76800 22.50300
H  3.62000 44.43000 23.69500
H  0.83900 41.56300 31.15100
H  -1.90000 42.20500 31.12600
H  -0.50500 39.74800 30.71200
H  -1.79900 39.60700 29.62100
H  -2.04600 40.05200 31.36700
H  -0.82800 43.97500 31.68000
H  0.83700 44.29000 31.33900
H  0.38800 44.00100 33.76600
H  1.74000 43.21200 33.04300
H  -5.21700 41.44700 27.89300
H  -5.69600 40.61600 26.35900
H  -6.09400 42.29300 26.67600
H  -6.87300 41.28900 22.96500
H  -6.64300 41.96300 24.48100
H  -6.23100 40.20300 24.20200
H  -0.67000 44.58900 21.41900
H  2.18000 43.77800 21.67100
H  0.92700 42.53000 20.28900
H  -0.81700 42.89100 20.02400
H  -0.22500 41.68300 21.28500
H  2.68800 45.92600 21.89900
H  1.16400 46.29200 22.79600
H  0.46600 45.77500 19.96600
H  1.75800 46.92600 20.07600
H  0.28500 47.20500 21.04300
H  6.14600 43.41400 26.08700
H  6.02500 45.26000 26.13100
H  5.63500 44.26100 24.77200
H  3.00400 43.99100 30.83700
H  4.71500 41.62400 33.90400
H  5.04400 40.67200 32.52000
H  3.40100 40.65300 33.20600

