158

Mg 30.26100 57.35700 39.52100
C  27.77300 55.13700 38.74300
C  32.67400 54.94200 38.82000
C  32.70400 59.67100 39.55500
C  27.82900 59.85100 40.29900
N  30.19100 55.27500 38.78500
C  29.07800 54.56900 38.54700
C  29.48600 53.16900 37.99700
C  31.02800 53.05800 38.18300
C  31.32200 54.50500 38.66500
C  31.48300 52.11300 39.23700
C  29.04000 52.98800 36.49900
C  29.33400 54.00000 35.49200
H  28.24000 54.52600 34.68300
N  32.44800 57.28400 39.20400
C  33.20200 56.23500 38.99000
C  34.53200 56.61900 38.86300
C  34.59800 57.99800 39.16100
C  33.26300 58.36600 39.36400
C  35.60000 55.63200 38.62900
C  35.83900 58.80500 39.30300
O  36.97100 58.33800 39.09600
C  35.91800 60.15200 39.73100
N  30.20100 59.46400 39.66800
C  31.35700 60.15600 39.78400
C  31.07800 61.60200 40.24300
C  29.66000 61.57200 40.64000
C  29.11000 60.25800 39.97200
C  32.08500 62.17700 41.26800
C  28.89600 62.87600 40.20300
C  28.15800 63.63400 41.31300
N  28.16500 57.49700 39.67400
C  27.34100 58.53200 40.02000
C  25.98300 58.06600 39.87200
C  26.13600 56.74400 39.32500
C  27.52300 56.45600 39.21600
C  24.87600 58.92200 40.08900
C  25.33100 55.60200 38.91800
O  24.17600 55.40000 38.93700
C  26.39000 54.55800 38.42900
C  26.21100 53.23600 39.11300
O  26.65800 52.98900 40.23300
O  25.29700 52.52300 38.35100
C  24.97500 51.17300 38.86600
H  33.33800 54.09300 38.64900
H  33.42900 60.48600 39.62400
H  27.08300 60.58700 40.60900
H  28.86100 52.43700 38.50800
H  31.57000 52.92400 37.24700
H  30.57600 51.68500 39.66500
H  32.12800 52.52800 40.01200
H  31.95500 51.27100 38.73100
H  27.98000 52.74100 36.56400
H  29.45700 52.04700 36.14200
H  30.01400 53.48200 34.81500
H  29.89600 54.85500 35.86800
H  36.10500 55.99100 37.73200
H  35.26900 54.60600 38.46900
H  36.28900 55.67000 39.47300
H  36.94700 60.40700 39.98300
H  35.22800 60.41000 40.53500
H  35.54000 60.84100 38.97500
H  31.12400 62.15600 39.30500
H  29.56800 61.39600 41.71200
H  32.90900 62.77900 40.88600
H  32.50300 61.28800 41.74100
H  31.60600 62.73400 42.07400
H  28.21500 62.50000 39.43900
H  29.62300 63.53400 39.72800
H  28.75100 64.51000 41.57700
H  27.99700 63.09300 42.24600
H  27.28200 64.08900 40.85200
H  24.53600 59.33400 39.13900
H  25.18800 59.74400 40.73400
H  24.03500 58.40900 40.55500
H  26.34900 54.39500 37.35100
H  24.76400 50.40000 38.12600
H  24.05000 51.40100 39.39500
H  25.65400 50.79600 39.63200
Mg -1.41100 33.82000 26.80800
C  -3.53500 32.05000 29.20100
C  -0.21800 35.54200 29.50000
C  0.12900 35.65700 24.59400
C  -2.96200 32.07400 24.31300
N  -1.87500 33.75100 29.16500
C  -2.73700 33.01000 29.90400
C  -2.54700 33.25200 31.46200
C  -1.57200 34.44900 31.49000
C  -1.16800 34.63400 29.96700
C  -2.26800 35.72100 32.03700
C  -2.05000 31.97600 32.20000
C  -2.86800 31.43800 33.38200
H  -2.09500 31.18200 34.61600
N  -0.09600 35.38200 26.97300
C  0.34000 35.89500 28.22300
C  1.41500 36.77400 27.84600
C  1.48300 36.87600 26.42300
C  0.50000 35.96900 25.93900
C  2.32800 37.40600 28.93100
C  2.35000 37.72200 25.51700
O  2.12000 37.84600 24.34700
C  3.35000 38.65900 26.05900
N  -1.53900 33.97100 24.73100
C  -0.80200 34.81500 24.06700
C  -1.07700 34.73300 22.56600
C  -2.00700 33.48700 22.43000
C  -2.19000 33.13100 23.88700
C  -1.72500 36.01800 21.99500
C  -1.32000 32.34200 21.57700
C  -2.04300 31.85300 20.29000
N  -2.99500 32.38700 26.71300
C  -3.44600 31.69600 25.59700
C  -4.42200 30.73100 25.99000
C  -4.54600 30.85300 27.37000
C  -3.58300 31.85200 27.77200
C  -5.26400 29.75700 25.12200
C  -5.21700 30.36300 28.57300
O  -6.10700 29.54000 28.71900
C  -4.47900 30.96700 29.84600
C  -5.51800 31.51800 30.84600
O  -6.32700 32.34500 30.61600
O  -5.39000 30.76300 31.93200
C  -6.42100 30.99100 32.98600
H  0.16700 36.14900 30.32200
H  0.76800 36.10200 23.82700
H  -3.48300 31.44100 23.59200
H  -3.49500 33.68300 31.78300
H  -0.73400 34.18900 32.13700
H  -1.67700 36.16300 32.83900
H  -3.19400 35.67600 32.60900
H  -2.33100 36.53300 31.31300
H  -1.06000 32.19400 32.60200
H  -1.98600 31.21500 31.42100
H  -3.34700 30.48000 33.18100
H  -3.65600 32.16600 33.57800
H  2.15500 36.95700 29.90900
H  2.16500 38.48300 28.91700
H  3.39600 37.29100 28.74300
H  4.24100 38.05500 26.23400
H  2.92200 39.03800 26.98700
H  3.62200 39.34000 25.25200
H  -0.14300 34.61300 22.01700
H  -2.94600 33.67900 21.91000
H  -1.40600 36.81800 22.66300
H  -2.81400 35.98400 21.95500
H  -1.32400 36.23900 21.00600
H  -1.31800 31.46800 22.22800
H  -0.31400 32.58900 21.24000
H  -1.85100 32.61100 19.53100
H  -3.10100 31.61400 20.40000
H  -1.44300 31.02900 19.90400
H  -5.12100 28.70800 25.37900
H  -5.02500 29.92000 24.07100
H  -6.30900 30.01000 25.30500
H  -3.81700 30.23400 30.30500
H  -7.41700 31.09600 32.55600
H  -6.27900 31.88300 33.59600
H  -6.36000 30.18500 33.71800

