158

Mg 43.18700 42.35800 26.55500
C  42.06300 44.60800 28.89300
C  44.49500 40.46600 29.10400
C  44.29400 40.16700 24.16000
C  42.09700 44.47800 24.06200
N  43.17000 42.47300 28.74800
C  42.57000 43.41000 29.46200
C  42.51900 42.95300 30.95800
C  43.62900 41.87600 30.99700
C  43.76100 41.54300 29.52900
C  44.82500 42.22200 31.85500
C  41.09600 42.63700 31.42300
C  40.45700 43.43600 32.58200
H  39.83500 42.65200 33.70500
N  44.11400 40.50500 26.65900
C  44.64700 39.90700 27.81300
C  45.21000 38.63300 27.48400
C  45.11800 38.50400 26.03500
C  44.47300 39.78500 25.51600
C  45.71000 37.67700 28.58100
C  45.43600 37.30800 25.13900
O  45.32400 37.30900 23.88500
C  45.91400 35.97600 25.84100
N  43.39100 42.48500 24.37600
C  43.86000 41.44900 23.63400
C  43.77400 41.78600 22.14900
C  42.82900 43.00000 22.12100
C  42.77900 43.38100 23.58000
C  45.13400 42.08300 21.50300
C  41.54800 42.40000 21.61200
C  40.69300 41.57600 22.65200
N  42.45500 44.28000 26.43700
C  42.07300 44.99700 25.36500
C  41.53500 46.27000 25.83100
C  41.44700 46.09700 27.24500
C  42.07100 44.86600 27.51700
C  41.09100 47.44800 25.03800
C  40.94900 46.70600 28.45600
O  40.27400 47.76400 28.64100
C  41.20500 45.67000 29.60200
C  42.06100 46.23300 30.79600
O  43.20800 46.58500 30.74600
O  41.33200 46.17200 31.88100
C  41.94200 46.73000 33.05800
H  44.88500 39.82900 29.90100
H  44.70200 39.47000 23.42500
H  41.69200 45.14600 23.29900
H  42.79100 43.72500 31.67800
H  43.22300 40.94500 31.39400
H  44.65400 43.04800 32.54700
H  45.62300 42.69100 31.27900
H  45.08100 41.27500 32.33000
H  41.06200 41.57900 31.68200
H  40.55600 42.79700 30.49000
H  39.76600 44.18900 32.20400
H  41.27200 44.03200 32.99400
H  45.25600 36.68700 28.63100
H  45.62100 38.03100 29.60900
H  46.79700 37.73400 28.53700
H  46.55100 36.28600 26.66900
H  46.52200 35.37100 25.16900
H  45.00600 35.50300 26.21500
H  43.50400 40.85100 21.65800
H  43.18800 43.68200 21.35000
H  45.51500 43.06500 21.78500
H  45.03500 42.05400 20.41800
H  45.93000 41.36100 21.68900
H  41.52900 41.72100 20.76000
H  40.85800 43.22500 21.43400
H  40.62900 42.01200 23.64800
H  41.02000 40.53600 22.63800
H  39.65300 41.61300 22.32700
H  41.22300 48.32000 25.67900
H  40.08200 47.13900 24.76600
H  41.63400 47.56300 24.10000
H  40.26500 45.25500 29.96700
H  41.34700 46.41500 33.91600
H  41.84600 47.81500 33.02200
H  42.99800 46.52900 33.24000
Mg 6.40400 53.52800 41.00300
C  5.99900 49.97200 41.14600
C  9.67400 52.86800 39.81800
C  6.86600 56.83500 40.46300
C  3.09000 53.96500 41.49700
N  7.54200 51.64400 40.36400
C  7.23700 50.29700 40.54100
C  8.36000 49.36000 40.12200
C  9.54900 50.34600 40.11500
C  8.84000 51.73900 40.05500
C  10.54900 50.37800 41.31500
C  8.08000 48.67300 38.75100
C  7.12100 49.27000 37.81500
H  7.56800 50.45700 36.98700
N  8.07600 54.66900 40.30700
C  9.30600 54.25900 39.88100
C  10.14700 55.39600 39.73700
C  9.36400 56.58900 39.79300
C  8.01100 56.07900 40.19500
C  11.64200 55.28800 39.59700
C  9.91100 58.04400 39.77700
O  11.10400 58.27400 39.49700
C  9.00300 59.24400 39.86900
N  5.16600 55.05500 40.86500
C  5.53800 56.37900 40.74400
C  4.41400 57.29200 40.99400
C  3.20200 56.39500 41.02800
C  3.87200 55.04000 41.09900
C  4.73500 58.22900 42.27100
C  2.16800 56.49400 39.83800
C  0.75000 56.67000 40.31400
N  4.84700 52.25600 41.37200
C  3.53000 52.61500 41.51000
C  2.82200 51.38400 41.91500
C  3.73700 50.35500 41.70400
C  4.93500 50.92400 41.37500
C  1.49500 51.25700 42.38700
C  3.94900 48.96200 41.79500
O  3.14200 48.03700 42.06000
C  5.48200 48.65000 41.47100
C  5.25600 47.70600 40.31200
O  4.62400 47.89400 39.24000
O  5.90500 46.57000 40.56900
C  5.84600 45.54300 39.51100
H  10.65800 52.76900 39.35500
H  6.78900 57.89400 40.21000
H  2.08600 54.17700 41.86900
H  8.59700 48.66400 40.92700
H  10.20600 50.17300 39.26300
H  11.47100 49.92100 40.95500
H  10.13900 49.67900 42.04500
H  10.67300 51.38600 41.71100
H  7.94500 47.59200 38.76900
H  9.03100 48.72000 38.21900
H  6.21100 49.65200 38.27800
H  6.88300 48.55500 37.02700
H  11.95500 55.52000 38.57800
H  11.99900 54.27600 39.78700
H  12.27100 56.02400 40.09800
H  9.56000 60.18000 39.90500
H  8.51400 59.18700 40.84200
H  8.32100 59.25700 39.01900
H  4.32900 57.94300 40.12300
H  2.76100 56.49200 42.02000
H  4.46000 59.24700 41.99600
H  5.75700 58.12700 42.63700
H  4.05800 57.94200 43.07500
H  2.26300 55.56400 39.27700
H  2.47700 57.29900 39.17100
H  0.44400 57.68600 40.56300
H  0.74300 56.00400 41.17700
H  0.11600 56.28100 39.51700
H  0.78500 51.77300 41.74000
H  1.43500 51.72200 43.37000
H  1.28100 50.18900 42.43200
H  5.97700 48.11300 42.28000
H  6.54600 44.78600 39.86400
H  6.37100 45.80600 38.59200
H  4.87000 45.07500 39.38200

