158

Mg 41.64800 40.51300 26.74800
C  41.04700 42.84300 29.15500
C  42.44700 38.21400 29.13100
C  42.25900 38.33800 24.19800
C  40.67400 42.85700 24.31200
N  41.97600 40.60600 28.90300
C  41.53100 41.63100 29.70900
C  41.51000 41.27100 31.20400
C  41.95300 39.72600 31.12700
C  42.15100 39.48900 29.62900
C  43.20800 39.40200 32.00500
C  40.14700 41.41900 31.89600
C  39.83200 40.66500 33.20600
H  39.28100 41.42800 34.43700
N  42.38200 38.61600 26.70200
C  42.68200 37.80900 27.78800
C  43.17800 36.49100 27.33000
C  43.12600 36.47200 25.90300
C  42.55700 37.87100 25.53100
C  43.55500 35.43500 28.29500
C  43.51800 35.29000 24.98300
O  43.20100 35.22300 23.79900
C  44.24500 34.15800 25.57900
N  41.65200 40.64000 24.53100
C  41.74900 39.57400 23.79400
C  41.58000 39.88600 22.28500
C  40.83000 41.27200 22.31800
C  41.09000 41.63500 23.81700
C  42.90900 39.83600 21.40800
C  39.43800 41.33800 21.83100
C  38.32300 40.71100 22.69600
N  41.04300 42.43300 26.65000
C  40.67700 43.31800 25.59400
C  40.36600 44.61800 26.15800
C  40.50300 44.45600 27.51600
C  40.87500 43.13100 27.79300
C  39.99700 45.88800 25.41000
C  40.39100 45.15600 28.76100
O  40.04600 46.30700 29.01800
C  40.59000 44.09100 29.89900
C  41.58100 44.52000 30.93600
O  42.76400 44.66200 30.64500
O  41.02500 44.72300 32.21500
C  42.00600 45.17400 33.30200
H  42.72400 37.47400 29.88500
H  42.41800 37.49600 23.52200
H  40.21600 43.52000 23.57500
H  42.14600 41.83800 31.88300
H  41.08800 39.12000 31.39300
H  42.89400 39.06500 32.99300
H  43.83900 40.28500 32.10300
H  43.83900 38.59900 31.62600
H  39.38700 41.35100 31.11800
H  40.22300 42.47300 32.16500
H  40.61000 39.96300 33.50900
H  39.08800 39.89100 33.01600
H  42.77800 34.67100 28.30500
H  43.58000 35.81300 29.31800
H  44.47200 34.93400 27.98500
H  43.74900 33.59500 26.37100
H  45.17500 34.52900 26.01000
H  44.51300 33.30000 24.96200
H  40.94900 39.11700 21.84000
H  41.38700 41.93600 21.65700
H  42.98000 38.92500 20.81500
H  43.81000 39.96900 22.00600
H  42.93700 40.68600 20.72500
H  39.40000 40.73700 20.92200
H  39.25500 42.40600 21.71300
H  38.61700 40.29100 23.65800
H  37.67800 40.08400 22.08100
H  37.61200 41.51200 22.89700
H  39.62900 45.68000 24.40500
H  40.85300 46.56200 25.39300
H  39.25800 46.44000 25.99000
H  39.64300 43.95900 30.42100
H  41.63600 46.01500 33.88900
H  42.99200 45.50500 32.97400
H  42.14500 44.36200 34.01500
Mg 16.69700 52.21900 25.83300
C  18.38500 51.00600 28.59500
C  13.98600 52.85000 27.95300
C  14.88100 53.35300 23.15800
C  19.06000 51.01800 23.73700
N  16.28500 52.06800 28.00400
C  17.16000 51.69500 28.93700
C  16.65200 51.88800 30.36700
C  15.15600 52.13100 30.13100
C  15.11300 52.44700 28.65800
C  14.31800 50.89600 30.60100
C  17.42300 53.02100 31.12400
C  17.29800 52.95600 32.60400
H  16.18400 52.13000 33.31000
N  14.77100 53.06500 25.57300
C  13.75800 53.19100 26.58700
C  12.49800 53.62300 25.96700
C  12.85300 53.93300 24.61300
C  14.21900 53.42100 24.36300
C  11.23900 53.83100 26.79100
C  11.91700 54.49500 23.49900
O  12.38700 54.80600 22.43800
C  10.51800 54.83600 23.83800
N  16.77600 51.93600 23.66500
C  16.05100 52.64800 22.75700
C  16.65000 52.62600 21.37000
C  18.00300 52.05400 21.64000
C  17.99000 51.65900 23.08700
C  15.77900 51.81500 20.36700
C  19.22200 52.95600 21.38400
C  20.29100 52.21300 20.67600
N  18.38300 51.24600 26.10400
C  19.30200 50.82300 25.07900
C  20.35200 50.03500 25.70400
C  20.09800 50.13900 27.10300
C  18.82700 50.83500 27.25100
C  21.40700 49.28600 24.98300
C  20.56800 49.82400 28.42400
O  21.57800 49.17900 28.71600
C  19.49500 50.31200 29.38800
C  18.85200 49.17500 30.10900
O  18.00300 48.40000 29.63300
O  19.16700 49.21100 31.48100
C  18.37700 48.41000 32.50400
H  13.12200 53.09500 28.57400
H  14.51100 53.97500 22.34000
H  19.88200 50.65300 23.11900
H  16.92100 51.00000 30.94000
H  14.76200 53.01400 30.63500
H  14.80600 49.95700 30.86300
H  13.67400 50.57700 29.78100
H  13.66400 51.22100 31.41000
H  17.03000 53.96700 30.75300
H  18.46900 52.96400 30.82400
H  17.08000 53.94800 32.99900
H  18.26300 52.70200 33.04200
H  10.35000 53.30200 26.44600
H  11.21200 54.92000 26.83500
H  11.43900 53.63000 27.84300
H  10.02800 53.92700 24.18500
H  10.07200 55.14200 22.89100
H  10.50900 55.54800 24.66300
H  16.71600 53.67300 21.07100
H  18.04700 51.13500 21.05600
H  15.30200 51.01900 20.93900
H  16.33800 51.37700 19.53900
H  14.97500 52.37300 19.88600
H  19.77900 53.14800 22.30100
H  19.06300 53.89600 20.85500
H  20.60300 52.76800 19.79100
H  20.03800 51.20400 20.35000
H  21.14100 52.22300 21.35900
H  21.11000 48.91100 24.00400
H  21.65600 48.37800 25.53200
H  22.27100 49.94200 24.87500
H  19.98200 51.03100 30.04600
H  18.53300 47.34700 32.32000
H  17.34200 48.61700 32.23200
H  18.78200 48.67500 33.48000

