158

Mg -1.87500 17.84800 26.51300
C  -2.33200 15.49500 29.11100
C  -2.26400 20.36000 28.69500
C  -2.44700 19.94700 23.85300
C  -2.30500 15.12300 24.23000
N  -2.42300 17.87000 28.69500
C  -2.31300 16.84900 29.56000
C  -2.41100 17.37600 31.04200
C  -2.53100 18.90500 30.85500
C  -2.41500 19.09500 29.33300
C  -3.76500 19.52900 31.49600
C  -1.30600 16.74300 31.97600
C  -0.89600 17.52700 33.24500
H  -0.66000 16.70000 34.53800
N  -2.02900 19.92400 26.32800
C  -2.22000 20.79000 27.36400
C  -2.26700 22.14100 26.89700
C  -2.25700 22.04900 25.43200
C  -2.31400 20.57300 25.16600
C  -2.43500 23.35400 27.80700
C  -2.39400 23.05300 24.23600
O  -2.36200 22.83600 23.09300
C  -2.57400 24.50700 24.69200
N  -2.03600 17.65000 24.37700
C  -2.39600 18.61900 23.50300
C  -2.65700 18.11300 22.06900
C  -2.37700 16.58300 22.27200
C  -2.28300 16.43700 23.77700
C  -3.86900 18.58100 21.25800
C  -1.13400 16.15200 21.40600
C  0.19900 15.77600 22.14300
N  -2.07000 15.68000 26.55100
C  -2.18300 14.78600 25.56700
C  -2.19800 13.47700 26.09000
C  -2.21200 13.70700 27.47200
C  -2.16900 15.06800 27.73800
C  -2.17600 12.12800 25.41600
C  -2.33400 13.05900 28.74900
O  -2.50700 11.84200 29.00900
C  -2.42800 14.17200 29.84300
C  -1.40900 13.83400 30.82200
O  -0.19800 13.90500 30.64800
O  -2.08600 13.36600 31.83900
C  -1.25400 12.87800 32.90600
H  -2.19100 21.19800 29.39100
H  -2.92400 20.60000 23.11900
H  -2.57900 14.28600 23.58500
H  -3.30200 16.82900 31.34800
H  -1.67600 19.42000 31.29300
H  -4.39500 20.05400 30.77700
H  -3.49600 20.32500 32.19000
H  -4.32100 18.82300 32.11200
H  -0.41200 16.47500 31.41300
H  -1.67400 15.80500 32.39100
H  -1.48800 18.41900 33.44900
H  0.06400 17.91600 32.90300
H  -1.47700 23.87300 27.78000
H  -2.62200 22.83400 28.74600
H  -3.24400 24.00000 27.46600
H  -1.82200 24.65500 25.46700
H  -3.61600 24.40500 24.99300
H  -2.42900 25.07800 23.77500
H  -1.93200 18.59200 21.41100
H  -3.15200 15.90700 21.91300
H  -4.29600 19.44100 21.77300
H  -4.61900 17.80100 21.12400
H  -3.54000 18.82000 20.24700
H  -0.94500 16.88700 20.62400
H  -1.43100 15.20100 20.96500
H  0.25100 14.68800 22.14500
H  0.37100 16.11400 23.16600
H  1.09000 16.04900 21.57800
H  -1.30100 12.08800 24.76600
H  -3.15600 12.17700 24.94300
H  -2.06700 11.32500 26.14500
H  -3.44300 14.21100 30.23900
H  -0.93200 11.86600 32.66000
H  -1.92900 12.76300 33.75300
H  -0.38400 13.48700 33.15300
Mg 1.09500 -0.93600 43.76600
C  4.49900 -0.44000 43.08100
C  0.19800 1.66900 41.83700
C  -2.20100 -2.15700 43.66000
C  1.96000 -4.05000 45.11800
N  2.26400 0.26800 42.28400
C  3.63100 0.42800 42.31100
C  3.98600 1.66600 41.57700
C  2.59300 2.45700 41.55300
C  1.58300 1.41200 41.89000
C  2.44400 3.68400 42.39400
C  4.83000 1.48900 40.26700
C  6.23400 2.16600 40.09100
H  6.49000 2.96500 38.80100
N  -0.75300 -0.25500 43.01200
C  -0.83800 0.82200 42.11900
C  -2.15400 1.06700 41.89300
C  -2.93200 0.00300 42.42600
C  -1.98500 -0.86200 43.08900
C  -2.62300 2.37800 41.20700
C  -4.46500 -0.03700 42.42000
O  -5.10900 0.89700 41.94900
C  -5.19400 -1.22100 42.92700
N  0.02200 -2.83000 44.23000
C  -1.30300 -3.04900 44.21600
C  -1.73700 -4.46400 44.77600
C  -0.40600 -4.92700 45.38600
C  0.57800 -3.90200 44.84200
C  -3.04300 -4.61400 45.57600
C  -0.09500 -6.39800 45.00400
C  -0.26300 -7.35700 46.20700
N  2.85200 -2.05600 44.12200
C  3.02100 -3.23000 44.77600
C  4.42600 -3.44100 45.02000
C  5.06000 -2.38000 44.27600
C  4.06900 -1.54200 43.78800
C  5.17000 -4.53700 45.69900
C  6.32700 -1.75000 43.96700
O  7.46100 -2.07000 44.27400
C  6.02700 -0.49900 43.13200
C  6.62100 0.76400 43.69300
O  6.24400 1.17800 44.81500
O  7.67500 1.30600 42.99100
C  8.48500 2.24100 43.79100
H  0.02300 2.67700 41.45500
H  -3.19700 -2.60600 43.66100
H  2.27600 -4.90100 45.72600
H  4.63400 2.21700 42.25800
H  2.46100 2.71900 40.50400
H  3.30700 3.93000 43.01300
H  1.55000 3.72800 43.01500
H  2.45200 4.48600 41.65600
H  4.33700 1.94500 39.40800
H  4.91000 0.40600 40.16900
H  7.02000 1.41000 40.09100
H  6.45000 2.67100 41.03300
H  -1.92700 3.21100 41.10500
H  -3.44100 2.78500 41.80100
H  -2.92700 2.22400 40.17200
H  -5.09800 -1.34600 44.00600
H  -4.66000 -2.02100 42.41400
H  -6.23000 -1.25800 42.59100
H  -1.89700 -4.91900 43.79900
H  -0.40800 -4.71500 46.45600
H  -3.48600 -3.65200 45.83600
H  -2.79700 -4.96900 46.57700
H  -3.62600 -5.38100 45.06700
H  0.90100 -6.44400 44.56200
H  -0.70100 -6.75600 44.17200
H  -1.19300 -7.09700 46.71200
H  0.60100 -7.32500 46.87000
H  -0.40200 -8.36000 45.80200
H  4.64200 -4.81700 46.61100
H  6.15200 -4.14300 45.95900
H  5.18300 -5.39400 45.02600
H  6.35000 -0.79000 42.13300
H  7.92400 3.14500 44.02900
H  9.37600 2.45600 43.20100
H  8.91500 1.76400 44.67200

