158

Mg 0.69900 8.61400 28.05600
C  1.71100 10.78400 30.60900
C  0.61900 5.99100 30.25300
C  0.33500 6.53700 25.35800
C  1.49000 11.24100 25.76000
N  1.11000 8.46200 30.20000
C  1.40100 9.51800 31.10100
C  1.32500 8.98600 32.53300
C  1.41500 7.43300 32.30200
C  0.96000 7.27200 30.81700
C  2.83900 7.00300 32.59900
C  -0.00500 9.45800 33.17100
C  -0.18800 9.35300 34.69600
H  0.84800 8.72200 35.61100
N  0.39000 6.63100 27.79700
C  0.31800 5.68200 28.89600
C  -0.12000 4.42800 28.36800
C  -0.27900 4.60300 26.91300
C  0.10100 5.95300 26.66200
C  -0.27100 3.12300 29.25200
C  -0.63800 3.59500 25.80400
O  -0.62800 3.77000 24.59700
C  -1.06300 2.19900 26.22100
N  0.78900 8.88700 25.89300
C  0.74000 7.84700 25.05000
C  1.26600 8.20400 23.65300
C  1.26200 9.79900 23.74100
C  1.15200 10.01900 25.20100
C  2.65000 7.73200 23.20000
C  0.19400 10.52500 22.87300
C  -1.30700 10.15300 22.95000
N  1.39900 10.61400 28.10700
C  1.61900 11.57800 27.12000
C  1.94800 12.84700 27.70700
C  1.92200 12.54700 29.08300
C  1.59600 11.21800 29.26600
C  2.34200 14.10700 26.92700
C  2.14400 13.17000 30.35800
O  2.38300 14.34100 30.67800
C  1.87300 12.15500 31.43900
C  2.93500 12.06100 32.43800
O  4.11200 11.88100 32.25300
O  2.30800 12.33300 33.66700
C  3.17600 12.55000 34.82900
H  0.66400 5.18900 30.99300
H  0.47500 5.89300 24.48700
H  1.90700 11.93000 25.02300
H  2.17800 9.44100 33.03700
H  0.61400 6.84900 32.75400
H  3.46600 6.77900 31.73600
H  2.69200 6.04600 33.10000
H  3.36600 7.74000 33.20500
H  -0.69800 8.73600 32.74000
H  -0.22500 10.47800 32.85300
H  -1.10900 8.83800 34.96600
H  -0.37900 10.39500 34.95600
H  -1.33000 2.88200 29.15200
H  0.07600 3.20400 30.28200
H  0.32600 2.26000 28.95800
H  -1.49600 1.65500 25.38100
H  -1.89500 2.30700 26.91600
H  -0.17300 1.61700 26.46100
H  0.58500 7.77100 22.92100
H  2.22300 10.18300 23.39700
H  2.97000 8.50000 22.49500
H  2.67500 6.73300 22.76700
H  3.33900 7.70100 24.04500
H  0.63300 10.33700 21.89300
H  0.16400 11.59600 23.07400
H  -1.32100 9.15600 22.50900
H  -2.01700 10.85700 22.51700
H  -1.61100 10.09900 23.99600
H  2.31400 14.97800 27.58100
H  1.65000 14.13800 26.08600
H  3.34200 13.95500 26.52000
H  0.91600 12.39600 31.90100
H  3.83900 13.41500 34.80000
H  3.64900 11.69700 35.31500
H  2.43100 12.86000 35.56300
Mg 4.65700 54.86200 39.82700
C  4.57400 51.31400 40.26200
C  7.59100 54.41100 38.24800
C  4.28200 57.87800 38.74700
C  1.51700 54.81300 41.52400
N  5.87000 53.05400 39.31600
C  5.66900 51.71700 39.56100
C  6.81100 50.86700 39.12600
C  7.95200 52.01500 38.90700
C  7.08000 53.27200 38.79100
C  9.11200 52.21700 39.98900
C  6.58700 50.00500 37.83200
C  5.89400 50.70900 36.65100
H  6.75300 51.04100 35.44500
N  5.88700 56.07900 38.79300
C  7.06200 55.78800 38.17000
C  7.56700 56.93900 37.45200
C  6.62000 57.96400 37.61600
C  5.52900 57.39400 38.40800
C  8.86400 56.94300 36.69700
C  6.70000 59.38800 36.97000
O  7.55900 59.64100 36.12200
C  5.85100 60.50100 37.40100
N  3.10300 56.11100 40.08800
C  3.32200 57.40700 39.67200
C  2.15400 58.30100 40.22100
C  1.18400 57.30600 40.90600
C  1.97500 56.02000 40.86500
C  2.65400 59.53600 41.07100
C  -0.26700 57.23000 40.48000
C  -1.38200 57.45700 41.52400
N  3.33700 53.41000 40.79600
C  2.15200 53.55900 41.45900
C  1.73200 52.29500 42.03200
C  2.60100 51.34200 41.59000
C  3.59300 52.11700 40.87800
C  0.53500 52.13200 42.88500
C  2.89000 49.93300 41.51700
O  2.28200 49.01700 41.98500
C  4.19900 49.85700 40.76500
C  4.04200 48.89000 39.71900
O  3.42000 49.01900 38.67900
O  4.61900 47.68600 40.09400
C  4.42400 46.54600 39.20400
H  8.46400 54.21700 37.62200
H  4.10300 58.88100 38.35200
H  0.70500 54.79400 42.25500
H  7.09600 50.19600 39.93500
H  8.51600 51.77900 38.00400
H  9.19300 51.33500 40.62400
H  8.82900 53.05200 40.62900
H  10.02700 52.42800 39.43600
H  5.97700 49.12800 38.04800
H  7.54800 49.58800 37.53200
H  5.59900 51.71300 36.95500
H  5.07000 50.07200 36.32700
H  8.76300 57.02300 35.61500
H  9.36100 56.02600 37.01300
H  9.35200 57.76000 37.22800
H  4.94100 60.53200 36.80300
H  6.32200 61.43100 37.08100
H  5.71000 60.59200 38.47800
H  1.70700 58.76300 39.34000
H  1.18500 57.56900 41.96400
H  2.50400 60.47600 40.54000
H  3.71600 59.33400 41.20600
H  2.27200 59.59300 42.09000
H  -0.30900 56.23400 40.04000
H  -0.51900 57.93600 39.68800
H  -1.89100 58.38000 41.24700
H  -1.03500 57.60000 42.54700
H  -2.06300 56.60800 41.59300
H  0.85000 52.44500 43.88000
H  0.16700 51.11700 43.03100
H  -0.32800 52.71500 42.56200
H  4.99200 49.47800 41.40900
H  5.05900 46.41100 38.32900
H  3.45500 46.47300 38.71100
H  4.65300 45.62900 39.74800

