158

Mg 47.32800 16.02700 28.22300
C  45.03600 15.95700 30.89700
C  49.41500 17.92900 30.49000
C  49.20600 16.83700 25.75000
C  44.81700 14.82000 26.16100
N  47.17600 16.99300 30.44600
C  46.10800 16.70500 31.32400
C  46.51900 17.05500 32.76400
C  47.72000 17.99500 32.56900
C  48.19000 17.55200 31.13200
C  47.57600 19.56800 32.61400
C  46.96800 15.79400 33.54600
C  46.63500 15.94400 35.06200
H  46.38700 17.27800 35.70400
N  49.23900 17.06900 28.13500
C  49.90300 17.75100 29.16600
C  51.19200 18.22400 28.63300
C  51.17000 17.98900 27.21800
C  49.87400 17.27600 26.95500
C  52.32000 18.85100 29.47500
C  52.16400 18.33200 26.12900
O  51.86700 18.37000 24.96500
C  53.51400 18.96800 26.42400
N  47.02900 15.88700 26.28900
C  48.00200 16.20500 25.40600
C  47.57900 15.97100 23.94600
C  46.52600 14.91000 24.19700
C  46.05900 15.21600 25.61700
C  47.17600 17.23300 23.05400
C  47.23900 13.51500 24.19300
C  46.46900 12.41500 23.40800
N  45.32700 15.52700 28.41900
C  44.46800 14.90200 27.50900
C  43.30700 14.41500 28.19300
C  43.53300 14.73300 29.52300
C  44.72000 15.46800 29.62500
C  42.15300 13.56200 27.59300
C  42.94700 14.61300 30.83300
O  41.91600 14.05300 31.23600
C  43.92100 15.38400 31.79900
C  43.10500 16.32800 32.61100
O  42.69000 17.46700 32.23000
O  42.88600 15.84100 33.87100
C  42.03800 16.69100 34.71800
H  50.18800 18.30600 31.16400
H  49.84900 16.94900 24.87500
H  44.12400 14.22100 25.56600
H  45.73800 17.65500 33.23100
H  48.49700 17.73100 33.28700
H  47.58400 19.92600 31.58400
H  48.46000 20.02800 33.05700
H  46.68000 19.92400 33.12200
H  48.03100 15.58000 33.43600
H  46.47500 14.91500 33.13000
H  47.33500 15.33800 35.63700
H  45.72800 15.38200 35.28500
H  53.13800 18.15200 29.65000
H  51.96700 19.20900 30.44200
H  52.68800 19.69500 28.89100
H  53.42800 19.99300 26.78500
H  54.22100 18.94500 25.59500
H  53.89100 18.37400 27.25600
H  48.49100 15.67400 23.42800
H  45.71900 14.82200 23.46900
H  47.58300 18.15600 23.46700
H  46.09600 17.35400 22.97700
H  47.44400 17.04300 22.01500
H  47.28800 13.17600 25.22800
H  48.27800 13.54600 23.86200
H  47.19000 12.02400 22.69000
H  45.54000 12.78500 22.97400
H  46.07700 11.53800 23.92400
H  41.23500 13.97300 28.01200
H  42.24700 12.50500 27.84400
H  42.03500 13.65800 26.51300
H  44.32100 14.61400 32.45800
H  42.52400 16.68200 35.69400
H  41.07300 16.19500 34.82600
H  41.95300 17.73900 34.43100
Mg -11.86000 38.48500 42.02400
C  -9.62300 36.04800 40.74900
C  -9.70700 40.95800 40.70100
C  -14.35700 40.77500 42.28700
C  -13.98800 35.90700 42.97300
N  -9.93900 38.43200 40.88300
C  -9.23600 37.33700 40.48900
C  -8.03900 37.78000 39.64000
C  -8.05600 39.28900 39.76900
C  -9.35400 39.61800 40.45100
C  -6.83900 39.89700 40.57300
C  -8.04100 37.27900 38.16900
C  -6.94900 36.33300 37.66800
H  -5.88100 36.91400 36.73900
N  -11.96300 40.55400 41.59100
C  -10.90200 41.40300 41.23100
C  -11.39600 42.84200 41.13900
C  -12.77800 42.78100 41.58300
C  -13.11400 41.35200 41.82900
C  -10.50200 44.09600 40.85200
C  -13.72500 44.03100 41.70400
O  -13.39000 45.13600 41.29300
C  -15.08600 43.92600 42.26700
N  -13.86400 38.38800 42.44800
C  -14.64500 39.47600 42.68900
C  -16.13100 39.02900 43.26600
C  -15.95600 37.50100 43.24100
C  -14.51100 37.24300 42.77900
C  -16.40300 39.60300 44.70800
C  -17.01100 36.83200 42.28400
C  -17.03000 37.13500 40.76500
N  -11.86100 36.37700 41.91400
C  -12.69100 35.46700 42.44000
C  -12.14300 34.10700 42.40200
C  -10.93100 34.26700 41.67000
C  -10.81700 35.67700 41.39000
C  -12.79900 32.85000 42.92000
C  -9.74600 33.62100 41.04600
O  -9.38800 32.45700 40.95700
C  -8.90300 34.79600 40.46700
C  -7.58900 34.68400 41.17700
O  -7.33200 35.19100 42.23400
O  -6.76300 33.98200 40.34100
C  -5.34900 34.00100 40.66100
H  -9.16900 41.70900 40.11900
H  -15.21600 41.42200 42.48000
H  -14.63100 35.16600 43.45200
H  -7.18100 37.33700 40.14500
H  -8.30900 39.75100 38.81500
H  -6.88200 40.97300 40.74200
H  -5.87000 39.71400 40.10800
H  -6.84200 39.27300 41.46700
H  -8.13100 38.03000 37.38400
H  -8.97900 36.72800 38.11200
H  -7.43300 35.43800 37.27700
H  -6.25000 35.98900 38.43000
H  -9.53800 43.91900 41.32900
H  -10.94400 44.93200 41.39600
H  -10.44800 44.24200 39.77300
H  -15.70100 43.32200 41.60200
H  -15.51800 44.92600 42.22100
H  -15.08400 43.51900 43.27900
H  -16.87200 39.41200 42.56400
H  -16.00500 37.19800 44.28700
H  -16.01100 40.61200 44.83600
H  -16.01500 38.94200 45.48200
H  -17.44500 39.63300 45.02900
H  -17.98200 37.11200 42.69000
H  -17.00200 35.74300 42.33200
H  -15.99500 37.34600 40.49600
H  -17.73200 37.93100 40.51800
H  -17.39700 36.24000 40.26200
H  -12.15500 32.05400 42.54600
H  -13.82000 32.80700 42.54200
H  -12.61800 32.86000 43.99500
H  -8.89600 34.63900 39.38800
H  -4.67100 33.65600 39.88000
H  -5.17700 33.25100 41.43200
H  -5.10300 34.98400 41.06200

