158

Mg 25.33100 -1.11800 28.76100
C  27.39700 -1.51300 31.55000
C  22.63600 -1.08600 30.72500
C  23.55500 -0.77900 25.92900
C  28.16000 -1.82200 26.75900
N  25.09200 -1.42700 30.89200
C  26.03100 -1.36000 31.87100
C  25.37400 -1.20100 33.29100
C  23.81100 -1.06700 32.98300
C  23.84300 -1.28500 31.40100
C  22.78700 -2.12100 33.59900
C  25.86800 0.12500 34.01300
C  26.14000 -0.03900 35.46400
H  25.86800 1.18500 36.36600
N  23.36800 -0.83500 28.37700
C  22.40500 -0.83500 29.34400
C  21.15000 -0.39400 28.74900
C  21.42000 -0.44300 27.33500
C  22.83000 -0.69300 27.09900
C  19.89900 -0.05300 29.43100
C  20.45000 -0.20000 26.23100
O  20.83700 -0.04100 25.06100
C  19.05200 -0.27200 26.46200
N  25.79600 -1.51000 26.57300
C  24.88600 -1.12900 25.67700
C  25.50800 -1.11300 24.21100
C  27.01600 -1.43500 24.48300
C  27.01600 -1.66400 26.02000
C  24.94900 -2.07300 23.15000
C  27.93200 -0.22600 24.05600
C  27.90400 1.04200 24.85900
N  27.41800 -1.62100 29.02800
C  28.40300 -1.88800 28.15100
C  29.59700 -2.15400 28.90600
C  29.22300 -1.94700 30.22200
C  27.93900 -1.74600 30.25900
C  30.89200 -2.50300 28.23200
C  29.76800 -1.93700 31.55100
O  30.88600 -2.04600 31.95800
C  28.57700 -1.54200 32.45000
C  28.30600 -2.62000 33.48000
O  27.82400 -3.72400 33.27700
O  28.64300 -2.12500 34.75000
C  28.15500 -3.02900 35.79400
H  21.75100 -0.81600 31.30600
H  23.10900 -0.59800 24.94800
H  29.02500 -1.95200 26.10600
H  25.57600 -2.00600 33.99800
H  23.47700 -0.04100 33.13400
H  23.02100 -2.30500 34.64800
H  22.83600 -3.08600 33.09500
H  21.86300 -1.60000 33.84900
H  25.19800 0.94600 33.75900
H  26.80900 0.38700 33.53000
H  27.22000 -0.10800 35.60000
H  25.59600 -0.92900 35.78100
H  19.44500 0.83300 28.98700
H  20.08100 0.02400 30.50300
H  19.18200 -0.87000 29.34600
H  18.55800 -0.39900 25.49900
H  18.80800 0.73800 26.79200
H  18.71700 -1.05400 27.14500
H  25.37000 -0.15000 23.72000
H  27.44400 -2.25800 23.91100
H  25.55300 -2.98000 23.16400
H  25.10500 -1.63800 22.16300
H  23.87000 -2.16500 23.27300
H  27.73200 -0.05800 22.99800
H  28.97200 -0.54600 24.10900
H  27.37000 0.84300 25.78900
H  27.46300 1.93400 24.41300
H  28.91000 1.40600 25.06900
H  30.90300 -3.57100 28.01500
H  31.77700 -2.32800 28.84400
H  31.17400 -2.07700 27.27000
H  28.82200 -0.64100 33.01200
H  27.06700 -2.96400 35.77200
H  28.46900 -2.66200 36.77100
H  28.36700 -4.09200 35.68000
Mg 47.32000 24.59100 28.78000
C  48.04700 26.89400 31.32800
C  46.43900 22.31600 31.13300
C  47.05800 22.39100 26.30300
C  48.55200 26.96600 26.44100
N  47.28800 24.69900 30.97300
C  47.47300 25.72000 31.82300
C  47.09200 25.33600 33.23000
C  46.95000 23.79700 33.18400
C  47.01700 23.54400 31.66100
C  48.12200 23.01800 33.95000
C  45.80800 26.10000 33.82500
C  45.98100 26.61400 35.33600
H  44.77100 26.51000 36.18200
N  46.71400 22.56800 28.72400
C  46.35600 21.88100 29.83900
C  45.89100 20.59400 29.30400
C  46.16400 20.56000 27.89700
C  46.63800 21.89200 27.58300
C  45.39000 19.53500 30.22700
C  45.93300 19.48400 26.81600
O  46.39600 19.47500 25.68200
C  45.45800 18.10400 27.28300
N  47.87500 24.67200 26.66800
C  47.54900 23.64600 25.86700
C  47.70800 24.05300 24.37900
C  47.84500 25.58500 24.41600
C  48.14300 25.75600 25.93100
C  48.94200 23.36100 23.73900
C  46.52900 26.34100 24.05100
C  45.24700 26.02200 24.83000
N  48.15600 26.46800 28.83000
C  48.49500 27.32900 27.81700
C  48.87900 28.60300 28.24300
C  48.70400 28.52400 29.66500
C  48.32000 27.14000 29.97500
C  49.32800 29.79200 27.46500
C  48.86700 29.21300 30.92200
O  49.16000 30.38300 31.22100
C  48.29400 28.20500 32.03300
C  49.40600 28.04400 33.05700
O  50.63300 27.90700 32.87100
O  48.97900 28.33600 34.30400
C  49.87400 28.39300 35.41200
H  46.21200 21.58000 31.90600
H  47.00000 21.73500 25.43200
H  48.81800 27.79700 25.78400
H  47.97100 25.49500 33.85500
H  45.96900 23.50700 33.56100
H  47.91500 22.89400 35.01300
H  48.92600 23.74500 33.83600
H  48.33000 22.12600 33.35900
H  45.02600 25.34600 33.92200
H  45.45000 26.94900 33.24200
H  46.30600 27.65300 35.28800
H  46.85100 26.05500 35.68100
H  44.68000 18.83100 29.79300
H  44.92600 20.06400 31.05900
H  46.21600 18.90500 30.55700
H  45.64300 17.30800 26.56200
H  44.38100 18.19900 27.42100
H  46.01300 17.92200 28.20400
H  46.78500 23.78800 23.86300
H  48.58000 25.94000 23.69400
H  48.75500 22.90800 22.76600
H  49.27600 22.50900 24.33200
H  49.72200 24.10500 23.58200
H  46.30600 26.12200 23.00700
H  46.78300 27.40100 24.06500
H  45.25600 25.16000 25.49700
H  44.39400 25.96800 24.15400
H  45.04500 26.86700 25.48900
H  49.67800 30.62900 28.06800
H  48.49100 30.16200 26.87300
H  50.15100 29.40300 26.86400
H  47.36500 28.62700 32.41400
H  50.75400 27.76000 35.29900
H  49.42900 28.10500 36.36500
H  50.12800 29.44800 35.51400

