158

Mg -1.41000 33.76700 27.26400
C  -3.07500 31.66200 29.61800
C  0.17700 35.21900 29.88400
C  -0.02500 35.92800 25.16900
C  -3.27800 32.33200 24.69000
N  -1.51100 33.42700 29.54500
C  -2.23900 32.55200 30.26900
C  -1.96000 32.75700 31.74700
C  -1.12900 34.07500 31.79600
C  -0.76800 34.30000 30.31100
C  -1.81600 35.30700 32.47800
C  -1.42800 31.47200 32.38500
C  -2.16500 31.04800 33.68100
H  -1.34800 30.92900 35.03800
N  -0.05100 35.32300 27.52600
C  0.54000 35.75400 28.69000
C  1.54900 36.78400 28.39200
C  1.45300 36.99700 26.99500
C  0.47500 36.01700 26.47600
C  2.39300 37.48400 29.44600
C  2.24900 38.00400 26.08000
O  2.11200 38.01900 24.84600
C  3.28500 38.90200 26.61400
N  -1.80800 34.21000 25.27500
C  -1.03100 35.14400 24.61600
C  -1.33900 35.05500 23.06400
C  -2.23400 33.79600 22.96500
C  -2.47100 33.40700 24.39300
C  -1.96000 36.35700 22.45900
C  -1.65900 32.64200 22.07500
C  -0.67900 31.63200 22.75700
N  -2.83000 32.28300 27.08300
C  -3.51600 31.79200 25.98700
C  -4.33600 30.70000 26.42600
C  -4.27000 30.65700 27.82200
C  -3.27400 31.57900 28.18900
C  -5.12300 29.83800 25.46300
C  -4.79500 29.99600 29.03900
O  -5.52900 29.04300 29.16900
C  -4.10400 30.65500 30.27100
C  -5.16100 31.28300 31.09200
O  -5.60000 32.39500 30.96100
O  -5.44500 30.45600 32.12900
C  -6.66000 30.76700 32.87400
H  0.66800 35.78100 30.68100
H  0.46300 36.55900 24.42300
H  -3.89600 31.98700 23.85800
H  -2.95300 32.98500 32.13500
H  -0.21000 34.05000 32.38100
H  -1.55600 35.42000 33.53100
H  -2.90400 35.25400 32.44700
H  -1.53000 36.24300 31.99900
H  -0.44900 31.77800 32.75200
H  -1.23700 30.66200 31.68100
H  -2.45000 30.04300 33.37000
H  -3.02000 31.70900 33.82000
H  3.43200 37.16300 29.51600
H  2.12800 37.23100 30.47300
H  2.25800 38.53600 29.19700
H  2.62400 39.69700 26.95900
H  4.05200 39.26100 25.92700
H  3.90900 38.35000 27.31600
H  -0.35900 35.01600 22.58800
H  -3.21200 34.08500 22.58100
H  -2.53700 36.06400 21.58200
H  -1.25100 37.12900 22.16100
H  -2.66100 36.71400 23.21500
H  -1.18600 33.00500 21.16200
H  -2.50300 32.09200 21.65900
H  -0.55500 32.01100 23.77100
H  0.25000 31.58800 22.18900
H  -1.10900 30.63000 22.74000
H  -6.07100 29.61600 25.95300
H  -4.58200 28.96100 25.10600
H  -5.26900 30.37200 24.52400
H  -3.56100 29.89900 30.84000
H  -7.55300 31.11700 32.35700
H  -6.27700 31.47700 33.60800
H  -6.94000 29.86000 33.41000
Mg -5.23400 24.52600 25.68200
C  -4.09200 25.77700 28.70700
C  -7.35700 22.51300 27.40800
C  -6.50200 23.42300 22.68700
C  -3.21900 26.78200 23.95800
N  -5.57800 24.15800 27.83400
C  -5.16900 24.88200 28.82900
C  -5.85200 24.66300 30.16400
C  -6.71200 23.43400 29.76100
C  -6.58100 23.31400 28.26300
C  -6.55800 22.13100 30.50100
C  -6.58800 25.92000 30.77700
C  -6.37700 26.09400 32.37100
H  -5.71600 25.06300 33.24700
N  -6.68300 23.06300 25.15000
C  -7.44800 22.42600 26.01900
C  -8.30400 21.59700 25.33800
C  -8.12500 21.81900 23.91300
C  -7.10700 22.87600 23.84700
C  -9.36400 20.73100 26.00100
C  -8.78700 21.18000 22.73500
O  -8.69900 21.59500 21.58800
C  -9.74200 19.97700 22.94300
N  -4.96200 25.12600 23.61300
C  -5.42200 24.38700 22.57000
C  -5.02100 25.06900 21.19500
C  -4.05800 26.18000 21.65000
C  -4.14200 26.06600 23.19400
C  -4.27400 24.04000 20.28200
C  -4.46700 27.49700 21.00000
C  -3.31700 28.41200 20.63100
N  -3.89400 25.98000 26.19200
C  -3.13500 26.77400 25.38900
C  -2.31900 27.63500 26.24200
C  -2.64300 27.24300 27.55100
C  -3.59800 26.18900 27.46300
C  -1.40300 28.65600 25.76200
C  -2.46900 27.58100 29.00100
O  -1.82600 28.47600 29.46600
C  -3.40100 26.53400 29.81800
C  -2.53600 25.74900 30.77100
O  -2.00500 24.66400 30.50800
O  -2.36700 26.39700 31.98900
C  -1.42600 25.84300 32.95900
H  -8.00200 21.84200 27.97900
H  -6.90800 23.12100 21.71900
H  -2.51400 27.45600 23.46700
H  -5.02900 24.36700 30.81500
H  -7.75500 23.71600 29.90700
H  -7.16700 21.29200 30.16400
H  -6.64500 22.30600 31.57300
H  -5.53200 21.77300 30.42300
H  -7.65400 25.74300 30.62900
H  -6.21200 26.74600 30.17300
H  -7.38000 26.32000 32.73400
H  -5.70700 26.92300 32.60200
H  -9.13900 19.68500 25.79000
H  -10.35000 20.89600 25.56600
H  -9.49600 20.78600 27.08200
H  -9.25500 19.32000 23.66300
H  -9.96100 19.63400 21.93200
H  -10.62400 20.43600 23.39000
H  -5.99000 25.30100 20.75300
H  -3.05600 25.99800 21.26100
H  -3.48300 24.53000 19.71400
H  -4.99600 23.63300 19.57300
H  -3.89500 23.24500 20.92400
H  -5.08600 28.05400 21.70300
H  -4.96200 27.32100 20.04500
H  -3.10300 28.26500 19.57200
H  -2.37400 28.05100 21.04300
H  -3.44600 29.44700 20.94700
H  -0.65400 28.37800 25.02000
H  -0.89500 29.11900 26.60800
H  -1.98200 29.39100 25.20300
H  -4.11700 27.18600 30.31900
H  -1.91600 24.99200 33.43200
H  -1.05000 26.48100 33.75800
H  -0.63600 25.35500 32.38800

