158

Mg 9.71800 48.69500 25.32700
C  7.49700 49.45300 27.92700
C  12.20000 50.07000 27.37700
C  11.71300 47.77900 23.04600
C  6.97800 47.80300 23.45100
N  9.82700 49.59700 27.46300
C  8.82600 49.78300 28.31300
C  9.28400 50.36700 29.59500
C  10.51300 51.19800 29.08300
C  10.91300 50.24800 27.89000
C  10.26800 52.62900 28.58700
C  9.67900 49.18600 30.64100
C  9.47900 49.52800 32.08100
H  9.00000 48.37600 33.01400
N  11.66200 48.90200 25.24300
C  12.58300 49.33000 26.18100
C  13.91800 49.06700 25.73700
C  13.83600 48.45800 24.44700
C  12.34900 48.31900 24.22600
C  15.15000 49.65800 26.38500
C  14.90800 47.91100 23.51800
O  14.63400 47.35700 22.46400
C  16.34300 47.94900 23.91200
N  9.33600 48.09700 23.35200
C  10.40600 47.66300 22.58700
C  10.01100 46.95300 21.28100
C  8.43600 47.14800 21.31800
C  8.20100 47.67600 22.80200
C  10.66200 47.48700 19.98400
C  7.60600 45.89500 21.02100
C  6.34000 46.06700 20.21000
N  7.57900 48.72100 25.49400
C  6.60300 48.21000 24.72300
C  5.34400 48.17000 25.40800
C  5.65800 48.64100 26.68500
C  7.01400 48.93300 26.68300
C  3.96600 47.75800 24.83800
C  5.05300 49.03300 27.92000
O  3.92100 48.93000 28.27900
C  6.27100 49.48000 28.81000
C  6.28600 48.78900 30.06800
O  6.67500 47.66000 30.24500
O  5.73900 49.60700 31.04800
C  5.47500 48.92400 32.34300
H  12.94600 50.56700 28.00100
H  12.38400 47.27800 22.34500
H  6.19500 47.29000 22.88900
H  8.48600 51.03700 29.91500
H  11.33000 51.12000 29.80100
H  9.19600 52.82200 28.56300
H  10.70800 52.67800 27.59100
H  10.73700 53.40200 29.19500
H  10.69700 48.81100 30.54300
H  9.12000 48.31400 30.30100
H  8.89800 50.43900 32.22300
H  10.45300 49.86000 32.44100
H  15.68000 48.76400 26.71200
H  14.98700 50.38600 27.18000
H  15.78400 50.18200 25.67000
H  16.85800 48.90700 23.98400
H  16.85800 47.45900 23.08500
H  16.43200 47.34400 24.81500
H  10.21400 45.90500 21.49900
H  8.15000 47.99100 20.69100
H  10.36800 46.77900 19.20800
H  11.71800 47.43700 20.24800
H  10.28900 48.49500 19.80400
H  7.32200 45.40400 21.95200
H  8.18400 45.13100 20.50200
H  6.49700 45.58300 19.24600
H  6.15600 47.14000 20.14900
H  5.40900 45.68100 20.62400
H  4.02800 46.67900 24.69500
H  3.76300 48.39400 23.97600
H  3.23100 47.90700 25.62900
H  6.16300 50.53600 29.05900
H  5.59100 47.84300 32.42800
H  4.47700 49.20200 32.68200
H  6.02200 49.39500 33.15900
Mg -2.04500 34.68900 27.50700
C  -3.72900 33.20800 30.22900
C  -0.72500 36.96600 29.71100
C  -0.80100 36.29700 24.98200
C  -3.80100 32.54400 25.38600
N  -2.38300 35.15300 29.67400
C  -2.89800 34.25600 30.58500
C  -2.71800 34.73300 32.06300
C  -1.89100 36.08400 31.94300
C  -1.63600 36.10700 30.35300
C  -2.65300 37.43500 32.48000
C  -1.99000 33.70500 33.00000
C  -1.42900 34.28200 34.37000
H  -1.59700 33.46400 35.56300
N  -0.94100 36.37000 27.40100
C  -0.41800 37.16900 28.39300
C  0.42500 38.25200 27.81600
C  0.34000 38.03600 26.38200
C  -0.55100 36.83600 26.19300
C  1.01400 39.40100 28.69900
C  1.00300 38.91000 25.24400
O  0.97200 38.70600 24.05600
C  1.77400 40.15800 25.55600
N  -2.30100 34.47300 25.43500
C  -1.57500 35.18300 24.59500
C  -1.76000 34.71400 23.14800
C  -2.67000 33.44600 23.30100
C  -2.83700 33.40800 24.81200
C  -2.21600 35.80400 22.18400
C  -1.87400 32.07800 22.89600
C  -2.67200 30.97600 22.28400
N  -3.54000 33.20300 27.74500
C  -4.15600 32.42700 26.77100
C  -5.03600 31.46100 27.36400
C  -4.90300 31.71200 28.77900
C  -4.03500 32.81000 28.87300
C  -5.81000 30.48400 26.72700
C  -5.29800 31.28000 30.06300
O  -5.98500 30.34900 30.47200
C  -4.45400 32.18600 31.07200
C  -5.34900 32.71800 32.08500
O  -6.18300 33.57000 31.83700
O  -5.22000 32.01400 33.22100
C  -6.30100 32.00800 34.13000
H  -0.10000 37.58100 30.36300
H  -0.40200 36.88100 24.15100
H  -4.34200 31.86500 24.72400
H  -3.70200 34.79500 32.52700
H  -0.94400 36.05300 32.48200
H  -2.15200 37.71600 33.40600
H  -3.69600 37.22600 32.71700
H  -2.57000 38.26900 31.78300
H  -1.11700 33.30600 32.48300
H  -2.55300 32.79100 33.19100
H  -1.81700 35.24800 34.69400
H  -0.36300 34.47600 34.24900
H  2.06000 39.13300 28.84900
H  0.46800 39.36800 29.64200
H  0.89200 40.35700 28.19100
H  1.09500 40.86600 26.03100
H  2.13600 40.66800 24.66400
H  2.61600 39.85000 26.17600
H  -0.76100 34.39500 22.85300
H  -3.63700 33.55300 22.80800
H  -2.20900 36.79000 22.64900
H  -3.14900 35.56900 21.67000
H  -1.42000 35.81700 21.44000
H  -1.25400 31.69700 23.70700
H  -1.12000 32.25000 22.12800
H  -3.71600 31.28200 22.21300
H  -2.45700 30.10100 22.89800
H  -2.32000 30.70400 21.28900
H  -5.82300 29.60600 27.37300
H  -5.36300 30.24400 25.76300
H  -6.80900 30.81900 26.44700
H  -3.72900 31.54000 31.56700
H  -5.99400 32.63900 34.96400
H  -6.56100 31.01200 34.48900
H  -7.15600 32.51000 33.67700

