158

Mg 46.87500 25.54700 27.38400
C  47.62400 27.46100 30.23800
C  46.66400 22.77400 29.46300
C  46.46600 23.55500 24.69200
C  47.85700 28.12600 25.31900
N  47.09800 25.17300 29.66000
C  47.28100 26.14000 30.58800
C  47.17800 25.53700 32.00000
C  46.97600 23.98600 31.69700
C  47.03200 23.93200 30.18900
C  47.97600 22.99200 32.35500
C  46.08900 26.21300 32.91300
C  46.64400 26.84300 34.22700
H  45.59200 27.50700 35.14600
N  46.44500 23.50600 27.15500
C  46.39000 22.50500 28.13400
C  46.05600 21.21400 27.44700
C  46.01100 21.51600 26.04700
C  46.33400 22.91500 25.91400
C  46.09900 19.83900 28.12100
C  45.76400 20.54800 24.94500
O  45.95500 20.85400 23.74000
C  45.21500 19.18200 25.20700
N  46.90000 25.91000 25.29300
C  46.74700 24.94400 24.35900
C  46.79300 25.44700 22.91100
C  47.35800 26.94000 23.11400
C  47.34100 27.07700 24.66000
C  47.72200 24.66800 21.89700
C  46.36600 27.95600 22.41900
C  46.33400 27.80600 20.93500
N  47.55500 27.38900 27.69600
C  47.92800 28.37100 26.72100
C  48.25500 29.61200 27.38700
C  48.21500 29.26500 28.78800
C  47.72300 27.94200 28.88900
C  48.64400 30.84200 26.69500
C  48.47600 29.74700 30.11800
O  48.77900 30.82600 30.38100
C  48.00000 28.65700 31.16400
C  49.17100 28.38200 32.04800
O  50.07100 27.66200 31.77500
O  49.09600 29.15600 33.14300
C  50.10900 28.94600 34.23100
H  46.62400 21.85700 30.05400
H  46.32100 22.99600 23.76500
H  47.94100 28.96500 24.62600
H  48.13100 25.61500 32.52300
H  46.03500 23.79700 32.21400
H  47.42700 22.37700 33.06900
H  48.77500 23.54800 32.84500
H  48.52800 22.30700 31.71100
H  45.20100 25.62800 33.15300
H  45.77200 27.06100 32.30600
H  47.33900 27.65100 34.00000
H  47.24100 26.05400 34.68500
H  45.13600 19.34800 27.98000
H  46.16100 19.97800 29.20000
H  46.97300 19.28500 27.78100
H  45.95600 18.69400 25.84000
H  45.16100 18.69100 24.23600
H  44.22400 19.19200 25.66100
H  45.80400 25.62400 22.49000
H  48.36500 27.04400 22.71000
H  47.14500 24.20400 21.09600
H  48.29900 23.94900 22.47900
H  48.43100 25.32100 21.38800
H  46.66100 28.95800 22.73000
H  45.33400 27.88200 22.76100
H  47.06200 27.08300 20.56700
H  46.60800 28.75800 20.48000
H  45.33900 27.67800 20.50900
H  48.19400 31.73900 27.11800
H  48.34100 30.75300 25.65100
H  49.73100 30.89700 26.76400
H  47.12300 29.09300 31.64200
H  50.02700 27.87700 34.42400
H  49.94600 29.43700 35.19000
H  51.07600 29.26700 33.84300
Mg 34.59100 48.34200 26.43000
C  34.98900 46.12700 29.14800
C  33.89400 50.79100 28.66900
C  33.98800 50.37300 23.66400
C  34.90100 45.59400 24.26400
N  34.45000 48.32200 28.67500
C  34.74000 47.37300 29.55200
C  34.75700 47.92800 30.96600
C  33.95500 49.28400 30.79500
C  34.15200 49.52900 29.26400
C  32.38400 49.08600 31.08600
C  36.16500 47.82800 31.67300
C  36.16000 47.45600 33.20100
H  36.21300 48.65300 34.09700
N  34.18800 50.33200 26.18700
C  33.88700 51.19100 27.23000
C  33.62800 52.48400 26.73700
C  33.74700 52.44600 25.32000
C  34.03400 50.99600 25.00200
C  33.41600 53.67400 27.68100
C  33.78700 53.50100 24.27200
O  34.06300 53.20700 23.09500
C  33.44900 54.98000 24.63500
N  34.49800 48.04300 24.27700
C  34.23800 49.06200 23.33000
C  34.16900 48.46500 21.98500
C  34.69700 46.93700 22.18400
C  34.71400 46.79800 23.68300
C  32.89500 48.58600 21.20100
C  36.09600 46.68900 21.64500
C  36.06600 45.57500 20.61700
N  34.76400 46.21400 26.58000
C  34.96900 45.26700 25.63200
C  35.37700 43.98200 26.28800
C  35.22400 44.22700 27.68300
C  35.02200 45.63500 27.79200
C  35.83900 42.77900 25.55900
C  35.45700 43.70800 28.97400
O  35.72500 42.57500 29.35500
C  35.26900 44.91000 30.07100
C  34.22100 44.44800 30.97900
O  33.08000 44.26100 30.69800
O  34.74400 44.27400 32.24600
C  33.83000 44.16600 33.37400
H  33.58300 51.50900 29.43100
H  33.77500 51.04300 22.82900
H  34.87400 44.63200 23.74800
H  34.09600 47.37000 31.62900
H  34.43400 50.15800 31.23600
H  31.93400 49.35400 32.04200
H  32.17300 48.02900 30.92500
H  31.91400 49.64300 30.27600
H  36.57900 48.82500 31.51900
H  36.86700 47.14500 31.19600
H  37.07100 46.88400 33.37900
H  35.39900 46.72300 33.46800
H  32.40200 54.03400 27.50400
H  34.15800 54.46900 27.60000
H  33.29600 53.45600 28.74200
H  33.40100 55.66400 23.78800
H  34.30800 55.30700 25.22100
H  32.56300 55.11100 25.25600
H  34.88300 49.12200 21.49000
H  34.05700 46.16500 21.75600
H  32.39000 47.62200 21.24300
H  33.09000 48.89900 20.17500
H  32.07200 49.20700 21.55500
H  36.77200 46.39300 22.44700
H  36.46300 47.55100 21.08800
H  35.03700 45.33200 20.35200
H  36.46200 44.62400 20.97300
H  36.62300 45.90700 19.74100
H  36.68400 43.14100 24.97400
H  34.99100 42.49900 24.93500
H  36.06900 41.86100 26.10000
H  36.18700 45.10500 30.62500
H  32.93800 44.77000 33.20900
H  34.27200 44.48100 34.31900
H  33.66200 43.09500 33.48300

