158

Mg 2.56600 8.68500 26.39100
C  2.97400 10.97900 29.16300
C  3.03200 6.17300 28.71600
C  2.86200 6.67100 23.79700
C  2.83400 11.41300 24.25000
N  3.06200 8.61800 28.62400
C  3.07800 9.66800 29.55500
C  3.10800 9.11500 30.98400
C  3.07500 7.64100 30.77100
C  3.07600 7.43400 29.28200
C  4.15100 6.87000 31.50800
C  1.85700 9.63000 31.64400
C  1.42700 9.07100 32.99900
H  2.48800 8.43900 33.85100
N  2.78600 6.65200 26.28800
C  2.92900 5.78900 27.37400
C  2.92200 4.45900 26.77800
C  2.88200 4.51100 25.30700
C  2.81800 6.02400 25.06800
C  3.10700 3.17500 27.51700
C  2.84000 3.34800 24.27900
O  2.61700 3.55200 23.05200
C  3.14000 1.94100 24.66600
N  2.60100 9.01500 24.22900
C  2.79200 7.96800 23.42000
C  2.64500 8.40800 21.98100
C  2.84900 9.98700 22.06200
C  2.83100 10.19500 23.59100
C  3.48100 7.63700 20.90900
C  1.74800 10.87000 21.39100
C  0.33800 10.78100 21.81100
N  2.70200 10.79400 26.55300
C  2.81600 11.75600 25.60900
C  2.96600 13.08100 26.22300
C  2.96400 12.79700 27.62200
C  2.87500 11.40900 27.76500
C  3.16700 14.23400 25.45400
C  3.17500 13.43300 28.90100
O  3.36000 14.65100 29.12100
C  3.23500 12.28200 29.97700
C  4.54800 12.37100 30.55300
O  5.63700 12.51700 29.98500
O  4.44000 12.26200 31.91000
C  5.63600 12.16900 32.71700
H  2.94500 5.36500 29.44500
H  2.99100 5.99100 22.95200
H  3.01400 12.26400 23.59000
H  3.99700 9.48700 31.49500
H  2.08900 7.32200 31.10700
H  4.67400 6.40400 30.67200
H  3.51500 6.29500 32.18100
H  4.89900 7.46700 32.02800
H  1.04800 9.35900 30.96700
H  2.01500 10.70700 31.70000
H  0.64700 8.31500 32.90500
H  0.99900 9.89400 33.57200
H  4.03400 2.65200 27.28000
H  2.29600 2.47600 27.31400
H  3.29000 3.33300 28.58000
H  2.90200 1.30600 23.81300
H  2.38500 1.61900 25.38300
H  4.18000 1.81800 24.96900
H  1.58600 8.25600 21.77200
H  3.85700 10.23300 21.72900
H  4.34200 7.08200 21.28200
H  3.83100 8.32800 20.14200
H  2.87800 6.91800 20.35300
H  1.73800 10.61500 20.33100
H  2.01300 11.92700 21.42500
H  -0.34300 11.02100 20.99500
H  0.15400 11.53100 22.58100
H  0.01100 9.84900 22.27100
H  2.28700 14.68000 24.99100
H  3.90500 14.00100 24.68700
H  3.71300 14.97800 26.03500
H  2.39600 12.40800 30.66100
H  6.06400 13.17000 32.66100
H  6.32500 11.38700 32.39900
H  5.28500 11.98700 33.73300
Mg -8.05200 19.36400 42.64800
C  -4.62000 18.78800 42.74700
C  -7.35400 22.71700 42.34400
C  -11.31900 19.89800 42.52000
C  -8.51400 15.87600 42.43900
N  -6.19000 20.55400 42.48800
C  -4.89900 20.08600 42.47600
C  -3.87200 21.16400 42.23200
C  -4.79700 22.48200 42.32700
C  -6.19300 21.92000 42.45300
C  -4.46600 23.48500 43.53400
C  -3.16400 21.15100 40.84900
C  -3.72500 20.35100 39.64300
H  -3.30300 20.84600 38.17100
N  -9.19200 21.08900 42.46900
C  -8.70800 22.33500 42.35100
C  -9.82400 23.23700 42.22700
C  -10.95900 22.43900 42.29600
C  -10.55800 21.06300 42.46800
C  -9.61200 24.69000 42.09600
C  -12.39600 22.93900 42.30900
O  -12.62400 24.10100 42.68100
C  -13.64100 21.98400 41.91400
N  -9.64100 18.11600 42.50200
C  -10.87800 18.60700 42.67800
C  -11.94600 17.41400 42.54200
C  -10.98400 16.16700 42.44200
C  -9.63300 16.74300 42.47500
C  -12.90000 17.47100 43.75100
C  -11.27300 15.29900 41.21500
C  -11.47200 13.84900 41.56100
N  -6.82200 17.59100 42.65900
C  -7.14500 16.26700 42.70700
C  -5.94400 15.46700 42.92500
C  -4.95200 16.46800 42.94500
C  -5.55200 17.67800 42.75600
C  -5.77500 14.05000 43.28500
C  -3.52100 16.67400 43.15000
O  -2.61300 15.83200 43.49300
C  -3.19800 18.20600 42.97100
C  -2.40900 18.66500 44.18200
O  -1.27800 19.09100 44.17600
O  -3.19000 18.51800 45.34400
C  -2.53100 19.02000 46.61300
H  -7.18000 23.77700 42.14700
H  -12.39000 20.03100 42.68400
H  -8.76800 14.82300 42.57900
H  -3.11800 21.17500 43.01900
H  -4.71500 22.96400 41.35300
H  -5.29300 23.87900 44.12400
H  -4.04900 24.37400 43.06000
H  -3.73200 23.11500 44.25000
H  -2.19200 20.66500 40.92100
H  -3.02100 22.17200 40.49300
H  -4.80600 20.24000 39.72100
H  -3.42100 19.32600 39.85700
H  -10.55000 25.03000 41.65800
H  -8.84800 24.98200 41.37600
H  -9.45700 25.24800 43.02000
H  -14.00300 21.44000 42.78600
H  -13.46600 21.24000 41.13600
H  -14.47500 22.62300 41.62200
H  -12.51400 17.67000 41.64800
H  -11.13800 15.52500 43.31000
H  -13.27800 16.45600 43.87500
H  -13.82700 18.02900 43.62300
H  -12.29900 17.69000 44.63300
H  -10.46800 15.53200 40.51800
H  -12.12100 15.66900 40.63800
H  -12.39000 13.50500 42.03800
H  -10.74600 13.50000 42.29500
H  -11.10600 13.21300 40.75500
H  -5.29100 13.64500 42.39600
H  -6.65900 13.44800 43.49100
H  -4.96300 13.87800 43.99200
H  -2.55200 18.28000 42.09600
H  -3.03800 19.95300 46.85800
H  -1.46900 19.25600 46.54800
H  -2.45700 18.24700 47.37800

