158

Mg 47.62100 33.95500 26.39000
C  45.82900 32.53000 29.07100
C  48.14800 36.80100 28.45100
C  49.10200 35.42700 23.80500
C  46.67700 31.18900 24.39700
N  46.98400 34.56500 28.44000
C  46.45300 33.73000 29.43300
C  46.58100 34.34300 30.80300
C  46.93100 35.83000 30.48500
C  47.35700 35.77000 29.04300
C  45.76800 36.82700 30.66700
C  47.70000 33.58700 31.65400
C  47.28700 33.38600 33.07600
H  46.26000 34.34600 33.69500
N  48.42800 35.87500 26.14400
C  48.67100 36.83800 27.09500
C  49.64200 37.79600 26.56000
C  49.70600 37.51900 25.17500
C  49.09800 36.20200 24.94500
C  50.24200 38.95800 27.37000
C  50.45900 38.28300 24.07500
O  50.62800 37.86200 22.94400
C  51.09300 39.61600 24.28900
N  47.83100 33.47100 24.34600
C  48.49900 34.25500 23.49900
C  48.46300 33.54600 22.07200
C  48.16500 32.16000 22.57400
C  47.47300 32.26100 23.83000
C  47.37600 34.12100 21.06900
C  49.34300 31.26700 22.80700
C  49.41800 29.96700 21.92400
N  46.39500 32.34000 26.56200
C  46.08100 31.28000 25.66300
C  45.28700 30.31100 26.34200
C  45.11700 30.81000 27.62600
C  45.81000 32.01200 27.72800
C  44.89800 28.97000 25.79700
C  44.50700 30.53400 28.87700
O  43.75100 29.61000 29.14200
C  44.95300 31.59600 29.87800
C  45.54900 30.86800 31.00800
O  46.25300 29.92000 30.94500
O  44.87300 31.18600 32.18500
C  45.18000 30.34500 33.29000
H  48.24900 37.70500 29.05500
H  49.51900 35.88000 22.90400
H  46.50000 30.36700 23.70100
H  45.59100 34.21500 31.24200
H  47.77500 36.18800 31.07300
H  45.24200 37.25600 29.81400
H  46.00500 37.58500 31.41400
H  44.94800 36.30800 31.16400
H  48.65600 34.08800 31.50700
H  47.81800 32.58000 31.25200
H  48.26800 33.40600 33.55100
H  47.06200 32.33500 33.25600
H  50.10200 38.72400 28.42500
H  49.80900 39.88100 26.98500
H  51.30100 39.15000 27.19400
H  51.52800 39.89600 23.32900
H  51.86800 39.41800 25.03000
H  50.33500 40.29600 24.67700
H  49.45100 33.66500 21.62800
H  47.54600 31.71800 21.79300
H  47.32700 35.18900 21.27800
H  46.41600 33.61800 21.18900
H  47.68700 34.05400 20.02700
H  49.49200 31.04000 23.86300
H  50.18800 31.92200 22.59500
H  50.43000 29.73900 21.59000
H  48.74300 30.07800 21.07500
H  49.11000 29.12400 22.54300
H  45.88100 28.50500 25.71900
H  44.24500 28.98200 24.92400
H  44.52200 28.33300 26.59800
H  44.05600 32.11600 30.21400
H  44.86900 29.34500 32.98800
H  44.78400 30.64300 34.26000
H  46.25900 30.30400 33.43600
Mg -10.40000 38.80600 40.61300
C  -8.77300 35.71200 39.90400
C  -7.60800 40.35700 39.27400
C  -11.98100 41.74400 40.59000
C  -13.23000 37.12400 41.49700
N  -8.47000 38.13100 39.73300
C  -8.06800 36.81300 39.54100
C  -6.67700 36.71500 38.74600
C  -6.18200 38.20900 39.02600
C  -7.50900 38.94500 39.37000
C  -5.09300 38.44600 40.08800
C  -6.88200 36.23400 37.25300
C  -6.18300 36.88300 36.00500
H  -7.12500 37.60700 35.00100
N  -9.86000 40.75400 40.02900
C  -8.68300 41.22100 39.54800
C  -8.67200 42.69500 39.58200
C  -9.98200 43.08800 39.83600
C  -10.66700 41.85400 40.13100
C  -7.41900 43.54800 39.13000
C  -10.44000 44.50000 39.99600
O  -9.57400 45.36400 39.88100
C  -11.82800 44.91000 40.43100
N  -12.40100 39.28200 40.89600
C  -12.78300 40.60500 40.90400
C  -14.33900 40.62900 41.10900
C  -14.68100 39.20100 41.49200
C  -13.35200 38.46500 41.36300
C  -14.94800 41.62200 42.16400
C  -15.87300 38.56600 40.69700
C  -16.72800 37.51100 41.41400
N  -10.91500 36.87100 40.68000
C  -12.10800 36.36000 41.10000
C  -11.96400 34.86100 41.15800
C  -10.73400 34.59000 40.57900
C  -10.10200 35.86400 40.38900
C  -12.87000 33.87700 41.86000
C  -9.82000 33.52400 40.23000
O  -10.01400 32.32600 40.25900
C  -8.56800 34.19800 39.69300
C  -7.43700 33.67900 40.39700
O  -7.15000 33.87300 41.57400
O  -6.59900 32.98400 39.52100
C  -5.22200 32.69000 39.92600
H  -6.64200 40.80100 39.02300
H  -12.58600 42.65300 40.59500
H  -14.04100 36.51900 41.90700
H  -6.14100 35.92600 39.27200
H  -5.83100 38.72000 38.12900
H  -4.33400 39.10400 39.66500
H  -4.71800 37.48000 40.42600
H  -5.55600 38.86100 40.98200
H  -7.92900 36.31900 36.96400
H  -6.60300 35.18100 37.27100
H  -5.63400 36.02700 35.61100
H  -5.47600 37.64700 36.33100
H  -7.63200 44.19700 38.28000
H  -6.62400 42.87000 38.82000
H  -7.04300 44.15400 39.95400
H  -12.45100 44.73100 39.55500
H  -11.89100 45.98200 40.61700
H  -12.00400 44.40400 41.38000
H  -14.83800 40.94800 40.19400
H  -14.83800 39.13100 42.56800
H  -14.94500 41.13900 43.14100
H  -15.95600 41.94200 41.90100
H  -14.37000 42.54500 42.16600
H  -15.46800 38.14800 39.77500
H  -16.58700 39.31500 40.35600
H  -16.72900 36.55600 40.88900
H  -17.75000 37.88600 41.36700
H  -16.43000 37.38000 42.45500
H  -12.90800 33.88900 42.94900
H  -12.59200 32.89200 41.48600
H  -13.88600 34.04900 41.50300
H  -8.37400 33.95400 38.64900
H  -4.72900 33.65500 39.81200
H  -4.85600 31.88700 39.28600
H  -5.10800 32.40600 40.97200

