158

Mg 27.04200 51.64300 26.03200
C  24.70400 52.76100 28.68000
C  29.14900 50.65800 28.52800
C  29.03500 50.85300 23.67300
C  24.58600 53.00600 23.74500
N  26.91400 51.76700 28.39900
C  25.82500 52.02300 29.19000
C  26.14200 51.56300 30.59900
C  27.70000 51.30000 30.56000
C  27.94600 51.21600 29.05900
C  28.63300 52.32500 31.13200
C  25.23400 50.31600 31.11100
C  24.67400 50.48000 32.49300
H  25.24900 51.38200 33.59600
N  28.86000 50.84200 26.10500
C  29.59500 50.51900 27.21200
C  30.91500 49.90900 26.75700
C  30.87400 49.93300 25.30000
C  29.59400 50.57100 24.94700
C  31.94700 49.38100 27.74300
C  31.91700 49.55500 24.26800
O  31.69200 49.70900 23.06900
C  33.18400 48.92900 24.75800
N  26.79300 51.83100 24.01800
C  27.80300 51.34700 23.24300
C  27.46200 51.48000 21.79000
C  25.98300 52.09000 21.82600
C  25.78400 52.35000 23.29400
C  28.48200 52.44200 21.10200
C  24.81000 51.28200 21.22100
C  24.37400 50.07800 22.02500
N  25.11000 52.72800 26.09000
C  24.28600 53.13600 25.07900
C  23.07700 53.75600 25.69700
C  23.25300 53.67200 27.07600
C  24.46600 52.97600 27.27700
C  21.96000 54.39500 24.88200
C  22.73500 54.00700 28.38500
O  21.77400 54.69900 28.74500
C  23.56300 53.21900 29.48300
C  23.89500 54.23700 30.53200
O  24.82400 55.04400 30.60100
O  22.92500 54.27400 31.45500
C  23.24400 55.06500 32.65300
H  29.86700 50.23100 29.23200
H  29.59800 50.58500 22.77700
H  23.84800 53.38400 23.03400
H  25.97800 52.44800 31.21400
H  27.90300 50.32100 30.99500
H  29.06000 52.81400 30.25700
H  29.46700 51.94300 31.72200
H  28.10500 53.00800 31.79800
H  25.86100 49.44200 30.93200
H  24.42300 50.23300 30.38700
H  24.50600 49.51700 32.97400
H  23.73800 51.00500 32.29700
H  32.50000 50.24100 28.11900
H  32.60600 48.56900 27.43400
H  31.50400 48.91800 28.62500
H  33.68200 48.52400 23.87800
H  33.04000 48.12200 25.47600
H  33.84600 49.68000 25.18900
H  27.44500 50.47200 21.37500
H  26.08300 53.09000 21.40600
H  29.17100 52.80900 21.86300
H  27.98100 53.30800 20.66900
H  29.03400 51.86400 20.36100
H  25.11700 50.98400 20.21900
H  23.93600 51.92500 21.11500
H  25.02800 49.25400 21.74000
H  23.32400 49.95700 21.76000
H  24.40800 50.10400 23.11500
H  22.20700 54.64100 23.84900
H  21.62000 55.36600 25.24400
H  21.11200 53.72100 24.75700
H  22.97300 52.40500 29.90400
H  22.42400 54.96100 33.36300
H  23.34200 56.09800 32.31900
H  24.12500 54.70800 33.18600
Mg 6.26300 54.89400 39.56400
C  5.78000 51.38200 39.23600
C  9.63200 54.37900 39.34000
C  6.70000 58.28300 39.32200
C  2.76200 55.36700 39.29300
N  7.51500 53.07800 39.30100
C  7.13800 51.73800 39.25900
C  8.40500 50.88300 39.10400
C  9.59400 51.88100 39.43500
C  8.89300 53.22400 39.29300
C  10.34700 51.72600 40.75900
C  8.59300 50.26400 37.67100
C  8.40000 51.17900 36.51900
H  7.72400 50.53400 35.27000
N  7.97100 56.16100 39.34700
C  9.28500 55.71200 39.22000
C  10.15400 56.92200 39.09500
C  9.35000 58.03900 39.31100
C  7.90700 57.53400 39.35200
C  11.60300 56.78700 38.81000
C  9.84700 59.44500 39.45700
O  10.99500 59.69700 39.55200
C  8.92800 60.65300 39.47400
N  4.92100 56.58400 39.35100
C  5.34100 57.87300 39.36900
C  4.14800 58.89000 39.34900
C  2.90100 57.94800 39.24500
C  3.52700 56.53600 39.23300
C  3.87600 59.82100 40.55800
C  1.96000 58.19400 38.04600
C  0.36600 58.24300 38.31000
N  4.53400 53.69500 39.52600
C  3.22100 53.98000 39.41200
C  2.49700 52.73600 39.52200
C  3.41000 51.68500 39.49000
C  4.67600 52.32300 39.41700
C  1.04800 52.82600 39.61300
C  3.63500 50.20700 39.50300
O  2.91000 49.23400 39.61800
C  5.19800 50.01400 39.32000
C  5.56600 49.03900 38.24000
O  5.42700 49.27500 37.03100
O  6.10400 47.85200 38.71200
C  6.21800 46.78900 37.63900
H  10.72300 54.32000 39.33800
H  6.69000 59.36700 39.18700
H  1.71000 55.65900 39.33100
H  8.37200 50.10300 39.86400
H  10.32300 51.89000 38.62500
H  10.43000 52.56500 41.45000
H  11.36800 51.51800 40.44200
H  9.93200 50.85700 41.26900
H  8.16600 49.26200 37.65300
H  9.67500 50.13200 37.69700
H  9.40100 51.46500 36.19500
H  7.89800 52.13900 36.63500
H  11.73600 55.86200 38.24900
H  12.09500 56.69400 39.77900
H  11.94100 57.56500 38.12500
H  9.58900 61.49800 39.66800
H  8.13200 60.51400 40.20600
H  8.49700 60.68400 38.47300
H  4.07300 59.50300 38.45100
H  2.34500 57.86900 40.17900
H  4.63200 60.60600 40.54100
H  3.97900 59.27600 41.49600
H  2.89700 60.27800 40.41500
H  2.21200 57.37100 37.37700
H  2.24900 59.09500 37.50600
H  0.25700 58.23500 39.39500
H  -0.11600 57.35100 37.91000
H  -0.00000 59.17000 37.86900
H  0.62300 52.42000 38.69500
H  0.61500 53.82500 39.66200
H  0.79300 52.27200 40.51600
H  5.48900 49.66100 40.30900
H  6.95900 47.15400 36.92700
H  5.21900 46.72900 37.20800
H  6.43800 45.78900 38.01300

