158

Mg 55.09700 23.10200 44.02600
C  52.59900 25.44500 43.09400
C  53.13400 20.54400 43.07800
C  57.88000 21.18400 44.01600
C  57.16200 25.82800 44.90000
N  53.09900 23.07700 43.16900
C  52.25800 24.09000 42.76500
C  51.09800 23.48900 42.03100
C  51.16000 21.97700 42.37300
C  52.54800 21.81300 42.89300
C  50.13200 21.54100 43.41400
C  51.12400 23.74400 40.46700
C  49.78800 23.30800 39.84600
H  49.60200 22.60100 38.46500
N  55.44000 21.07500 43.57900
C  54.43400 20.17200 43.28500
C  54.99700 18.85900 43.11500
C  56.38300 19.02400 43.45300
C  56.61300 20.48200 43.69600
C  54.22000 17.60200 42.79200
C  57.44500 17.86300 43.62300
O  57.08000 16.69100 43.58900
C  58.88100 18.12900 43.82600
N  57.30700 23.48700 44.26500
C  58.19100 22.51200 44.23800
C  59.59700 23.05100 44.42500
C  59.35900 24.40900 44.99400
C  57.83900 24.63100 44.80500
C  60.51100 22.20100 45.38200
C  60.12200 25.63400 44.41900
C  60.68000 26.61200 45.41900
N  54.94400 25.19700 44.04000
C  55.83900 26.17600 44.47900
C  55.19100 27.49500 44.50500
C  53.90900 27.19500 43.90900
C  53.83900 25.82000 43.69700
C  55.68400 28.71100 45.08800
C  52.68800 27.81600 43.47100
O  52.31200 28.96000 43.51700
C  51.77400 26.65200 42.90600
C  51.58900 26.99800 41.48700
O  52.45600 27.12400 40.62600
O  50.27000 27.34300 41.25700
C  49.84800 27.62000 39.88100
H  52.41400 19.74700 42.87900
H  58.70000 20.47800 44.16500
H  57.69200 26.71100 45.26300
H  50.19500 23.94100 42.44100
H  51.02200 21.38600 41.46800
H  49.68500 22.46900 43.77000
H  50.57800 21.13900 44.32400
H  49.45900 20.84100 42.91900
H  51.84200 23.02800 40.06700
H  51.34600 24.78800 40.24500
H  49.34100 24.30000 39.78300
H  49.24400 22.71900 40.58400
H  54.09400 17.50100 41.71400
H  53.21800 17.65400 43.21900
H  54.61100 16.62000 43.06100
H  59.25500 18.75600 43.01700
H  59.49900 17.23100 43.84000
H  58.95400 18.63800 44.78700
H  59.98900 23.10400 43.41000
H  59.39600 24.37000 46.08300
H  61.44500 22.72100 45.59600
H  60.72700 21.29500 44.81600
H  59.93100 21.91900 46.26200
H  59.59800 26.15700 43.61900
H  60.98200 25.14800 43.95800
H  60.42300 27.62300 45.10200
H  61.76100 26.57400 45.55200
H  60.11100 26.44200 46.33300
H  55.44000 28.90600 46.13200
H  55.14200 29.50200 44.57000
H  56.74800 28.81100 44.87100
H  50.83900 26.77500 43.45400
H  50.43200 28.42200 39.43000
H  48.82200 27.97600 39.78500
H  49.97000 26.68400 39.33500
Mg -12.46300 38.48800 41.30500
C  -10.35900 35.74600 40.35500
C  -10.17900 40.56600 39.68100
C  -14.69700 40.87800 41.32500
C  -14.81900 36.05600 42.31400
N  -10.42600 38.19700 40.31700
C  -9.73600 36.99700 40.07800
C  -8.47200 37.18700 39.34000
C  -8.31000 38.73000 39.27100
C  -9.73800 39.23600 39.81700
C  -7.15200 39.39600 40.03200
C  -8.42100 36.44400 37.95700
C  -7.22200 35.47900 37.74700
H  -6.29600 35.82800 36.52700
N  -12.47000 40.57200 40.75700
C  -11.42100 41.21100 40.05600
C  -11.75700 42.64900 39.99700
C  -13.07100 42.75300 40.37600
C  -13.49300 41.36600 40.89800
C  -10.86700 43.63500 39.22100
C  -13.93100 43.95200 40.22300
O  -13.36900 45.01800 39.87600
C  -15.34700 43.88200 40.31100
N  -14.37100 38.43500 41.72200
C  -15.15900 39.59600 41.59200
C  -16.64400 39.41100 42.02200
C  -16.69900 37.81400 42.26800
C  -15.23600 37.37700 42.13600
C  -17.15800 40.32800 43.11600
C  -17.68900 37.07500 41.35400
C  -18.84400 36.13400 41.97100
N  -12.66100 36.34700 41.31100
C  -13.55500 35.52500 41.95300
C  -13.08600 34.12600 41.87100
C  -11.88200 34.20000 41.19000
C  -11.59200 35.56000 40.94900
C  -13.71000 32.95600 42.56500
C  -10.78000 33.45100 40.76000
O  -10.71400 32.18800 40.80000
C  -9.73200 34.38400 40.23300
C  -8.50600 34.16600 41.03200
O  -7.62300 33.47900 40.61400
O  -8.43200 34.88600 42.19900
C  -7.13700 34.86600 42.84200
H  -9.54700 41.09200 38.96200
H  -15.41000 41.70200 41.40900
H  -15.44700 35.26400 42.72600
H  -7.65800 36.90400 40.00800
H  -8.29500 39.03000 38.22300
H  -6.49600 38.69600 40.55100
H  -7.63600 40.01700 40.78600
H  -6.60400 39.94500 39.26700
H  -8.43300 37.16500 37.14000
H  -9.30500 35.82900 37.78400
H  -7.49800 34.46600 37.45200
H  -6.56800 35.46800 38.61900
H  -10.61800 44.42300 39.93100
H  -11.35700 44.05600 38.34300
H  -9.89500 43.22400 38.94900
H  -15.48100 44.10400 41.37000
H  -15.84000 43.02000 39.86100
H  -15.76400 44.76600 39.82900
H  -17.11300 39.62100 41.06100
H  -16.87300 37.61100 43.32500
H  -16.51700 41.05900 43.60900
H  -17.51800 39.75100 43.96700
H  -18.12300 40.69900 42.77000
H  -17.02100 36.45400 40.75700
H  -18.14300 37.86800 40.76000
H  -19.80800 36.54100 41.66700
H  -18.75500 36.14800 43.05700
H  -18.64200 35.16100 41.52300
H  -14.61400 32.50300 42.15900
H  -14.00800 33.31500 43.55000
H  -12.96800 32.18300 42.76500
H  -9.63100 34.06800 39.19500
H  -6.40500 35.48600 42.32400
H  -6.83300 33.86300 43.14200
H  -7.35100 35.49400 43.70700

