158

Mg 44.64900 4.57900 47.79300
C  42.38700 7.22900 47.22600
C  42.10500 2.32100 47.90700
C  47.00000 2.07100 47.56600
C  47.26700 6.85900 47.05700
N  42.54400 4.80300 47.76200
C  41.83800 5.94200 47.36200
C  40.33800 5.66500 47.32700
C  40.25800 4.10500 47.59600
C  41.71900 3.70200 47.83900
C  39.22800 3.58400 48.67600
C  39.78600 5.98000 45.86800
C  38.78300 7.14700 45.86900
H  38.66400 8.12000 44.70500
N  44.58700 2.44300 47.62600
C  43.38300 1.76100 47.88700
C  43.69800 0.34600 47.98600
C  45.10500 0.23200 47.77100
C  45.64700 1.59100 47.63400
C  42.58600 -0.69400 48.00400
C  45.96100 -1.02700 47.74800
O  45.37000 -2.12400 47.87400
C  47.37400 -1.05600 47.44000
N  46.78800 4.49500 47.14400
C  47.51500 3.30200 47.26900
C  48.99800 3.50700 47.04500
C  49.08100 5.11700 47.08400
C  47.63100 5.52700 47.09200
C  49.93400 2.88000 48.11100
C  49.99300 5.85000 46.01100
C  51.35000 6.39300 46.49300
N  44.81900 6.68500 47.34300
C  45.93500 7.38600 47.09300
C  45.59000 8.78000 46.81200
C  44.17300 8.81400 46.93200
C  43.75800 7.48800 47.21900
C  46.60000 9.87100 46.52100
C  42.89500 9.60500 46.95800
O  42.73000 10.86600 46.88600
C  41.69800 8.55600 47.05400
C  40.78300 8.81100 48.21300
O  40.79000 8.28900 49.34900
O  39.94300 9.86200 47.95800
C  38.84000 10.14100 48.87200
H  41.18000 1.74600 47.98300
H  47.83700 1.37100 47.50600
H  48.01300 7.65500 47.00500
H  39.78100 6.19300 48.10100
H  40.03200 3.54800 46.68700
H  38.41200 4.29500 48.80500
H  39.73300 3.40300 49.62400
H  38.77600 2.64600 48.35500
H  39.30400 5.05500 45.55100
H  40.56300 6.26400 45.15800
H  38.78800 7.76300 46.76800
H  37.84300 6.59600 45.89300
H  41.53900 -0.43200 47.85000
H  42.62200 -1.32800 48.89000
H  42.80100 -1.39600 47.19900
H  47.57000 -0.61700 46.46100
H  47.72800 -2.08600 47.40000
H  47.87700 -0.55400 48.26700
H  49.19700 3.18800 46.02100
H  49.37200 5.42900 48.08700
H  49.38300 2.19400 48.75400
H  50.32000 3.60800 48.82500
H  50.76500 2.28300 47.73400
H  49.40400 6.64200 45.54700
H  50.26700 5.15600 45.21700
H  51.28600 7.47800 46.41100
H  52.14200 5.97500 45.87100
H  51.50400 6.08600 47.52700
H  47.09300 10.22900 47.42500
H  46.23100 10.77400 46.03400
H  47.45800 9.52400 45.94500
H  41.13700 8.56600 46.11900
H  38.73700 11.22400 48.94300
H  38.78900 9.75300 49.89000
H  37.97800 9.79500 48.30300
Mg 53.43100 24.33500 43.95000
C  50.73500 26.70000 43.83600
C  51.20700 21.85100 43.40200
C  56.02000 22.22700 43.36500
C  55.64900 26.92900 44.33200
N  51.24800 24.33400 43.65100
C  50.35800 25.31700 43.66000
C  49.00000 24.79200 43.45200
C  49.14400 23.29800 43.84300
C  50.63300 23.08900 43.62900
C  48.69200 22.95800 45.23500
C  48.45000 25.01500 42.01700
C  49.22500 24.63600 40.75600
H  49.61500 25.69700 39.72300
N  53.58400 22.33000 43.50900
C  52.55200 21.49700 43.20600
C  53.06100 20.13500 42.92000
C  54.40700 20.23500 42.95200
C  54.76200 21.64500 43.32200
C  52.18500 18.92200 42.71700
C  55.47200 19.10200 42.69400
O  55.15400 18.00700 42.23900
C  57.02300 19.26200 42.94500
N  55.58400 24.62700 43.66100
C  56.41600 23.57800 43.54400
C  57.86500 23.98100 43.41800
C  57.77300 25.50700 43.85300
C  56.28100 25.71900 44.00200
C  59.04200 23.16500 44.07500
C  58.46700 26.40000 42.82000
C  57.69500 26.80700 41.51900
N  53.27000 26.41700 43.93100
C  54.20500 27.34000 44.32500
C  53.62500 28.66000 44.57700
C  52.25200 28.40800 44.26800
C  52.07800 27.05800 43.88400
C  54.28000 29.93800 45.09200
C  51.03000 29.14700 44.28100
O  50.76400 30.32600 44.46600
C  49.90700 28.02500 43.94900
C  49.32100 28.46400 42.61500
O  49.92200 28.70800 41.60900
O  47.97800 28.33700 42.63800
C  47.33600 28.88500 41.39900
H  50.65100 20.91500 43.32600
H  56.87400 21.62500 43.04900
H  56.23700 27.82300 44.55000
H  48.39400 25.41100 44.11400
H  48.55200 22.66400 43.18400
H  48.39400 23.81000 45.84500
H  49.48300 22.64900 45.91900
H  47.88000 22.23200 45.22800
H  48.28700 26.09000 41.94100
H  47.50100 24.47800 42.01200
H  48.72800 23.85700 40.17700
H  50.15600 24.12200 40.99300
H  52.73300 17.99800 42.53200
H  51.42300 19.10600 41.96000
H  51.63600 18.82600 43.65400
H  57.36600 19.92400 42.15000
H  57.31400 18.21200 42.92200
H  57.05400 19.66100 43.95900
H  58.07000 23.87000 42.35300
H  58.31200 25.71800 44.77600
H  59.79100 22.93400 43.31600
H  58.72000 22.32700 44.69200
H  59.53300 23.89900 44.71400
H  59.23800 25.71400 42.46800
H  59.02900 27.23300 43.24000
H  56.62200 26.78100 41.70700
H  57.76100 26.07000 40.71800
H  58.12300 27.73600 41.14100
H  54.06200 30.70500 44.34900
H  55.36500 29.97800 45.18700
H  53.73200 30.23800 45.98500
H  49.06700 28.02200 44.64400
H  47.55200 29.94700 41.28100
H  46.27800 28.64600 41.29300
H  47.73400 28.39800 40.50900

