158

Mg 2.25700 -1.78200 43.73700
C  5.60100 -0.84600 42.91600
C  1.15700 1.15600 42.16700
C  -0.82300 -2.98800 43.96500
C  3.51300 -4.67800 45.18200
N  3.24400 -0.17200 42.45600
C  4.61500 0.07200 42.43600
C  4.93500 1.32700 41.65500
C  3.51400 2.05400 41.75100
C  2.56500 0.98200 42.13000
C  3.48500 3.24400 42.74000
C  5.49500 1.02800 40.26100
C  6.73900 1.84700 39.88600
H  6.62100 2.60900 38.52800
N  0.42400 -1.05400 43.05000
C  0.16100 0.13900 42.42500
C  -1.19800 0.23000 42.21400
C  -1.88000 -0.94200 42.70900
C  -0.73600 -1.73500 43.20200
C  -1.83800 1.46000 41.51000
C  -3.36200 -1.22900 42.60100
O  -4.07300 -0.36400 42.09300
C  -3.95200 -2.46000 43.22100
N  1.47300 -3.66600 44.35500
C  0.15000 -3.79600 44.44500
C  -0.15800 -5.06700 45.22300
C  1.19800 -5.76600 45.42000
C  2.13500 -4.62500 45.05800
C  -0.87500 -4.80800 46.56400
C  1.60800 -7.12800 44.64600
C  1.57900 -8.31500 45.62800
N  4.08400 -2.62700 43.95600
C  4.50100 -3.79300 44.61300
C  5.91100 -3.87600 44.60700
C  6.40400 -2.71500 44.07500
C  5.21100 -2.05200 43.59300
C  6.64100 -5.08500 45.11800
C  7.58000 -1.93100 43.67400
O  8.76200 -2.21300 43.80200
C  7.12200 -0.61500 43.03800
C  7.54500 0.50800 43.90900
O  7.32200 0.63900 45.06400
O  8.21600 1.45700 43.15200
C  8.45500 2.76400 43.76800
H  0.77200 2.07900 41.72900
H  -1.77100 -3.44400 44.25800
H  3.77200 -5.53800 45.80300
H  5.70500 1.86400 42.21000
H  3.29300 2.62800 40.85100
H  4.52500 3.53500 42.89000
H  2.87600 3.09700 43.63200
H  3.10200 4.08100 42.15700
H  4.72800 1.33600 39.55100
H  5.70600 -0.03800 40.18200
H  7.48600 1.05500 39.85300
H  6.93100 2.48000 40.75200
H  -1.21000 2.20300 41.01900
H  -2.37500 1.89900 42.35100
H  -2.48600 1.06000 40.73000
H  -5.02500 -2.35900 43.05800
H  -3.68100 -2.43900 44.27700
H  -3.52200 -3.26600 42.62800
H  -0.70800 -5.62100 44.46200
H  1.26400 -5.91500 46.49700
H  -0.25400 -4.26000 47.27300
H  -1.17400 -5.76700 46.98700
H  -1.79400 -4.23700 46.43600
H  2.67000 -7.16000 44.40500
H  0.96100 -7.27700 43.78100
H  1.67100 -9.27900 45.12600
H  0.71300 -8.21700 46.28200
H  2.47000 -8.33900 46.25600
H  7.64000 -4.78800 45.43800
H  6.62300 -5.86800 44.35900
H  6.11800 -5.24100 46.06100
H  7.48700 -0.39200 42.03500
H  9.12400 2.57500 44.60700
H  7.51600 3.27000 43.99000
H  9.14000 3.28400 43.09700
Mg 9.41300 47.99600 26.17500
C  7.19100 47.80500 28.76800
C  11.91700 49.09100 28.38000
C  11.42100 48.51900 23.58700
C  6.81200 47.23700 23.98200
N  9.52500 48.29400 28.33400
C  8.51000 48.17600 29.19300
C  8.89400 48.56600 30.66700
C  10.35100 49.18400 30.43000
C  10.63400 48.85900 28.97900
C  10.48500 50.71000 30.84000
C  8.93700 47.32500 31.57700
C  9.73000 47.37100 32.91200
H  9.00600 47.08100 34.30300
N  11.38200 48.77500 26.02000
C  12.33100 49.07400 27.00300
C  13.55200 49.38500 26.44500
C  13.42600 49.21500 25.01200
C  12.01800 48.79100 24.81500
C  14.71500 49.67300 27.31800
C  14.49800 49.39600 23.90700
O  14.34200 49.27600 22.70700
C  15.82500 49.91700 24.36800
N  9.08000 47.90000 24.00400
C  10.12300 48.12700 23.15700
C  9.70100 47.92300 21.64800
C  8.34600 47.14100 21.85200
C  7.96700 47.52900 23.35300
C  9.45100 49.29700 20.91100
C  8.39800 45.64000 21.48300
C  8.46200 45.24400 19.95400
N  7.47400 47.59500 26.24100
C  6.49600 47.34900 25.27900
C  5.17100 47.14600 25.90800
C  5.39800 47.32700 27.27200
C  6.77900 47.66500 27.40600
C  3.88500 46.79000 25.19300
C  4.79500 47.32300 28.57200
O  3.60900 47.08100 28.89400
C  5.90900 47.56500 29.61300
C  6.05500 46.28500 30.44100
O  6.73300 45.33500 30.17200
O  5.38100 46.42600 31.61400
C  5.51300 45.32500 32.62000
H  12.57300 49.38100 29.20400
H  12.03200 48.52700 22.68200
H  6.00900 46.88900 23.32900
H  8.22900 49.24900 31.19600
H  11.00200 48.64800 31.12000
H  10.62700 51.35300 29.97100
H  11.37500 50.77000 31.46600
H  9.55800 51.08100 31.27800
H  9.27400 46.39600 31.11700
H  7.88600 47.30900 31.86500
H  10.18200 48.35400 33.04200
H  10.48400 46.58500 32.89500
H  15.06900 50.70300 27.30300
H  15.45800 48.95000 26.97900
H  14.61700 49.50200 28.39000
H  16.41000 50.19900 23.49300
H  16.12600 49.09500 25.01900
H  15.62900 50.81200 24.95700
H  10.24100 47.14000 21.11500
H  7.59000 47.63700 21.24200
H  10.04000 49.20400 19.99800
H  9.82500 50.07400 21.57800
H  8.42800 49.56100 20.64200
H  7.39400 45.32100 21.76400
H  9.11700 45.06200 22.06400
H  9.06100 45.92900 19.35400
H  7.48500 45.24800 19.47000
H  8.90600 44.25000 19.90500
H  3.24600 46.17400 25.82500
H  4.32300 46.21700 24.37600
H  3.34600 47.64800 24.79000
H  5.71800 48.45400 30.21400
H  5.15700 45.61400 33.60900
H  6.58200 45.11300 32.60800
H  4.89800 44.47400 32.33000

