158

Mg 1.80400 8.20300 26.29200
C  2.36400 10.31800 28.91700
C  2.92200 5.42100 28.41000
C  1.64600 6.15000 23.60700
C  1.63600 10.94800 24.19700
N  2.54400 7.92800 28.36600
C  2.48500 8.91600 29.33000
C  2.65000 8.33200 30.73900
C  3.04100 6.89600 30.51600
C  2.91900 6.75600 29.00000
C  4.35600 6.41700 31.14900
C  1.42600 8.62300 31.66600
C  1.62700 8.68800 33.20000
H  2.86400 7.90600 33.84600
N  2.19100 6.11500 26.00400
C  2.57800 5.15800 27.01900
C  2.63200 3.87800 26.37900
C  2.22200 3.94800 25.01600
C  1.93800 5.40100 24.82300
C  3.15200 2.63900 27.10300
C  2.02000 2.91000 23.99200
O  1.70100 3.14000 22.81500
C  2.17900 1.41800 24.32400
N  1.67100 8.53900 24.22700
C  1.64400 7.54600 23.32500
C  1.66900 8.05600 21.85200
C  1.39800 9.58600 22.12800
C  1.61500 9.72500 23.61500
C  2.98200 7.74600 21.00600
C  -0.00300 10.13700 21.56100
C  0.09400 11.24500 20.55200
N  1.86200 10.18700 26.49300
C  1.86900 11.19600 25.55300
C  1.97400 12.47000 26.14700
C  2.11100 12.18100 27.54800
C  2.16900 10.78900 27.62900
C  2.08900 13.79900 25.52700
C  2.40700 12.71200 28.85300
O  2.58400 13.84800 29.25700
C  2.31300 11.53300 29.77900
C  3.34500 11.60100 30.81900
O  4.57600 11.48700 30.55900
O  2.82000 11.57400 32.09600
C  3.93200 11.47400 33.12500
H  3.15200 4.61200 29.10700
H  1.82500 5.61700 22.67100
H  1.51400 11.71600 23.43000
H  3.46700 8.81300 31.27800
H  2.18600 6.37100 30.94100
H  4.95500 6.03500 30.32200
H  4.18000 5.57100 31.81300
H  4.89400 7.20800 31.67200
H  0.61900 7.92600 31.43700
H  0.90000 9.50100 31.29100
H  0.75600 8.10200 33.49400
H  1.53800 9.67700 33.64900
H  2.29300 2.09500 27.49600
H  3.69500 3.11400 27.92000
H  3.74700 1.97700 26.47500
H  1.52500 1.18000 25.16300
H  3.24000 1.18600 24.41000
H  1.94700 0.82700 23.43800
H  0.87200 7.55400 21.30400
H  2.27600 10.14000 21.79500
H  2.84400 7.29900 20.02100
H  3.61000 7.14600 21.66500
H  3.47200 8.70900 20.86100
H  -0.52900 10.57000 22.41200
H  -0.65600 9.34700 21.18900
H  -0.59500 10.99500 19.74500
H  1.11100 11.51700 20.26800
H  -0.38600 12.13600 20.95600
H  1.99800 13.64200 24.45300
H  3.02000 14.32000 25.74700
H  1.22100 14.34900 25.89300
H  1.35300 11.47400 30.29100
H  4.48100 10.54600 32.96700
H  3.49200 11.47200 34.12200
H  4.58200 12.34900 33.16400
Mg -0.65500 43.80600 25.66400
C  1.88900 43.44700 28.06800
C  -3.00700 42.96500 28.21600
C  -2.93100 43.71000 23.42600
C  1.86300 44.30000 23.27500
N  -0.59200 43.37000 27.92300
C  0.61900 43.28700 28.64000
C  0.32000 43.05600 30.10100
C  -1.25000 42.67400 30.16000
C  -1.64500 42.98100 28.64400
C  -1.57600 41.17000 30.50200
C  0.65300 44.34000 30.87200
C  0.77900 44.32800 32.42800
H  0.81000 42.97800 33.16600
N  -2.70800 43.47300 25.85700
C  -3.50500 43.29900 26.96700
C  -4.89000 43.33500 26.53300
C  -4.82700 43.45700 25.05100
C  -3.47100 43.50600 24.71900
C  -6.08200 43.16000 27.41300
C  -5.97600 43.46400 24.04000
O  -5.91600 43.65400 22.84700
C  -7.41400 43.20700 24.61300
N  -0.45200 43.83100 23.61500
C  -1.62300 43.85700 22.89400
C  -1.39800 44.17700 21.41000
C  0.14400 44.42700 21.39100
C  0.54500 44.19800 22.83900
C  -1.89700 42.97400 20.55500
C  0.51500 45.77000 20.85400
C  0.19100 47.00200 21.71400
N  1.47100 43.96400 25.67300
C  2.35200 44.16900 24.61700
C  3.73400 44.17300 25.06700
C  3.63300 43.86300 26.45300
C  2.22600 43.76800 26.73300
C  4.90900 44.31600 24.18500
C  4.37500 43.59300 27.63200
O  5.54800 43.57500 27.89300
C  3.25700 43.39200 28.71200
C  3.51600 42.09500 29.47300
O  3.17700 41.01900 29.05200
O  4.09700 42.25700 30.71900
C  4.31500 41.01400 31.48000
H  -3.77100 42.77500 28.97300
H  -3.70200 43.88400 22.67300
H  2.68800 44.50000 22.58800
H  0.83300 42.15100 30.42700
H  -1.82400 43.35400 30.78800
H  -2.38100 41.21100 31.23600
H  -0.71500 40.57200 30.80100
H  -2.03400 40.64200 29.66600
H  -0.08900 45.10500 30.64700
H  1.53300 44.80800 30.43000
H  -0.01100 44.95900 32.83500
H  1.65300 44.83800 32.83100
H  -6.73700 42.32800 27.15500
H  -6.72900 44.03700 27.36400
H  -5.79600 43.05100 28.45900
H  -7.77200 43.90400 25.37100
H  -7.46200 42.16400 24.92600
H  -8.00200 43.32100 23.70300
H  -1.96000 45.04400 21.06300
H  0.63600 43.64400 20.81400
H  -2.04200 42.15700 21.26200
H  -1.14000 42.75600 19.80100
H  -2.84900 43.12300 20.04600
H  0.10200 45.91400 19.85600
H  1.60300 45.76200 20.78700
H  -0.21700 47.75300 21.03700
H  1.15100 47.42200 22.01500
H  -0.41100 46.78500 22.59700
H  4.89400 45.18800 23.53100
H  4.97500 43.46000 23.51400
H  5.83400 44.30800 24.76100
H  3.33500 44.24600 29.38500
H  5.33900 40.70900 31.26600
H  3.57300 40.24800 31.25300
H  4.30200 41.12800 32.56400

