158

Mg 44.99500 2.38000 46.79700
C  43.25000 5.47700 46.14600
C  41.97600 0.82200 46.57000
C  46.59800 -0.46100 46.74900
C  47.90000 4.19100 46.40800
N  42.93000 3.06800 46.33900
C  42.40400 4.37500 46.19100
C  40.88100 4.44200 46.04700
C  40.53600 2.96300 46.60900
C  41.87900 2.23700 46.54200
C  39.78000 2.92100 48.02500
C  40.38500 4.58500 44.53600
C  39.42300 5.74700 44.36000
H  38.55400 5.69900 43.14700
N  44.35700 0.41700 46.72300
C  43.09100 -0.01800 46.75200
C  43.13200 -1.48300 46.83400
C  44.47200 -1.90400 46.70300
C  45.24500 -0.64200 46.65300
C  41.92900 -2.35300 46.93700
C  44.93100 -3.37400 46.69900
O  44.16300 -4.32000 46.58200
C  46.46900 -3.68900 46.72000
N  46.97100 1.99300 46.63600
C  47.37600 0.74000 46.71700
C  48.94700 0.61800 46.70700
C  49.39500 2.10500 46.47000
C  47.99300 2.84800 46.47200
C  49.51600 -0.05000 48.04500
C  50.17300 2.39400 45.11900
C  51.44100 3.24600 45.22200
N  45.57400 4.46000 46.43300
C  46.77300 4.99400 46.28900
C  46.66400 6.41100 46.30800
C  45.26500 6.72300 46.18200
C  44.65300 5.46300 46.27200
C  47.89000 7.34000 46.31800
C  44.20600 7.70200 45.96500
O  44.27000 8.94200 45.83800
C  42.82300 6.89200 46.07500
C  42.19200 7.33900 47.36500
O  42.73900 7.25400 48.45000
O  40.96000 7.84000 47.11000
C  40.13600 8.20100 48.29300
H  41.10300 0.20600 46.79700
H  47.23000 -1.35000 46.81100
H  48.83200 4.75700 46.47800
H  40.34500 5.13200 46.69900
H  39.85300 2.46700 45.91900
H  40.08800 3.69400 48.72800
H  40.06700 1.97600 48.48600
H  38.73000 2.98100 47.73900
H  39.81900 3.69200 44.27400
H  41.19200 4.74600 43.82100
H  40.12100 6.56500 44.17900
H  38.75300 5.85300 45.21300
H  41.25100 -1.77300 47.56300
H  42.02700 -3.37200 47.31200
H  41.41800 -2.38100 45.97500
H  46.99400 -3.30000 45.84800
H  46.70100 -4.75300 46.68400
H  46.89900 -3.31000 47.64800
H  49.28300 0.12500 45.79400
H  49.93200 2.51000 47.32800
H  50.12000 0.59900 48.67900
H  50.10900 -0.94700 47.86600
H  48.62000 -0.22900 48.63900
H  49.52200 2.89000 44.40000
H  50.46100 1.48200 44.59700
H  52.26200 2.63700 44.84300
H  51.58600 3.51100 46.27000
H  51.35900 4.17500 44.65900
H  48.51000 7.21500 45.43000
H  48.53200 6.99800 47.13000
H  47.58000 8.38200 46.39600
H  42.19500 7.12000 45.21400
H  40.71000 8.45000 49.18500
H  39.36200 7.50500 48.61500
H  39.80800 9.18400 47.95600
Mg 15.63100 51.84600 25.94100
C  17.60500 50.77000 28.63900
C  13.02500 52.42300 28.10700
C  13.71800 52.66100 23.32200
C  18.24400 50.91400 23.71400
N  15.43000 51.66000 28.11000
C  16.41700 51.42100 29.04000
C  15.93200 51.77400 30.49700
C  14.34500 51.85600 30.26400
C  14.20800 51.97400 28.73800
C  13.52200 50.66900 30.81900
C  16.49600 53.10600 31.00300
C  16.42700 53.35400 32.54400
H  15.44300 52.55400 33.41600
N  13.68100 52.55900 25.71800
C  12.76700 52.61500 26.73200
C  11.45000 53.00100 26.14300
C  11.64100 53.24200 24.75200
C  13.07100 52.82900 24.55700
C  10.12600 53.14500 26.92000
C  10.74200 53.79800 23.71400
O  11.18400 54.02300 22.61700
C  9.24200 54.03000 23.98700
N  15.95000 51.83700 23.79800
C  14.96700 52.20000 22.92300
C  15.45900 52.16800 21.48700
C  16.92500 51.67300 21.56800
C  17.06800 51.47200 23.11600
C  14.61300 51.25500 20.67800
C  18.11200 52.59300 21.22800
C  19.43900 51.97100 20.58600
N  17.54700 50.93100 26.05000
C  18.48200 50.54100 25.05400
C  19.65900 49.89300 25.71900
C  19.26400 49.91200 27.11400
C  18.04700 50.61000 27.26100
C  21.00200 49.52600 25.05400
C  19.75400 49.56700 28.41300
O  20.82100 49.00500 28.82000
C  18.76700 50.24000 29.47400
C  18.40600 49.22600 30.54700
O  17.58200 48.30700 30.38700
O  19.05700 49.50900 31.71400
C  18.71600 48.59400 32.77400
H  12.25800 52.70800 28.83000
H  13.11100 52.94000 22.45900
H  19.08400 50.70100 23.05000
H  16.32400 51.04600 31.20600
H  13.93400 52.79300 30.64100
H  13.00200 50.32600 29.92400
H  12.83000 50.93500 31.61800
H  14.16800 49.87000 31.18200
H  16.01800 53.90800 30.44000
H  17.56000 53.16000 30.77200
H  16.13600 54.39400 32.69200
H  17.41000 53.10900 32.94500
H  9.81100 54.18900 26.91500
H  10.30200 52.67800 27.88900
H  9.41700 52.45700 26.46100
H  9.22500 54.93200 24.59900
H  8.79600 53.15300 24.45700
H  8.81700 54.09300 22.98600
H  15.37300 53.22500 21.23200
H  17.15500 50.74800 21.03900
H  15.16200 50.51700 20.09200
H  14.20600 51.92300 19.91900
H  13.67800 50.95700 21.15300
H  18.55400 53.05900 22.10900
H  17.67300 53.44600 20.71000
H  20.16600 51.79200 21.37900
H  19.91000 52.60500 19.83400
H  19.00900 51.03700 20.22700
H  21.83900 49.76400 25.71200
H  21.16400 50.01600 24.09500
H  21.13400 48.45500 24.89500
H  19.31500 51.11200 29.83100
H  19.00900 47.62900 32.35900
H  17.67300 48.71700 33.06500
H  19.43600 48.61000 33.59200

