158

Mg 47.58800 25.23200 29.67600
C  48.18400 27.68800 32.07000
C  46.14900 23.22200 31.97300
C  46.95800 23.03900 27.20800
C  49.32100 27.24600 27.36000
N  47.24600 25.48200 31.80500
C  47.49900 26.55600 32.57300
C  47.01500 26.31700 34.03500
C  46.65800 24.79300 33.96600
C  46.67100 24.45900 32.49000
C  47.51700 23.87400 34.86200
C  45.80700 27.26700 34.34600
C  45.03700 27.05800 35.63100
H  45.74000 26.96900 37.02100
N  46.70100 23.44500 29.62600
C  46.23400 22.70500 30.64900
C  45.67800 21.43100 30.20500
C  45.91800 21.36800 28.78800
C  46.52400 22.66200 28.47100
C  45.08700 20.46800 31.10500
C  45.56800 20.26700 27.86500
O  45.85200 20.23100 26.67700
C  44.74800 19.16900 28.29100
N  48.13600 25.08000 27.54900
C  47.58900 24.16900 26.75100
C  47.99500 24.40000 25.28000
C  48.62300 25.85600 25.36600
C  48.66600 26.14900 26.86700
C  49.06300 23.35100 24.82000
C  47.77100 26.88500 24.49400
C  48.57400 27.71800 23.54000
N  48.45200 27.11600 29.62400
C  49.21400 27.76500 28.63300
C  49.66500 29.04200 29.10200
C  49.30600 29.04000 30.52000
C  48.61200 27.84500 30.72000
C  50.46900 30.08600 28.30100
C  49.29000 29.79600 31.75300
O  49.70500 30.94000 31.93800
C  48.54900 28.99400 32.83600
C  49.38400 28.71400 34.05200
O  50.46000 28.21000 34.02500
O  48.84000 29.43300 35.03500
C  49.67000 29.68000 36.26600
H  45.80900 22.66800 32.85100
H  46.72200 22.30500 26.43500
H  49.80600 27.90800 26.64000
H  47.86600 26.43800 34.70500
H  45.65200 24.66300 34.36400
H  47.91400 24.42200 35.71700
H  48.20500 23.29000 34.25100
H  46.84900 23.12200 35.28200
H  45.13900 27.11000 33.49900
H  46.07700 28.31400 34.21300
H  44.50800 26.12300 35.44600
H  44.21600 27.75700 35.79200
H  44.02400 20.25300 31.00400
H  45.20800 20.71000 32.16000
H  45.60500 19.51200 31.03000
H  45.27500 18.41000 28.87000
H  44.30500 18.66100 27.43400
H  43.95800 19.62300 28.88900
H  47.11200 24.51000 24.64900
H  49.66200 25.83600 25.03700
H  50.00700 23.65700 25.27200
H  49.17000 23.27900 23.73800
H  48.86200 22.32100 25.11400
H  47.28800 27.49000 25.26200
H  46.98100 26.31500 24.00600
H  48.06000 27.79600 22.58200
H  49.61200 27.39300 23.47500
H  48.71500 28.68600 24.02200
H  51.30100 29.67300 27.73100
H  50.80700 30.82100 29.03200
H  49.76300 30.50300 27.58300
H  47.71700 29.61000 33.17700
H  50.73600 29.46500 36.19800
H  49.26100 29.22500 37.16900
H  49.59500 30.76400 36.34900
Mg -12.35700 38.19200 43.64000
C  -10.34100 35.66200 42.05800
C  -10.33400 40.50400 42.18700
C  -14.58200 40.43100 44.54100
C  -14.70700 35.56900 44.28000
N  -10.56100 38.05200 42.24000
C  -9.82200 36.96700 41.74400
C  -8.57000 37.36400 41.09700
C  -8.52300 38.92100 41.31000
C  -9.85200 39.19300 41.98300
C  -7.27900 39.47500 42.03600
C  -8.41600 36.94000 39.58000
C  -6.89500 36.78000 39.13900
H  -6.38800 35.64400 38.22300
N  -12.48900 40.19600 43.36300
C  -11.55200 40.93700 42.80700
C  -11.88400 42.35500 42.91500
C  -13.06800 42.38800 43.65600
C  -13.43200 40.97400 43.90100
C  -11.05000 43.49100 42.34600
C  -13.85700 43.63800 43.98800
O  -13.36500 44.75900 43.80800
C  -15.28300 43.43400 44.32100
N  -14.34400 38.04100 44.36800
C  -15.05900 39.14000 44.69500
C  -16.31900 38.77000 45.53000
C  -16.48700 37.23900 45.20000
C  -15.10800 36.95500 44.59400
C  -16.16700 38.98000 47.10000
C  -17.55500 36.81300 44.21600
C  -18.94400 36.90300 44.75800
N  -12.51200 36.02300 43.37300
C  -13.49900 35.13600 43.67800
C  -13.12900 33.83800 43.36800
C  -11.85100 33.91600 42.68700
C  -11.56300 35.36500 42.72200
C  -13.81200 32.57900 43.69500
C  -10.84000 33.20200 42.03000
O  -10.57300 32.05000 41.92200
C  -9.79100 34.33600 41.60100
C  -8.47700 33.97800 42.34900
O  -8.32100 33.93400 43.55600
O  -7.58800 33.57700 41.41300
C  -6.35200 32.97500 41.94900
H  -9.60600 41.16500 41.71300
H  -15.25400 41.18600 44.95300
H  -15.45500 34.82600 44.56300
H  -7.76800 36.94200 41.70200
H  -8.63900 39.60200 40.46600
H  -7.52400 39.86300 43.02500
H  -6.86200 40.30300 41.46300
H  -6.59500 38.66400 42.28600
H  -8.86300 37.75300 39.00700
H  -8.87800 35.96700 39.41300
H  -6.20200 36.66000 39.97200
H  -6.62300 37.70200 38.62500
H  -10.91400 44.24700 43.11900
H  -11.59500 43.91800 41.50500
H  -10.06100 43.30000 41.92900
H  -15.83800 42.65300 43.80100
H  -15.72300 44.38000 44.00700
H  -15.42700 43.43300 45.40100
H  -17.21200 39.27400 45.16000
H  -16.51600 36.70100 46.14700
H  -17.06800 39.42200 47.52500
H  -15.45000 39.80100 47.11200
H  -15.69100 38.19400 47.68700
H  -17.41700 35.75600 43.99000
H  -17.50700 37.40700 43.30300
H  -19.42700 35.98200 45.08600
H  -19.50800 37.52700 44.06500
H  -19.00100 37.41200 45.72100
H  -14.01600 32.56000 44.76600
H  -13.08600 31.77300 43.59100
H  -14.76200 32.31600 43.23100
H  -9.51900 34.25600 40.54800
H  -6.43100 31.88900 41.99800
H  -6.02300 33.42400 42.88600
H  -5.64600 33.28000 41.17700

