158

Mg 41.13100 40.63900 26.78800
C  40.45300 43.33000 28.75400
C  41.89900 38.66700 29.41600
C  42.05200 38.32800 24.54500
C  40.92000 42.89200 23.89700
N  41.27500 40.99500 28.78900
C  40.83800 42.15500 29.41400
C  40.88200 42.00100 30.94000
C  41.24700 40.48900 31.16800
C  41.50600 40.02000 29.73100
C  42.49100 40.40900 32.10800
C  39.54900 42.41700 31.57900
C  39.01400 41.66600 32.88600
H  38.63900 42.53300 34.12100
N  41.86800 38.72300 26.94700
C  42.10200 38.05700 28.12500
C  42.55500 36.79100 27.84000
C  42.61700 36.57600 26.38800
C  42.18700 37.91400 25.90500
C  43.05800 35.83800 28.90400
C  43.15000 35.41800 25.55600
O  43.15400 35.56500 24.34900
C  43.61900 34.08000 26.09500
N  41.68700 40.67300 24.52700
C  41.92300 39.50500 23.83800
C  41.76200 39.72000 22.30500
C  41.03800 41.04300 22.24400
C  41.16700 41.56900 23.62200
C  43.10300 39.59200 21.59200
C  39.60100 40.87500 21.81000
C  38.56500 40.22900 22.79800
N  40.71200 42.70200 26.36800
C  40.72400 43.45100 25.19500
C  40.35700 44.80700 25.52600
C  40.24500 44.80400 26.91000
C  40.59500 43.54100 27.39800
C  39.98200 45.90600 24.57900
C  39.94400 45.69300 28.05400
O  39.52400 46.88900 28.17000
C  40.10400 44.71400 29.26500
C  41.15200 45.24100 30.08700
O  42.30600 44.95400 30.07000
O  40.58300 46.01100 31.06300
C  41.60900 46.34300 32.08700
H  42.05200 38.03200 30.29200
H  42.08700 37.57300 23.75700
H  40.68700 43.52900 23.04100
H  41.64500 42.67900 31.32300
H  40.40800 39.93400 31.58700
H  43.16300 41.26200 32.01200
H  43.07400 39.51500 31.88500
H  42.11400 40.42800 33.13000
H  38.82200 42.30100 30.77600
H  39.59800 43.50000 31.69500
H  39.88300 41.11100 33.23800
H  38.24500 40.93300 32.64300
H  43.19600 34.80300 28.58900
H  42.34000 35.87200 29.72300
H  44.02200 36.28000 29.15700
H  43.91400 33.42400 25.27600
H  42.82300 33.60800 26.67100
H  44.43100 34.21000 26.80900
H  41.08800 38.96800 21.89400
H  41.56600 41.72800 21.58200
H  43.84500 40.05800 22.24000
H  43.03200 40.18300 20.67900
H  43.25300 38.53200 21.38700
H  39.46700 40.40500 20.83600
H  39.26100 41.90200 21.67100
H  39.17300 39.76700 23.57600
H  37.82600 39.57400 22.33700
H  37.98100 40.94100 23.38200
H  39.32600 46.67700 24.98200
H  39.66000 45.70200 23.55800
H  40.92800 46.43200 24.45400
H  39.16900 44.69900 29.82500
H  42.02800 45.38400 32.39100
H  41.19700 46.84200 32.96500
H  42.41500 46.94300 31.66500
Mg 16.44300 51.30200 25.28300
C  18.26300 50.24000 28.11100
C  14.00900 52.39500 27.39100
C  14.49200 51.68700 22.54000
C  18.93500 49.81500 23.30600
N  16.18900 51.21300 27.52900
C  17.12800 50.93400 28.43900
C  16.61400 51.26800 29.91500
C  15.18900 51.83200 29.65300
C  15.11300 51.81900 28.11600
C  13.96900 51.05100 30.17900
C  17.48200 52.30500 30.61900
C  18.13800 51.93200 31.96600
H  17.29400 51.18100 32.94100
N  14.52200 51.97800 24.98400
C  13.68900 52.42600 25.99000
C  12.52000 52.98500 25.38600
C  12.69700 52.94700 23.98500
C  13.97800 52.17400 23.75900
C  11.28100 53.52900 26.15600
C  11.80900 53.54800 22.86600
O  12.09600 53.36400 21.66400
C  10.44100 54.26600 23.18300
N  16.74400 50.87600 23.25500
C  15.71200 51.07700 22.35300
C  16.18400 50.80500 20.84500
C  17.70200 50.39400 21.06300
C  17.81100 50.34400 22.60200
C  15.33100 49.73400 20.23100
C  18.72200 51.39400 20.41300
C  19.03900 51.14800 18.92700
N  18.28800 50.24800 25.59500
C  19.13700 49.64200 24.69300
C  20.32300 49.14400 25.39500
C  19.92100 49.32600 26.69300
C  18.78100 50.04500 26.78600
C  21.56000 48.56600 24.86800
C  20.37800 49.00000 28.05400
O  21.35500 48.31300 28.42500
C  19.37800 49.68600 28.97600
C  18.92200 48.59700 29.90300
O  18.09000 47.72900 29.59900
O  19.62700 48.63300 31.06700
C  19.17200 47.67500 32.05200
H  13.22100 52.71700 28.07500
H  13.97900 51.85900 21.59200
H  19.64300 49.40400 22.58400
H  16.60400 50.34000 30.48700
H  15.10200 52.86400 29.99300
H  13.24600 51.75100 30.59900
H  14.25700 50.32000 30.93500
H  13.45400 50.48000 29.40700
H  16.96400 53.25500 30.75200
H  18.44600 52.35500 30.11400
H  18.46400 52.86200 32.43300
H  19.04300 51.35200 31.78500
H  11.46100 53.59300 27.22900
H  10.45500 52.81800 26.14300
H  11.03700 54.53400 25.81200
H  9.99400 54.48000 22.21300
H  10.64400 55.12000 23.82800
H  9.74000 53.64100 23.73700
H  16.07100 51.75300 20.32000
H  17.81400 49.34400 20.79500
H  14.47000 50.04900 19.64200
H  15.02300 49.04800 21.02000
H  15.85800 49.08800 19.52900
H  19.64800 51.40300 20.98700
H  18.26300 52.38200 20.44800
H  19.06700 50.12500 18.55200
H  20.03100 51.54700 18.71800
H  18.23600 51.68000 18.41500
H  21.64200 47.48100 24.94200
H  22.27200 49.16500 25.43600
H  21.61700 48.88300 23.82700
H  19.85700 50.51200 29.50100
H  19.68800 47.82200 33.00100
H  19.42700 46.69900 31.63700
H  18.13100 47.73400 32.36900

