158

Mg 47.84000 34.05900 27.08300
C  45.91100 32.97500 29.93600
C  48.74600 36.84300 28.85500
C  49.05400 35.44500 24.25700
C  46.74900 31.24500 25.41600
N  47.37800 34.76900 29.09000
C  46.56700 34.25800 30.09600
C  46.61100 35.11000 31.36900
C  47.13800 36.41700 30.74600
C  47.82600 35.98800 29.45300
C  46.05400 37.52500 30.57000
C  47.50800 34.56600 32.56100
C  46.91800 34.91500 33.90100
H  47.87200 35.42000 35.00400
N  48.78600 35.90600 26.58000
C  49.20600 36.78400 27.54800
C  50.07400 37.76600 26.85200
C  50.26200 37.43300 25.49200
C  49.32300 36.22300 25.36900
C  50.66900 38.99700 27.52600
C  51.15500 38.05400 24.37500
O  51.11000 37.61600 23.20800
C  52.15700 39.18600 24.77800
N  47.74300 33.49200 25.20100
C  48.37300 34.20500 24.22600
C  48.09600 33.61500 22.82500
C  47.43500 32.27300 23.14200
C  47.21600 32.35900 24.68600
C  47.23100 34.48100 21.93200
C  48.47600 31.15300 22.80700
C  49.66200 30.74700 23.70200
N  46.74100 32.40600 27.51700
C  46.37600 31.27400 26.75800
C  45.55500 30.37500 27.48900
C  45.33100 31.02900 28.70200
C  46.05700 32.22800 28.69000
C  44.99700 29.08900 27.00600
C  44.55000 30.91400 30.01300
O  43.80800 29.99600 30.43200
C  44.82000 32.19900 30.70800
C  44.96600 32.00200 32.19500
O  45.97600 31.70800 32.73200
O  43.74800 31.92700 32.73100
C  43.81200 31.68900 34.23500
H  49.08400 37.65300 29.50500
H  49.52500 35.69600 23.30400
H  46.35900 30.38600 24.86400
H  45.58400 35.27800 31.69400
H  47.95300 36.84700 31.32700
H  45.99900 37.89400 29.54600
H  46.19900 38.43000 31.15900
H  45.10200 37.03100 30.76800
H  48.50000 35.01300 32.49000
H  47.75700 33.50800 32.48000
H  46.42500 34.00300 34.24000
H  46.05900 35.57800 33.79700
H  51.75500 38.92200 27.55800
H  50.27400 38.92500 28.53900
H  50.36700 39.95300 27.09600
H  52.92300 39.34300 24.01900
H  52.63900 38.83600 25.69100
H  51.79500 40.20100 24.94200
H  49.10200 33.51000 22.41900
H  46.50000 32.11000 22.60500
H  47.24200 35.50100 22.31800
H  46.22400 34.07000 21.86500
H  47.65400 34.47200 20.92800
H  49.01900 31.41900 21.90000
H  47.88000 30.25000 22.67800
H  49.74000 31.42900 24.54900
H  50.62800 30.89100 23.21900
H  49.42300 29.76500 24.11000
H  44.62600 28.43900 27.79800
H  45.68000 28.55100 26.34800
H  44.12600 29.24000 26.36800
H  43.91800 32.80600 30.63800
H  42.92600 32.20200 34.60900
H  44.61600 32.09400 34.85100
H  43.89100 30.61600 34.40900
Mg 6.78500 54.20500 41.25400
C  6.37100 50.85200 40.86700
C  10.05600 53.84800 40.29900
C  6.95000 57.59100 40.98700
C  3.23800 54.53100 42.03400
N  7.98400 52.57400 40.35100
C  7.57300 51.24100 40.33700
C  8.65300 50.32600 39.80200
C  9.95900 51.21800 40.00400
C  9.35500 52.66200 40.26000
C  11.03200 50.78500 41.02200
C  8.36500 49.97900 38.30100
C  7.70800 51.07400 37.42300
H  7.24000 50.74200 35.95900
N  8.22900 55.52500 40.79600
C  9.54400 55.20000 40.37900
C  10.30300 56.43300 40.18100
C  9.44300 57.47700 40.32900
C  8.09600 56.85000 40.74200
C  11.81300 56.37600 39.80400
C  9.85600 58.94300 40.21200
O  10.93900 59.29400 39.71700
C  8.94300 59.98800 40.72400
N  5.24100 55.81600 41.51700
C  5.66600 57.14000 41.39500
C  4.49900 58.05400 41.61400
C  3.28800 57.14100 41.90400
C  3.93700 55.74700 41.85600
C  4.95800 59.04100 42.76300
C  2.03600 57.39600 40.94400
C  0.87500 58.29100 41.43400
N  5.15500 52.98700 41.47700
C  3.80500 53.24000 41.82100
C  3.18100 51.99500 42.08700
C  4.12800 51.07000 41.75100
C  5.28100 51.69100 41.36000
C  1.76200 51.75600 42.45900
C  4.31800 49.64400 41.52100
O  3.56600 48.66200 41.70600
C  5.82400 49.51900 41.05800
C  5.62400 48.74200 39.87200
O  5.07100 49.11500 38.82000
O  6.19800 47.54900 39.97300
C  5.87400 46.53100 38.93400
H  11.08500 53.71200 39.95900
H  6.99500 58.67000 40.82500
H  2.20400 54.58000 42.38200
H  8.57200 49.40800 40.38500
H  10.41000 51.40900 39.03100
H  11.43900 51.66000 41.52900
H  11.82900 50.35500 40.41500
H  10.62200 50.05000 41.71500
H  7.77400 49.06300 38.31500
H  9.30300 49.70500 37.81900
H  8.41900 51.90000 37.39200
H  6.82600 51.37900 37.98600
H  12.45500 55.57400 40.16800
H  12.26400 57.35200 39.98000
H  11.81700 56.13600 38.74100
H  8.16000 60.27400 40.02100
H  9.40100 60.96800 40.59200
H  8.70600 59.84500 41.77800
H  4.28700 58.55200 40.66700
H  3.04100 57.30600 42.95300
H  4.92200 60.04200 42.33400
H  5.98700 58.83000 43.05500
H  4.32000 58.87200 43.63100
H  1.50400 56.47000 40.72500
H  2.28400 57.78400 39.95600
H  0.06100 57.61700 41.70200
H  0.63300 59.00000 40.64200
H  1.18800 58.79300 42.34900
H  1.42800 50.89900 41.87500
H  1.10900 52.62700 42.39400
H  1.84300 51.39000 43.48200
H  6.35700 48.87900 41.76100
H  5.82500 45.59400 39.48900
H  6.68900 46.60600 38.21500
H  4.99800 46.71700 38.31200

