158

Mg 6.72300 53.27700 40.73000
C  6.50300 49.89300 40.35000
C  9.87300 53.31000 39.54400
C  6.54600 56.69900 40.48800
C  3.30900 53.22100 41.75900
N  7.96400 51.77700 39.91500
C  7.72400 50.40400 39.82400
C  8.99900 49.62900 39.43200
C  10.11700 50.74100 39.72000
C  9.27800 52.06600 39.67900
C  11.00900 50.52700 41.02900
C  8.98800 49.07700 37.97900
C  8.24400 49.88100 36.96600
H  7.59000 49.10300 35.72600
N  8.07700 54.81200 40.05800
C  9.32000 54.55900 39.54300
C  9.93600 55.85100 39.21300
C  8.95300 56.86400 39.50800
C  7.79400 56.14800 40.03800
C  11.36900 56.01200 38.76000
C  9.12000 58.46400 39.33000
O  10.16600 58.87200 38.77400
C  8.08100 59.41400 39.81100
N  5.17300 54.70600 40.98400
C  5.40000 56.03900 40.90400
C  4.10900 56.83600 41.15500
C  3.11100 55.73300 41.68400
C  3.92300 54.44200 41.51200
C  4.13300 58.17400 42.08000
C  1.67200 55.67900 41.00800
C  0.44500 55.57500 41.80900
N  5.23800 51.87500 41.17400
C  3.91200 51.98600 41.49800
C  3.38000 50.67600 41.81700
C  4.34300 49.79700 41.27200
C  5.41500 50.59200 40.90000
C  1.99800 50.29200 42.37500
C  4.64800 48.41100 40.96600
O  3.97900 47.38700 41.10300
C  6.15900 48.41000 40.44900
C  6.10300 47.68300 39.13000
O  5.75600 48.14600 38.04400
O  6.38300 46.33700 39.26400
C  6.35700 45.41100 38.09400
H  10.92900 53.14900 39.32000
H  6.33200 57.76000 40.33800
H  2.29600 53.06400 42.13700
H  9.08100 48.80500 40.14100
H  10.82300 50.67200 38.89300
H  11.20400 51.45000 41.57500
H  11.94000 50.07100 40.69400
H  10.58900 49.89200 41.81000
H  8.53300 48.08700 37.97900
H  9.98900 48.97900 37.55700
H  8.95100 50.54400 36.46700
H  7.55600 50.61000 37.39500
H  11.30700 56.45300 37.76500
H  11.87800 55.05500 38.65000
H  11.96800 56.67100 39.38900
H  7.18000 59.22500 39.22700
H  8.35400 60.45000 39.60800
H  8.05500 59.25000 40.88800
H  3.65900 57.06900 40.19000
H  2.92900 55.74100 42.75800
H  3.94900 59.10100 41.53600
H  5.06700 58.16200 42.64200
H  3.36100 58.23700 42.84600
H  1.49800 54.84800 40.32400
H  1.71800 56.55200 40.35700
H  0.64700 55.30800 42.84600
H  -0.18100 54.80100 41.36500
H  -0.04400 56.54600 41.89000
H  1.59700 51.09300 42.99700
H  2.03900 49.38600 42.97900
H  1.31500 50.21800 41.52900
H  6.74800 47.83200 41.16100
H  6.08100 45.94800 37.18700
H  5.69300 44.56500 38.27000
H  7.38000 45.04500 37.99700
Mg 1.47700 43.10100 25.78700
C  3.07800 42.96600 28.89100
C  -1.52400 42.72100 27.35900
C  0.09300 42.82100 22.78800
C  4.69000 43.13100 24.36400
N  0.83300 42.88700 27.82100
C  1.65800 42.99800 28.96500
C  0.82700 42.89800 30.30300
C  -0.57100 42.65900 29.73100
C  -0.42100 42.75600 28.24400
C  -1.20700 41.36800 30.26500
C  0.98700 44.26400 31.12500
C  0.90100 44.26400 32.64500
H  0.59900 43.00300 33.38000
N  -0.52300 42.89000 25.11900
C  -1.60800 42.72700 25.92200
C  -2.71100 42.53900 25.06700
C  -2.33000 42.71600 23.67600
C  -0.86400 42.80300 23.81000
C  -4.03200 42.34000 25.74200
C  -3.13600 42.76200 22.36600
O  -2.60500 42.80700 21.30100
C  -4.60100 42.40500 22.44400
N  2.29900 42.88300 23.94800
C  1.51300 42.89300 22.83300
C  2.29800 42.83600 21.51900
C  3.70100 43.30000 22.01200
C  3.54500 43.11400 23.59800
C  2.21900 41.40400 20.82600
C  4.36100 44.73900 21.66100
C  3.42400 45.95700 21.36900
N  3.51400 43.13000 26.40500
C  4.71000 43.08800 25.76600
C  5.82200 43.11500 26.67900
C  5.24600 42.99300 27.91800
C  3.81600 43.04000 27.74000
C  7.24900 43.17800 26.30400
C  5.55400 43.06600 29.32000
O  6.63500 43.15300 29.91500
C  4.15800 42.95000 30.05000
C  4.09500 41.71700 30.91200
O  3.49500 40.65700 30.67100
O  4.75700 41.87300 32.14500
C  4.48600 40.73500 33.06500
H  -2.51900 42.58500 27.78900
H  -0.36100 42.83600 21.79500
H  5.65800 43.25200 23.87500
H  1.25400 42.11200 30.92500
H  -1.33400 43.36500 30.05800
H  -2.29400 41.40500 30.32900
H  -0.85100 41.13400 31.26800
H  -0.84800 40.49000 29.72700
H  0.31100 45.00000 30.68900
H  1.92000 44.66600 30.72900
H  0.08100 44.95600 32.83600
H  1.77700 44.65800 33.15900
H  -4.74300 41.95600 25.01000
H  -4.42100 43.25800 26.18100
H  -3.98000 41.62500 26.56300
H  -5.10100 42.37800 21.47600
H  -5.04400 43.16300 23.09000
H  -4.63400 41.43500 22.94000
H  1.95100 43.67700 20.91800
H  4.52300 42.66800 21.67600
H  1.68200 40.76200 21.52400
H  3.16200 40.91300 20.58600
H  1.50900 41.53200 20.00900
H  4.84000 44.57700 20.69500
H  5.06800 44.95600 22.46200
H  3.54700 46.31800 20.34700
H  3.80200 46.70400 22.06800
H  2.37400 45.79700 21.61000
H  7.49400 44.22100 26.10600
H  7.38800 42.71200 25.32800
H  7.90700 42.69300 27.02500
H  3.92100 43.70300 30.80100
H  4.38000 39.74700 32.61800
H  3.65000 40.88100 33.75000
H  5.40300 40.67900 33.65200

