158

Mg 9.02900 3.32900 27.32000
C  10.48500 1.84600 30.19600
C  7.68700 5.71700 29.15900
C  7.66000 4.58300 24.42500
C  10.09800 0.58800 25.52100
N  8.97100 3.64900 29.47600
C  9.72400 3.02100 30.50400
C  9.44300 3.63600 31.91900
C  8.34600 4.72400 31.44300
C  8.32000 4.71300 29.91000
C  7.00900 4.73600 32.14800
C  10.68800 4.12500 32.68300
C  10.46200 5.27000 33.66400
H  11.18100 5.17600 35.00700
N  7.82500 4.95000 26.85700
C  7.45700 5.89100 27.74200
C  6.74800 6.97400 27.03700
C  6.78200 6.64100 25.66600
C  7.40300 5.35500 25.59500
C  6.36900 8.26900 27.79900
C  6.38100 7.56200 24.51600
O  6.38000 7.14500 23.34400
C  5.79800 8.96600 24.74500
N  8.89300 2.68700 25.21800
C  8.36400 3.37100 24.23100
C  8.54900 2.61500 22.87100
C  9.33300 1.39500 23.32700
C  9.47400 1.59700 24.80200
C  7.23200 2.38900 22.14600
C  10.77800 1.38000 22.64500
C  11.02200 0.26700 21.56500
N  10.14600 1.59000 27.65300
C  10.50700 0.51600 26.84200
C  11.24600 -0.48600 27.54500
C  11.24700 0.06000 28.85800
C  10.49800 1.22600 28.87200
C  11.93400 -1.71800 27.03000
C  11.75400 -0.24000 30.22200
O  12.42600 -1.17300 30.59800
C  11.25200 0.89500 31.15000
C  10.37600 0.32100 32.24200
O  9.31200 -0.26200 32.07300
O  10.71300 0.79200 33.45300
C  9.90600 0.34200 34.58200
H  7.21400 6.54800 29.68600
H  7.19800 5.02000 23.53800
H  10.36800 -0.32300 24.98300
H  9.03700 2.78500 32.46500
H  8.60400 5.73600 31.75500
H  6.38800 5.52100 31.71700
H  7.22200 4.98700 33.18700
H  6.45900 3.79600 32.09900
H  11.52800 4.31200 32.01500
H  11.09900 3.34500 33.32400
H  9.39200 5.46300 33.74100
H  10.83900 6.18600 33.20900
H  6.50400 8.35300 28.87800
H  5.30700 8.44100 27.62800
H  6.94600 9.09300 27.38000
H  6.59000 9.68800 24.94400
H  5.01700 9.02700 25.50400
H  5.38500 9.08900 23.74400
H  9.20200 3.33900 22.38500
H  8.86100 0.43000 23.14300
H  7.07500 1.31000 22.12100
H  7.17200 2.75600 21.12100
H  6.42900 2.82600 22.73900
H  11.55300 1.18100 23.38500
H  10.94300 2.26800 22.03500
H  10.85000 0.53900 20.52400
H  10.39900 -0.59300 21.81200
H  12.07100 -0.03000 21.55200
H  11.55800 -1.93800 26.03100
H  11.54100 -2.52000 27.65400
H  13.01200 -1.63500 26.89400
H  12.09200 1.37200 31.65500
H  9.86100 1.13400 35.32900
H  10.36300 -0.57600 34.95400
H  8.88000 0.01800 34.40900
Mg 26.06700 49.57200 26.64300
C  23.83500 51.00400 28.83100
C  28.26400 49.18000 29.11600
C  28.34200 48.78100 24.14200
C  23.88800 50.58600 23.97900
N  26.07600 50.26900 28.79800
C  24.95700 50.61900 29.52900
C  25.04100 50.36900 31.01200
C  26.62600 50.04400 31.07300
C  27.07100 49.75900 29.58000
C  27.50600 51.17900 31.77200
C  24.08600 49.25000 31.60600
C  23.85800 49.17400 33.24000
H  24.63900 50.15200 34.07300
N  27.98500 49.09400 26.63500
C  28.76000 48.97900 27.79000
C  30.04100 48.47300 27.36900
C  30.11600 48.48500 25.94700
C  28.79700 48.83400 25.55000
C  31.12600 48.11900 28.47500
C  31.35700 48.22800 24.99000
O  31.37700 48.44300 23.78400
C  32.64300 47.86000 25.63300
N  26.01400 49.43000 24.46000
C  27.05900 49.04200 23.66100
C  26.68400 48.94600 22.14600
C  25.29400 49.61700 22.10200
C  25.00100 49.87000 23.61900
C  27.70000 49.63300 21.13300
C  24.17300 48.79500 21.38200
C  23.23700 49.56600 20.39700
N  24.21400 50.45300 26.34800
C  23.47100 50.87100 25.23200
C  22.30500 51.50700 25.68200
C  22.31300 51.43600 27.06100
C  23.56200 50.88600 27.41300
C  21.26400 52.00800 24.79500
C  21.65200 51.84200 28.26200
O  20.59700 52.40700 28.39800
C  22.52700 51.46200 29.47200
C  22.86400 52.74100 30.32600
O  23.53500 53.72500 30.01000
O  22.26900 52.58000 31.62800
C  22.60700 53.66400 32.53500
H  28.94100 48.87600 29.91600
H  28.97100 48.44400 23.31500
H  23.21300 50.81400 23.15100
H  24.94600 51.26900 31.61900
H  26.93200 49.14400 31.60600
H  28.01200 50.78200 32.65200
H  26.87400 51.96400 32.18800
H  28.20500 51.58300 31.04100
H  24.62300 48.36400 31.26700
H  23.16400 49.49000 31.07600
H  23.98100 48.16600 33.63500
H  22.80400 49.45000 33.21500
H  32.05400 48.56500 28.11700
H  31.41700 47.07000 28.41500
H  31.02600 48.55900 29.46700
H  33.35800 47.32000 25.01200
H  32.34700 47.11300 26.37000
H  33.16400 48.72500 26.04400
H  26.66800 47.87200 21.96000
H  25.38700 50.60600 21.65300
H  28.40300 50.35600 21.54500
H  27.12100 50.10900 20.34100
H  28.24800 48.85900 20.59600
H  23.69000 48.26500 22.20200
H  24.70200 48.13500 20.69400
H  23.26700 50.65500 20.43800
H  22.20100 49.24000 20.48600
H  23.48400 49.36700 19.35400
H  21.14400 51.41100 23.89100
H  21.51800 53.04600 24.57600
H  20.26400 51.96600 25.22600
H  21.98300 50.59900 29.85700
H  22.90200 54.56100 31.99100
H  23.42800 53.38100 33.19400
H  21.72900 53.86900 33.14700

