158

Mg 44.38600 3.42900 47.24800
C  42.28300 6.23300 47.45900
C  41.42600 1.47600 47.53600
C  46.23200 0.83100 46.76400
C  47.12300 5.59700 47.29900
N  42.11600 3.80200 47.33500
C  41.51700 5.08500 47.47200
C  40.01900 4.94600 47.19100
C  39.71500 3.47300 47.62900
C  41.15900 2.83400 47.46600
C  38.95800 3.36500 48.93000
C  39.79800 5.29100 45.69800
C  38.78000 6.39200 45.36700
H  38.02200 6.47000 44.04000
N  43.90600 1.41700 46.98700
C  42.73000 0.82200 47.35000
C  42.92900 -0.62800 47.32600
C  44.25200 -0.87400 46.89100
C  44.87300 0.48000 46.83900
C  41.86700 -1.64300 47.61800
C  44.87100 -2.32600 46.64000
O  44.12300 -3.29300 46.73300
C  46.35300 -2.60600 46.32800
N  46.43400 3.32300 46.93600
C  46.95300 2.06300 46.74500
C  48.48200 2.18900 46.87100
C  48.75800 3.68800 47.09500
C  47.38400 4.22100 47.07200
C  49.17100 1.41400 48.07300
C  49.58300 4.38600 45.93200
C  50.82900 5.07800 46.53400
N  44.72000 5.51100 47.32300
C  45.85600 6.20900 47.37400
C  45.51900 7.58800 47.48500
C  44.17000 7.75000 47.42400
C  43.69200 6.39500 47.37600
C  46.59000 8.75500 47.52500
C  42.99800 8.63000 47.48900
O  42.89700 9.80400 47.58400
C  41.73800 7.67700 47.34700
C  40.64000 7.95200 48.38100
O  40.58600 7.35700 49.44300
O  39.81800 8.97300 48.01800
C  38.73100 9.38500 48.91500
H  40.61300 0.82000 47.85300
H  46.82800 -0.07500 46.63600
H  47.95500 6.30100 47.36800
H  39.51400 5.56200 47.93600
H  39.14700 2.88100 46.91100
H  38.69700 4.32300 49.37800
H  39.60200 2.83200 49.63000
H  37.98900 2.88700 48.78700
H  39.46400 4.40100 45.16600
H  40.71900 5.57100 45.18600
H  39.33300 7.32900 45.42800
H  38.11800 6.40000 46.23200
H  42.15200 -2.40000 48.34800
H  41.65900 -2.09900 46.65000
H  41.01700 -1.13700 48.07700
H  47.10400 -2.31300 47.06200
H  46.49000 -1.99000 45.43900
H  46.49600 -3.65200 46.05600
H  48.98400 1.79100 45.98900
H  49.23100 3.93700 48.04500
H  49.31400 0.35100 47.87500
H  48.48400 1.46800 48.91800
H  50.08700 1.92100 48.37400
H  49.05000 5.14700 45.36100
H  49.84400 3.70100 45.12500
H  50.73500 5.27300 47.60200
H  51.07500 5.97300 45.96300
H  51.67500 4.39200 46.49900
H  46.21000 9.53100 48.19000
H  46.77900 9.15000 46.52700
H  47.44300 8.30900 48.03700
H  41.40900 7.89000 46.33000
H  37.89700 8.68400 48.87700
H  38.48500 10.37000 48.51900
H  38.99300 9.52900 49.96300
Mg 46.67400 24.37200 28.53900
C  46.95700 26.61900 31.39200
C  45.77000 21.96000 30.68400
C  46.65200 22.45500 25.71600
C  47.90900 27.12900 26.52900
N  46.46800 24.33100 30.88100
C  46.52600 25.32300 31.78100
C  46.21400 24.74700 33.19800
C  45.96900 23.14700 32.91200
C  45.95300 23.13900 31.39600
C  47.07600 22.21600 33.53200
C  45.02000 25.53500 33.79300
C  45.18300 25.96800 35.25700
H  45.37100 24.95600 36.35800
N  46.30900 22.46200 28.25800
C  45.93700 21.58700 29.27800
C  45.69800 20.24900 28.66400
C  45.85200 20.45200 27.23400
C  46.32100 21.88200 26.99500
C  45.25500 19.06600 29.50200
C  45.43100 19.47600 26.07700
O  45.50000 19.85600 24.95000
C  44.78200 18.14300 26.50500
N  47.05200 24.78900 26.43700
C  46.99200 23.82400 25.46900
C  47.29100 24.36700 24.07400
C  47.47900 25.89100 24.33800
C  47.57100 25.92900 25.86200
C  48.48200 23.73800 23.40200
C  46.35800 26.73600 23.68600
C  44.95000 26.39700 24.18600
N  47.17800 26.41000 28.82900
C  47.66600 27.44000 27.86000
C  48.03100 28.62200 28.63200
C  47.61200 28.33500 29.95700
C  47.17800 27.01100 30.03000
C  48.56500 29.83600 28.04300
C  47.66200 28.93300 31.31200
O  48.00000 30.04300 31.70300
C  47.24100 27.79700 32.22600
C  48.36400 27.56100 33.22000
O  48.94900 26.51200 33.38800
O  48.55000 28.60900 34.14700
C  49.11800 28.17900 35.43500
H  45.44500 21.08800 31.25400
H  46.67800 21.79900 24.84300
H  48.22400 27.99500 25.94300
H  47.16200 24.83300 33.72900
H  45.00900 22.76000 33.25200
H  47.45000 21.74700 32.62200
H  46.69900 21.38900 34.13400
H  47.79800 22.81700 34.08500
H  44.27700 24.74300 33.89200
H  44.59000 26.27000 33.11200
H  44.35400 26.62400 35.52000
H  46.07400 26.59100 35.33600
H  44.16900 18.99000 29.43900
H  45.53400 19.26200 30.53700
H  45.74000 18.18900 29.07400
H  45.40800 17.35200 26.91900
H  44.53500 17.71300 25.53400
H  43.88200 18.25400 27.10900
H  46.42300 24.07800 23.48100
H  48.36800 26.29700 23.85500
H  48.42600 23.64700 22.31700
H  48.58500 22.73300 23.81200
H  49.37300 24.29500 23.68800
H  46.19400 26.66000 22.61100
H  46.50600 27.79900 23.87500
H  44.55700 25.44300 23.83500
H  44.29300 27.16400 23.77700
H  44.83500 26.30400 25.26600
H  48.22800 29.87600 27.00700
H  49.65100 29.76300 28.10100
H  48.20200 30.68400 28.62300
H  46.36000 28.03700 32.82100
H  48.22400 27.79600 35.92600
H  49.58000 28.96300 36.03500
H  49.89000 27.41100 35.39600

