158

Mg -1.37300 18.21300 27.13100
C  -1.75600 15.92100 29.80600
C  -2.17500 20.71900 29.19500
C  -1.50400 20.10700 24.49300
C  -1.56300 15.35700 25.03700
N  -1.64700 18.33600 29.28600
C  -1.77100 17.30300 30.18000
C  -1.83200 17.77300 31.64400
C  -2.00500 19.35500 31.38400
C  -1.99200 19.48300 29.86300
C  -3.34000 19.84500 31.95100
C  -0.52800 17.46700 32.49100
C  -0.23900 18.35800 33.78500
H  0.16700 17.59200 35.04700
N  -1.65900 20.21100 26.87800
C  -2.03800 21.13600 27.82200
C  -2.12900 22.46900 27.20600
C  -1.74900 22.25600 25.84500
C  -1.67700 20.80700 25.69900
C  -2.40500 23.72600 28.03100
C  -1.52000 23.23600 24.72300
O  -1.19200 22.88000 23.60900
C  -1.71400 24.72700 24.99500
N  -1.42000 17.76100 25.09000
C  -1.37700 18.78900 24.14600
C  -1.37400 18.24600 22.70300
C  -1.23700 16.72100 22.96400
C  -1.44700 16.61400 24.43100
C  -2.46000 18.74200 21.70800
C  0.16100 16.21700 22.61900
C  0.31500 14.77200 22.05800
N  -1.58700 16.06800 27.34100
C  -1.58400 15.03500 26.42500
C  -1.61100 13.77200 27.02000
C  -1.65500 14.07700 28.34500
C  -1.72900 15.44400 28.53000
C  -1.73500 12.44600 26.35500
C  -1.75000 13.48000 29.58600
O  -1.79300 12.32100 29.92200
C  -1.74200 14.61900 30.64400
C  -0.55400 14.47200 31.44600
O  0.57400 14.88800 31.02800
O  -0.80900 13.88800 32.64800
C  0.28100 13.76400 33.64300
H  -2.45000 21.46700 29.94200
H  -1.32000 20.58700 23.53000
H  -1.30000 14.53600 24.36700
H  -2.73100 17.32900 32.07200
H  -1.19800 19.92000 31.84900
H  -4.02100 20.14300 31.15400
H  -3.08600 20.75400 32.49700
H  -3.84200 19.06400 32.52300
H  0.29400 17.49900 31.77500
H  -0.69500 16.46800 32.89500
H  -1.20700 18.76700 34.07700
H  0.44900 19.16100 33.51900
H  -2.76500 23.69900 29.06000
H  -3.16300 24.26800 27.46500
H  -1.51200 24.34200 27.92700
H  -0.88500 25.02100 25.63900
H  -2.73700 24.91500 25.32000
H  -1.55500 25.32000 24.09400
H  -0.43000 18.68100 22.37600
H  -2.00400 16.09700 22.50800
H  -3.08700 17.86200 21.57100
H  -2.00700 18.99100 20.74800
H  -3.05100 19.56700 22.10600
H  0.70400 16.17500 23.56400
H  0.70600 16.88700 21.95500
H  1.22100 14.57100 21.48500
H  -0.58400 14.47200 21.51800
H  0.45500 14.06100 22.87200
H  -1.89900 11.61600 27.04200
H  -0.80600 12.27400 25.81100
H  -2.50500 12.43300 25.58400
H  -2.66600 14.64100 31.22200
H  0.24400 12.84100 34.22200
H  0.17900 14.64500 34.27700
H  1.26500 13.78800 33.17500
Mg 49.56400 34.42500 27.77100
C  47.24800 33.69800 30.41100
C  50.23100 37.44400 29.48000
C  51.25800 35.23600 25.16000
C  48.40700 31.49600 26.07100
N  48.92000 35.36900 29.76800
C  47.95000 34.91300 30.62900
C  47.91700 35.75700 31.91400
C  48.62300 37.09000 31.39200
C  49.34200 36.56100 30.13800
C  47.75700 38.32300 31.12800
C  48.69800 35.14800 33.12400
C  47.90800 35.23600 34.43500
H  48.39300 36.20900 35.47100
N  50.62500 36.08700 27.39400
C  50.86300 37.18800 28.18800
C  51.76800 38.07100 27.52000
C  52.03500 37.52300 26.32100
C  51.34100 36.21300 26.28000
C  51.94200 39.45500 28.00900
C  52.62900 38.19400 25.04900
O  52.73200 37.55200 23.99200
C  53.12300 39.58700 25.07500
N  49.73700 33.54500 25.82800
C  50.56200 34.06900 24.92500
C  50.55900 33.28600 23.53700
C  49.90400 31.99100 23.98300
C  49.34300 32.29300 25.42000
C  49.81400 34.14700 22.48000
C  50.96500 30.80200 23.93000
C  50.52800 29.45300 23.30800
N  48.10300 32.89600 28.04600
C  47.75400 31.79300 27.23400
C  46.69300 31.02200 27.99000
C  46.43500 31.83400 29.12000
C  47.36300 32.86400 29.17700
C  46.09100 29.76700 27.65900
C  45.57500 31.86300 30.33900
O  44.74400 31.01800 30.71100
C  46.01600 33.17600 31.13300
C  46.29000 32.56200 32.52900
O  47.39600 32.41600 32.92200
O  45.12200 32.35900 33.24400
C  45.34900 31.87600 34.64100
H  50.29100 38.45900 29.87800
H  51.77900 35.49200 24.23500
H  47.99100 30.57500 25.65700
H  46.85900 35.91300 32.12300
H  49.37000 37.45900 32.09500
H  47.92300 38.70800 30.12200
H  47.91800 39.17800 31.78500
H  46.68300 38.15600 31.20900
H  49.55300 35.79300 33.32600
H  49.02200 34.12700 32.91800
H  48.08200 34.27500 34.91800
H  46.82700 35.35100 34.36200
H  51.49800 39.63900 28.98800
H  51.44500 40.19900 27.38700
H  53.02500 39.56000 27.94300
H  52.28300 40.25000 25.28000
H  53.28500 39.83100 24.02500
H  53.97300 39.74500 25.73800
H  51.56300 33.30600 23.11100
H  49.03300 31.79800 23.35700
H  50.48400 34.63200 21.77000
H  49.22900 34.93200 22.96100
H  49.03300 33.61200 21.94000
H  51.37200 30.60000 24.92100
H  51.82900 31.17300 23.37900
H  49.54500 29.50000 22.83900
H  50.35400 28.67600 24.05300
H  51.25300 29.16900 22.54500
H  45.81800 29.83600 26.60600
H  45.15900 29.71100 28.22200
H  46.88800 29.04700 27.84200
H  45.11400 33.78400 31.20000
H  45.89600 30.93600 34.56700
H  44.43400 31.67200 35.19700
H  46.03400 32.58300 35.10900

