158

Mg 15.70500 51.67300 25.58000
C  17.72200 50.83800 28.27000
C  13.15300 52.41500 28.05800
C  13.60400 52.37600 23.14100
C  18.05200 50.42100 23.32600
N  15.44600 51.64000 27.92200
C  16.45600 51.33100 28.74800
C  16.06400 51.60900 30.20700
C  14.53100 51.71400 30.10500
C  14.34300 51.92700 28.63400
C  13.82100 50.36900 30.59100
C  16.86600 52.82500 30.72900
C  16.23900 53.42200 31.98900
H  15.42800 52.48800 32.92500
N  13.71200 52.27600 25.55000
C  12.86100 52.53800 26.66900
C  11.62300 53.07300 26.10800
C  11.68300 53.10900 24.76700
C  13.01000 52.55900 24.36300
C  10.37000 53.19800 26.98200
C  10.63900 53.60700 23.78500
O  10.81500 53.81200 22.59600
C  9.31600 54.00000 24.32200
N  15.78900 51.32900 23.57900
C  14.79900 51.86200 22.70000
C  15.20900 51.60600 21.21200
C  16.76300 51.40600 21.32300
C  16.80000 50.92500 22.81300
C  14.34000 50.51900 20.50900
C  17.63600 52.72500 21.04600
C  18.78500 52.46800 19.92500
N  17.55000 50.76900 25.69400
C  18.43000 50.33900 24.70300
C  19.67500 49.81500 25.40200
C  19.43900 50.09900 26.76000
C  18.13100 50.58100 26.93100
C  20.92600 49.24800 24.81200
C  20.04300 50.02000 28.09100
O  21.07900 49.54100 28.46600
C  18.96000 50.39300 29.12900
C  18.70900 49.22700 30.06300
O  18.49000 48.03600 29.81900
O  19.00800 49.68100 31.39100
C  18.55900 48.75600 32.43600
H  12.32400 52.55200 28.75600
H  12.98500 52.56900 22.26300
H  18.84300 49.98600 22.71100
H  16.31100 50.75600 30.83800
H  14.11200 52.62300 30.53800
H  13.20700 50.48100 31.48500
H  14.52000 49.53200 30.59800
H  13.23700 50.17800 29.69100
H  16.90000 53.58800 29.95100
H  17.87900 52.56900 31.03900
H  15.67700 54.32800 31.76200
H  17.08300 53.77700 32.58000
H  9.59900 52.43600 26.86300
H  9.98000 54.21500 26.94400
H  10.60900 53.20500 28.04500
H  8.70200 53.19800 24.73300
H  8.72200 54.30300 23.46100
H  9.26900 54.85100 25.00100
H  14.95400 52.51000 20.66000
H  17.02600 50.68300 20.55100
H  15.15300 49.98900 20.01200
H  13.74200 50.96300 19.71300
H  13.70300 49.94800 21.18400
H  18.09500 52.80400 22.03100
H  17.03700 53.60000 20.79100
H  18.60100 51.63400 19.24800
H  19.73100 52.30900 20.44300
H  18.86700 53.33800 19.27300
H  21.50800 48.74600 25.58400
H  21.44900 50.06600 24.31700
H  20.70800 48.51100 24.03800
H  19.48000 51.11700 29.75800
H  19.23400 47.90400 32.51600
H  17.54200 48.40600 32.26100
H  18.54000 49.31900 33.36900
Mg -8.91000 40.17100 43.60900
C  -7.88200 36.90100 42.44400
C  -6.34000 41.37700 41.67700
C  -10.07500 43.18800 44.28200
C  -11.89500 38.73600 44.81700
N  -7.33600 39.21600 42.23600
C  -7.10300 37.89100 41.94800
C  -5.76600 37.76000 41.18600
C  -5.36700 39.22100 40.93300
C  -6.41200 40.00700 41.66400
C  -3.87900 39.63200 41.24800
C  -5.87200 36.88100 39.87000
C  -4.96500 37.22500 38.63100
H  -4.52100 36.18300 37.65400
N  -8.21100 42.08900 43.16000
C  -7.19800 42.37800 42.33800
C  -7.07700 43.82900 42.13100
C  -7.95100 44.36100 43.10800
C  -8.75000 43.19900 43.71100
C  -6.02100 44.49100 41.19100
C  -8.13800 45.84600 43.32800
O  -7.62600 46.69900 42.60000
C  -8.82300 46.32300 44.58000
N  -10.81400 40.90400 44.33200
C  -10.99400 42.19600 44.66100
C  -12.28100 42.43900 45.23300
C  -12.89700 41.03400 45.29400
C  -11.79100 40.11300 44.83100
C  -12.28900 43.15300 46.65900
C  -14.38400 40.85100 44.76500
C  -14.48300 40.16600 43.42600
N  -9.83600 38.28600 43.63100
C  -11.00800 37.86100 44.14300
C  -11.04600 36.46300 44.04800
C  -9.84900 36.01000 43.36800
C  -9.14700 37.21700 43.11100
C  -12.21900 35.62600 44.54700
C  -9.10600 34.89400 42.91400
O  -9.38700 33.67900 42.88600
C  -7.77500 35.39300 42.27600
C  -6.56300 34.83400 42.98700
O  -6.31900 34.98900 44.18600
O  -5.71700 34.12400 42.10500
C  -4.50900 33.63300 42.68900
H  -5.56400 41.90300 41.11700
H  -10.39500 44.16800 44.64200
H  -12.84300 38.46900 45.28800
H  -5.09400 37.20700 41.84200
H  -5.46600 39.45200 39.87200
H  -3.44700 40.18700 40.41500
H  -3.25200 38.74900 41.36900
H  -3.80800 40.31200 42.09700
H  -6.84100 37.17300 39.46500
H  -6.02200 35.82700 40.10400
H  -4.03100 37.61900 39.03200
H  -5.51600 38.00200 38.10100
H  -6.36500 45.50100 40.97100
H  -5.88100 43.87500 40.30200
H  -5.12000 44.54000 41.80200
H  -8.39100 47.28700 44.84600
H  -8.79600 45.64000 45.42900
H  -9.88100 46.44200 44.34500
H  -12.83200 43.05600 44.52300
H  -12.82800 40.84000 46.36500
H  -11.38100 42.88100 47.19700
H  -13.10000 42.79600 47.29500
H  -12.37100 44.22900 46.50600
H  -14.93300 41.78400 44.88800
H  -14.89400 40.08100 45.34400
H  -13.56800 40.12600 42.83500
H  -15.20200 40.78900 42.89300
H  -14.87700 39.14900 43.41500
H  -12.26400 34.74000 43.91400
H  -13.14600 36.18800 44.65700
H  -11.92800 35.38200 45.56800
H  -7.70900 35.21300 41.20300
H  -4.47900 33.18000 43.68000
H  -3.71700 34.38200 42.68200
H  -4.19500 32.91000 41.93700

