158

Mg 24.09200 -5.38100 46.40500
C  26.00100 -2.88200 44.64600
C  21.43200 -4.30100 44.61400
C  22.62500 -8.30000 47.18300
C  27.14100 -6.74000 47.42400
N  23.82500 -3.85500 44.68400
C  24.67800 -2.85500 44.31400
C  23.98700 -1.87500 43.36500
C  22.46200 -2.09100 43.76900
C  22.55900 -3.54000 44.34100
C  21.91900 -1.07700 44.76300
C  24.28700 -2.24100 41.84400
C  24.93100 -1.17500 40.96900
H  24.54300 -1.35900 39.44800
N  22.31700 -6.17200 46.11100
C  21.36100 -5.51600 45.38600
C  20.18200 -6.27500 45.54400
C  20.40500 -7.40600 46.33200
C  21.81200 -7.40500 46.57800
C  18.87100 -5.77900 44.83000
C  19.35900 -8.48500 46.77600
O  18.19700 -8.38900 46.38500
C  19.67200 -9.65400 47.62800
N  24.79600 -7.18500 47.33800
C  23.95100 -8.22100 47.56700
C  24.68900 -9.40100 48.28400
C  26.16200 -9.00100 48.25200
C  26.04100 -7.53800 47.62700
C  24.29600 -9.74700 49.73600
C  27.14800 -9.95200 47.55100
C  27.34900 -9.75100 46.00200
N  26.16300 -4.83500 46.22800
C  27.24700 -5.47000 46.81900
C  28.41800 -4.72300 46.54100
C  28.01400 -3.65400 45.62000
C  26.64800 -3.79700 45.50400
C  29.89400 -4.94200 47.02700
C  28.47800 -2.56300 44.75300
O  29.58500 -2.19700 44.44300
C  27.19300 -2.08500 44.10000
C  27.13900 -0.70900 44.46900
O  26.75000 -0.18700 45.50600
O  27.57500 0.04300 43.38400
C  27.85900 1.47000 43.80100
H  20.49000 -3.97700 44.16600
H  22.23800 -9.30200 47.37700
H  28.10800 -7.16100 47.70800
H  24.33200 -0.85700 43.54400
H  21.82500 -2.03900 42.88600
H  20.94600 -0.70900 44.43600
H  22.60100 -0.22900 44.82000
H  21.73000 -1.52200 45.74000
H  23.35500 -2.56500 41.38200
H  25.00500 -3.06000 41.79800
H  26.01600 -1.20400 41.06700
H  24.58100 -0.20400 41.31800
H  18.75500 -4.71500 45.03500
H  17.96700 -6.26100 45.20100
H  19.06400 -5.84400 43.75900
H  18.87200 -10.36300 47.84200
H  20.14500 -9.25300 48.52400
H  20.37700 -10.19600 46.99700
H  24.58900 -10.31900 47.70600
H  26.65800 -8.78000 49.19700
H  23.81500 -10.72500 49.71900
H  23.59400 -8.98700 50.08000
H  25.13200 -9.62100 50.42300
H  26.76100 -10.95800 47.71500
H  28.11600 -9.86300 48.04200
H  27.02200 -10.71100 45.60200
H  28.39500 -9.55500 45.76900
H  26.63900 -9.03400 45.58900
H  30.15400 -3.94500 47.38100
H  30.51700 -5.21500 46.17500
H  29.92100 -5.66200 47.84400
H  27.26700 -2.27500 43.03000
H  26.89900 1.97100 43.92200
H  28.30600 2.07200 43.00900
H  28.51000 1.51500 44.67300
Mg 24.57100 1.01000 29.01600
C  26.51700 0.83000 31.92900
C  21.77700 1.57600 31.11600
C  22.70900 1.05800 26.26100
C  27.42200 0.27200 27.08200
N  24.23700 0.99100 31.27000
C  25.19600 1.07500 32.20400
C  24.60900 1.43800 33.60700
C  23.08100 1.30700 33.33400
C  22.99700 1.28900 31.78000
C  22.34600 0.03900 33.99500
C  25.08400 2.85000 34.10400
C  24.68300 3.26400 35.48600
H  25.74500 3.61800 36.57700
N  22.52600 1.29400 28.76900
C  21.53300 1.47100 29.70200
C  20.26000 1.46500 29.00300
C  20.51400 1.16600 27.64400
C  21.95900 1.18300 27.54000
C  19.01100 1.73300 29.66300
C  19.47800 1.05400 26.50600
O  19.82400 0.96300 25.29600
C  17.98500 0.92700 26.73900
N  25.02700 0.72500 26.99400
C  24.10300 0.81100 26.02400
C  24.62200 0.76300 24.57600
C  26.18100 0.86100 24.86600
C  26.22100 0.53000 26.38600
C  24.12700 -0.55200 23.79600
C  26.83300 2.14700 24.45300
C  26.20000 3.42000 24.90100
N  26.54300 0.58000 29.31700
C  27.55500 0.28100 28.48500
C  28.78500 0.15900 29.25300
C  28.37700 0.36100 30.58400
C  27.01600 0.57700 30.60600
C  30.12900 -0.22900 28.64000
C  28.92500 0.46100 31.95800
O  30.07400 0.44600 32.38000
C  27.70300 0.82500 32.88800
C  27.58800 -0.21000 33.93200
O  27.55500 -1.45400 33.83600
O  27.67400 0.46300 35.12200
C  27.39400 -0.35900 36.34100
H  20.84800 1.79500 31.64700
H  22.21300 1.24900 25.30700
H  28.31200 0.15000 26.46200
H  24.74300 0.72400 34.41900
H  22.48700 2.18000 33.60600
H  23.01200 -0.62200 34.55000
H  21.92100 -0.60300 33.22300
H  21.50500 0.26900 34.64900
H  24.64000 3.63300 33.48900
H  26.14000 3.03800 33.91300
H  24.05600 2.49200 35.93200
H  24.17400 4.22700 35.44200
H  18.37200 0.85400 29.75100
H  18.53700 2.54300 29.10900
H  19.06300 2.24000 30.62700
H  17.51700 0.99800 25.75700
H  17.57900 1.67800 27.41700
H  17.77000 -0.10500 27.01700
H  24.18700 1.64700 24.11000
H  26.79700 0.03600 24.50700
H  23.78300 -0.28800 22.79600
H  23.27600 -1.01900 24.29200
H  24.87600 -1.33700 23.68600
H  26.68000 2.21400 23.37600
H  27.90700 2.15800 24.63600
H  25.62400 3.87100 24.09300
H  27.04500 3.96900 25.31700
H  25.56900 3.24700 25.77200
H  30.09700 -0.46300 27.57600
H  30.62500 -0.98100 29.25500
H  30.69900 0.69300 28.75400
H  27.77900 1.83400 33.29500
H  26.43100 -0.85900 36.23500
H  27.46100 0.19600 37.27700
H  28.18500 -1.10200 36.23300

