158

Mg 8.16000 2.54500 27.11400
C  9.74300 1.51600 30.05900
C  6.11500 4.52200 29.15400
C  6.98900 3.86100 24.33000
C  9.97400 0.14700 25.27500
N  7.84800 2.86300 29.40800
C  8.81700 2.46700 30.39600
C  8.45800 3.09100 31.77200
C  7.14800 3.94600 31.46000
C  6.94000 3.73100 29.93300
C  5.90800 3.45100 32.18800
C  9.65500 3.87500 32.40700
C  9.28500 4.45500 33.78100
H  10.26400 4.31300 34.88300
N  6.70600 3.96100 26.71000
C  5.98500 4.66400 27.68800
C  5.15000 5.68400 26.99700
C  5.48000 5.52500 25.57300
C  6.39200 4.40700 25.47900
C  4.32700 6.68500 27.63200
C  5.02100 6.39600 24.40900
O  5.24200 6.16500 23.21300
C  4.38000 7.71100 24.63200
N  8.32700 1.93700 25.07900
C  7.82900 2.75200 24.17500
C  8.18700 2.23300 22.76300
C  9.33300 1.15000 23.01600
C  9.14400 0.98200 24.50700
C  6.96200 1.50600 22.07100
C  10.69500 1.73300 22.62000
C  11.81200 0.73800 22.13100
N  9.52000 1.02400 27.56000
C  10.15600 0.14200 26.70500
C  11.22600 -0.53400 27.43100
C  10.98300 -0.11300 28.78500
C  10.00800 0.93100 28.76500
C  12.37900 -1.37800 26.87000
C  11.58700 -0.07000 30.06600
O  12.52300 -0.74000 30.48200
C  10.84300 0.93700 30.94700
C  10.34500 0.13800 32.10700
O  9.37900 -0.53800 32.17500
O  11.20800 0.35800 33.22400
C  10.84000 -0.01500 34.57300
H  5.70100 5.40300 29.65000
H  6.77900 4.37500 23.39000
H  10.72600 -0.36900 24.67400
H  8.31300 2.29700 32.50400
H  7.27600 5.00400 31.68700
H  5.31900 4.23400 32.66600
H  6.21100 2.83100 33.03200
H  5.14200 3.03800 31.53200
H  10.03900 4.66200 31.75800
H  10.43500 3.14500 32.62200
H  8.25000 4.27200 34.06800
H  9.40400 5.53200 33.66800
H  3.35900 6.58900 27.14000
H  4.76600 7.66400 27.44300
H  4.36500 6.54100 28.71200
H  5.07000 8.34800 25.18500
H  3.38200 7.63600 25.06500
H  4.20400 8.18200 23.66500
H  8.52000 3.01300 22.07700
H  9.18500 0.18300 22.53600
H  6.02800 1.88500 22.48500
H  6.96400 0.42500 22.21100
H  6.99700 1.77500 21.01600
H  11.10500 2.13800 23.54500
H  10.56700 2.60400 21.97800
H  12.15900 0.78300 21.09800
H  11.38200 -0.26300 22.17900
H  12.67000 0.83700 22.79700
H  13.10800 -0.77300 26.33200
H  11.99400 -1.90900 26.00000
H  12.78500 -2.15300 27.52200
H  11.56200 1.71500 31.20500
H  10.71900 0.95600 35.05200
H  11.64900 -0.52900 35.09200
H  9.87700 -0.51100 34.69100
Mg 6.92300 53.05800 40.31300
C  6.76500 49.66900 40.10900
C  10.29900 52.94800 39.94000
C  7.04000 56.50300 39.93300
C  3.48700 53.19900 40.49600
N  8.32500 51.49700 39.96100
C  8.07200 50.16100 39.93700
C  9.34500 49.31400 39.72900
C  10.45400 50.40800 39.83100
C  9.63000 51.71900 39.88300
C  11.34200 50.25100 41.04900
C  9.42100 48.57800 38.33500
C  9.25700 49.33400 36.97500
H  8.48500 50.73500 36.99200
N  8.46300 54.56500 39.98300
C  9.83800 54.27800 40.00100
C  10.62100 55.49700 39.89500
C  9.65000 56.60100 39.83600
C  8.35300 55.97400 39.93500
C  12.10600 55.55500 39.96100
C  10.03100 58.01400 39.62200
O  11.22100 58.22800 39.40300
C  9.05800 59.13100 39.65600
N  5.43500 54.65000 39.98200
C  5.72000 55.97800 39.98700
C  4.51300 56.81100 40.21300
C  3.39000 55.81000 40.52900
C  4.12900 54.44500 40.26800
C  4.70400 57.90200 41.29900
C  2.12300 56.01000 39.68800
C  0.69600 55.47600 40.32000
N  5.45000 51.74300 40.33600
C  4.04500 51.94400 40.56900
C  3.34400 50.68600 40.90000
C  4.43300 49.75900 40.82900
C  5.61300 50.44100 40.37100
C  1.91900 50.46800 41.40600
C  4.86300 48.38900 41.05900
O  4.24000 47.50200 41.59500
C  6.29300 48.22400 40.44200
C  6.11000 47.31300 39.23700
O  5.63900 47.65000 38.18700
O  6.37300 45.98700 39.59300
C  5.66700 45.05300 38.68100
H  11.37100 52.74100 39.91600
H  6.86700 57.56900 39.77000
H  2.45200 53.38200 40.79300
H  9.36400 48.64300 40.58800
H  11.13800 50.50300 38.98700
H  11.20200 49.32000 41.59800
H  11.24500 51.17800 41.61400
H  12.39700 50.19800 40.78100
H  8.72700 47.73800 38.29200
H  10.42800 48.16300 38.27900
H  8.49700 48.73200 36.47700
H  10.20200 49.31000 36.43200
H  12.59100 55.45400 38.99000
H  12.60000 54.75600 40.51400
H  12.46200 56.49600 40.38000
H  9.46100 60.14300 39.63000
H  8.31300 59.08400 40.45000
H  8.57900 59.06100 38.67900
H  4.37000 57.20400 39.20700
H  3.19100 55.73500 41.59800
H  4.93300 58.89600 40.91300
H  5.47400 57.65300 42.02900
H  3.79800 58.08900 41.87600
H  2.33700 55.48600 38.75600
H  1.96300 57.05800 39.43600
H  0.95300 54.95100 41.24000
H  0.19100 54.83100 39.60100
H  -0.02100 56.24000 40.62000
H  1.51400 49.54300 40.99700
H  1.41800 51.34100 40.98600
H  1.84700 50.42500 42.49300
H  6.99900 47.65900 41.05000
H  5.98900 45.17400 37.64700
H  4.58100 45.13900 38.67400
H  5.83100 44.04400 39.06000

