158

Mg 40.88000 9.37200 30.09200
C  42.74600 10.59900 32.78500
C  38.58000 8.14400 32.32600
C  39.16400 8.12000 27.52200
C  43.65800 10.10300 27.94500
N  40.80900 9.19900 32.34400
C  41.56000 9.95500 33.20200
C  41.00100 9.83500 34.63600
C  39.73600 9.07000 34.48500
C  39.71000 8.73500 32.93100
C  39.56600 7.72800 35.38600
C  40.79100 11.23100 35.40400
C  40.16500 11.21600 36.81000
H  41.09100 11.81700 37.93200
N  39.08600 8.44700 29.95900
C  38.26100 8.03300 30.94300
C  36.93900 7.64900 30.36000
C  37.10300 7.66200 29.00600
C  38.47300 8.06100 28.77400
C  35.86200 7.25200 31.20100
C  36.09400 7.42400 27.83500
O  36.47200 7.59700 26.69400
C  34.77700 6.90400 28.06800
N  41.34500 9.15700 27.98800
C  40.45100 8.58800 27.12600
C  41.09300 8.46400 25.72100
C  42.33700 9.41700 25.86000
C  42.50200 9.56700 27.38500
C  41.47500 7.01300 25.35600
C  42.26300 10.74100 25.08800
C  41.50200 11.91600 25.75200
N  42.87700 10.01000 30.29800
C  43.82700 10.38900 29.34800
C  44.86800 11.17800 29.98400
C  44.53400 11.17500 31.35200
C  43.28800 10.55500 31.44100
C  46.05600 11.78700 29.26600
C  44.95300 11.62400 32.68900
O  46.01800 12.16700 33.03600
C  43.82200 11.34400 33.59000
C  44.51600 10.48800 34.53400
O  44.69800 9.26900 34.48700
O  44.89100 11.22100 35.67000
C  45.55100 10.41100 36.73100
H  37.90600 7.77300 33.10000
H  38.88300 7.52700 26.64900
H  44.47300 10.34100 27.25800
H  41.74400 9.25800 35.18600
H  38.82700 9.63300 34.69400
H  38.88700 7.86100 36.22900
H  40.51400 7.57300 35.90200
H  39.43400 6.80800 34.81700
H  40.21600 11.92800 34.79500
H  41.80300 11.59000 35.59100
H  39.99000 10.18400 37.11600
H  39.17700 11.65300 36.95200
H  35.91600 6.31600 31.75700
H  34.93700 7.31500 30.62800
H  35.67300 8.01300 31.95800
H  34.27400 6.56800 27.16200
H  34.20200 7.64800 28.62000
H  34.76400 6.01600 28.70000
H  40.38300 8.86700 24.99900
H  43.21700 8.96000 25.40700
H  41.08700 6.83800 24.35200
H  41.01600 6.26600 26.00300
H  42.56200 6.92800 25.34000
H  41.95600 10.55600 24.05900
H  43.29600 11.08800 25.06100
H  42.07100 12.82800 25.57500
H  41.19200 11.77600 26.78800
H  40.63500 12.04400 25.10400
H  46.01500 11.68300 28.18100
H  46.90000 11.34800 29.79800
H  46.16100 12.82700 29.57400
H  43.50200 12.21300 34.16400
H  45.51700 11.04100 37.61900
H  46.59600 10.22400 36.48400
H  44.99700 9.49800 36.95100
Mg 50.43100 46.83300 43.10100
C  47.21400 47.36800 41.74100
C  50.53100 43.79800 41.84400
C  53.70300 46.97400 43.70400
C  50.38600 50.40400 43.85500
N  48.99500 45.77700 41.94900
C  47.76400 46.11900 41.43900
C  47.08800 44.82800 40.86900
C  48.01900 43.70800 41.22400
C  49.27500 44.47500 41.75000
C  47.52800 42.67900 42.27700
C  46.72700 44.92300 39.33600
C  45.27200 44.65700 38.95900
H  45.01000 43.48800 37.99700
N  51.96300 45.58700 42.78900
C  51.77500 44.32500 42.29600
C  53.02500 43.62300 42.22600
C  54.00100 44.53800 42.86400
C  53.28000 45.76500 43.14800
C  53.15000 42.30800 41.51000
C  55.48000 44.14600 43.06300
O  55.95900 43.11900 42.66500
C  56.39000 44.94100 44.01900
N  51.73400 48.44400 43.88800
C  53.05200 48.15100 44.03100
C  53.89400 49.41000 44.41700
C  52.75600 50.47600 44.66100
C  51.58400 49.77000 43.99300
C  54.80800 49.30700 45.63800
C  53.09600 51.89400 43.99400
C  52.40800 53.11300 44.61400
N  49.03500 48.53400 42.93500
C  49.18000 49.85900 43.36100
C  47.93100 50.59500 43.09400
C  47.09000 49.60000 42.44500
C  47.84400 48.41200 42.40500
C  47.69100 52.07700 43.35400
C  45.78700 49.33700 41.90600
O  44.80300 50.02900 41.81800
C  45.79700 47.85200 41.42800
C  44.76700 47.22600 42.28200
O  44.58700 47.30100 43.49500
O  43.86600 46.66400 41.35300
C  42.56300 46.25200 41.87900
H  50.55900 42.76800 41.48200
H  54.79200 46.98800 43.78100
H  50.35200 51.44300 44.18900
H  46.14500 44.77400 41.41200
H  48.25500 43.25500 40.26100
H  46.44000 42.62800 42.29900
H  47.88800 42.71900 43.30500
H  47.80400 41.70900 41.86200
H  47.42100 44.33800 38.73200
H  46.77400 45.97200 39.04300
H  44.92100 45.52900 38.40600
H  44.65400 44.57400 39.85200
H  54.05700 42.40500 40.91400
H  52.33700 42.11900 40.80900
H  53.34800 41.48200 42.19200
H  56.76500 45.91300 43.69800
H  57.28500 44.34800 44.20800
H  56.07400 45.03500 45.05800
H  54.51900 49.65000 43.55700
H  52.46100 50.62600 45.70000
H  55.77900 49.70500 45.34200
H  55.00700 48.29600 45.99300
H  54.43000 49.88800 46.48000
H  52.87600 51.80300 42.93000
H  54.14700 52.12400 44.16800
H  53.16100 53.75700 45.06800
H  51.51800 52.87500 45.19800
H  52.08500 53.80400 43.83600
H  48.60500 52.63000 43.56800
H  46.85500 52.06200 44.05300
H  47.33500 52.50600 42.41800
H  45.65300 47.75600 40.35200
H  42.65700 45.43100 42.58900
H  41.89900 45.98700 41.05700
H  42.13500 47.02200 42.52000

