158

Mg 8.42200 3.63500 26.77200
C  9.86000 2.08900 29.70600
C  6.29800 5.30800 28.85500
C  7.16400 5.01600 24.16900
C  10.31800 1.32500 24.80800
N  8.08900 3.61700 29.03600
C  8.90400 3.04300 29.97000
C  8.54500 3.68100 31.35800
C  7.48900 4.72800 31.02200
C  7.28300 4.54200 29.54000
C  6.18100 4.72600 31.90400
C  9.78900 4.32800 32.12200
C  9.56300 4.76100 33.62900
H  10.53700 4.19400 34.74900
N  6.87100 4.86400 26.50300
C  6.14000 5.46500 27.47000
C  5.20400 6.41300 26.87000
C  5.47200 6.38700 25.47900
C  6.49600 5.40400 25.30500
C  4.17400 7.21900 27.68100
C  4.80500 7.16600 24.30600
O  5.18300 7.19300 23.13800
C  3.59100 8.11700 24.58500
N  8.62900 3.14500 24.74300
C  8.10800 4.04300 23.84400
C  8.77000 3.89100 22.49500
C  9.78300 2.68700 22.73800
C  9.60100 2.34700 24.21500
C  7.81900 3.57300 21.33400
C  11.21300 2.96400 22.28400
C  12.15100 3.74800 23.24100
N  9.66400 1.85700 27.09900
C  10.32000 1.01300 26.24200
C  11.20100 0.12900 26.94400
C  11.02200 0.49900 28.32700
C  10.12300 1.61800 28.39300
C  12.13000 -0.81300 26.34300
C  11.54400 0.32700 29.67200
O  12.39500 -0.41600 30.16100
C  10.82000 1.35400 30.61000
C  10.15900 0.56500 31.72900
O  9.21200 -0.18100 31.61300
O  10.90600 0.77000 32.85200
C  10.44000 0.38400 34.21600
H  5.77900 5.93900 29.57800
H  6.85100 5.57200 23.28300
H  11.00500 0.88300 24.08300
H  8.05600 2.92600 31.97300
H  7.92700 5.72100 31.12400
H  6.08500 5.71800 32.34400
H  6.28700 3.92400 32.63500
H  5.26300 4.60500 31.32800
H  9.95900 5.21700 31.51300
H  10.68300 3.70500 32.10200
H  8.51000 4.53400 33.79600
H  9.63800 5.84400 33.72400
H  4.54100 8.23600 27.81400
H  4.10500 6.82900 28.69700
H  3.20400 7.19400 27.18400
H  2.65300 7.60600 24.80500
H  3.46100 8.76600 23.71900
H  3.85200 8.72400 25.45200
H  9.21200 4.86000 22.26000
H  9.38900 1.80700 22.23100
H  6.78600 3.41900 21.64700
H  8.09400 2.66300 20.80200
H  7.83700 4.35500 20.57500
H  11.12800 3.56900 21.38100
H  11.72500 2.04600 21.99500
H  12.41100 4.66900 22.71900
H  13.05100 3.14200 23.35200
H  11.66600 4.03100 24.17500
H  12.88100 -1.09500 27.08100
H  12.50600 -0.31900 25.44700
H  11.53900 -1.67800 26.04200
H  11.58500 1.97600 31.07500
H  10.26600 1.21900 34.89600
H  11.27100 -0.24900 34.52600
H  9.51400 -0.19100 34.20000
Mg -10.05900 39.81200 40.29800
C  -9.27800 36.55400 39.40500
C  -7.02100 40.95800 39.24600
C  -11.27600 43.03600 40.36900
C  -13.48100 38.75200 40.62000
N  -8.36500 38.88200 39.24100
C  -8.24800 37.50300 39.13000
C  -6.74000 37.12800 38.97200
C  -6.02300 38.49200 39.11200
C  -7.13300 39.53500 39.23100
C  -4.90500 38.58800 40.26700
C  -6.50500 36.33500 37.65400
C  -6.98200 37.05200 36.39900
H  -7.69900 36.25500 35.32400
N  -9.26900 41.81700 39.83300
C  -7.98600 41.98300 39.34500
C  -7.76200 43.43600 39.11000
C  -9.06200 44.07700 39.39900
C  -9.97600 42.97100 39.89700
C  -6.41800 44.04300 38.59400
C  -9.44700 45.50000 39.30300
O  -8.56600 46.34700 39.06400
C  -10.87600 46.05300 39.57900
N  -12.10400 40.72500 40.58500
C  -12.24300 42.04600 40.58500
C  -13.75600 42.41900 40.85100
C  -14.51900 41.05500 41.00000
C  -13.27500 40.13800 40.77800
C  -13.93100 43.46100 42.00100
C  -15.61700 40.78600 39.99400
C  -16.99400 40.68100 40.48700
N  -11.17200 38.00800 40.22800
C  -12.51000 37.77200 40.31400
C  -12.71600 36.41700 40.09100
C  -11.46300 35.87200 39.84600
C  -10.54400 36.91700 39.87100
C  -14.01700 35.72000 40.11500
C  -10.78400 34.65600 39.53100
O  -11.23300 33.47700 39.36400
C  -9.24600 35.00200 39.43700
C  -8.60000 34.38900 40.59700
O  -9.06800 34.23800 41.72600
O  -7.29700 34.07700 40.34800
C  -6.53200 33.56000 41.50000
H  -6.09700 41.49900 39.46200
H  -11.55600 44.07900 40.52800
H  -14.47100 38.30400 40.51000
H  -6.31600 36.56600 39.80400
H  -5.41800 38.75000 38.24300
H  -5.22600 39.32300 41.00600
H  -3.99900 38.92400 39.76400
H  -4.68100 37.61200 40.69700
H  -6.87800 35.31800 37.77400
H  -5.41500 36.29700 37.64000
H  -6.07900 37.45500 35.94000
H  -7.59600 37.91100 36.67000
H  -6.53200 44.99400 38.07300
H  -5.89000 43.39400 37.89500
H  -5.70800 44.17500 39.41000
H  -11.06600 46.15300 40.64800
H  -11.68300 45.53600 39.06000
H  -10.90400 47.04800 39.13600
H  -14.18900 42.88700 39.96700
H  -14.91500 41.00200 42.01500
H  -14.53700 43.12400 42.84300
H  -14.37700 44.32700 41.51300
H  -12.96400 43.76900 42.39700
H  -15.36900 39.90700 39.39900
H  -15.48700 41.57100 39.25000
H  -16.93800 40.90300 41.55200
H  -17.50800 39.75000 40.24600
H  -17.59500 41.50100 40.09300
H  -14.33300 35.81500 41.15400
H  -13.99800 34.70300 39.72300
H  -14.64600 36.38900 39.52700
H  -9.02700 34.59900 38.44800
H  -5.58500 33.12000 41.18800
H  -7.15400 32.75200 41.88500
H  -6.30200 34.32000 42.24800

