158

Mg 54.41300 24.69100 45.30900
C  51.92000 26.64600 43.84000
C  53.43500 22.07100 43.58900
C  57.34500 23.06900 46.32300
C  55.86900 27.66500 46.59100
N  52.92600 24.44000 43.93200
C  52.02700 25.34100 43.33300
C  51.03100 24.65800 42.34900
C  51.47700 23.18300 42.37400
C  52.68400 23.23200 43.30800
C  50.39100 22.19300 42.81900
C  50.92800 25.31500 40.92700
C  50.76000 24.46600 39.62700
H  51.83700 24.83000 38.60200
N  55.25500 22.80500 45.00000
C  54.64200 21.87800 44.30700
C  55.37100 20.65400 44.50200
C  56.53400 20.86200 45.22900
C  56.43300 22.31400 45.56000
C  54.83300 19.40800 43.97400
C  57.63300 19.88900 45.46500
O  57.64600 18.79900 44.93400
C  58.80600 20.11200 46.50300
N  56.43600 25.31700 46.14300
C  57.39300 24.42900 46.54400
C  58.48300 25.20400 47.39500
C  58.09200 26.67100 47.01300
C  56.64500 26.50000 46.64200
C  58.58100 24.79700 48.84600
C  58.95600 27.50800 45.96100
C  59.51500 28.85100 46.43300
N  54.01100 26.72100 45.31100
C  54.60300 27.80300 45.96300
C  53.74900 28.94500 45.97400
C  52.68500 28.48500 45.19800
C  52.90400 27.19100 44.73600
C  53.93800 30.10900 46.84900
C  51.41700 28.88000 44.68500
O  50.80100 29.90200 44.79900
C  50.89600 27.71600 43.80400
C  50.56700 28.30400 42.49700
O  51.30900 28.57000 41.54100
O  49.15900 28.36400 42.45800
C  48.55500 28.67200 41.14800
H  53.13900 21.17100 43.04600
H  58.21000 22.58700 46.78200
H  56.24600 28.62400 46.95200
H  50.00600 24.70900 42.71800
H  51.99600 22.78200 41.50400
H  50.34800 21.76600 43.82100
H  50.71300 21.32700 42.24100
H  49.45300 22.66400 42.52300
H  51.76000 26.00700 40.79800
H  50.07800 25.99700 40.92700
H  49.73100 24.57700 39.28700
H  50.83800 23.41600 39.91000
H  53.81600 19.20800 44.31100
H  55.31300 18.46900 44.25400
H  54.70800 19.56900 42.90400
H  59.09900 19.13700 46.89200
H  58.32700 20.56700 47.37000
H  59.67800 20.62600 46.09700
H  59.42800 24.91500 46.93300
H  58.13300 27.14400 47.99400
H  58.89700 25.66600 49.42300
H  59.36900 24.07100 49.04900
H  57.62900 24.46900 49.26500
H  58.32900 27.75300 45.10400
H  59.79200 26.88300 45.64800
H  59.17700 29.71300 45.85800
H  60.60300 28.79300 46.45300
H  59.18700 29.03400 47.45700
H  53.03300 30.26800 47.43400
H  54.07800 30.89800 46.11100
H  54.77500 29.98700 47.53700
H  49.93500 27.29500 44.10000
H  48.51900 29.75500 41.02900
H  47.52300 28.32500 41.09600
H  49.02600 28.10200 40.34800
Mg -2.07700 34.12600 27.08400
C  -3.69100 32.47800 29.73200
C  -0.25500 35.95500 29.31200
C  -0.69400 35.74700 24.44400
C  -3.84300 31.93100 24.80000
N  -2.04600 34.16900 29.27600
C  -2.79700 33.49400 30.19200
C  -2.25100 33.72000 31.66200
C  -1.34200 34.95400 31.50900
C  -1.16300 35.04000 29.91500
C  -1.73700 36.27900 32.20700
C  -1.53200 32.44000 32.16600
C  -0.92700 32.55800 33.62300
H  -1.61400 31.60400 34.64800
N  -0.68900 35.67000 26.90100
C  -0.00800 36.30700 27.90300
C  0.93900 37.31400 27.40600
C  0.82900 37.29200 26.01200
C  -0.25500 36.17200 25.72500
C  1.84600 38.11000 28.29700
C  1.59700 38.07000 24.95500
O  1.31800 37.96400 23.76300
C  2.64600 39.03600 25.36200
N  -2.52600 34.09400 24.87400
C  -1.62500 34.73200 24.02200
C  -1.70800 34.22200 22.58300
C  -2.51500 32.83700 22.78300
C  -3.03300 32.94900 24.21200
C  -2.33800 35.29900 21.60900
C  -1.69100 31.54200 22.56700
C  -0.27400 31.39300 23.13100
N  -3.60600 32.66200 27.19100
C  -4.19300 31.86400 26.18100
C  -4.98900 30.83900 26.82400
C  -4.81100 31.10600 28.19400
C  -3.96300 32.17200 28.39300
C  -5.90500 29.85500 26.17700
C  -5.20600 30.65000 29.49100
O  -5.92400 29.69300 29.80800
C  -4.50900 31.47900 30.53500
C  -5.59400 32.10300 31.32300
O  -6.29900 33.01900 30.94800
O  -5.83900 31.43600 32.49400
C  -7.03700 31.84700 33.22200
H  0.41000 36.42500 30.04000
H  -0.11400 36.30000 23.70200
H  -4.23800 31.05000 24.28900
H  -3.12100 33.91100 32.29100
H  -0.31700 34.74200 31.81400
H  -0.90700 36.82000 32.65900
H  -2.30300 35.90700 33.06100
H  -2.33900 37.00400 31.65900
H  -0.57600 32.36000 31.64800
H  -2.06100 31.51100 31.95300
H  -1.05400 33.56300 34.02500
H  0.15700 32.44100 33.61900
H  2.02000 39.10500 27.88800
H  2.81900 37.62000 28.27600
H  1.42700 38.16400 29.30200
H  2.12300 39.85200 25.85900
H  3.11500 39.41900 24.45600
H  3.42800 38.60200 25.98600
H  -0.72000 33.92300 22.23200
H  -3.30700 32.89700 22.03700
H  -1.56000 35.57800 20.89900
H  -2.73800 36.24000 21.98800
H  -3.17400 34.84400 21.07800
H  -1.59500 31.48400 21.48300
H  -2.28900 30.65000 22.75200
H  0.32700 31.37700 22.22200
H  -0.17400 30.36300 23.47600
H  0.00000 32.15400 23.86100
H  -6.89800 30.29400 26.27600
H  -5.78800 28.96100 26.79000
H  -5.75900 29.58200 25.13200
H  -3.95400 30.83600 31.21800
H  -6.67300 32.18700 34.19100
H  -7.78800 31.07400 33.38200
H  -7.64100 32.65400 32.80600

