158

Mg 17.12000 -0.56900 27.21600
C  16.26100 1.23300 30.20000
C  19.02300 -2.51600 29.13200
C  18.18100 -1.92400 24.39300
C  15.36400 1.79600 25.39900
N  17.59100 -0.58600 29.48500
C  17.10700 0.16200 30.51600
C  17.75800 -0.26600 31.87000
C  18.78100 -1.42000 31.38900
C  18.36500 -1.58900 29.91600
C  20.27500 -1.25600 31.68900
C  16.78900 -0.78500 32.92800
C  16.99000 -0.12100 34.29300
H  18.42800 0.16600 34.78900
N  18.38500 -2.01600 26.83100
C  19.04000 -2.72700 27.76400
C  19.80400 -3.72200 27.08300
C  19.60300 -3.63100 25.70300
C  18.60300 -2.53900 25.57800
C  20.68500 -4.70200 27.81200
C  20.19700 -4.39600 24.52500
O  19.93800 -4.20400 23.34600
C  21.08600 -5.51900 24.72400
N  16.88800 -0.02600 25.20100
C  17.42800 -0.72900 24.16100
C  17.16000 -0.09900 22.77200
C  16.11400 0.93700 23.06000
C  16.09100 0.93000 24.64900
C  18.35000 0.63400 22.21200
C  14.67200 0.67600 22.56200
C  14.18600 1.73000 21.57000
N  15.86700 1.05800 27.65000
C  15.31500 1.98000 26.78200
C  14.76000 3.02800 27.56800
C  14.95000 2.69800 28.90800
C  15.73000 1.56400 28.90200
C  14.10000 4.23200 26.99800
C  14.66700 3.13700 30.35700
O  14.04500 4.04600 30.83100
C  15.58900 2.21500 31.17800
C  16.59300 2.93300 31.99200
O  17.77400 3.13100 31.66500
O  16.05200 3.24800 33.24300
C  16.88900 3.87800 34.28600
H  19.65000 -3.27100 29.61000
H  18.59300 -2.30300 23.45600
H  14.70400 2.54100 24.94800
H  18.26800 0.59600 32.30100
H  18.47100 -2.35100 31.86400
H  20.64700 -2.22700 32.01500
H  20.57000 -0.40600 32.30400
H  20.86400 -1.03600 30.79800
H  16.66700 -1.83200 33.20700
H  15.79600 -0.41700 32.66900
H  16.49100 -0.71000 35.06200
H  16.51100 0.85800 34.28600
H  20.36900 -5.69900 27.50600
H  20.65600 -4.78400 28.89800
H  21.73600 -4.50400 27.60100
H  22.08200 -5.32200 25.12000
H  21.21800 -6.10200 23.81200
H  20.51900 -6.23300 25.32100
H  16.87000 -0.87000 22.05800
H  16.40500 1.95900 22.81800
H  18.20400 1.59800 21.72500
H  18.87700 -0.05800 21.55500
H  19.06000 0.73700 23.03300
H  13.90900 0.46900 23.31200
H  14.83100 -0.21200 21.95000
H  13.56500 2.39500 22.17000
H  13.61000 1.29300 20.75400
H  15.07300 2.19500 21.14000
H  13.04600 3.95900 26.95200
H  14.39300 4.42700 25.96700
H  14.33800 5.15700 27.52400
H  14.98700 1.66500 31.90200
H  16.42500 4.62900 34.92500
H  17.79100 4.25500 33.80400
H  17.40600 3.17200 34.93600
Mg 30.10200 57.88000 40.85600
C  27.44000 56.08300 39.54800
C  32.30900 55.51200 39.36000
C  32.70700 59.95800 41.37700
C  27.79000 60.24700 41.84900
N  29.84000 56.00400 39.63800
C  28.68900 55.46900 39.22900
C  28.86800 54.21400 38.37700
C  30.33200 53.80100 38.78400
C  30.89400 55.18900 39.27600
C  30.48600 52.80700 40.01900
C  28.69000 54.50200 36.96400
C  27.71100 53.53800 36.25900
H  26.92400 54.20200 35.11600
N  32.20800 57.67700 40.45900
C  32.86100 56.61900 39.89400
C  34.32600 56.90000 39.84100
C  34.42700 58.21600 40.44500
C  33.12200 58.70800 40.80500
C  35.32400 55.91600 39.24000
C  35.70600 58.97100 40.64600
O  36.75800 58.51900 40.20400
C  35.89000 60.22600 41.48200
N  30.24600 59.75500 41.68000
C  31.45700 60.46200 41.71100
C  31.20200 61.80200 42.48300
C  29.68200 61.88300 42.51600
C  29.14800 60.50000 42.00800
C  31.82200 61.85200 43.87900
C  29.09600 63.22900 41.99500
C  29.09900 64.31700 43.06100
N  28.01800 58.15500 40.85500
C  27.17000 59.13600 41.22200
C  25.78600 58.90500 40.98800
C  25.86400 57.64400 40.28300
C  27.26400 57.29900 40.27500
C  24.64200 59.65400 41.42200
C  25.07300 56.58700 39.59100
O  23.90400 56.58200 39.23600
C  26.03800 55.51800 39.10400
C  25.60900 54.31000 39.82200
O  25.68800 54.10600 41.04900
O  24.88600 53.48300 38.93700
C  24.48000 52.11100 39.49000
H  32.93300 54.70500 38.97000
H  33.43300 60.77200 41.44200
H  27.12300 61.05400 42.15700
H  28.23400 53.41000 38.75000
H  30.96600 53.47700 37.95900
H  30.60000 53.41100 40.92000
H  31.35600 52.22700 39.71300
H  29.61700 52.15700 40.11800
H  29.67900 54.52000 36.50700
H  28.33700 55.51200 36.75500
H  26.90100 53.27000 36.93700
H  28.34700 52.72800 35.90300
H  35.74300 56.34600 38.33100
H  34.92000 54.97500 38.86700
H  36.11500 55.76900 39.97600
H  35.50000 60.95800 40.77500
H  36.95400 60.39300 41.65200
H  35.26500 60.23000 42.37500
H  31.63300 62.66300 41.97100
H  29.37200 61.87700 43.56000
H  32.74400 61.27300 43.91900
H  31.13600 61.56600 44.67700
H  32.22900 62.85500 44.00700
H  28.11000 63.13600 41.54100
H  29.84500 63.58600 41.28800
H  29.48000 65.30000 42.78400
H  29.45400 64.07400 44.06300
H  28.04200 64.49500 43.26000
H  23.75600 59.06800 41.17700
H  24.63200 60.58600 40.85800
H  24.53700 59.82800 42.49200
H  25.74600 55.31700 38.07400
H  24.59300 51.37700 38.69300
H  23.40100 52.15800 39.63500
H  25.08900 51.65600 40.27200

