158

Mg 30.56300 58.58900 41.31000
C  27.96400 56.59300 40.25400
C  32.80000 56.11800 40.31700
C  33.25300 60.76800 41.54600
C  28.33400 61.27300 41.40500
N  30.40500 56.64700 40.37900
C  29.23300 56.04700 40.16800
C  29.42200 54.75100 39.42100
C  30.84900 54.39100 39.91300
C  31.46000 55.78700 40.10000
C  31.13000 53.40000 41.12300
C  29.30200 54.76700 37.81800
C  28.24100 53.84800 37.07500
H  27.44600 54.58400 35.95700
N  32.75300 58.42200 41.08500
C  33.40500 57.27500 40.74200
C  34.83500 57.52500 40.77700
C  35.03100 58.87300 41.15600
C  33.66300 59.43600 41.23800
C  35.85300 56.47500 40.36500
C  36.25700 59.65500 41.29700
O  37.33100 59.06200 41.12000
C  36.43000 61.05500 41.74900
N  30.78500 60.71200 41.37200
C  31.95800 61.32800 41.49900
C  31.74600 62.90700 41.73000
C  30.21900 63.01100 41.79000
C  29.73700 61.54400 41.54900
C  32.37000 63.43600 43.07200
C  29.67900 63.92200 40.65300
C  30.21200 65.34100 40.55000
N  28.50900 58.92300 41.04200
C  27.72600 60.03400 41.10200
C  26.35900 59.61600 40.95400
C  26.40700 58.28600 40.60900
C  27.74900 57.90600 40.62300
C  25.05600 60.41600 41.02500
C  25.62000 57.15100 40.27600
O  24.42600 57.08200 40.09200
C  26.58100 56.01900 40.06000
C  26.39500 54.81300 40.86900
O  26.63100 54.70100 42.06000
O  25.88400 53.78600 40.12600
C  25.56000 52.54100 40.87900
H  33.41100 55.25400 40.04800
H  33.98800 61.57300 41.60600
H  27.61800 62.05300 41.67000
H  28.69500 54.03900 39.81300
H  31.40300 53.96800 39.07500
H  31.70900 53.83800 41.93600
H  31.64600 52.57200 40.63600
H  30.17700 53.07500 41.54200
H  30.24800 54.49800 37.34800
H  29.05200 55.78400 37.51600
H  27.50100 53.56200 37.82300
H  28.88000 53.07900 36.64100
H  36.07800 56.58600 39.30400
H  35.59600 55.43100 40.54400
H  36.74800 56.65700 40.96100
H  35.80900 61.11200 42.64300
H  36.15000 61.75900 40.96600
H  37.41800 61.28200 42.15100
H  32.23400 63.29000 40.83400
H  29.77100 63.46800 42.67300
H  32.71400 62.58200 43.65600
H  31.75200 64.09400 43.68200
H  33.24000 64.07300 42.91400
H  28.59800 63.93700 40.79000
H  29.86600 63.58400 39.63400
H  30.73000 65.55100 39.61400
H  30.88100 65.45400 41.40300
H  29.41000 66.06900 40.67900
H  24.39100 60.02900 40.25300
H  25.23900 61.43000 40.66900
H  24.55900 60.34800 41.99200
H  26.58700 55.78700 38.99500
H  26.40800 51.85700 40.83400
H  24.67800 52.04300 40.47800
H  25.23400 52.69800 41.90700
Mg -5.37200 25.56800 25.27500
C  -3.83900 27.08900 28.02000
C  -6.97100 23.45500 27.40400
C  -6.62200 23.91900 22.50300
C  -3.22300 27.30100 23.16200
N  -5.38100 25.30600 27.56100
C  -4.73800 26.11600 28.45900
C  -5.38100 25.92300 29.85500
C  -6.24600 24.67100 29.63400
C  -6.25400 24.44700 28.11000
C  -5.68700 23.33700 30.32100
C  -6.25600 27.16500 30.25700
C  -6.45100 27.47900 31.72600
H  -6.12100 26.42200 32.92900
N  -6.66100 23.97200 25.02500
C  -7.21200 23.26500 26.05300
C  -8.01000 22.18500 25.45900
C  -7.85600 22.25800 24.03600
C  -6.99500 23.43600 23.80200
C  -8.85000 21.20800 26.27000
C  -8.35700 21.37300 22.95900
O  -8.09800 21.46200 21.76100
C  -9.17500 20.14900 23.37300
N  -4.99200 25.58200 23.09700
C  -5.69500 24.87300 22.15200
C  -5.15400 25.18900 20.69800
C  -4.09600 26.37300 21.02000
C  -4.03300 26.42600 22.52600
C  -4.67800 23.93700 19.96000
C  -4.47500 27.77000 20.36700
C  -3.99100 27.86300 18.96300
N  -3.81700 26.92700 25.56500
C  -3.03800 27.56700 24.59900
C  -2.16400 28.53500 25.21600
C  -2.54200 28.39500 26.56800
C  -3.46000 27.40200 26.71900
C  -1.09200 29.38400 24.66000
C  -2.26200 28.92100 27.86700
O  -1.57500 29.86200 28.26800
C  -3.08400 28.05800 28.91400
C  -2.11500 27.45700 29.88700
O  -1.16400 26.76400 29.52400
O  -2.47700 27.80200 31.20800
C  -1.49000 27.36200 32.21100
H  -7.48900 22.71900 28.02300
H  -6.98000 23.50100 21.56000
H  -2.68900 27.98200 22.49600
H  -4.52300 25.73100 30.49900
H  -7.27800 24.82000 29.95300
H  -4.77900 23.59900 30.86400
H  -5.39500 22.55100 29.62400
H  -6.32400 22.91000 31.09500
H  -7.25500 26.97200 29.86500
H  -5.72500 27.98400 29.77200
H  -7.49400 27.76700 31.85900
H  -5.93900 28.40600 31.98300
H  -8.94000 21.47100 27.32400
H  -8.37500 20.22700 26.26800
H  -9.86300 21.12800 25.87700
H  -9.28000 19.47100 22.52600
H  -10.14900 20.52400 23.69000
H  -8.66000 19.73600 24.24100
H  -5.98400 25.63500 20.15100
H  -3.11100 26.08100 20.65500
H  -5.01400 23.93500 18.92300
H  -5.05800 23.00700 20.38500
H  -3.59200 23.98900 20.03400
H  -4.04700 28.58800 20.94700
H  -5.54900 27.94300 20.42500
H  -3.42400 26.99500 18.62700
H  -3.39900 28.76200 18.79600
H  -4.82600 27.88400 18.26200
H  -1.51700 30.34400 24.36800
H  -0.57100 28.88300 23.84400
H  -0.33200 29.68900 25.37900
H  -3.71400 28.75600 29.46600
H  -0.45500 27.27900 31.87900
H  -1.84900 26.37700 32.51000
H  -1.54600 28.07200 33.03500

