158

Mg 1.49800 -1.59500 43.23100
C  4.95400 -1.04000 42.55900
C  0.83100 1.26000 41.35000
C  -1.76000 -2.25000 43.45500
C  2.35200 -4.68500 44.51300
N  2.81300 -0.16600 41.95200
C  4.17800 -0.07000 41.93200
C  4.68000 1.07700 41.02000
C  3.36100 1.81300 40.64200
C  2.23400 0.93400 41.30200
C  3.30800 3.28900 40.98900
C  5.53000 0.57200 39.86200
C  7.01500 1.20900 39.81200
H  7.55900 1.71000 38.37300
N  -0.21300 -0.62200 42.59500
C  -0.26800 0.52900 41.79300
C  -1.64300 0.87900 41.48300
C  -2.48800 -0.11900 42.13500
C  -1.48300 -1.03900 42.83800
C  -2.02800 2.09700 40.62900
C  -3.99700 -0.15200 42.06800
O  -4.65900 0.76100 41.54300
C  -4.78700 -1.26700 42.65500
N  0.42800 -3.33000 43.70000
C  -0.95200 -3.27000 43.90100
C  -1.43700 -4.62200 44.43200
C  -0.11300 -5.45700 44.73600
C  0.94700 -4.44900 44.26600
C  -2.52500 -4.62500 45.52100
C  0.00500 -6.82300 44.02400
C  0.60600 -7.91600 44.84800
N  3.26100 -2.69000 43.53500
C  3.46900 -3.89400 44.17100
C  4.87800 -4.11800 44.38700
C  5.52700 -2.96700 43.84200
C  4.47300 -2.18100 43.27200
C  5.51600 -5.30700 44.97000
C  6.83300 -2.30400 43.53700
O  7.94400 -2.66400 43.82600
C  6.48200 -1.04900 42.75400
C  7.03600 0.07000 43.51300
O  6.90100 0.18700 44.71800
O  7.59200 1.05000 42.72300
C  7.75700 2.35600 43.37700
H  0.65300 2.25200 40.93000
H  -2.79600 -2.56700 43.59500
H  2.59300 -5.59500 45.06700
H  5.23600 1.77600 41.64400
H  3.25000 1.68700 39.56500
H  2.23700 3.48000 41.05500
H  3.71000 3.83200 40.13400
H  3.87800 3.61600 41.85900
H  4.95500 0.90100 38.99700
H  5.72400 -0.49800 39.78600
H  7.71400 0.49000 40.23800
H  7.11100 2.07100 40.47300
H  -2.96000 2.03800 40.06500
H  -1.16600 2.24800 39.98000
H  -1.99700 2.97300 41.27500
H  -5.83200 -0.95800 42.64200
H  -4.46700 -1.41000 43.68700
H  -4.60600 -2.13100 42.01500
H  -1.97500 -5.08300 43.60400
H  -0.00300 -5.59600 45.81200
H  -2.08000 -4.97100 46.45400
H  -3.24700 -5.38800 45.23000
H  -3.02300 -3.67100 45.69900
H  0.66700 -6.68400 43.16800
H  -0.96300 -7.09300 43.60200
H  0.01100 -8.82900 44.85200
H  0.81900 -7.61200 45.87300
H  1.57800 -8.13300 44.40600
H  4.94300 -5.73400 45.79400
H  6.55100 -5.28100 45.31100
H  5.59300 -6.01100 44.14100
H  7.08500 -1.11300 41.84800
H  8.59700 2.26900 44.06600
H  6.87500 2.73700 43.89100
H  8.00400 3.14800 42.67000
Mg -12.58400 38.16300 42.09700
C  -10.40700 35.64100 40.92900
C  -10.39200 40.56800 41.25400
C  -15.04800 40.48000 42.67900
C  -14.87400 35.50000 42.89100
N  -10.66000 38.13500 41.09200
C  -9.91700 36.98300 40.74300
C  -8.56600 37.37100 40.22700
C  -8.51700 38.93600 40.65000
C  -9.95300 39.23800 40.94800
C  -7.60200 39.25000 41.83100
C  -8.42300 37.10600 38.73500
C  -7.25300 36.18800 38.23200
H  -6.44200 36.75900 37.02800
N  -12.66300 40.28600 42.05100
C  -11.60400 41.03600 41.73900
C  -12.10700 42.43500 41.67700
C  -13.44600 42.45500 42.13800
C  -13.77700 41.01500 42.28800
C  -11.13300 43.60300 41.26000
C  -14.35500 43.72300 42.26300
O  -13.84700 44.82100 41.91100
C  -15.78400 43.73600 42.69500
N  -14.74800 37.99300 42.80400
C  -15.46800 39.16600 42.90000
C  -16.92000 38.80100 43.17400
C  -16.84200 37.21600 43.28500
C  -15.45400 36.80200 42.90300
C  -17.63500 39.50500 44.30500
C  -17.99500 36.58900 42.40900
C  -19.41400 36.64300 42.81600
N  -12.73800 36.05600 41.99200
C  -13.69000 35.14000 42.35400
C  -13.16600 33.80300 42.33100
C  -11.90100 33.92600 41.68000
C  -11.69200 35.33500 41.49900
C  -13.80300 32.58100 42.93600
C  -10.79500 33.21000 41.12900
O  -10.62400 32.00000 41.09300
C  -9.76600 34.27500 40.66100
C  -8.50500 34.08900 41.43000
O  -8.37600 34.28500 42.60000
O  -7.57700 33.52000 40.64800
C  -6.27700 33.30900 41.30300
H  -9.65600 41.37400 41.20200
H  -15.85400 41.20900 42.78800
H  -15.63200 34.74100 43.09700
H  -7.84600 36.88800 40.88800
H  -8.27400 39.67100 39.88200
H  -6.63400 38.78400 41.64400
H  -8.04700 38.69000 42.65300
H  -7.49100 40.29700 42.11200
H  -8.39500 38.12200 38.34200
H  -9.37600 36.65800 38.45200
H  -7.60800 35.22300 37.87100
H  -6.48800 35.91900 38.96100
H  -11.35600 44.50700 41.82700
H  -11.35400 43.84500 40.22000
H  -10.10100 43.27500 41.38600
H  -16.51400 43.20800 42.08200
H  -16.10700 44.77200 42.80400
H  -15.77300 43.25400 43.67200
H  -17.51000 39.11400 42.31200
H  -16.91000 36.88200 44.32000
H  -17.04800 40.40100 44.51100
H  -17.64500 38.84500 45.17200
H  -18.61900 39.83900 43.97600
H  -17.79700 35.52000 42.33200
H  -17.85100 36.96100 41.39500
H  -20.09600 36.56100 41.97000
H  -19.52600 37.45500 43.53500
H  -19.65200 35.74000 43.37800
H  -13.18300 31.69800 42.78100
H  -14.69600 32.32800 42.36400
H  -13.92400 32.75300 44.00500
H  -9.61200 34.07600 39.60100
H  -6.05100 34.21100 41.87100
H  -5.49200 33.10800 40.57400
H  -6.33600 32.45600 41.97900

