158

Mg 30.08400 58.17500 39.25000
C  27.40200 55.91900 38.14800
C  32.21800 55.59700 38.56200
C  32.56100 60.42700 38.97200
C  27.76100 60.81600 38.91900
N  29.77300 55.97600 38.42600
C  28.63900 55.28600 38.20300
C  29.00400 53.77200 38.09800
C  30.51700 53.71300 38.24400
C  30.85800 55.21000 38.47500
C  30.91700 52.76900 39.42900
C  28.48000 53.17900 36.69200
C  29.04600 53.92700 35.42700
H  28.13100 54.82100 34.57200
N  32.12900 58.01200 38.93500
C  32.78300 56.91900 38.64900
C  34.19300 57.20000 38.53000
C  34.35100 58.59700 38.88200
C  32.99800 59.06500 38.91000
C  35.31200 56.19100 38.25400
C  35.61500 59.24900 39.19400
O  36.66300 58.59600 39.23800
C  35.76900 60.70000 39.44100
N  30.20500 60.30900 38.82200
C  31.34400 60.96400 39.05000
C  31.11700 62.44500 39.23100
C  29.55000 62.57400 39.28900
C  29.08900 61.16800 38.96200
C  31.90300 63.26700 40.33400
C  29.03300 63.70700 38.35100
C  28.95400 65.11000 39.13700
N  28.06100 58.34100 38.77600
C  27.23100 59.47300 38.80300
C  25.82500 59.08300 38.72400
C  25.91400 57.75600 38.50400
C  27.24700 57.34600 38.49000
C  24.70100 60.04500 38.81900
C  25.10100 56.52700 38.25700
O  23.88800 56.43900 38.14300
C  26.00800 55.29500 38.04200
C  25.70300 54.16200 39.00800
O  26.09400 54.08900 40.14100
O  24.80600 53.28500 38.49400
C  24.34900 52.22900 39.41000
H  32.78300 54.71200 38.26200
H  33.38200 61.14700 39.00800
H  27.06100 61.65300 38.86400
H  28.43900 53.20900 38.84100
H  30.88500 53.37500 37.27500
H  29.98900 52.30000 39.75600
H  31.54900 53.25100 40.17500
H  31.55000 51.99300 38.99800
H  27.39200 53.23500 36.66700
H  28.78800 52.13400 36.65400
H  29.52100 53.19100 34.77900
H  29.83800 54.59000 35.77500
H  34.79600 55.23700 38.14800
H  35.99500 55.99900 39.08100
H  35.80900 56.45700 37.32100
H  35.26400 61.00000 40.35900
H  35.43700 61.29800 38.59200
H  36.80500 60.97000 39.64500
H  31.43600 62.87600 38.28200
H  29.29700 62.74900 40.33400
H  31.13200 63.71900 40.95600
H  32.55100 63.95500 39.79100
H  32.45100 62.60500 41.00500
H  28.03700 63.48100 37.97000
H  29.80200 63.76500 37.58100
H  29.94700 65.53000 39.29700
H  28.53100 64.85200 40.10700
H  28.42400 65.89800 38.60200
H  23.83700 59.57000 39.28300
H  24.26800 60.34100 37.86400
H  25.06700 60.88200 39.41300
H  25.73600 54.93900 37.04800
H  24.24000 52.59200 40.43200
H  25.15100 51.50000 39.53000
H  23.50700 51.65200 39.02600
Mg 26.95000 50.55500 26.26100
C  25.04200 51.75900 28.95800
C  29.48400 49.68400 28.38200
C  28.61400 49.35900 23.70700
C  24.38900 51.82000 24.10600
N  27.19800 50.73400 28.43900
C  26.22700 51.09100 29.38300
C  26.74800 50.76900 30.79500
C  28.28800 50.32900 30.61600
C  28.32900 50.24600 29.01600
C  29.36600 51.22700 31.33700
C  25.91600 49.70600 31.63700
C  25.18500 50.26400 32.88200
H  25.94400 50.75800 34.11500
N  28.85800 49.67700 26.10300
C  29.76400 49.37700 27.06800
C  30.89800 48.70100 26.49100
C  30.61900 48.52600 25.12400
C  29.29900 49.18200 24.89600
C  32.04000 48.27900 27.41900
C  31.47300 47.86900 24.03000
O  31.17600 47.87400 22.83200
C  32.68200 47.22400 24.41300
N  26.67700 50.80200 24.08500
C  27.41400 50.01700 23.30200
C  26.81800 50.07700 21.82100
C  25.52400 50.92200 21.93700
C  25.47200 51.20300 23.48300
C  27.80700 50.43200 20.68700
C  24.20600 50.16800 21.43000
C  23.13600 50.99100 20.56500
N  25.12000 51.66500 26.38700
C  24.20900 52.09100 25.47400
C  23.16600 52.75800 26.10500
C  23.47200 52.71700 27.45000
C  24.67300 51.98400 27.60700
C  21.93200 53.22000 25.54400
C  22.94200 53.00200 28.70400
O  21.91700 53.50600 29.05500
C  23.91300 52.40100 29.81400
C  24.34700 53.47800 30.72700
O  25.34700 54.14000 30.54200
O  23.56300 53.50200 31.86800
C  24.13200 54.28200 33.04800
H  30.28100 49.30000 29.02200
H  28.98200 48.62000 22.99200
H  23.52200 52.18200 23.54900
H  26.74200 51.73900 31.29200
H  28.44700 49.30000 30.93800
H  29.48000 52.10700 30.70400
H  30.32200 50.70900 31.25100
H  29.16700 51.51000 32.37000
H  26.53200 48.86000 31.94200
H  25.21200 49.28300 30.92000
H  24.51000 49.46900 33.19900
H  24.62700 51.07000 32.40600
H  32.31000 49.00800 28.18300
H  32.98800 48.19300 26.88800
H  31.90300 47.27500 27.82100
H  32.43000 46.45100 25.13900
H  33.45600 47.88100 24.81000
H  33.12600 46.86500 23.48400
H  26.47500 49.04600 21.72300
H  25.74600 51.85000 21.41000
H  28.76700 50.59100 21.17800
H  27.55000 51.25300 20.01700
H  27.82700 49.55600 20.03900
H  23.74600 49.64900 22.27200
H  24.62100 49.29900 20.91900
H  22.94700 50.32200 19.72500
H  23.45400 52.00300 20.31700
H  22.20800 51.02900 21.13700
H  21.39000 52.48200 24.95300
H  22.23300 54.00200 24.84700
H  21.30200 53.64200 26.32700
H  23.26400 51.73600 30.38500
H  24.96700 53.70600 33.44700
H  23.41800 54.34800 33.86900
H  24.49700 55.27100 32.76900

