158

Mg 35.55600 48.90500 24.99100
C  36.08400 47.39000 28.11300
C  33.95900 51.45300 26.71300
C  34.67600 50.04000 22.06000
C  37.08200 46.12100 23.46900
N  34.88800 49.23400 27.16600
C  35.43500 48.58800 28.26800
C  35.04000 49.27300 29.61200
C  34.13100 50.37300 28.98700
C  34.30300 50.36800 27.50100
C  32.62400 50.24600 29.39400
C  36.27800 49.85100 30.41100
C  36.31700 49.16700 31.80600
H  35.02800 48.86900 32.56300
N  34.55100 50.57400 24.46700
C  34.13800 51.57800 25.26400
C  33.58300 52.67200 24.36900
C  33.60300 52.17900 23.09500
C  34.24300 50.83400 23.17100
C  33.10500 53.97900 24.88400
C  33.21900 52.85200 21.70300
O  33.24700 52.29500 20.57400
C  32.63100 54.19900 21.71000
N  35.86500 48.26400 23.02000
C  35.36800 48.89200 21.96800
C  35.80700 48.26500 20.59800
C  36.62100 47.03100 21.13000
C  36.53300 47.09400 22.63300
C  34.65300 47.92400 19.61300
C  38.13600 47.03900 20.67400
C  38.97700 48.16900 21.33800
N  36.34200 47.08300 25.60300
C  36.95300 46.03000 24.90800
C  37.34200 44.96400 25.78900
C  37.03000 45.44400 27.02500
C  36.47200 46.77000 26.84900
C  37.86900 43.63800 25.32100
C  37.06000 45.12100 28.45400
O  37.43400 44.10300 29.02800
C  36.56300 46.41100 29.20600
C  35.37200 45.91200 29.93600
O  34.24500 45.76500 29.49000
O  35.82400 45.28800 31.13600
C  34.91600 44.70100 32.10800
H  33.48200 52.25400 27.28200
H  34.38500 50.34400 21.05300
H  37.49400 45.21400 23.02200
H  34.40300 48.52300 30.08100
H  34.42900 51.35800 29.34600
H  32.56600 49.51200 30.19700
H  31.98400 49.86900 28.59700
H  32.15600 51.17400 29.72300
H  36.12600 50.93000 30.44400
H  37.16900 49.65600 29.81400
H  37.02400 49.83900 32.29100
H  36.91900 48.26600 31.68700
H  32.03500 53.87900 24.70200
H  33.54100 54.84800 24.39200
H  33.29300 54.10600 25.95000
H  32.00600 54.42100 22.57500
H  31.91000 54.24400 20.89400
H  33.44000 54.90700 21.53000
H  36.50300 48.99400 20.18400
H  36.26700 46.03100 20.88100
H  33.72900 48.45700 19.83500
H  34.40100 46.87000 19.73300
H  35.02600 47.99300 18.59100
H  38.05300 47.32100 19.62400
H  38.56200 46.05300 20.86000
H  39.56900 47.68300 22.11400
H  38.25300 48.90200 21.69400
H  39.54500 48.66200 20.54900
H  38.90800 43.52500 25.63300
H  37.89300 43.57700 24.23300
H  37.40200 42.82100 25.87100
H  37.39300 46.82600 29.77700
H  35.04200 43.61900 32.06000
H  33.89100 44.93000 31.81700
H  35.23700 45.08000 33.07800
Mg -12.34700 16.73100 41.60200
C  -9.41700 14.79200 41.34200
C  -10.82300 19.25800 39.96700
C  -15.32000 18.15300 41.22900
C  -13.93900 13.62300 42.63700
N  -10.44600 16.94000 40.53300
C  -9.38800 16.08400 40.73400
C  -8.10400 16.66500 40.00400
C  -8.54000 18.11200 39.68400
C  -10.02000 18.11500 40.19100
C  -7.65800 19.27600 40.26100
C  -7.62500 15.84900 38.79500
C  -6.13700 16.16100 38.34600
H  -6.03000 16.55700 36.87500
N  -13.00200 18.58000 40.91900
C  -12.21500 19.49100 40.24500
C  -12.93400 20.66000 39.93100
C  -14.27400 20.37400 40.31500
C  -14.21800 19.01700 40.87400
C  -12.38100 21.97000 39.41200
C  -15.48300 21.29100 40.14200
O  -15.39200 22.45700 39.78600
C  -16.81200 20.81900 40.60100
N  -14.26800 15.91600 41.92100
C  -15.33700 16.81200 41.76200
C  -16.70300 16.11700 41.87500
C  -16.26500 14.72500 42.22900
C  -14.72700 14.72900 42.24500
C  -17.52900 16.87900 43.00400
C  -16.90100 13.59100 41.38100
C  -17.99500 12.80600 42.11500
N  -11.80300 14.63000 42.04300
C  -12.52200 13.54900 42.43600
C  -11.69500 12.39800 42.57600
C  -10.40000 12.84100 42.19800
C  -10.51200 14.23300 41.88500
C  -12.13100 10.99400 43.12200
C  -9.06600 12.46100 42.02400
O  -8.55000 11.41500 42.23600
C  -8.31800 13.65000 41.42900
C  -7.12900 14.03200 42.23400
O  -7.13900 14.42100 43.42300
O  -5.92700 13.85800 41.46900
C  -4.70200 14.30700 42.17800
H  -10.31200 20.12300 39.53800
H  -16.32700 18.44400 40.92300
H  -14.43800 12.66500 42.79800
H  -7.20600 16.64400 40.62200
H  -8.70000 18.29500 38.62100
H  -6.74400 18.87100 40.69500
H  -8.06800 19.77500 41.13800
H  -7.36800 20.03200 39.53100
H  -8.11900 16.11100 37.85900
H  -7.79500 14.78400 38.94800
H  -5.53900 15.26500 38.51000
H  -5.65400 16.82500 39.06400
H  -13.08800 22.49600 38.77100
H  -11.49000 21.68300 38.85500
H  -12.12700 22.67600 40.20200
H  -16.62000 20.54000 41.63700
H  -17.10100 19.96300 39.99200
H  -17.71900 21.41300 40.70800
H  -17.17900 16.16400 40.89600
H  -16.47800 14.56400 43.28600
H  -17.82600 16.21300 43.81400
H  -18.42900 17.11100 42.43300
H  -17.07800 17.74700 43.48300
H  -16.06000 12.91400 41.22900
H  -17.31400 13.89400 40.41800
H  -17.67300 11.82100 42.45400
H  -18.95300 12.74400 41.59800
H  -18.38600 13.27700 43.01600
H  -11.74500 10.28000 42.39400
H  -13.21500 10.97300 43.22900
H  -11.61600 10.78100 44.05900
H  -7.98400 13.22600 40.48200
H  -4.31700 13.46700 42.75600
H  -4.78800 15.23500 42.74200
H  -3.98000 14.47700 41.38000

