158

Mg 2.35800 -1.46800 44.29100
C  5.38200 -0.02700 43.26600
C  0.64200 0.83500 42.40700
C  -0.45600 -3.10200 44.97900
C  4.21300 -4.20200 45.57600
N  2.97500 0.22800 43.14500
C  4.25100 0.64900 42.80400
C  4.18300 1.85500 41.86000
C  2.62900 2.21500 41.76600
C  2.02400 0.97700 42.47800
C  2.16300 3.64700 42.40300
C  4.99100 1.72200 40.58000
C  6.03600 2.82600 40.23000
H  5.93800 3.52900 38.85700
N  0.26200 -1.17000 43.82400
C  -0.17900 -0.16900 42.99300
C  -1.59800 -0.32900 42.79400
C  -1.95100 -1.48600 43.51100
C  -0.70500 -1.97400 44.08900
C  -2.38700 0.64700 41.93000
C  -3.34500 -2.09100 43.49400
O  -4.24700 -1.68300 42.78900
C  -3.65200 -3.32800 44.33200
N  1.92900 -3.46400 45.10700
C  0.72300 -3.68200 45.55500
C  0.71500 -4.97000 46.38500
C  2.24000 -5.41600 46.37400
C  2.81300 -4.28600 45.70000
C  0.05800 -5.00300 47.87000
C  2.43400 -6.83700 45.74200
C  3.36400 -7.66600 46.57200
N  4.33300 -2.08800 44.35400
C  4.91300 -3.20500 44.93000
C  6.36800 -3.16900 44.68900
C  6.57200 -1.91000 44.08900
C  5.32600 -1.26100 43.96400
C  7.27600 -4.19300 45.29400
C  7.55600 -0.97900 43.65200
O  8.79500 -1.10100 43.70500
C  6.84700 0.29300 43.07100
C  7.27700 1.47300 43.85900
O  6.85800 1.68300 44.98100
O  8.27100 2.24500 43.25600
C  8.78500 3.38900 44.04500
H  0.02500 1.54700 41.85400
H  -1.36100 -3.53500 45.41200
H  4.71700 -5.03100 46.07800
H  4.65200 2.67700 42.40000
H  2.31200 2.24300 40.72300
H  1.44700 3.61100 43.22500
H  1.67300 4.17800 41.58800
H  2.99200 4.22400 42.81100
H  4.32700 1.68800 39.71600
H  5.42000 0.72400 40.66400
H  6.99000 2.30100 40.17100
H  5.96200 3.52200 41.06500
H  -2.64000 0.24100 40.95100
H  -1.96200 1.63500 41.75300
H  -3.34600 0.86200 42.40100
H  -4.68300 -3.54600 44.05300
H  -3.59100 -3.01800 45.37500
H  -2.98200 -4.12000 43.99900
H  0.12000 -5.69000 45.82300
H  2.53900 -5.41200 47.42200
H  0.09800 -4.12000 48.50700
H  0.68500 -5.63700 48.49700
H  -0.96100 -5.33200 47.66800
H  3.01500 -6.73500 44.82600
H  1.57300 -7.45800 45.49500
H  3.36300 -8.65300 46.11000
H  3.01700 -7.71800 47.60400
H  4.31800 -7.14000 46.60000
H  7.21900 -5.08900 44.67600
H  7.01700 -4.59100 46.27500
H  8.25900 -3.79700 45.03500
H  7.32100 0.58600 42.13500
H  9.49700 3.10400 44.81900
H  7.96600 3.86600 44.58400
H  9.14200 4.22100 43.43800
Mg 0.32000 43.38300 26.70000
C  2.90000 43.04600 29.18700
C  -1.81800 42.32500 29.06100
C  -1.90200 43.01100 24.28900
C  2.95400 43.74100 24.38700
N  0.54600 42.93200 28.83800
C  1.64900 42.87300 29.70900
C  1.22300 42.95500 31.15300
C  -0.20900 42.36900 31.08800
C  -0.58100 42.62600 29.59400
C  -0.38300 40.96700 31.75000
C  1.36300 44.38900 31.78800
C  1.19900 44.42400 33.30600
H  1.00600 43.13600 34.11300
N  -1.65400 42.96900 26.72200
C  -2.37000 42.49600 27.76800
C  -3.74800 42.21100 27.33600
C  -3.76100 42.50500 25.95100
C  -2.38400 42.78800 25.61800
C  -4.80000 41.80700 28.32500
C  -4.96700 42.39500 24.93700
O  -4.91000 42.64700 23.75600
C  -6.25600 41.84900 25.48100
N  0.54000 43.37400 24.60200
C  -0.57300 43.22800 23.86900
C  -0.20800 43.33300 22.34500
C  1.24100 43.88400 22.40200
C  1.60400 43.66100 23.89600
C  -0.33100 41.86200 21.70600
C  1.22900 45.41000 22.07900
C  1.87700 45.81300 20.70700
N  2.55000 43.39200 26.70200
C  3.42900 43.45000 25.67500
C  4.76200 43.53200 26.21200
C  4.61100 43.35900 27.59900
C  3.25300 43.23600 27.81700
C  5.99900 43.90300 25.43000
C  5.35100 43.33100 28.78200
O  6.56300 43.52300 28.94900
C  4.24700 43.15200 29.92700
C  4.55800 41.87300 30.69600
O  4.90000 40.87400 30.08600
O  4.35600 42.04700 32.03800
C  4.84600 41.10700 33.00200
H  -2.49600 41.98900 29.84900
H  -2.54200 42.93800 23.40700
H  3.62400 43.97200 23.55600
H  1.91700 42.26700 31.63500
H  -0.87400 43.09200 31.56200
H  -0.69000 40.28400 30.95800
H  -1.22800 40.98900 32.43800
H  0.45800 40.53900 32.29500
H  0.65400 45.07400 31.32300
H  2.28600 44.85100 31.44000
H  0.43000 45.10500 33.67000
H  2.19000 44.76400 33.60600
H  -5.61000 42.50100 28.10400
H  -4.57200 42.05500 29.36200
H  -4.98400 40.73900 28.21000
H  -6.17000 40.77800 25.66600
H  -6.90300 41.99300 24.61600
H  -6.72900 42.31700 26.34500
H  -0.80200 43.97200 21.69200
H  1.87500 43.27500 21.75800
H  0.63900 41.40800 21.91300
H  -0.47700 41.98500 20.63200
H  -1.17600 41.34400 22.16000
H  1.84600 45.86100 22.85600
H  0.22200 45.81100 22.19600
H  1.39400 46.68700 20.26900
H  1.98400 45.04600 19.94000
H  2.86500 46.21700 20.93000
H  6.18500 43.09700 24.72000
H  6.86000 43.90300 26.09900
H  5.80600 44.79400 24.83400
H  4.35600 43.89200 30.72000
H  5.02300 41.62400 33.94500
H  5.78100 40.62700 32.71500
H  4.17000 40.25600 33.08500

