158

Mg 6.57200 54.24300 41.36800
C  5.89000 50.89100 40.60200
C  9.58100 53.89800 39.79500
C  6.68700 57.65500 41.33900
C  3.24100 54.50200 42.67600
N  7.59200 52.59600 40.29300
C  7.10400 51.35800 40.04200
C  8.19900 50.61300 39.25200
C  9.50500 51.37000 39.48500
C  8.87600 52.72300 39.93000
C  10.40400 50.86300 40.68500
C  7.79900 50.59900 37.73700
C  8.09300 49.25700 37.02700
H  7.36400 49.20100 35.68900
N  8.02400 55.61100 40.83600
C  9.20600 55.22200 40.18600
C  9.95600 56.47400 40.09900
C  9.04500 57.56200 40.36200
C  7.87100 56.95400 40.87000
C  11.40600 56.49000 39.55700
C  9.40700 59.03800 40.11700
O  10.54600 59.37200 39.78900
C  8.41000 60.10900 40.17200
N  5.12000 55.85400 42.12100
C  5.46900 57.12400 41.89400
C  4.34600 58.05500 42.26400
C  3.28400 57.10500 42.81200
C  3.84700 55.73100 42.46700
C  4.83600 59.13400 43.26900
C  1.87800 57.31900 42.27300
C  0.73700 56.97600 43.18300
N  4.93500 53.01300 41.57100
C  3.69700 53.23100 42.20200
C  3.02500 51.97500 42.43200
C  3.85900 51.02800 41.74800
C  4.97100 51.65800 41.27900
C  1.84900 51.72800 43.25600
C  4.05600 49.60100 41.47200
O  3.30700 48.68100 41.78400
C  5.37800 49.43300 40.52900
C  4.90900 48.93400 39.13600
O  4.25700 49.65100 38.36800
O  5.20800 47.58800 39.03800
C  4.55600 46.98500 37.86700
H  10.60900 53.84300 39.43000
H  6.53900 58.72600 41.18700
H  2.25500 54.49700 43.14600
H  8.34000 49.57200 39.54000
H  10.10400 51.38100 38.57500
H  10.12500 49.86800 41.03200
H  10.37000 51.40300 41.63100
H  11.42700 50.89200 40.31100
H  8.42400 51.31700 37.20700
H  6.76700 50.92000 37.60000
H  7.71500 48.57000 37.78400
H  9.14000 49.07400 36.78500
H  12.05500 57.14700 40.13700
H  11.58900 56.99800 38.61000
H  11.81500 55.48000 39.56900
H  8.88000 61.05500 39.90300
H  7.98800 60.23500 41.16900
H  7.53400 59.99300 39.53400
H  3.98100 58.60800 41.39800
H  3.33200 57.22100 43.89500
H  4.25800 59.21900 44.18900
H  4.70200 60.12100 42.82700
H  5.88600 59.14000 43.55900
H  1.60600 56.72800 41.39800
H  1.81900 58.36600 41.97400
H  1.05700 56.58700 44.15000
H  0.18600 56.16900 42.70000
H  0.00500 57.77200 43.04500
H  0.95500 52.20700 42.85700
H  2.01200 52.04000 44.28800
H  1.50600 50.69500 43.31500
H  6.10600 48.71100 40.89700
H  3.60800 47.44900 37.59400
H  4.49100 45.90600 38.01200
H  5.26900 47.19300 37.06900
Mg 9.83300 47.24900 26.27200
C  7.36900 47.25900 28.73100
C  12.04800 48.20900 28.64200
C  12.27000 46.95900 23.89200
C  7.47300 46.31200 23.88400
N  9.68900 47.72600 28.48900
C  8.61600 47.42900 29.32000
C  9.00400 47.66800 30.83900
C  10.56300 47.96300 30.73600
C  10.77500 48.05300 29.21600
C  10.95900 49.15700 31.72100
C  8.53900 46.51400 31.72900
C  9.47100 46.14800 32.91700
H  8.92600 45.62500 34.21000
N  11.84700 47.66700 26.27900
C  12.53600 48.02300 27.31500
C  13.94900 48.20800 26.92200
C  14.00200 47.83400 25.57100
C  12.65000 47.39300 25.17900
C  15.03200 48.68800 27.87000
C  15.23300 47.66300 24.76200
O  15.20000 47.40800 23.56100
C  16.66200 47.81700 25.34900
N  9.89400 46.83500 24.11600
C  11.00500 46.80300 23.34700
C  10.74300 46.48500 21.92900
C  9.19000 46.39000 21.83400
C  8.83900 46.42500 23.35800
C  11.47800 47.40700 20.89600
C  8.62200 45.13800 21.14700
C  8.97600 44.97700 19.70900
N  7.86200 47.05900 26.20300
C  6.99100 46.67700 25.15200
C  5.63900 46.71200 25.60000
C  5.71200 46.88800 26.99500
C  7.10400 47.04800 27.32900
C  4.50700 46.52300 24.71500
C  4.98700 47.02300 28.19800
O  3.78500 47.01800 28.37200
C  5.99800 47.28400 29.35100
C  5.72900 46.20600 30.21900
O  6.18000 45.11100 30.05100
O  4.86900 46.58100 31.09100
C  4.42300 45.60900 32.00700
H  12.84500 48.33700 29.37700
H  13.12100 46.76000 23.23700
H  6.72500 46.02100 23.14400
H  8.37100 48.49900 31.15000
H  11.19000 47.14500 31.09100
H  11.82600 48.81900 32.28800
H  10.20100 49.36900 32.47400
H  11.21800 50.05100 31.15500
H  8.39700 45.58400 31.17800
H  7.60600 46.80200 32.21300
H  9.88300 47.07400 33.31800
H  10.27500 45.51900 32.53500
H  14.67000 48.86000 28.88400
H  15.58200 49.57100 27.54400
H  15.81900 47.93500 27.83500
H  16.88400 48.86700 25.53600
H  17.32100 47.48100 24.54800
H  16.87600 47.21500 26.23200
H  11.06200 45.45600 21.76400
H  8.82800 47.27400 21.31000
H  11.89400 48.28800 21.38500
H  10.77500 47.80400 20.16500
H  12.24400 46.77800 20.44300
H  7.54500 45.27400 21.05500
H  8.88000 44.20600 21.65100
H  8.05100 44.75800 19.17600
H  9.50400 44.03400 19.56900
H  9.55000 45.77900 19.24500
H  4.67600 45.67200 24.05600
H  4.28700 47.34100 24.02900
H  3.63900 46.28900 25.33100
H  5.73200 48.23600 29.81200
H  4.31000 44.60400 31.60100
H  3.43800 45.94500 32.33000
H  5.08300 45.66000 32.87300

