158

Mg -1.45000 18.95100 27.52100
C  -2.15500 16.49700 30.12800
C  -2.04700 21.39300 29.72700
C  -1.49000 20.79300 24.94000
C  -1.58600 15.99700 25.28600
N  -1.95100 18.88400 29.69900
C  -2.17700 17.84000 30.57500
C  -2.38700 18.29500 31.98100
C  -2.41000 19.80500 31.75700
C  -2.05900 20.08600 30.27700
C  -3.74100 20.54600 32.04400
C  -1.38500 17.75100 33.03500
C  -0.98400 18.69000 34.23600
H  -0.79200 18.05400 35.57500
N  -1.59500 20.86900 27.42600
C  -1.87000 21.75100 28.41100
C  -1.79500 23.10800 27.82300
C  -1.54900 22.95000 26.37100
C  -1.63400 21.44900 26.18300
C  -1.89400 24.33400 28.66600
C  -1.23600 23.98900 25.33600
O  -1.05200 23.75900 24.14600
C  -1.39700 25.45700 25.69100
N  -1.52200 18.40900 25.43800
C  -1.36200 19.40600 24.52900
C  -1.29900 18.89000 23.08400
C  -1.21300 17.37500 23.33300
C  -1.45800 17.24600 24.78900
C  -2.66500 19.22800 22.33900
C  0.06000 16.77500 22.78700
C  1.31500 17.24800 23.51400
N  -1.77000 16.73700 27.65700
C  -1.81000 15.67400 26.68000
C  -1.99400 14.41300 27.32600
C  -2.06200 14.71100 28.66400
C  -2.00600 16.12000 28.82200
C  -2.08400 13.09100 26.65800
C  -2.28600 14.07400 29.89100
O  -2.50600 12.91400 30.21900
C  -2.23600 15.26400 30.97500
C  -1.18900 14.95200 31.90300
O  -0.02200 15.14900 31.63600
O  -1.66700 14.48000 33.04000
C  -0.74900 14.02300 34.09800
H  -2.42900 22.15100 30.41400
H  -1.45800 21.44600 24.06600
H  -1.49600 15.17000 24.57900
H  -3.40300 17.95900 32.19300
H  -1.61100 20.36800 32.24000
H  -4.17000 20.92500 31.11600
H  -3.53900 21.36800 32.73100
H  -4.41600 19.88700 32.59000
H  -0.47200 17.47000 32.51000
H  -1.79400 16.84100 33.47300
H  -1.71500 19.48300 34.39200
H  -0.03500 19.22200 34.17700
H  -1.00300 24.26800 29.29000
H  -2.82500 24.41900 29.22600
H  -1.72000 25.32800 28.25500
H  -2.35100 25.71600 26.15000
H  -1.31800 25.99300 24.74500
H  -0.54700 25.84200 26.25400
H  -0.36000 19.29100 22.70100
H  -2.02700 16.78100 22.91600
H  -3.19200 19.91200 23.00500
H  -3.28100 18.45000 21.88900
H  -2.35800 19.76500 21.44100
H  0.08300 17.12100 21.75300
H  0.04500 15.68600 22.73100
H  1.08600 17.52300 24.54400
H  1.80600 18.10000 23.04400
H  1.97300 16.38000 23.55500
H  -1.83500 13.12600 25.59700
H  -3.10100 12.71400 26.76400
H  -1.39700 12.38200 27.11900
H  -3.18200 15.27400 31.51600
H  -0.90700 12.94500 34.12500
H  -1.18700 14.41000 35.01800
H  0.30000 14.32200 34.08700
Mg 49.65300 34.80300 26.97200
C  47.50800 33.88400 29.54800
C  50.04800 37.93200 28.45200
C  51.47200 35.81100 24.28200
C  48.91500 31.68200 25.31700
N  48.75900 35.88600 28.71600
C  48.10900 35.18900 29.76400
C  48.17100 36.02600 31.09900
C  48.59900 37.49900 30.56500
C  49.12200 37.12700 29.16300
C  47.37500 38.49000 30.47200
C  49.17300 35.35500 32.07400
C  48.64900 35.27000 33.51700
H  47.57900 36.21900 34.06900
N  50.75500 36.53800 26.44200
C  50.73700 37.73700 27.17900
C  51.61800 38.70200 26.53800
C  52.06900 38.07100 25.36700
C  51.40800 36.74900 25.29200
C  51.80600 40.12100 27.09100
C  53.10000 38.65200 24.42500
O  53.43500 38.02900 23.42900
C  53.67900 39.95000 24.60700
N  49.88300 33.99600 24.99000
C  50.78900 34.60700 24.11100
C  51.22100 33.65200 22.95000
C  50.44700 32.32200 23.31300
C  49.72700 32.61900 24.64100
C  50.86200 34.19400 21.57700
C  51.42800 31.05200 23.37400
C  51.34200 30.08700 22.21800
N  48.42700 33.10900 27.29000
C  48.29200 31.89000 26.57800
C  47.27900 31.08000 27.27300
C  47.00500 31.80700 28.47300
C  47.72500 33.00800 28.46300
C  46.83600 29.69500 26.87800
C  46.23500 31.74200 29.66500
O  45.36000 30.94500 29.91300
C  46.66100 32.95000 30.54200
C  47.49400 32.38600 31.59200
O  48.63000 31.97700 31.46800
O  46.72200 32.23200 32.69000
C  47.34600 31.63200 33.90800
H  50.08300 38.94900 28.84800
H  52.15000 36.11200 23.48100
H  48.75600 30.72100 24.82200
H  47.19000 35.99900 31.57400
H  49.45600 37.91900 31.09300
H  47.48900 39.23600 29.68500
H  47.35700 39.14400 31.34400
H  46.44000 37.95400 30.30900
H  50.11800 35.89000 32.17100
H  49.53300 34.37500 31.76200
H  49.55100 35.34400 34.12400
H  48.27600 34.25500 33.65600
H  51.21900 40.72800 26.40300
H  52.83800 40.47200 27.10400
H  51.45000 40.24500 28.11400
H  53.14000 40.89700 24.59300
H  54.41100 40.02700 23.80300
H  54.22400 39.97100 25.55100
H  52.28000 33.40400 23.01800
H  49.78600 32.21000 22.45300
H  51.71400 33.80500 21.02000
H  51.02000 35.27200 21.53400
H  49.90700 33.87100 21.16200
H  51.22600 30.50600 24.29500
H  52.44100 31.44100 23.47300
H  50.87400 29.15900 22.54500
H  52.27800 29.87400 21.70100
H  50.62000 30.49400 21.51100
H  45.85800 29.63000 27.35500
H  47.46600 28.94700 27.36000
H  46.83200 29.57300 25.79500
H  45.71800 33.33600 30.92900
H  47.04400 30.58600 33.85600
H  46.85200 32.13600 34.74000
H  48.41300 31.84000 33.98800

