158

Mg 55.54400 25.10100 45.39100
C  53.20500 27.14900 43.74800
C  54.30800 22.38300 43.63200
C  58.42700 23.43000 45.85600
C  57.09000 27.97900 46.56900
N  54.09800 24.91100 43.71500
C  53.25500 25.83700 43.20100
C  52.29700 25.24400 42.11900
C  52.43900 23.75300 42.52200
C  53.72900 23.65800 43.31900
C  51.22200 23.19900 43.36100
C  52.81100 25.54300 40.60700
C  51.72600 26.02600 39.58300
H  51.54000 25.32500 38.23200
N  56.22600 23.21600 44.96300
C  55.52400 22.19500 44.32200
C  56.21100 20.89100 44.44200
C  57.37200 21.16800 45.23400
C  57.37400 22.63700 45.43800
C  55.80600 19.53600 43.80200
C  58.37400 20.17300 45.69800
O  58.20500 18.94800 45.43000
C  59.47200 20.53300 46.59600
N  57.46100 25.64000 46.16400
C  58.52800 24.76800 46.15400
C  59.76400 25.42400 46.74700
C  59.28100 26.92400 46.98100
C  57.84700 26.86900 46.61000
C  60.34300 24.72400 47.98900
C  60.09900 27.78600 45.93800
C  61.51900 28.11900 46.27000
N  55.11700 27.19100 45.41300
C  55.77200 28.20600 46.01400
C  54.91900 29.35000 45.93000
C  53.91500 28.98400 45.01900
C  54.10500 27.66500 44.61400
C  55.21000 30.75700 46.62600
C  52.77400 29.49600 44.28100
O  52.22200 30.58000 44.28600
C  52.17300 28.25600 43.55200
C  51.87000 28.61700 42.18500
O  52.65000 28.94900 41.30400
O  50.49700 28.53200 42.02700
C  49.90300 28.83900 40.71300
H  53.76500 21.53200 43.21500
H  59.39400 22.97100 46.07600
H  57.62000 28.81400 47.03200
H  51.25000 25.52200 42.23200
H  52.48300 23.12100 41.63500
H  51.38100 22.17200 43.68800
H  50.34300 23.31600 42.72700
H  50.97600 23.74100 44.27400
H  53.30700 24.62100 40.30400
H  53.58200 26.30900 40.69300
H  51.87800 27.00600 39.13100
H  50.70800 26.13300 39.95800
H  55.75500 18.84700 44.64500
H  56.53300 19.16100 43.08100
H  54.81300 19.65800 43.37100
H  59.91900 19.68800 47.12000
H  59.02600 21.17800 47.35300
H  60.26900 20.92000 45.96000
H  60.53600 25.35100 45.98200
H  59.55600 27.21400 47.99500
H  59.73500 23.88700 48.33300
H  60.48100 25.51700 48.72400
H  61.31000 24.32000 47.69100
H  59.59000 28.74500 45.84100
H  60.01500 27.25800 44.98800
H  61.70500 29.18000 46.43200
H  62.23400 27.78300 45.51800
H  61.84000 27.54400 47.13900
H  55.90400 30.48900 47.42300
H  54.27700 31.12500 47.05400
H  55.59200 31.40900 45.84000
H  51.22700 28.21400 44.09200
H  49.78300 29.92100 40.65700
H  48.94000 28.33000 40.74500
H  50.56100 28.44600 39.93800
Mg 9.71800 48.69500 25.32700
C  7.49700 49.45300 27.92700
C  12.20000 50.07000 27.37700
C  11.71300 47.77900 23.04600
C  6.97800 47.80300 23.45100
N  9.82700 49.59700 27.46300
C  8.82600 49.78300 28.31300
C  9.28400 50.36700 29.59500
C  10.51300 51.19800 29.08300
C  10.91300 50.24800 27.89000
C  10.26800 52.62900 28.58700
C  9.67900 49.18600 30.64100
C  9.47900 49.52800 32.08100
H  9.00000 48.37600 33.01400
N  11.66200 48.90200 25.24300
C  12.58300 49.33000 26.18100
C  13.91800 49.06700 25.73700
C  13.83600 48.45800 24.44700
C  12.34900 48.31900 24.22600
C  15.15000 49.65800 26.38500
C  14.90800 47.91100 23.51800
O  14.63400 47.35700 22.46400
C  16.34300 47.94900 23.91200
N  9.33600 48.09700 23.35200
C  10.40600 47.66300 22.58700
C  10.01100 46.95300 21.28100
C  8.43600 47.14800 21.31800
C  8.20100 47.67600 22.80200
C  10.66200 47.48700 19.98400
C  7.60600 45.89500 21.02100
C  6.34000 46.06700 20.21000
N  7.57900 48.72100 25.49400
C  6.60300 48.21000 24.72300
C  5.34400 48.17000 25.40800
C  5.65800 48.64100 26.68500
C  7.01400 48.93300 26.68300
C  3.96600 47.75800 24.83800
C  5.05300 49.03300 27.92000
O  3.92100 48.93000 28.27900
C  6.27100 49.48000 28.81000
C  6.28600 48.78900 30.06800
O  6.67500 47.66000 30.24500
O  5.73900 49.60700 31.04800
C  5.47500 48.92400 32.34300
H  12.94600 50.56700 28.00100
H  12.38400 47.27800 22.34500
H  6.19500 47.29000 22.88900
H  8.48600 51.03700 29.91500
H  11.33000 51.12000 29.80100
H  9.19600 52.82200 28.56300
H  10.70800 52.67800 27.59100
H  10.73700 53.40200 29.19500
H  10.69700 48.81100 30.54300
H  9.12000 48.31400 30.30100
H  8.89800 50.43900 32.22300
H  10.45300 49.86000 32.44100
H  15.68000 48.76400 26.71200
H  14.98700 50.38600 27.18000
H  15.78400 50.18200 25.67000
H  16.85800 48.90700 23.98400
H  16.85800 47.45900 23.08500
H  16.43200 47.34400 24.81500
H  10.21400 45.90500 21.49900
H  8.15000 47.99100 20.69100
H  10.36800 46.77900 19.20800
H  11.71800 47.43700 20.24800
H  10.28900 48.49500 19.80400
H  7.32200 45.40400 21.95200
H  8.18400 45.13100 20.50200
H  6.49700 45.58300 19.24600
H  6.15600 47.14000 20.14900
H  5.40900 45.68100 20.62400
H  4.02800 46.67900 24.69500
H  3.76300 48.39400 23.97600
H  3.23100 47.90700 25.62900
H  6.16300 50.53600 29.05900
H  5.59100 47.84300 32.42800
H  4.47700 49.20200 32.68200
H  6.02200 49.39500 33.15900

