158

Mg 7.97100 2.54300 27.63500
C  9.36200 1.03400 30.44500
C  5.95600 4.35800 29.80600
C  6.38400 3.90400 24.94500
C  9.68200 0.43800 25.64800
N  7.62300 2.56700 29.91100
C  8.38700 1.98700 30.82200
C  7.95800 2.45300 32.24100
C  6.67300 3.36200 32.00300
C  6.70000 3.39500 30.48800
C  5.29300 2.92500 32.52500
C  9.08600 3.07500 33.12900
C  8.63000 3.53300 34.51600
H  9.51000 3.28700 35.72500
N  6.48800 4.04000 27.39000
C  5.78000 4.61300 28.43700
C  4.86800 5.56100 27.90500
C  4.99600 5.51100 26.49500
C  6.05700 4.50100 26.20600
C  3.80500 6.37800 28.73900
C  4.23800 6.30900 25.52500
O  4.43700 6.21500 24.30900
C  3.20600 7.27800 25.86300
N  7.88700 2.12700 25.61800
C  7.20200 2.78800 24.67200
C  7.41000 2.24900 23.26900
C  8.71300 1.32300 23.50700
C  8.84100 1.35800 25.01000
C  6.07000 1.58900 22.71500
C  10.03800 1.89100 22.83700
C  10.85100 0.80100 22.20400
N  9.13300 0.86100 27.95000
C  9.78200 0.15800 27.00000
C  10.75800 -0.68500 27.59200
C  10.61900 -0.43100 28.96600
C  9.57800 0.54200 29.12600
C  11.67400 -1.54200 26.84100
C  11.11300 -0.76500 30.28100
O  12.01500 -1.57500 30.52500
C  10.32200 0.15600 31.36000
C  9.61100 -0.78000 32.29900
O  8.97600 -1.74000 32.02400
O  9.78000 -0.37800 33.58100
C  8.85600 -0.88500 34.59800
H  5.28900 4.88900 30.48800
H  5.96700 4.41900 24.07700
H  10.33900 -0.05800 24.93100
H  7.79400 1.56800 32.85500
H  6.88700 4.31800 32.48200
H  4.59700 2.71500 31.71300
H  4.96900 3.60200 33.31500
H  5.48500 1.97000 33.01500
H  9.45700 3.92300 32.55300
H  9.92100 2.37500 33.15600
H  7.65000 3.10300 34.72400
H  8.43900 4.60500 34.45500
H  3.59800 6.04000 29.75400
H  2.77700 6.29900 28.38500
H  4.07600 7.43200 28.79900
H  2.76500 7.71200 24.96600
H  3.52400 8.09800 26.50700
H  2.32900 6.74100 26.22300
H  7.56700 3.04100 22.53700
H  8.54000 0.26600 23.30700
H  6.18700 0.51100 22.83000
H  5.80900 1.96700 21.72700
H  5.30700 1.85200 23.44700
H  10.64800 2.32400 23.63000
H  9.98600 2.71200 22.12100
H  10.63000 0.77300 21.13700
H  10.64900 -0.19200 22.60400
H  11.89300 1.10700 22.28900
H  12.12800 -2.24200 27.54300
H  12.53400 -1.06900 26.36800
H  11.10200 -2.11900 26.11500
H  10.97300 0.83000 31.91700
H  9.38900 -1.43700 35.37200
H  8.05700 -1.55300 34.27700
H  8.33000 -0.01900 34.99800
Mg 1.51800 42.28300 25.90300
C  3.87900 42.01100 28.54100
C  -0.96100 41.54300 28.20100
C  -0.50900 41.80900 23.38100
C  4.22400 42.89500 23.74000
N  1.53500 41.88400 28.03000
C  2.52700 41.88700 28.92700
C  2.04400 41.90100 30.33700
C  0.54600 41.57400 30.27400
C  0.36200 41.69500 28.73600
C  0.24500 40.16300 30.93900
C  2.27400 43.31400 30.96000
C  2.58000 43.41500 32.44000
H  2.10000 42.22000 33.38200
N  -0.48100 41.79900 25.80300
C  -1.27200 41.38000 26.85100
C  -2.58800 40.92700 26.33400
C  -2.59100 41.08000 24.97200
C  -1.18600 41.58300 24.67800
C  -3.65000 40.35000 27.34400
C  -3.67400 40.86200 23.90400
O  -3.50100 41.11100 22.71700
C  -5.04600 40.27900 24.45700
N  1.84500 42.22200 23.86200
C  0.81200 42.22800 23.01100
C  1.27700 42.35300 21.52100
C  2.73400 43.02700 21.74200
C  2.92800 42.74800 23.25300
C  1.44200 41.00000 20.78400
C  2.70900 44.56600 21.43700
C  3.35800 45.09500 20.07600
N  3.65500 42.48100 26.02800
C  4.64900 42.73700 25.11600
C  5.89100 42.77500 25.78000
C  5.62100 42.51600 27.12700
C  4.27500 42.27900 27.21200
C  7.23100 43.14200 25.23300
C  6.29500 42.33800 28.44300
O  7.43800 42.35700 28.81700
C  5.08700 42.19700 29.40800
C  5.36500 41.12200 30.48200
O  5.08400 39.96100 30.32400
O  6.04800 41.64000 31.55500
C  6.23800 40.78900 32.68400
H  -1.75100 41.35900 28.93200
H  -1.25100 41.62000 22.60200
H  4.94200 43.29600 23.02200
H  2.64000 41.22400 30.95100
H  -0.03800 42.33100 30.79800
H  -0.01400 39.45300 30.15300
H  -0.63300 40.28600 31.57200
H  1.01300 39.82100 31.63300
H  1.37800 43.90400 30.76800
H  3.06300 43.84000 30.42200
H  1.99900 44.20800 32.91000
H  3.66200 43.49200 32.53800
H  -4.73400 40.35600 27.22900
H  -3.60200 40.92900 28.26700
H  -3.41200 39.31300 27.58100
H  -4.77300 39.37700 25.00500
H  -5.64000 40.05200 23.57200
H  -5.51500 41.03600 25.08600
H  0.58400 43.05100 21.05100
H  3.44900 42.46600 21.13900
H  2.43100 40.81500 20.36300
H  0.84700 41.15100 19.88300
H  0.94100 40.14200 21.23000
H  3.16300 45.11800 22.26000
H  1.65100 44.82100 21.50300
H  2.73700 45.90500 19.69500
H  3.38300 44.30500 19.32500
H  4.31000 45.58900 20.26900
H  7.46600 44.18800 25.42900
H  7.16600 43.14200 24.14500
H  8.09500 42.59600 25.60900
H  5.06800 43.15900 29.92000
H  7.27000 40.44000 32.65100
H  5.60700 39.90100 32.71200
H  6.27400 41.40400 33.58300

