158

Mg 24.24000 -6.82200 46.05900
C  26.53200 -4.37900 45.21000
C  21.88400 -5.29000 43.94000
C  22.15200 -9.42100 46.51400
C  26.81200 -8.56500 47.90700
N  24.26400 -5.09000 44.63400
C  25.30300 -4.21200 44.46100
C  24.93100 -3.07400 43.54200
C  23.37900 -3.31800 43.35700
C  23.14800 -4.67700 43.88500
C  22.47200 -2.15400 44.00100
C  25.77300 -3.13800 42.18000
C  26.70000 -2.00100 41.95600
H  26.85000 -1.32400 40.58400
N  22.21600 -7.26500 45.37400
C  21.47400 -6.53200 44.54200
C  20.27600 -7.26400 44.24800
C  20.25400 -8.45100 45.03200
C  21.51100 -8.43100 45.69700
C  19.19200 -6.71300 43.27300
C  19.17800 -9.44900 45.11400
O  18.22600 -9.36500 44.39100
C  19.08700 -10.60700 46.05600
N  24.54000 -8.78000 46.99700
C  23.41400 -9.62800 47.03400
C  23.83300 -10.97900 47.78200
C  25.32100 -10.67400 48.27400
C  25.64600 -9.26800 47.65900
C  22.77200 -11.46400 48.84700
C  26.37700 -11.62700 47.64600
C  27.36000 -12.22900 48.73000
N  26.26800 -6.54600 46.60900
C  27.12600 -7.31100 47.34500
C  28.36200 -6.51000 47.38600
C  28.14500 -5.42200 46.60800
C  26.87700 -5.48500 46.10700
C  29.63900 -6.94500 47.97600
C  28.74700 -4.19700 46.09200
O  29.86600 -3.76700 46.33600
C  27.76600 -3.55600 45.17000
C  27.55400 -2.16800 45.61800
O  26.87600 -1.75700 46.54000
O  28.13300 -1.31600 44.69800
C  27.97000 0.13300 44.86300
H  21.05200 -4.79800 43.43200
H  21.47200 -10.26900 46.61900
H  27.53100 -9.08200 48.54600
H  25.02900 -2.10400 44.02800
H  23.19700 -3.35300 42.28200
H  21.79500 -2.52800 44.76900
H  21.98000 -1.64000 43.17600
H  22.99800 -1.32300 44.47000
H  25.21400 -3.26600 41.25400
H  26.39800 -4.03100 42.18600
H  27.66900 -2.30800 42.34900
H  26.44600 -1.22900 42.68200
H  19.48500 -7.15200 42.32000
H  19.13600 -5.62400 43.25000
H  18.20900 -7.13400 43.48300
H  18.03400 -10.75300 46.29400
H  19.59100 -10.50300 47.01700
H  19.55500 -11.50100 45.64400
H  23.87900 -11.74000 47.00300
H  25.38900 -10.43800 49.33600
H  22.16300 -12.29600 48.49600
H  22.00000 -10.70200 48.95300
H  23.21000 -11.53500 49.84300
H  26.93900 -11.10700 46.87000
H  25.88200 -12.48200 47.18400
H  27.22600 -13.29900 48.89100
H  27.29200 -11.72200 49.69200
H  28.38400 -12.07500 48.39000
H  29.42600 -7.19500 49.01600
H  30.15900 -5.99300 48.08300
H  30.13100 -7.77500 47.46900
H  28.18400 -3.57800 44.16400
H  26.96200 0.39000 44.53800
H  28.52800 0.73700 44.14700
H  28.09200 0.52300 45.87400
Mg -5.82200 26.03100 26.19100
C  -3.91900 27.44300 28.83700
C  -7.21000 23.94800 28.49600
C  -7.32000 24.55500 23.69500
C  -4.29100 28.30700 24.04500
N  -5.49100 25.69500 28.32400
C  -4.66400 26.40500 29.23300
C  -5.07700 26.04400 30.71400
C  -5.76900 24.69000 30.47800
C  -6.21800 24.78200 28.98400
C  -4.93300 23.38900 30.69300
C  -5.96300 27.10100 31.48200
C  -5.87300 27.13200 33.00900
H  -5.03500 26.13400 33.81200
N  -7.08700 24.41200 26.09800
C  -7.61100 23.72200 27.15900
C  -8.68600 22.87100 26.64600
C  -8.65800 22.87800 25.21300
C  -7.70000 23.95100 24.94200
C  -9.58900 22.04800 27.60100
C  -9.48400 22.15300 24.19200
O  -9.31700 22.27100 22.97700
C  -10.63700 21.37400 24.61600
N  -5.73600 26.35000 24.12400
C  -6.45000 25.60800 23.23600
C  -6.37800 26.15700 21.78400
C  -5.65700 27.54500 21.98600
C  -5.18300 27.36800 23.46400
C  -5.66400 25.15800 20.86600
C  -6.63200 28.80400 21.96400
C  -6.24900 29.83500 20.97700
N  -4.31400 27.58000 26.32800
C  -3.84200 28.39000 25.39000
C  -3.02700 29.39800 25.96600
C  -2.92500 29.03100 27.35500
C  -3.79000 27.89800 27.47500
C  -2.34700 30.53200 25.27200
C  -2.34100 29.41400 28.60600
O  -1.55200 30.33500 28.90600
C  -2.99200 28.38300 29.61700
C  -1.87400 27.74800 30.35900
O  -0.75200 27.56400 29.90600
O  -2.27000 27.64900 31.65200
C  -1.17800 27.32400 32.58200
H  -7.68700 23.19800 29.13100
H  -7.80200 24.08800 22.83300
H  -4.00800 29.15400 23.41600
H  -4.17200 25.91600 31.30800
H  -6.66500 24.65800 31.09700
H  -4.90500 22.87200 29.73400
H  -5.48000 22.89500 31.49500
H  -3.96100 23.62200 31.13000
H  -7.00200 26.98600 31.17400
H  -5.60400 28.10300 31.24600
H  -6.88700 27.00600 33.38800
H  -5.50000 28.11800 33.28600
H  -9.51600 20.97400 27.42800
H  -10.61700 22.26100 27.31000
H  -9.48000 22.30800 28.65400
H  -11.01600 20.66400 23.88100
H  -11.43200 22.02400 24.98300
H  -10.33600 20.89500 25.54700
H  -7.42700 26.22300 21.49300
H  -4.81700 27.70200 21.31000
H  -6.20000 24.23900 20.62800
H  -4.74600 24.76200 21.30100
H  -5.38300 25.72000 19.97600
H  -6.52900 29.32900 22.91300
H  -7.66400 28.47000 21.85300
H  -5.76100 29.42200 20.09400
H  -5.66600 30.59800 21.49300
H  -7.11100 30.36100 20.56800
H  -3.00900 31.27500 24.82800
H  -1.58100 30.22200 24.56200
H  -1.86200 31.04200 26.10600
H  -3.52800 29.07000 30.27200
H  -0.29400 27.90900 32.32700
H  -0.94300 26.26000 32.61700
H  -1.58900 27.47500 33.58000

