158

Mg 35.08600 3.47500 30.40000
C  32.70700 4.55400 32.71600
C  37.40100 3.59500 32.98800
C  37.29900 2.74500 28.16600
C  32.58800 3.73600 27.90500
N  35.00800 4.03500 32.59000
C  33.92200 4.35900 33.31300
C  34.25600 4.25300 34.86600
C  35.85800 4.29900 34.88100
C  36.08800 3.90400 33.38200
C  36.39500 5.72300 35.13900
C  33.72200 2.95700 35.59200
C  34.01300 2.76000 37.08900
H  34.44900 3.98100 37.91300
N  37.10400 3.12200 30.60500
C  37.93600 3.14500 31.72600
C  39.28900 2.72800 31.36600
C  39.30700 2.76200 29.92000
C  37.86800 2.85900 29.50500
C  40.41400 2.66200 32.46200
C  40.39800 2.61300 28.94100
O  40.15500 2.83300 27.76500
C  41.73300 2.08800 29.38700
N  34.94300 3.37000 28.29900
C  35.99400 2.99300 27.61300
C  35.77400 3.06600 26.01400
C  34.23100 3.29200 25.98600
C  33.86700 3.47200 27.48700
C  36.55200 4.18800 25.19300
C  33.50700 2.13900 25.26500
C  33.10700 0.94400 26.07200
N  33.07100 4.11900 30.27700
C  32.18800 4.08900 29.17400
C  30.84000 4.27000 29.66900
C  31.02100 4.50900 31.05300
C  32.41000 4.41000 31.38800
C  29.61900 4.28900 28.78200
C  30.37300 4.75500 32.29700
O  29.18700 4.93300 32.47900
C  31.39100 4.74600 33.46000
C  31.21100 6.02800 34.12100
O  30.98400 7.13200 33.56100
O  31.27900 5.81700 35.46600
C  31.49600 7.08400 36.14100
H  38.12100 3.70500 33.80200
H  38.03200 2.45200 27.41100
H  31.78400 3.67100 27.16900
H  33.78900 5.11300 35.34600
H  36.20400 3.64300 35.68000
H  36.91600 5.71400 36.09600
H  35.65900 6.52100 35.22400
H  37.15800 5.86900 34.37400
H  34.12400 2.05600 35.12900
H  32.63500 2.93400 35.51100
H  34.64300 1.87000 37.10700
H  33.15100 2.33600 37.60400
H  40.13700 3.22000 33.35600
H  41.23900 3.20800 32.00400
H  40.85700 1.70800 32.74900
H  41.50000 1.28700 30.08800
H  42.28500 2.94700 29.76800
H  42.36500 1.73800 28.57100
H  36.16700 2.13800 25.59700
H  34.01000 4.18800 25.40700
H  37.12200 4.71900 25.95600
H  35.81600 4.84100 24.72500
H  37.17700 3.63200 24.49400
H  34.18700 1.77600 24.49500
H  32.66200 2.58600 24.74200
H  33.63700 0.88000 27.02300
H  33.20300 0.08800 25.40500
H  32.04600 0.98700 26.32200
H  29.00200 3.39200 28.81300
H  29.88300 4.35100 27.72600
H  28.95300 5.11400 29.03400
H  31.06800 3.99000 34.17500
H  32.27800 7.61900 35.60100
H  31.96000 6.83200 37.09400
H  30.63200 7.74900 36.12800
Mg 27.10800 50.81700 26.61700
C  25.09300 51.76700 29.34700
C  29.46700 49.90300 28.83000
C  29.10600 50.13500 23.99400
C  24.75000 52.19700 24.52300
N  27.25900 50.78800 28.85500
C  26.27400 51.16900 29.77200
C  26.76500 50.92400 31.27200
C  28.30600 50.60400 31.09700
C  28.36800 50.40100 29.52100
C  29.15000 51.77500 31.72700
C  26.01000 49.74300 31.92400
C  25.27100 50.09000 33.27300
H  26.16300 50.46300 34.44500
N  28.99100 50.15600 26.45100
C  29.79500 49.73100 27.48300
C  31.08900 49.14000 26.96200
C  30.99600 49.31600 25.56300
C  29.67700 49.86400 25.30400
C  32.14400 48.60000 27.86700
C  32.06800 48.96400 24.53400
O  31.86600 49.09300 23.33000
C  33.44900 48.52400 24.98000
N  27.14000 51.38000 24.56000
C  27.93600 50.76500 23.66900
C  27.47600 50.96700 22.22900
C  26.01100 51.53000 22.38700
C  25.94600 51.69700 23.94100
C  28.42000 51.96900 21.45500
C  24.83100 50.80800 21.79400
C  23.82000 51.57400 20.85300
N  25.22400 51.81900 26.82600
C  24.38800 52.30900 25.90700
C  23.30900 52.97500 26.52300
C  23.46500 52.75900 27.91000
C  24.69100 52.03100 28.04300
C  22.31900 53.71000 25.73800
C  22.88400 52.92000 29.21900
O  21.85500 53.35000 29.58700
C  23.95900 52.28800 30.21900
C  24.41500 53.42200 31.07300
O  25.24300 54.26900 30.79900
O  23.70300 53.51100 32.22200
C  23.87200 54.74800 33.05600
H  30.22300 49.54700 29.53300
H  29.72100 49.98600 23.10400
H  24.18800 52.75900 23.77400
H  26.61700 51.88900 31.75600
H  28.37300 49.62300 31.56600
H  28.71200 52.67100 32.16600
H  29.91500 52.15100 31.04800
H  29.65900 51.20000 32.50100
H  26.53900 48.85000 32.25700
H  25.28600 49.42100 31.17600
H  24.60200 49.24300 33.42600
H  24.49500 50.82000 33.04000
H  33.06500 49.15900 27.70400
H  32.30900 47.57100 27.54900
H  31.86700 48.69800 28.91700
H  34.24400 48.49900 24.23500
H  33.33300 47.47600 25.25700
H  33.81600 49.16900 25.77800
H  27.48400 49.98600 21.75400
H  26.03800 52.55700 22.02300
H  29.13700 52.43200 22.13300
H  27.92400 52.77900 20.91900
H  28.91700 51.35200 20.70700
H  24.17500 50.62200 22.64400
H  25.16800 49.91400 21.27000
H  24.21600 52.56500 20.63100
H  22.89500 51.77700 21.39200
H  23.64500 51.03700 19.92100
H  22.70200 54.57200 25.19200
H  21.57100 54.05800 26.45000
H  21.82800 52.99100 25.08300
H  23.44700 51.49200 30.76000
H  24.64700 54.37200 33.72400
H  22.99800 54.87600 33.69500
H  24.12900 55.67000 32.53500

