158

Mg 26.31800 51.73600 25.72300
C  23.89000 52.49500 28.21100
C  28.51900 51.19000 28.31200
C  28.80300 51.63400 23.48800
C  24.12600 52.52300 23.30400
N  26.27200 52.14000 28.00600
C  25.14000 52.21700 28.77900
C  25.43300 52.09600 30.27700
C  26.97700 51.82600 30.33200
C  27.32700 51.74800 28.78500
C  27.90300 52.59300 31.32600
C  24.46500 51.17600 31.07100
C  24.99900 50.33300 32.31900
H  24.20200 50.23000 33.57000
N  28.28300 51.39600 25.85800
C  29.01200 51.18600 27.02600
C  30.37300 50.91300 26.64500
C  30.54600 50.99000 25.22700
C  29.19000 51.39200 24.79400
C  31.41900 50.47600 27.60800
C  31.77200 50.89000 24.33800
O  31.77700 50.92700 23.12600
C  33.20400 50.77800 24.95900
N  26.41900 52.00400 23.69700
C  27.54700 51.86500 22.94800
C  27.29200 52.05600 21.48000
C  25.72400 52.18300 21.40500
C  25.41200 52.25300 22.88600
C  28.15000 53.20700 20.87400
C  25.03500 51.19000 20.51000
C  23.70500 51.67900 19.85500
N  24.47500 52.47000 25.72700
C  23.62000 52.69800 24.64600
C  22.35300 53.12000 25.05900
C  22.41200 53.04900 26.45000
C  23.73100 52.65400 26.82200
C  21.13200 53.51000 24.24000
C  21.60300 53.18600 27.65200
O  20.45200 53.57100 27.80200
C  22.56000 52.82500 28.85600
C  22.66400 53.96300 29.73800
O  23.30800 54.96000 29.48000
O  21.90500 53.80400 30.84700
C  21.99400 54.89700 31.85600
H  29.20200 50.99300 29.14100
H  29.43800 51.44600 22.62000
H  23.37300 52.68400 22.53000
H  25.22400 53.06900 30.72200
H  27.10600 50.78500 30.62600
H  28.57400 53.24000 30.76000
H  28.50400 51.85100 31.85000
H  27.38000 53.19300 32.07100
H  24.20100 50.37800 30.37700
H  23.49000 51.59200 31.32600
H  25.78800 51.03500 32.59200
H  25.49500 49.37200 32.18600
H  31.77200 49.47700 27.35400
H  31.09100 50.46500 28.64800
H  32.34200 51.05600 27.60700
H  33.98500 50.94000 24.21600
H  33.26100 49.78100 25.39500
H  33.27700 51.56800 25.70600
H  27.58300 51.11900 21.00500
H  25.52000 53.19500 21.05400
H  27.47200 54.02000 20.61000
H  28.75400 52.82500 20.05100
H  28.84200 53.75000 21.51700
H  24.58500 50.45300 21.17400
H  25.65200 50.74400 19.73000
H  23.56700 51.35600 18.82300
H  23.65900 52.76800 19.81300
H  22.77900 51.53900 20.41200
H  20.20600 53.06200 24.60000
H  21.11800 53.17600 23.20200
H  20.86900 54.56500 24.16800
H  22.17200 52.01400 29.47400
H  21.78800 54.41700 32.81300
H  21.24900 55.64800 31.59200
H  22.96900 55.38500 31.83900
Mg 16.14000 51.36900 24.82300
C  18.23100 50.60500 27.54100
C  13.54300 51.44000 26.86600
C  14.32700 51.68800 22.17900
C  19.11900 50.88100 22.74700
N  15.95600 51.08700 26.98200
C  16.92900 50.91100 27.92700
C  16.40600 51.18700 29.33400
C  14.82100 51.42100 29.14700
C  14.73300 51.33200 27.56600
C  13.91300 50.37500 29.90900
C  17.09600 52.39600 30.07800
C  16.99400 52.43700 31.63500
H  16.17100 51.42000 32.37600
N  14.18400 51.33000 24.51400
C  13.26600 51.40800 25.46700
C  11.99700 51.25900 24.85600
C  12.14900 51.45200 23.44400
C  13.56800 51.47200 23.29300
C  10.76500 51.28200 25.62200
C  11.02700 51.56900 22.37300
O  11.38300 51.70400 21.19100
C  9.56600 51.49300 22.72800
N  16.66900 51.23300 22.74400
C  15.67300 51.66500 21.90400
C  16.28300 52.09600 20.62200
C  17.83600 51.99300 20.83600
C  17.93000 51.33400 22.15700
C  15.71800 51.32900 19.38200
C  18.64400 53.29300 20.87100
C  18.93600 53.84800 19.47400
N  18.20800 50.84500 25.03200
C  19.26100 50.60300 24.12500
C  20.43600 50.12900 24.80200
C  20.07000 50.06000 26.09900
C  18.75300 50.55200 26.22200
C  21.69300 49.80400 24.19800
C  20.60700 49.79200 27.52000
O  21.64500 49.34200 27.98500
C  19.38200 50.19200 28.43000
C  19.00200 49.10300 29.37000
O  18.64600 48.00200 28.96900
O  19.38700 49.35300 30.69000
C  19.26000 48.29100 31.72300
H  12.70300 51.41100 27.56200
H  13.72300 51.90400 21.29600
H  19.96900 50.81400 22.06400
H  16.48800 50.25100 29.88700
H  14.42300 52.40000 29.41500
H  13.42000 50.92900 30.70800
H  14.48600 49.55400 30.34000
H  13.07200 49.95800 29.35400
H  16.80700 53.35200 29.64100
H  18.16600 52.34400 29.87500
H  16.58900 53.38400 31.99200
H  17.97900 52.25400 32.06300
H  10.11800 50.59000 25.08300
H  10.34200 52.27500 25.46300
H  10.86500 51.00300 26.67100
H  9.29600 50.57400 23.24800
H  9.03800 51.58000 21.77800
H  9.29100 52.32500 23.37600
H  16.07000 53.15600 20.48600
H  18.28200 51.26400 20.15800
H  15.28300 50.41500 19.78700
H  16.44400 51.08400 18.60700
H  14.96700 52.05900 19.08100
H  19.57600 53.14200 21.41500
H  18.09400 54.06400 21.40900
H  18.45300 54.82500 19.46300
H  18.47700 53.25500 18.68400
H  20.01900 53.87700 19.35200
H  22.56900 49.89400 24.84100
H  21.94400 50.40300 23.32200
H  21.60500 48.75900 23.89800
H  19.78300 51.00500 29.03500
H  18.34900 48.50500 32.28100
H  20.08000 48.45600 32.42200
H  19.32000 47.22300 31.51200

