158

Mg 1.60300 8.27800 25.17400
C  2.15600 10.04200 28.24500
C  1.84200 5.28100 27.05100
C  1.46000 6.47000 22.47800
C  1.71400 11.19700 23.38100
N  2.02500 7.68900 27.48400
C  2.05700 8.64600 28.49800
C  1.99500 7.90100 29.86000
C  1.94100 6.43500 29.42900
C  1.92600 6.39900 27.87400
C  2.96400 5.58300 30.10600
C  0.95000 8.45600 30.90000
C  1.36500 8.71200 32.38200
H  2.59300 7.97500 33.08100
N  1.58300 6.16800 24.86500
C  1.67900 5.11300 25.71200
C  1.37300 3.89500 25.04500
C  1.23900 4.20100 23.66900
C  1.45400 5.68200 23.63300
C  1.39400 2.53500 25.76900
C  1.13800 3.24900 22.49500
O  1.00000 3.62900 21.33400
C  1.18700 1.71700 22.73700
N  1.83100 8.81400 23.24700
C  1.56900 7.86600 22.30900
C  1.62700 8.49700 20.94300
C  1.24800 9.99500 21.24600
C  1.60600 9.99300 22.71900
C  2.96700 8.34100 20.10600
C  -0.30500 10.30100 21.12600
C  -0.68200 11.40000 20.04400
N  1.91000 10.21300 25.65800
C  1.84700 11.30800 24.82100
C  2.03700 12.48100 25.60500
C  2.17100 12.08300 26.94800
C  2.06200 10.64100 26.93200
C  2.01600 13.81700 24.97600
C  2.26600 12.52400 28.34100
O  2.20200 13.64400 28.84400
C  2.25800 11.24400 29.18600
C  3.44300 11.19100 30.12000
O  4.49900 10.69400 29.88200
O  3.07800 11.81400 31.31400
C  4.05600 11.71900 32.42100
H  1.82500 4.33600 27.59700
H  1.30400 5.98700 21.51100
H  1.53900 12.15200 22.88100
H  2.95800 8.06100 30.34500
H  1.00700 5.94600 29.70700
H  2.59600 5.21300 31.06300
H  3.91100 6.08300 30.30700
H  3.15400 4.68600 29.51800
H  0.10500 7.77300 30.81900
H  0.69800 9.44500 30.51800
H  0.50600 8.36900 32.95900
H  1.54400 9.76900 32.57900
H  0.57900 1.86600 25.49300
H  1.32800 2.60100 26.85500
H  2.34100 2.02700 25.58800
H  0.38400 1.46400 23.42900
H  2.19900 1.49800 23.07900
H  1.02200 1.24900 21.76700
H  0.85300 8.06000 20.31300
H  1.84500 10.72400 20.69800
H  2.94300 7.46100 19.46400
H  3.79000 8.30800 20.82000
H  3.12300 9.28100 19.57700
H  -0.66300 10.64300 22.09700
H  -0.89400 9.40900 20.91300
H  0.22400 11.78900 19.57900
H  -1.33100 12.11200 20.55500
H  -1.34800 10.93400 19.31800
H  2.69700 13.91200 24.13000
H  2.44600 14.53800 25.67100
H  0.97700 13.94200 24.67300
H  1.33200 11.37100 29.74700
H  5.04100 12.05600 32.09900
H  4.17400 10.66700 32.68200
H  3.79600 12.30300 33.30300
Mg 43.88000 3.14200 47.88800
C  41.63700 5.65900 47.03600
C  41.29300 0.83400 47.61600
C  46.09200 0.58300 47.90000
C  46.43700 5.45200 47.52500
N  41.82000 3.27500 47.39100
C  41.11000 4.34300 47.07100
C  39.61600 4.11700 46.94100
C  39.46500 2.64200 47.32700
C  40.95600 2.24700 47.55200
C  38.66000 2.44900 48.69800
C  39.11500 4.38000 45.51500
C  37.73900 5.08400 45.35800
H  37.71500 6.19900 44.24000
N  43.65500 0.93600 47.99100
C  42.48800 0.25600 47.86100
C  42.86100 -1.14900 48.02800
C  44.29700 -1.26900 48.18600
C  44.76500 0.09600 48.05100
C  41.87300 -2.26500 47.85100
C  45.07700 -2.52300 48.42200
O  44.53700 -3.66300 48.46400
C  46.56100 -2.52200 48.71600
N  45.99900 2.97700 47.60700
C  46.70700 1.82300 47.77600
C  48.20000 2.08000 47.88200
C  48.27900 3.67100 47.69200
C  46.79300 4.08400 47.63500
C  48.69600 1.77400 49.26300
C  49.09600 4.14400 46.44300
C  48.60600 3.83400 45.05900
N  44.10700 5.16200 47.40400
C  45.16800 5.98300 47.47500
C  44.77200 7.36700 47.38100
C  43.35500 7.29700 47.23700
C  43.04800 5.89200 47.19200
C  45.69900 8.48200 47.49400
C  42.08300 8.05800 47.09800
O  41.76100 9.24300 47.16900
C  40.91000 6.97600 46.87600
C  39.90600 7.27700 47.87700
O  40.06500 7.03000 49.09500
O  38.81100 7.85700 47.31900
C  37.87300 8.41300 48.34400
H  40.43500 0.17500 47.46500
H  46.92600 -0.10400 48.05700
H  47.25400 6.17600 47.56200
H  39.12900 4.79600 47.64100
H  38.95300 2.03900 46.57700
H  39.29200 2.43100 49.58600
H  38.23500 1.44600 48.72000
H  37.83100 3.14100 48.85000
H  38.99300 3.45300 44.95500
H  39.85900 4.87200 44.88800
H  37.38600 5.51600 46.29400
H  37.13000 4.22200 45.08500
H  40.90000 -1.77300 47.86500
H  41.94200 -3.00000 48.65300
H  42.08900 -2.77400 46.91100
H  47.03100 -2.54300 47.73200
H  46.77100 -3.46100 49.22700
H  46.90300 -1.67100 49.30500
H  48.72100 1.51900 47.10600
H  48.58300 4.24600 48.56700
H  49.08200 0.76000 49.35900
H  47.92600 1.91300 50.02200
H  49.53800 2.43800 49.46200
H  50.06800 3.65400 46.49500
H  49.18300 5.22200 46.57300
H  48.36200 4.79500 44.60500
H  47.73000 3.18600 45.06500
H  49.34400 3.29700 44.46300
H  46.42800 8.57400 48.29900
H  45.01300 9.32600 47.43300
H  46.13100 8.68000 46.51300
H  40.42900 7.06300 45.90100
H  38.23000 9.37600 48.70900
H  37.60600 7.69800 49.12200
H  36.90400 8.62500 47.89100

