158

Mg 7.89200 3.22100 27.83200
C  9.73400 1.76000 30.54400
C  6.01500 4.64600 30.18000
C  6.22900 4.37900 25.33500
C  9.51000 0.97100 25.71200
N  7.87500 3.20000 30.11700
C  8.86000 2.71600 30.93600
C  8.64700 3.09500 32.44100
C  7.25600 3.87900 32.25900
C  6.98000 3.92200 30.74500
C  6.08600 3.12900 32.98900
C  9.79700 3.95100 33.09300
C  9.47200 4.79400 34.33800
H  10.43900 4.58300 35.47400
N  6.27100 4.30200 27.79100
C  5.62200 4.83100 28.86700
C  4.61300 5.68600 28.35300
C  4.75600 5.74700 26.92800
C  5.82100 4.79200 26.60100
C  3.48600 6.32200 29.27000
C  3.98400 6.56100 25.90300
O  3.97200 6.36500 24.67000
C  3.07200 7.64200 26.33700
N  7.64900 2.50000 25.76800
C  7.00800 3.30200 24.94200
C  7.19300 2.88300 23.48200
C  8.32500 1.80500 23.60000
C  8.48900 1.68200 25.13700
C  5.91700 2.44800 22.70800
C  9.69000 2.26400 23.06800
C  10.39600 1.09900 22.41300
N  9.37900 1.70700 27.99900
C  9.98100 0.97800 27.01500
C  10.97700 0.12300 27.65900
C  10.93900 0.43700 28.99700
C  9.97300 1.44700 29.15400
C  11.75800 -0.92100 26.90200
C  11.64800 0.17500 30.22200
O  12.66700 -0.41700 30.41200
C  10.91700 1.05700 31.31700
C  10.44000 0.17800 32.38900
O  9.64200 -0.70200 32.32000
O  11.13100 0.48300 33.59600
C  10.80400 -0.30600 34.77500
H  5.49100 5.28600 30.89400
H  5.68200 4.88700 24.53800
H  10.03700 0.44300 24.91400
H  8.57900 2.10500 32.89100
H  7.29900 4.90700 32.62000
H  6.59400 2.42600 33.64900
H  5.49300 2.58500 32.25300
H  5.51000 3.82900 33.59400
H  10.11900 4.62300 32.29700
H  10.60400 3.26000 33.33700
H  8.50100 4.46700 34.71100
H  9.27500 5.80900 33.99300
H  3.62900 5.93700 30.28000
H  2.49000 6.07900 28.89900
H  3.64100 7.39600 29.17000
H  2.91600 8.31800 25.49600
H  3.54600 8.25000 27.10700
H  2.13200 7.24200 26.71800
H  7.60100 3.80500 23.06600
H  7.99200 0.87000 23.15100
H  4.98000 2.49200 23.26400
H  5.85100 1.38900 22.46100
H  5.87800 2.89700 21.71500
H  10.24600 2.67100 23.91400
H  9.50300 3.09700 22.39100
H  10.69900 1.47000 21.43400
H  9.75000 0.23300 22.27000
H  11.25800 0.80800 23.01300
H  12.62500 -1.20300 27.49800
H  12.23300 -0.48400 26.02400
H  11.12800 -1.79800 26.75200
H  11.59700 1.82600 31.68300
H  10.39200 0.39300 35.50200
H  11.70500 -0.70100 35.24600
H  10.10900 -1.12000 34.57200
Mg -2.60700 34.37500 26.01800
C  -4.08900 32.75300 28.78200
C  -1.44700 36.64200 28.42500
C  -1.22300 36.01500 23.60700
C  -4.35900 32.33400 23.93000
N  -3.00300 34.79300 28.45400
C  -3.40600 33.82400 29.29300
C  -3.11800 34.19800 30.79100
C  -2.41000 35.58200 30.67000
C  -2.21400 35.67000 29.08000
C  -3.30200 36.75200 31.08200
C  -2.35300 33.10000 31.55700
C  -2.80100 32.89700 32.97900
H  -2.34300 33.99900 33.98500
N  -1.48300 36.04200 26.01900
C  -1.06200 36.77000 27.10900
C  -0.16400 37.82900 26.65000
C  -0.13300 37.69000 25.20700
C  -0.97600 36.54500 24.90400
C  0.34500 38.92600 27.51900
C  0.67000 38.53300 24.15800
O  0.75000 38.30700 22.97300
C  1.41600 39.69400 24.80000
N  -2.88700 34.23900 24.03700
C  -2.18700 35.05000 23.20900
C  -2.55800 34.70500 21.71100
C  -3.49600 33.50100 21.80800
C  -3.61900 33.31900 23.39400
C  -3.16300 35.92800 21.00300
C  -3.00000 32.26500 21.10700
C  -2.25700 31.21300 21.92000
N  -4.03700 32.89500 26.22000
C  -4.62700 32.06300 25.28000
C  -5.30900 30.99700 25.92200
C  -5.11600 31.23100 27.32200
C  -4.41900 32.42700 27.43900
C  -6.12500 29.91300 25.22100
C  -5.47400 30.74100 28.63800
O  -6.04500 29.76500 28.98000
C  -4.79900 31.67700 29.61000
C  -5.83200 32.28900 30.54300
O  -6.75700 33.06200 30.26700
O  -5.84200 31.68200 31.80600
C  -6.69200 32.19700 32.90400
H  -0.92900 37.24500 29.17400
H  -0.76400 36.60200 22.80900
H  -4.82400 31.73100 23.14700
H  -4.09100 34.24700 31.28100
H  -1.43300 35.65900 31.14700
H  -2.71900 37.37100 31.76300
H  -4.16000 36.37000 31.63600
H  -3.71500 37.33000 30.25500
H  -1.33700 33.47700 31.67300
H  -2.28300 32.18500 30.97000
H  -2.47200 31.91700 33.32200
H  -3.88900 32.96400 32.98800
H  1.41300 38.89500 27.73100
H  -0.16800 38.90500 28.48100
H  0.05000 39.84400 27.01000
H  2.08100 39.32600 25.58100
H  0.72600 40.49900 25.05400
H  2.09900 40.11700 24.06400
H  -1.63000 34.42100 21.21500
H  -4.50100 33.64900 21.41300
H  -2.48300 36.33100 20.25300
H  -3.36500 36.72000 21.72500
H  -4.06600 35.82600 20.40000
H  -2.39200 32.43100 20.21800
H  -3.90400 31.79900 20.71400
H  -1.74600 31.73100 22.73100
H  -1.52600 30.63500 21.35500
H  -3.00800 30.47100 22.19400
H  -6.22000 29.13500 25.97900
H  -5.73200 29.39900 24.34300
H  -7.07500 30.37200 24.94700
H  -4.09000 31.07600 30.18000
H  -6.33300 31.80800 33.85700
H  -7.77100 32.13900 32.75800
H  -6.38600 33.24300 32.89000

