158

Mg 30.56200 57.86600 40.63000
C  27.92000 55.66600 39.22100
C  32.83600 55.41500 39.34600
C  32.83600 60.10700 40.83600
C  28.05000 60.29200 40.99300
N  30.37900 55.82500 39.34400
C  29.25100 55.10600 38.95400
C  29.63900 53.77400 38.23800
C  31.15700 53.67200 38.47200
C  31.53300 55.00700 39.07600
C  31.54400 52.45400 39.42900
C  29.24500 53.79900 36.68600
C  27.97600 53.07500 36.30600
H  27.04000 53.81600 35.33000
N  32.63300 57.75100 40.33000
C  33.33300 56.68300 39.80100
C  34.73000 57.10500 39.73400
C  34.80000 58.41900 40.19700
C  33.42900 58.82000 40.51400
C  35.88400 56.15600 39.32000
C  36.04800 59.24800 40.29900
O  37.20100 58.86800 40.02000
C  35.95300 60.77500 40.71100
N  30.46300 59.90500 40.88100
C  31.60200 60.58100 41.06100
C  31.34900 62.06300 41.48400
C  29.77600 62.13700 41.53200
C  29.37800 60.75300 40.98000
C  32.01800 62.50200 42.77800
C  29.22500 63.31500 40.78100
C  29.31300 63.35100 39.18000
N  28.33900 57.93900 40.48900
C  27.55400 58.95700 40.72100
C  26.15500 58.50600 40.43300
C  26.33800 57.22600 39.86700
C  27.64600 56.92600 39.85000
C  24.84500 59.18200 40.62900
C  25.55700 56.10800 39.35400
O  24.36700 56.02400 39.02100
C  26.60900 55.08800 38.97700
C  26.15300 53.80600 39.71900
O  26.02000 53.80500 40.91000
O  25.91900 52.76900 38.92300
C  25.20800 51.64000 39.45600
H  33.60600 54.70200 39.04100
H  33.60600 60.88200 40.84700
H  27.28300 61.05200 41.15900
H  29.22600 52.86200 38.66900
H  31.75200 53.62200 37.56100
H  32.44100 51.98600 39.02500
H  30.78200 51.68200 39.53600
H  31.80400 52.81900 40.42300
H  30.03100 53.22200 36.19900
H  29.44100 54.80100 36.30400
H  27.42000 52.70500 37.16800
H  28.36500 52.25000 35.71100
H  36.36200 56.40600 38.37300
H  35.56000 55.11600 39.31700
H  36.68400 56.25800 40.05300
H  35.35400 60.81800 41.62100
H  35.48100 61.35700 39.91900
H  36.89200 61.25000 40.99700
H  31.51400 62.76100 40.66400
H  29.43400 62.24700 42.56100
H  32.83300 63.18000 42.52400
H  32.46000 61.62600 43.25200
H  31.32300 62.94800 43.49000
H  29.73200 64.16900 41.23000
H  28.18800 63.49100 41.06500
H  28.30200 63.59800 38.85800
H  29.64200 62.45900 38.64700
H  30.00000 64.15100 38.90400
H  24.83300 60.27000 40.68600
H  24.21100 58.68800 41.36600
H  24.36000 58.77600 39.74100
H  26.43400 54.90100 37.91800
H  26.05100 51.16300 39.95700
H  24.84100 50.95500 38.69200
H  24.52300 51.92900 40.25300
Mg -6.10800 25.09600 25.64500
C  -4.41900 26.16900 28.60200
C  -7.91600 22.94000 27.47300
C  -6.85700 23.55700 22.92800
C  -3.64900 27.07100 23.90800
N  -6.03700 24.51800 27.71600
C  -5.35200 25.08100 28.78800
C  -5.80800 24.50500 30.17400
C  -6.67200 23.36400 29.71900
C  -6.96200 23.65600 28.21400
C  -6.04300 21.91400 30.06300
C  -6.67600 25.60900 30.90300
C  -6.55400 25.60500 32.46600
H  -5.88700 24.45100 33.16400
N  -7.41200 23.64600 25.25500
C  -8.21100 22.98100 26.13900
C  -9.19800 22.16700 25.47500
C  -8.77100 22.23900 24.10900
C  -7.62800 23.14300 24.03800
C  -10.24600 21.31700 26.09900
C  -9.37700 21.55300 22.85400
O  -8.89500 21.64400 21.71900
C  -10.56500 20.70100 22.97800
N  -5.32100 25.25600 23.70400
C  -5.82700 24.51000 22.71400
C  -5.23700 24.84200 21.33800
C  -4.19000 25.98800 21.67700
C  -4.37100 26.13100 23.18900
C  -4.60300 23.64700 20.59100
C  -4.37400 27.30300 20.82500
C  -3.16200 28.16500 20.43300
N  -4.45900 26.51800 26.09700
C  -3.57000 27.16600 25.29700
C  -2.75400 28.01600 26.11700
C  -3.01000 27.67300 27.45900
C  -4.02000 26.68500 27.36200
C  -1.84000 29.08900 25.57800
C  -2.67500 27.91900 28.85800
O  -1.89300 28.73800 29.38100
C  -3.62900 26.92200 29.67100
C  -2.77600 26.04700 30.53200
O  -2.35500 24.94400 30.29700
O  -2.35100 26.69500 31.69900
C  -1.33700 26.09200 32.65000
H  -8.53900 22.19200 27.96800
H  -7.12900 23.15500 21.95000
H  -2.86000 27.61700 23.38700
H  -4.86500 24.31700 30.68600
H  -7.54100 23.50000 30.36300
H  -5.58300 21.52500 29.15400
H  -6.80500 21.23300 30.44300
H  -5.39100 22.02600 30.93000
H  -7.72400 25.68600 30.61200
H  -6.16600 26.47300 30.47800
H  -7.55800 25.69200 32.88000
H  -5.97400 26.51800 32.60400
H  -9.98800 20.25900 26.06200
H  -11.21300 21.36100 25.59800
H  -10.45700 21.64200 27.11800
H  -11.37600 21.27700 23.42600
H  -10.23700 19.82700 23.54000
H  -10.81900 20.34700 21.97900
H  -5.92300 25.32600 20.64200
H  -3.12400 25.78200 21.58400
H  -3.62400 23.89000 20.17700
H  -5.30100 23.31600 19.82200
H  -4.57700 22.89000 21.37500
H  -5.05700 27.86800 21.45900
H  -4.90300 27.00500 19.92000
H  -3.48700 29.16500 20.14700
H  -2.79800 27.83700 19.45900
H  -2.24600 28.17300 21.02400
H  -2.41500 29.64600 24.83900
H  -0.94200 28.59100 25.21200
H  -1.45300 29.77700 26.33000
H  -4.23000 27.45100 30.41000
H  -0.42400 26.67700 32.54000
H  -1.08600 25.03300 32.58500
H  -1.85600 26.30800 33.58300

