158

Mg 36.41900 49.83800 24.75300
C  36.52600 47.72300 27.70100
C  35.03100 52.19600 26.78100
C  35.63300 51.43800 21.89100
C  37.49700 47.03300 22.87800
N  35.84600 49.90500 27.02200
C  36.09600 49.05000 28.01300
C  35.80000 49.67600 29.44500
C  35.08600 51.06100 29.03800
C  35.33400 51.05600 27.54700
C  33.59000 51.26100 29.41400
C  36.96600 49.68100 30.48000
C  36.55200 49.84000 32.00800
H  35.06700 49.85900 32.39000
N  35.53700 51.64400 24.38600
C  35.07900 52.46100 25.40300
C  34.94100 53.76500 24.68900
C  34.96100 53.52400 23.26700
C  35.31500 52.13000 23.11800
C  34.54700 54.90400 25.47300
C  34.54700 54.47000 22.15700
O  34.48200 54.10500 20.97100
C  34.15800 55.86700 22.44700
N  36.45000 49.32600 22.70100
C  36.19200 50.21700 21.69400
C  36.61700 49.65500 20.39200
C  37.49400 48.45100 20.78900
C  37.13100 48.22700 22.21600
C  35.55200 49.29900 19.36100
C  39.05800 48.60800 20.56100
C  39.62100 47.67400 19.40500
N  37.00700 47.87500 25.13300
C  37.35200 46.88000 24.26600
C  37.69800 45.64600 25.03700
C  37.38400 45.97000 26.32700
C  36.95800 47.32600 26.37200
C  38.19600 44.26700 24.46300
C  37.39200 45.43900 27.69800
O  37.76700 44.40400 28.12900
C  36.88900 46.58700 28.64700
C  35.76700 46.03500 29.43100
O  34.99600 45.16400 28.96500
O  35.67800 46.51200 30.71200
C  34.68000 45.84600 31.55300
H  34.55700 52.97100 27.38600
H  35.41900 51.99800 20.97800
H  37.99100 46.33300 22.20100
H  35.08800 48.93000 29.79900
H  35.69000 51.85100 29.48400
H  32.90600 50.94800 28.62400
H  33.46100 52.27100 29.80200
H  33.22900 50.62200 30.22000
H  37.71000 50.45700 30.30500
H  37.55800 48.77300 30.36500
H  37.04500 50.72100 32.41900
H  36.94000 48.94200 32.49000
H  34.86600 55.86100 25.05900
H  35.06300 54.90600 26.43300
H  33.47200 54.92800 25.64900
H  35.00400 56.45800 22.80000
H  33.33000 55.78900 23.15100
H  33.79000 56.28900 21.51200
H  37.22800 50.43000 19.93000
H  37.18000 47.56200 20.24300
H  35.94800 48.57200 18.65200
H  35.27200 50.21700 18.84500
H  34.65800 48.84600 19.78900
H  39.49800 48.20400 21.47200
H  39.40100 49.61200 20.31300
H  40.04300 46.79300 19.88900
H  40.39500 48.18300 18.83100
H  38.79600 47.25700 18.82700
H  38.81800 43.71500 25.16800
H  38.63400 44.43100 23.47900
H  37.34900 43.60300 24.29000
H  37.73300 46.64500 29.33500
H  35.04100 45.99400 32.57100
H  34.51800 44.77200 31.45600
H  33.69600 46.28700 31.40000
Mg 4.91600 53.26000 41.16100
C  3.05500 50.31000 41.23500
C  7.40700 51.60300 39.60500
C  6.12500 56.28200 40.39800
C  1.81600 55.01000 42.00400
N  4.97200 51.15400 40.22200
C  4.23500 50.08600 40.47500
C  4.81400 48.80700 39.90500
C  6.30400 49.16000 39.81900
C  6.25600 50.74100 39.85000
C  7.20200 48.51600 40.85300
C  4.19500 48.47000 38.52300
C  4.29300 47.06500 37.99400
H  4.94900 46.89200 36.61400
N  6.57000 53.83100 40.31300
C  7.49500 53.01200 39.59900
C  8.52800 53.74700 39.04700
C  8.29300 55.08500 39.42500
C  6.89700 55.13800 40.00300
C  9.70800 53.04600 38.42800
C  9.29600 56.24700 39.30300
O  10.32100 56.09400 38.66200
C  9.13900 57.50300 40.01600
N  4.12200 55.33900 41.38700
C  4.89900 56.35800 40.94500
C  4.21200 57.67400 41.01300
C  2.78500 57.24300 41.54500
C  2.91400 55.79600 41.61100
C  4.86800 58.78400 41.93700
C  1.52800 57.74900 40.65000
C  0.35700 58.39700 41.44200
N  2.96600 52.77000 41.76300
C  1.80400 53.57100 42.03800
C  0.70300 52.67200 42.40000
C  1.24400 51.35600 42.22600
C  2.51000 51.52600 41.69700
C  -0.65600 53.09900 42.84100
C  0.89800 49.98800 42.22900
O  -0.14900 49.34800 42.42300
C  2.16800 49.27400 41.82800
C  1.77000 48.12600 41.02500
O  1.04700 48.22500 40.02200
O  2.27700 46.93300 41.53300
C  2.07400 45.71500 40.85200
H  8.19400 51.00300 39.14400
H  6.60200 57.16500 39.96700
H  0.92500 55.56800 42.29800
H  4.75900 48.01200 40.64900
H  6.63500 48.78500 38.85100
H  8.16800 48.13700 40.51800
H  6.74100 47.74700 41.47200
H  7.47500 49.30400 41.55600
H  4.51000 49.19600 37.77400
H  3.11600 48.62500 38.51300
H  3.33800 46.54000 37.99100
H  4.86200 46.50500 38.73700
H  10.35900 53.74200 37.89800
H  9.45500 52.16900 37.83200
H  10.30000 52.69100 39.27100
H  10.05800 58.08900 40.00700
H  8.85400 57.24500 41.03600
H  8.37100 58.18400 39.65000
H  4.02100 57.92400 39.97000
H  2.59200 57.68000 42.52500
H  5.89300 58.49600 42.16900
H  4.35000 58.86600 42.89300
H  4.82000 59.74600 41.42700
H  1.15600 56.89300 40.08700
H  1.93900 58.55200 40.03800
H  0.25200 59.42000 41.07900
H  0.45600 58.44300 42.52600
H  -0.62500 57.98400 41.21200
H  -1.33600 52.56800 42.17500
H  -0.81200 54.16000 42.64400
H  -0.84200 52.83200 43.88200
H  2.56500 48.88200 42.76400
H  2.98400 45.36500 40.36700
H  1.41500 45.90800 40.00600
H  1.55200 45.01100 41.50100

