158

Mg 47.12900 25.58700 28.04700
C  48.20500 27.42000 30.81100
C  46.15300 23.02000 30.20500
C  45.98900 23.90600 25.42300
C  48.48900 28.08000 25.98200
N  47.18000 25.30700 30.25000
C  47.67000 26.15900 31.16000
C  47.43900 25.71800 32.59800
C  47.02300 24.23800 32.37500
C  46.73600 24.16800 30.87600
C  48.03300 23.22200 32.93200
C  46.42100 26.60700 33.36600
C  46.93800 27.32600 34.62800
H  46.02100 27.38800 35.87300
N  46.29100 23.65600 27.83100
C  45.93600 22.75800 28.81900
C  45.19700 21.66600 28.16600
C  45.25100 21.84900 26.76000
C  45.93000 23.18000 26.59800
C  44.64200 20.58700 28.95000
C  44.69800 20.94400 25.60000
O  44.96000 21.21600 24.44900
C  43.81600 19.79900 25.92300
N  47.42600 25.82400 26.01500
C  46.82700 24.97100 25.10700
C  46.99200 25.49100 23.69000
C  47.70900 26.78600 23.89000
C  47.82000 26.96400 25.42500
C  47.53400 24.65700 22.55600
C  47.06200 27.95000 23.10000
C  48.03700 28.71200 22.19100
N  48.04900 27.43200 28.29600
C  48.62400 28.38800 27.31900
C  49.25200 29.47300 28.07000
C  49.11500 29.07100 29.38900
C  48.32900 27.90300 29.46800
C  49.91800 30.54600 27.38800
C  49.46000 29.44600 30.69600
O  50.05100 30.45700 31.14300
C  48.80100 28.52000 31.65200
C  49.86300 27.98200 32.43700
O  50.58300 27.06800 32.16500
O  49.94600 28.61000 33.67800
C  51.01400 28.14400 34.53200
H  45.68200 22.30000 30.87800
H  45.47300 23.44500 24.57800
H  48.83900 28.90700 25.36000
H  48.42100 25.82400 33.05900
H  46.09100 24.13200 32.93100
H  48.59700 22.76700 32.11800
H  47.61300 22.40600 33.52100
H  48.74200 23.60900 33.66400
H  45.45500 26.16400 33.61000
H  46.14900 27.43300 32.71000
H  47.13900 28.36600 34.37200
H  47.85000 26.84100 34.97500
H  45.13600 19.69100 28.57400
H  43.56800 20.45300 28.82200
H  44.93100 20.68200 29.99700
H  44.34800 19.00900 26.45300
H  43.53800 19.31900 24.98500
H  42.86900 20.05500 26.39900
H  45.94400 25.64400 23.43500
H  48.73000 26.75500 23.51100
H  47.80700 23.66600 22.91800
H  48.46200 25.10800 22.20500
H  46.84400 24.66200 21.71200
H  46.60300 28.74900 23.68200
H  46.23000 27.58900 22.49500
H  47.52000 29.04700 21.29300
H  48.80600 28.08600 21.73800
H  48.50300 29.55700 22.69800
H  49.42400 30.74300 26.43700
H  50.95900 30.28000 27.20800
H  49.76200 31.47600 27.93600
H  48.13700 29.14400 32.25100
H  52.00100 28.35300 34.12000
H  50.87800 27.06900 34.65000
H  50.93500 28.54000 35.54400
Mg 6.27300 53.05200 40.46500
C  5.68600 49.54300 40.45900
C  9.37100 52.37600 39.27800
C  6.49800 56.31500 39.62600
C  2.87900 53.43000 41.27400
N  7.35700 51.18700 39.91400
C  6.94100 49.89100 39.99700
C  8.03000 48.88200 39.50600
C  9.30800 49.79200 39.56600
C  8.68500 51.22400 39.65000
C  10.42400 49.50400 40.64700
C  7.80900 48.31000 38.05000
C  7.00000 49.04900 36.98400
H  7.81500 49.54700 35.71900
N  7.74000 54.15300 39.58100
C  8.98100 53.72500 39.30000
C  9.82900 54.92700 38.86100
C  9.00800 56.04300 38.88600
C  7.67200 55.50100 39.36000
C  11.25900 54.85700 38.40800
C  9.39400 57.35800 38.30000
O  10.59500 57.62400 37.96500
C  8.41600 58.47600 38.20100
N  4.88800 54.60800 40.31000
C  5.26900 55.86900 40.02300
C  4.19500 56.90500 40.44000
C  3.00300 56.00300 40.91500
C  3.59600 54.56600 40.84300
C  4.75600 57.91500 41.53700
C  1.69100 56.22400 40.16800
C  0.43100 56.77800 40.93700
N  4.59800 51.81700 40.91800
C  3.30100 52.06600 41.26100
C  2.58700 50.88600 41.54800
C  3.48700 49.86600 41.18800
C  4.66300 50.48300 40.75000
C  1.19100 50.66100 42.11000
C  3.70200 48.41700 41.17900
O  2.93500 47.51100 41.37300
C  5.15800 48.18800 40.62600
C  5.01100 47.26300 39.41600
O  4.51300 47.61800 38.35600
O  5.19200 45.93700 39.80700
C  4.93500 44.94100 38.76100
H  10.33200 51.99800 38.92200
H  6.51800 57.38700 39.41700
H  1.82200 53.46100 41.54200
H  8.06500 48.07200 40.23400
H  9.84000 49.73000 38.61700
H  11.43900 49.85000 40.45200
H  10.53800 48.42100 40.68700
H  10.19000 49.85500 41.65200
H  7.25400 47.37600 38.13300
H  8.76800 47.95800 37.66800
H  6.57600 49.92200 37.48100
H  6.22700 48.35900 36.64500
H  11.36800 55.24600 37.39600
H  11.58300 53.82000 38.31800
H  11.89200 55.25700 39.20100
H  8.11900 58.69200 39.22700
H  7.66600 58.19300 37.46300
H  8.80300 59.47000 37.97800
H  3.81400 57.44400 39.57200
H  2.65600 56.15500 41.93700
H  5.63300 57.45100 41.98800
H  4.05000 58.06700 42.35300
H  5.00500 58.84900 41.03400
H  1.29900 55.26500 39.83100
H  1.86800 56.76700 39.24000
H  0.68400 56.86800 41.99400
H  -0.49300 56.20300 40.98800
H  0.23300 57.78100 40.56100
H  0.59700 51.54200 42.35200
H  1.20400 49.99500 42.97200
H  0.61800 50.08500 41.38300
H  5.72200 47.59400 41.34500
H  5.88700 44.94800 38.23000
H  4.18700 45.14800 37.99700
H  4.62100 44.00500 39.22200

