158

Mg 24.82000 -7.29500 47.71600
C  26.97100 -4.88800 46.65000
C  22.74000 -6.57200 45.12400
C  22.77800 -9.85100 48.76400
C  27.48000 -8.79100 49.59700
N  24.82200 -5.77000 46.17200
C  25.78900 -4.96700 45.87700
C  25.55900 -4.13100 44.53400
C  24.15200 -4.65400 44.13800
C  23.86600 -5.78800 45.20100
C  23.03300 -3.49900 44.18600
C  26.70900 -4.57000 43.51000
C  27.50000 -3.32000 42.99900
H  27.30900 -2.97300 41.52000
N  22.94200 -8.15400 47.01100
C  22.29500 -7.70100 45.91900
C  21.05900 -8.36300 45.83500
C  21.01400 -9.34700 46.95200
C  22.27500 -9.18200 47.65700
C  19.87300 -7.96800 44.86800
C  19.75200 -10.24800 47.29900
O  18.81300 -10.25300 46.52100
C  19.79600 -11.22300 48.46100
N  25.12600 -9.01100 48.98600
C  24.02800 -9.80600 49.37500
C  24.41600 -10.83500 50.43200
C  26.02400 -10.77700 50.30900
C  26.25400 -9.41900 49.62400
C  23.96600 -10.52200 51.86200
C  26.73900 -11.94000 49.54900
C  27.42500 -13.04200 50.36900
N  26.79800 -6.90900 48.19200
C  27.77800 -7.61500 48.91900
C  29.00400 -6.78600 48.99600
C  28.71700 -5.69200 48.09300
C  27.39700 -5.82900 47.60600
C  30.31800 -7.09700 49.81800
C  29.24200 -4.52900 47.51500
O  30.34000 -4.05700 47.66700
C  28.23600 -4.01900 46.46200
C  28.10700 -2.54800 46.77400
O  28.69700 -1.68200 46.20900
O  27.20900 -2.32900 47.77200
C  26.83500 -0.88700 47.74300
H  22.11600 -6.45100 44.23600
H  22.09400 -10.53500 49.27000
H  28.27900 -9.39300 50.03500
H  25.40100 -3.06900 44.72200
H  24.13300 -5.22300 43.20800
H  23.41700 -2.52600 44.49000
H  22.40100 -3.89200 44.98200
H  22.38100 -3.40800 43.31700
H  26.30900 -5.08600 42.63700
H  27.30000 -5.33400 44.01500
H  28.56200 -3.49500 43.16800
H  27.34700 -2.39300 43.55000
H  18.84500 -8.01500 45.23000
H  19.95000 -8.42600 43.88200
H  19.96500 -6.89300 44.71900
H  20.63100 -11.88300 48.22700
H  18.94600 -11.90500 48.42700
H  19.89600 -10.74600 49.43600
H  23.93900 -11.76200 50.11500
H  26.46900 -10.65700 51.29700
H  23.98200 -9.43900 51.98700
H  24.44400 -11.02300 52.70400
H  22.95200 -10.91500 51.93400
H  27.56400 -11.45000 49.03200
H  26.04500 -12.30400 48.79200
H  27.28300 -12.91500 51.44200
H  28.49700 -13.11400 50.18800
H  27.10500 -14.02600 50.02700
H  30.80500 -7.95300 49.35000
H  29.98600 -7.48500 50.78100
H  30.93200 -6.19900 49.89300
H  28.60900 -4.10600 45.44200
H  27.37600 -0.32100 48.50200
H  25.78600 -0.76900 48.01700
H  26.87400 -0.37900 46.78000
Mg -11.01600 15.73400 43.56300
C  -7.58700 16.78400 43.51500
C  -11.77100 19.04500 42.85100
C  -14.07400 14.74800 43.14000
C  -9.85800 12.49300 43.41500
N  -9.84200 17.72700 43.20100
C  -8.44800 17.87000 43.20700
C  -8.08500 19.32200 42.78900
C  -9.42900 20.12200 42.89900
C  -10.40000 18.92700 43.03300
C  -9.59300 21.02400 44.16800
C  -7.48500 19.41500 41.41500
C  -6.18000 20.21200 41.27100
H  -4.97900 19.53500 40.54900
N  -12.74700 16.68200 43.04700
C  -12.85100 18.06200 42.89000
C  -14.24700 18.34100 42.60200
C  -14.95100 17.13000 42.62600
C  -13.93900 16.13400 42.90500
C  -14.75600 19.76700 42.21300
C  -16.49200 16.97000 42.32600
O  -17.09200 17.94300 41.92600
C  -17.21700 15.69300 42.49700
N  -11.82400 13.79900 43.27400
C  -13.17400 13.71100 43.27000
C  -13.63400 12.24100 43.40300
C  -12.25400 11.45300 43.42300
C  -11.22500 12.64000 43.41200
C  -14.49000 11.99300 44.62600
C  -12.03900 10.29600 42.28200
C  -11.93000 8.82800 42.64500
N  -9.15700 14.80600 43.54600
C  -8.90000 13.47200 43.55000
C  -7.49600 13.26400 43.69600
C  -6.94900 14.53700 43.78000
C  -7.98300 15.42100 43.61100
C  -6.81300 11.98200 43.65300
C  -5.73600 15.33400 44.03300
O  -4.59500 15.04400 44.26700
C  -6.21700 16.80700 44.02700
C  -6.15100 17.27700 45.46400
O  -6.32900 16.55500 46.44000
O  -5.69900 18.56500 45.44000
C  -5.20800 18.99400 46.72000
H  -12.09900 20.07900 42.73000
H  -15.06500 14.29200 43.18300
H  -9.42200 11.49200 43.39600
H  -7.34400 19.63000 43.52600
H  -9.70500 20.69600 42.01400
H  -8.61500 21.21300 44.60800
H  -10.35700 20.81400 44.91700
H  -9.99100 21.96400 43.78400
H  -8.19600 19.87000 40.72400
H  -7.35400 18.34600 41.24900
H  -5.88600 20.57400 42.25600
H  -6.50600 21.04100 40.64300
H  -15.37000 19.66500 41.31900
H  -14.00200 20.50300 41.93300
H  -15.25700 20.20300 43.07800
H  -18.29300 15.75500 42.33100
H  -17.07800 15.23300 43.47500
H  -16.94800 14.93900 41.75800
H  -14.25400 12.04100 42.52900
H  -12.04100 10.93500 44.35900
H  -15.48200 11.90200 44.18300
H  -14.44600 12.76400 45.39600
H  -14.26900 11.02800 45.08200
H  -11.32500 10.68000 41.55300
H  -12.98200 10.32200 41.73600
H  -11.30400 8.35200 41.89000
H  -12.89500 8.32500 42.58200
H  -11.60600 8.67000 43.67300
H  -5.73000 12.08400 43.58200
H  -7.16200 11.55800 42.71100
H  -7.03800 11.26900 44.44500
H  -5.55200 17.37700 43.38000
H  -4.64900 18.17900 47.17900
H  -6.00700 19.38200 47.35300
H  -4.41500 19.73100 46.59600

