158

Mg -0.82200 7.34800 26.60700
C  0.25700 9.21000 29.40400
C  -1.11800 4.62600 28.75500
C  -1.17200 5.36700 23.94200
C  -0.40600 10.06800 24.60400
N  -0.53200 7.00100 28.83900
C  -0.17000 7.95500 29.75600
C  -0.18300 7.37500 31.20700
C  -0.65900 5.87100 30.92100
C  -0.72700 5.77600 29.39200
C  0.13000 4.73800 31.63100
C  -1.12800 8.10500 32.19300
C  -0.55800 8.50200 33.52600
H  -0.99000 7.65400 34.71100
N  -1.13700 5.30100 26.35000
C  -1.33200 4.36500 27.33700
C  -1.59800 3.06100 26.74300
C  -1.62100 3.24000 25.36500
C  -1.27100 4.68300 25.12500
C  -1.71900 1.85900 27.59100
C  -1.71500 2.19700 24.30400
O  -1.50400 2.44400 23.09600
C  -2.20900 0.76400 24.71900
N  -0.76500 7.65400 24.59000
C  -0.99100 6.70800 23.70500
C  -1.28800 7.26700 22.32100
C  -1.32700 8.75800 22.58500
C  -0.84800 8.91100 23.99700
C  -0.26800 6.81000 21.20700
C  -2.78700 9.24900 22.52300
C  -3.44800 9.82800 21.28700
N  -0.10400 9.21500 26.83900
C  0.04900 10.23100 25.92700
C  0.64900 11.39900 26.62900
C  0.82300 11.01800 27.93200
C  0.29400 9.69300 28.07100
C  1.03700 12.69200 25.99700
C  1.24100 11.47800 29.19700
O  1.80400 12.51300 29.46200
C  0.84300 10.40900 30.26400
C  1.94300 10.01000 31.22700
O  2.67700 9.05900 31.06300
O  1.99300 10.87400 32.26600
C  3.14100 10.83700 33.19600
H  -1.33600 3.76200 29.38600
H  -1.39000 4.76900 23.05500
H  -0.42800 10.86500 23.85800
H  0.82500 7.40300 31.62100
H  -1.64700 5.74400 31.36400
H  0.93800 5.22000 32.18100
H  0.59500 4.19700 30.80600
H  -0.59700 4.13400 32.17400
H  -2.01600 7.48900 32.33500
H  -1.40500 9.00900 31.65100
H  -0.63400 9.57900 33.67900
H  0.52400 8.42300 33.42600
H  -0.85600 1.19500 27.55000
H  -2.64800 1.33800 27.36000
H  -1.93400 2.05800 28.64100
H  -3.18500 0.80900 25.20200
H  -1.45200 0.22800 25.29100
H  -2.38800 0.23100 23.78600
H  -2.20600 6.76400 22.01800
H  -0.71900 9.21700 21.80500
H  -0.27700 7.48400 20.35100
H  -0.61300 5.84000 20.84800
H  0.74900 6.81300 21.60200
H  -2.93800 9.99800 23.30100
H  -3.42300 8.49100 22.98000
H  -2.64600 10.25600 20.68600
H  -4.26400 10.49200 21.57200
H  -3.95800 9.01300 20.77200
H  1.96900 13.05200 26.43300
H  0.26000 13.43800 26.16100
H  1.16000 12.57700 24.92000
H  0.03500 10.89000 30.81500
H  3.39600 11.78300 33.67200
H  3.97300 10.44600 32.61000
H  3.02400 10.16700 34.04800
Mg 26.93600 51.32300 26.51900
C  24.68300 51.91100 29.20300
C  29.07600 50.02500 28.81000
C  29.05700 50.69600 23.97100
C  24.81100 52.93300 24.41200
N  26.82600 50.99900 28.76200
C  25.87600 51.32800 29.62000
C  26.26600 50.91300 31.06100
C  27.74400 50.57300 30.93400
C  27.91800 50.46900 29.43000
C  28.73300 51.54600 31.55600
C  25.43700 49.79100 31.62800
C  25.05100 49.97100 33.13700
H  26.05500 50.40000 34.21100
N  28.72600 50.43100 26.38700
C  29.50200 49.99500 27.46600
C  30.72700 49.37400 26.96000
C  30.81100 49.62000 25.56000
C  29.45500 50.24400 25.25800
C  31.63800 48.77900 27.93200
C  31.96700 49.43900 24.60500
O  32.05600 49.82700 23.41900
C  33.06500 48.59200 25.07200
N  27.08500 52.03300 24.50200
C  28.02300 51.58200 23.62600
C  27.67600 52.05500 22.19500
C  26.17100 52.54000 22.27700
C  25.98800 52.51300 23.84100
C  28.64000 53.12500 21.57900
C  25.08600 51.57300 21.58400
C  24.19700 52.32200 20.58500
N  25.08600 52.19100 26.67900
C  24.36200 52.82700 25.75600
C  23.17800 53.37600 26.28100
C  23.28700 53.05600 27.60700
C  24.44200 52.28800 27.83400
C  22.07000 54.16200 25.59000
C  22.60400 53.18300 28.89700
O  21.54500 53.72900 29.23700
C  23.53800 52.48200 29.93600
C  23.88100 53.54400 30.92900
O  24.93100 54.13500 30.87500
O  22.95300 53.50100 31.99600
C  23.37300 54.11000 33.24300
H  29.68000 49.65700 29.64300
H  29.80000 50.50400 23.19400
H  24.09100 53.51800 23.83600
H  26.14100 51.80900 31.67000
H  27.89200 49.61800 31.43900
H  29.37200 50.96900 32.22400
H  28.16400 52.34400 32.03300
H  29.51600 51.87800 30.87500
H  25.89000 48.80900 31.49300
H  24.51200 49.62400 31.07600
H  24.74800 48.98700 33.49500
H  24.22200 50.67800 33.14600
H  31.76300 47.73200 27.65700
H  31.28100 48.70300 28.95900
H  32.61300 49.26400 27.98100
H  32.67500 47.67900 25.52200
H  33.66600 49.15200 25.78800
H  33.66200 48.24900 24.22700
H  27.71200 51.15700 21.57700
H  26.00900 53.60600 22.11900
H  29.43100 53.25000 22.31800
H  28.29600 54.14500 21.41100
H  29.07300 52.71800 20.66500
H  24.44000 51.21000 22.38300
H  25.58300 50.71000 21.14200
H  23.34900 52.68800 21.16500
H  23.85300 51.67000 19.78200
H  24.72400 53.11900 20.06100
H  21.54800 54.71300 26.37100
H  21.44900 53.48600 25.00200
H  22.60700 54.92300 25.02400
H  22.95200 51.69800 30.41500
H  24.07500 53.51100 33.82300
H  22.52900 54.03400 33.92800
H  23.58400 55.17700 33.18300

