158

Mg 45.86700 17.24200 29.00600
C  44.30500 16.83600 32.23500
C  48.16000 19.20900 30.51900
C  46.92300 17.88700 26.03100
C  43.07300 15.52000 27.66000
N  46.18800 17.92500 31.03400
C  45.42500 17.65100 32.21600
C  46.16300 18.15400 33.47400
C  47.38200 18.98100 32.88300
C  47.25900 18.75200 31.40000
C  47.39600 20.48600 33.17700
C  46.61600 17.09800 34.47900
C  46.20100 17.23300 35.98700
H  45.91000 18.64700 36.49000
N  47.37300 18.28600 28.37600
C  48.24500 18.96200 29.15600
C  49.41000 19.39800 28.38400
C  49.07500 19.04900 27.05600
C  47.71500 18.42200 27.09400
C  50.63900 20.08400 28.99400
C  49.89600 19.42900 25.81000
O  49.49000 19.11600 24.68100
C  51.18400 20.24600 25.82100
N  45.06500 16.76800 27.13800
C  45.67100 17.25900 26.05800
C  44.82500 17.04600 24.78500
C  43.81900 15.95900 25.24200
C  43.92200 16.11200 26.78300
C  44.17700 18.35100 24.25400
C  44.14900 14.47100 24.77600
C  43.71800 14.07500 23.36600
N  44.08500 16.25100 29.75700
C  43.04100 15.60600 29.05200
C  42.09000 15.15500 30.00100
C  42.59300 15.51600 31.25600
C  43.80100 16.22700 31.05400
C  40.83100 14.40800 29.64700
C  42.27000 15.51200 32.67600
O  41.36600 14.97300 33.29600
C  43.36100 16.45900 33.35000
C  42.72800 17.66400 34.01500
O  42.45200 18.69800 33.44400
O  42.49200 17.41000 35.33400
C  41.81800 18.42300 36.20000
H  48.95300 19.79800 30.98400
H  47.28900 18.03800 25.01400
H  42.32700 14.90600 27.15200
H  45.47800 18.91000 33.85600
H  48.31800 18.47900 33.13100
H  46.71700 20.84200 33.95200
H  47.30600 21.06800 32.25900
H  48.39700 20.70200 33.55000
H  47.69300 16.93900 34.42400
H  46.14500 16.18100 34.12300
H  46.94800 16.76400 36.62700
H  45.24400 16.71300 36.03400
H  51.51600 19.71300 28.46400
H  50.83600 19.88100 30.04600
H  50.60800 21.16600 28.86300
H  51.84500 19.65700 26.45700
H  51.03500 21.28900 26.10000
H  51.53700 20.23500 24.79000
H  45.38800 16.59200 23.97000
H  42.84400 16.17100 24.80500
H  43.90700 18.98900 25.09600
H  43.26300 18.12400 23.70400
H  44.72800 18.95800 23.53600
H  43.98800 13.72900 25.55700
H  45.22900 14.58900 24.68200
H  43.53400 15.01100 22.83900
H  42.80000 13.49600 23.46200
H  44.49700 13.46800 22.90500
H  40.78500 13.95900 28.65500
H  40.04900 15.15000 29.80800
H  40.70800 13.61800 30.38700
H  43.77800 15.77400 34.08800
H  42.11500 18.21800 37.22900
H  40.74500 18.23900 36.16900
H  42.21700 19.43000 36.07600
Mg 50.34600 45.17900 42.70800
C  47.19400 46.05100 41.58800
C  50.02800 42.10100 41.70200
C  53.74800 44.90100 42.94200
C  50.85200 48.78100 43.16600
N  48.86400 44.28000 41.66900
C  47.55200 44.74200 41.37900
C  46.65500 43.67300 40.77600
C  47.64600 42.39800 40.81600
C  48.92000 42.92700 41.46100
C  47.04200 41.18300 41.64900
C  46.27000 44.03200 39.28400
C  47.31900 44.65600 38.35500
H  47.82300 43.86100 37.16100
N  51.71400 43.66900 42.48500
C  51.34400 42.38100 42.09300
C  52.50000 41.48300 41.98800
C  53.61000 42.31600 42.39200
C  53.03500 43.67800 42.67200
C  52.33200 40.02000 41.62600
C  55.04000 41.72200 42.55800
O  55.25800 40.60500 42.19800
C  56.09600 42.47500 43.34800
N  51.99300 46.69400 43.01300
C  53.29900 46.21300 43.20900
C  54.22000 47.48200 43.37600
C  53.28600 48.68100 43.65700
C  51.98300 48.02700 43.17800
C  55.33500 47.46500 44.48900
C  53.65100 50.16300 43.17700
C  53.93400 51.09000 44.33400
N  49.29900 47.11800 42.36500
C  49.57600 48.45800 42.72000
C  48.33200 49.24100 42.67300
C  47.36400 48.28400 42.26900
C  47.96700 47.05700 42.06200
C  48.18200 50.63500 43.24800
C  45.95900 48.16100 41.84700
O  45.09500 48.97300 41.63700
C  45.73500 46.66900 41.54900
C  44.76900 46.07300 42.48800
O  43.56300 45.93600 42.23400
O  45.34300 45.63700 43.68000
C  44.39000 45.07400 44.62300
H  49.82300 41.10500 41.30500
H  54.83000 44.76000 42.89700
H  50.86100 49.85600 43.36100
H  45.78400 43.45800 41.39500
H  47.84900 41.95500 39.84100
H  46.21000 41.54500 42.25200
H  47.74600 40.94100 42.44600
H  46.94900 40.38100 40.91700
H  45.48500 44.77200 39.43900
H  45.81900 43.09500 38.95600
H  48.28800 44.71700 38.85200
H  47.00300 45.61000 37.93300
H  52.95000 39.71600 40.78100
H  51.28400 39.83100 41.39300
H  52.58400 39.49200 42.54500
H  56.61900 43.20900 42.73600
H  56.82500 41.74600 43.70100
H  55.61200 42.92800 44.21400
H  54.74700 47.46600 42.42100
H  53.10000 48.72300 44.73000
H  56.22900 47.12000 43.96900
H  55.08100 46.66700 45.18800
H  55.53200 48.45300 44.90600
H  52.86900 50.55200 42.52600
H  54.54500 50.15700 42.55200
H  54.55700 50.54600 45.04400
H  52.94800 51.29700 44.75100
H  54.46300 51.93000 43.88300
H  48.75000 51.19500 42.50500
H  48.61800 50.77300 44.23700
H  47.14200 50.96100 43.29600
H  45.30600 46.52100 40.55800
H  44.97300 44.55600 45.38500
H  43.63200 44.40300 44.21700
H  43.85700 45.85300 45.16900

