158

Mg 6.21800 52.93800 41.77800
C  5.53200 49.40500 41.40900
C  9.07600 52.50900 40.07400
C  6.49800 56.14000 41.83500
C  3.00500 53.16700 43.29800
N  7.12600 51.19400 40.91200
C  6.71100 49.93100 40.82000
C  7.68200 49.13800 39.92100
C  8.98900 49.99300 39.92200
C  8.37400 51.35900 40.30500
C  9.97700 49.41800 40.94900
C  7.00600 49.02900 38.53400
C  7.46500 47.81300 37.78800
H  7.92500 48.08200 36.30500
N  7.61900 54.24300 41.05700
C  8.74400 53.84100 40.41600
C  9.53100 55.03600 40.09000
C  8.77600 56.19200 40.50500
C  7.57000 55.53800 41.17100
C  10.79300 54.98500 39.29100
C  9.14200 57.65100 40.28600
O  10.23100 57.98400 39.74700
C  8.06100 58.69400 40.46700
N  4.79800 54.44700 42.22000
C  5.29800 55.71900 42.32400
C  4.35900 56.64300 42.98200
C  3.24000 55.70700 43.49900
C  3.70000 54.29700 43.01800
C  4.88200 57.69900 44.09000
C  1.81200 56.15900 43.08300
C  0.74900 55.95800 44.07200
N  4.52600 51.60200 42.19600
C  3.33300 51.86600 42.83600
C  2.63400 50.62700 43.19100
C  3.44100 49.60600 42.59200
C  4.63000 50.26400 42.05800
C  1.37500 50.43800 43.90400
C  3.63500 48.16400 42.49000
O  2.95700 47.28200 42.93700
C  4.96000 47.92900 41.57100
C  4.59200 47.18300 40.36300
O  3.50400 47.28200 39.82400
O  5.51200 46.21900 40.12500
C  5.09500 45.04100 39.36000
H  10.04200 52.41600 39.57400
H  6.65300 57.21300 41.96000
H  2.00200 53.33100 43.69800
H  7.85900 48.19900 40.44400
H  9.51300 50.03400 38.96700
H  10.91200 49.24800 40.41400
H  9.67900 48.46300 41.38000
H  10.26000 50.21500 41.63600
H  7.24400 49.86500 37.87500
H  5.94600 48.84100 38.69900
H  6.67600 47.07600 37.63300
H  8.26900 47.35500 38.36500
H  11.20300 54.04300 38.92700
H  11.53700 55.32700 40.01000
H  10.77200 55.67400 38.44600
H  8.47600 59.59900 40.02200
H  8.04200 59.05100 41.49700
H  7.09600 58.39500 40.05900
H  4.02200 57.29000 42.17200
H  3.43300 55.58400 44.56400
H  5.85400 58.17400 43.95400
H  4.61300 57.46000 45.11900
H  4.22100 58.49400 43.74500
H  1.60500 55.66700 42.13200
H  1.88100 57.24600 43.02800
H  0.09200 55.17700 43.68700
H  0.15600 56.84000 44.31100
H  1.09300 55.46100 44.97900
H  1.35300 51.15600 44.72400
H  1.31900 49.43100 44.31700
H  0.51100 50.57500 43.25400
H  5.63700 47.32600 42.17600
H  4.03300 44.84400 39.50300
H  5.75700 44.25400 39.72300
H  5.28700 45.22100 38.30200
Mg -1.86800 34.07900 26.89800
C  -3.89900 32.43300 29.48000
C  -0.35300 35.86000 29.46600
C  -0.42800 35.84400 24.57300
C  -3.93800 32.48100 24.53800
N  -2.20600 34.14300 29.18600
C  -3.00200 33.38700 30.03600
C  -2.70700 33.65300 31.50800
C  -1.77700 34.96300 31.40700
C  -1.40500 34.99000 29.92500
C  -2.38100 36.40600 31.92900
C  -2.13600 32.37100 32.13600
C  -2.96200 31.93000 33.30500
H  -2.14900 31.71400 34.60600
N  -0.45300 35.57400 26.98700
C  0.07900 36.10700 28.06900
C  1.14800 37.04500 27.71500
C  1.10400 37.07100 26.28900
C  -0.03800 36.20200 25.89000
C  1.99400 37.79300 28.68900
C  1.99500 37.80300 25.34100
O  1.67800 38.04400 24.17700
C  3.31600 38.31900 25.82300
N  -2.24100 34.21900 24.85100
C  -1.45400 35.02000 24.11900
C  -1.86500 34.87600 22.59300
C  -2.69100 33.61700 22.60400
C  -2.99700 33.39800 24.07900
C  -2.55100 36.11300 22.01100
C  -1.97200 32.47300 21.94000
C  -0.81200 31.72900 22.62100
N  -3.51200 32.68500 26.96100
C  -4.19800 32.12500 25.87100
C  -5.19900 31.22900 26.42400
C  -5.12500 31.33600 27.77800
C  -4.06600 32.26600 28.09800
C  -6.19700 30.41000 25.72800
C  -5.67500 30.82600 29.01300
O  -6.47100 29.92500 29.21800
C  -4.95800 31.59600 30.12500
C  -5.99900 32.37900 30.93100
O  -6.51900 33.46300 30.67400
O  -6.32600 31.72200 32.01800
C  -7.39500 32.24400 32.90100
H  0.25300 36.40000 30.19700
H  0.03000 36.45800 23.79400
H  -4.58200 31.97200 23.81800
H  -3.58200 34.04700 32.02600
H  -0.84300 34.71700 31.91200
H  -2.57600 37.08800 31.10100
H  -1.74000 36.89500 32.66300
H  -3.38900 36.25000 32.31200
H  -1.13700 32.39900 32.57200
H  -2.16600 31.48900 31.49600
H  -3.60100 31.05600 33.18100
H  -3.63700 32.76100 33.51000
H  1.42800 37.96800 29.60500
H  2.54500 38.69000 28.41000
H  2.68900 36.98900 28.93200
H  3.04500 39.19500 26.41300
H  3.96400 38.63800 25.00700
H  3.77100 37.66100 26.56300
H  -0.87700 34.71800 22.16000
H  -3.67500 33.63800 22.13600
H  -3.23400 35.65700 21.29500
H  -1.81600 36.74700 21.51500
H  -3.03400 36.61800 22.84700
H  -1.54700 32.85300 21.01100
H  -2.76700 31.76100 21.71700
H  -0.42800 32.49700 23.29200
H  -0.09300 31.33800 21.90100
H  -1.16200 30.86700 23.18800
H  -7.23300 30.65500 25.96100
H  -6.15800 29.35600 26.00500
H  -6.05200 30.52500 24.65400
H  -4.52500 30.84700 30.78700
H  -8.23600 32.69000 32.36800
H  -7.01900 32.96200 33.62900
H  -7.77200 31.35200 33.40000

