158

Mg 17.45400 -1.26300 28.47300
C  16.12900 0.74000 31.04500
C  19.09600 -3.16700 30.83600
C  19.15800 -2.67100 25.95700
C  15.97000 0.88100 26.15200
N  17.74900 -1.12900 30.69900
C  16.98500 -0.30800 31.51000
C  17.25200 -0.73300 32.97900
C  18.11900 -2.03500 32.90500
C  18.41200 -2.05100 31.39600
C  19.43000 -1.77200 33.70200
C  15.93000 -0.96200 33.83800
C  15.85400 -0.33900 35.22300
H  17.08900 -0.00600 36.08100
N  18.87500 -2.72100 28.37200
C  19.42100 -3.46200 29.45300
C  20.08600 -4.65600 28.82600
C  20.23100 -4.40700 27.44500
C  19.46500 -3.17300 27.20100
C  20.52100 -5.79400 29.68900
C  20.84300 -5.27900 26.26700
O  20.82600 -4.82900 25.10700
C  21.44300 -6.67000 26.54400
N  17.63500 -0.96800 26.37800
C  18.39700 -1.63600 25.51100
C  18.04900 -1.33900 24.02700
C  16.72800 -0.55000 24.15200
C  16.73600 -0.20600 25.66000
C  19.18800 -0.63500 23.30600
C  15.50100 -1.36300 23.74600
C  14.56800 -0.63800 22.71800
N  16.27800 0.40800 28.58500
C  15.72100 1.16500 27.54400
C  14.87800 2.21400 28.08900
C  15.09200 2.15200 29.50800
C  15.90300 1.02500 29.72500
C  14.10300 3.27100 27.28900
C  14.75900 2.81300 30.74100
O  14.01500 3.71000 31.04200
C  15.42200 1.89900 31.87100
C  16.38600 2.72900 32.59600
O  17.36400 3.16200 32.08200
O  16.05300 2.79800 33.93800
C  17.06300 3.43800 34.75500
H  19.35900 -3.95700 31.54300
H  19.54000 -3.08900 25.02300
H  15.42900 1.54600 25.47500
H  17.78100 0.13300 33.37500
H  17.53800 -2.93400 33.11300
H  20.07500 -1.16600 33.06600
H  19.97700 -2.71300 33.77400
H  19.13100 -1.45300 34.70000
H  15.59900 -1.98200 34.03600
H  15.10000 -0.58200 33.24200
H  15.22700 -0.95400 35.86800
H  15.24400 0.55400 35.08900
H  21.60900 -5.76400 29.75700
H  20.23800 -6.74100 29.23100
H  20.00700 -5.69500 30.64500
H  22.03900 -6.77600 27.45100
H  22.08200 -7.00000 25.72500
H  20.66700 -7.41300 26.72600
H  17.88800 -2.31200 23.56200
H  16.86800 0.37000 23.58400
H  19.21400 0.45000 23.41000
H  19.14600 -0.85100 22.23800
H  20.12200 -1.02600 23.70900
H  14.95300 -1.75800 24.60200
H  15.77400 -2.30200 23.26300
H  14.40100 -1.23500 21.82100
H  14.96000 0.32900 22.40300
H  13.61900 -0.42900 23.21100
H  13.83500 4.10900 27.93200
H  13.18600 2.84600 26.88200
H  14.74500 3.64700 26.49300
H  14.66100 1.57700 32.58200
H  17.14800 4.46900 34.41100
H  18.05700 2.99500 34.68400
H  16.73900 3.39200 35.79400
Mg 41.94200 41.26500 26.19000
C  41.05800 43.72600 28.57000
C  42.38400 39.02900 28.69500
C  43.11200 39.02800 23.91100
C  41.57900 43.57500 23.78600
N  41.78600 41.40800 28.37900
C  41.29100 42.45200 29.13900
C  41.31900 42.18000 30.71900
C  41.79300 40.65600 30.63700
C  42.04800 40.33200 29.15100
C  43.11900 40.38200 31.41000
C  39.94200 42.49200 31.43900
C  39.65700 41.73000 32.71800
H  39.15000 42.55700 33.97500
N  42.61900 39.26200 26.31400
C  42.66400 38.54500 27.43300
C  43.14700 37.16700 27.05200
C  43.38900 37.18900 25.66300
C  42.94000 38.51100 25.21700
C  43.49500 36.04200 28.06700
C  44.02900 36.13100 24.86500
O  44.28300 36.31400 23.69100
C  44.13000 34.70400 25.42900
N  42.39900 41.34100 24.22000
C  42.84100 40.30900 23.40600
C  42.82000 40.65900 21.91800
C  42.24200 42.15100 21.84300
C  42.05400 42.36700 23.36700
C  44.13800 40.61200 21.05500
C  40.91100 42.20400 21.11600
C  39.63000 41.79400 21.82900
N  41.55900 43.31500 26.16400
C  41.35700 44.10800 25.12000
C  40.85400 45.44500 25.52200
C  40.73300 45.28000 26.93600
C  41.20400 44.02200 27.22800
C  40.52000 46.62800 24.63200
C  40.29200 45.98300 28.10100
O  39.81500 47.09700 28.25700
C  40.52700 44.98800 29.24500
C  41.50700 45.68600 30.08000
O  42.61800 46.05500 29.84000
O  41.07500 45.90800 31.37500
C  42.07100 46.27400 32.38300
H  42.23200 38.33600 29.52500
H  43.42800 38.37000 23.09900
H  41.35700 44.25500 22.96000
H  42.07400 42.79500 31.20800
H  41.04400 39.99300 31.07100
H  43.78400 41.20300 31.13900
H  43.58900 39.43500 31.14700
H  43.01300 40.46500 32.49200
H  39.18400 42.42900 30.65800
H  39.95200 43.55900 31.66100
H  40.53100 41.22000 33.12200
H  38.88600 40.97100 32.58900
H  44.52400 35.72600 27.89700
H  42.74200 35.25500 28.05400
H  43.44500 36.51000 29.05000
H  44.99700 34.51400 26.06200
H  44.09900 34.01700 24.58300
H  43.15800 34.44300 25.84700
H  42.14100 40.01600 21.35900
H  43.00400 42.74600 21.33900
H  44.09000 41.26200 20.18100
H  44.35600 39.64700 20.59800
H  44.97800 40.82300 21.71800
H  41.07700 41.63200 20.20300
H  40.82600 43.22800 20.75200
H  39.31400 42.55800 22.53900
H  39.84300 40.88000 22.38300
H  39.01800 41.57900 20.95300
H  40.45000 46.32200 23.58800
H  41.26300 47.40300 24.82300
H  39.55800 46.98800 24.99800
H  39.59500 44.80500 29.78000
H  43.05000 45.83000 32.19800
H  41.69400 45.82900 33.30400
H  42.29200 47.33900 32.45900

