158

Mg -10.63400 39.24900 41.07300
C  -9.16700 36.23100 39.80600
C  -8.15900 40.88300 39.39400
C  -12.61400 41.93300 41.06000
C  -13.21400 37.21300 42.19600
N  -8.98400 38.62300 39.77900
C  -8.56600 37.36800 39.31300
C  -7.47200 37.42500 38.30700
C  -6.97200 38.84700 38.43100
C  -8.07300 39.48000 39.27800
C  -5.67800 39.04500 39.25100
C  -7.92500 36.91800 36.82100
C  -7.06000 35.91500 35.94900
H  -6.66400 36.37100 34.54000
N  -10.35900 41.20500 40.55600
C  -9.27100 41.71000 39.91000
C  -9.35500 43.13600 39.78200
C  -10.68800 43.49700 40.07900
C  -11.27100 42.20600 40.64000
C  -8.27500 44.00500 39.24700
C  -11.29000 44.91300 39.94000
O  -10.55500 45.88500 39.64800
C  -12.67100 45.16900 40.47200
N  -12.66400 39.54100 41.57500
C  -13.25400 40.79500 41.53500
C  -14.67300 40.76200 42.02100
C  -14.83400 39.26500 42.48000
C  -13.49200 38.57500 41.94800
C  -15.09400 41.73000 43.14300
C  -16.01500 38.33500 42.01000
C  -16.76000 37.52700 43.00100
N  -10.99600 37.13400 41.28300
C  -12.12400 36.49200 41.78700
C  -11.86500 35.03300 41.77100
C  -10.76100 34.89900 40.94000
C  -10.31400 36.26500 40.58600
C  -12.76700 33.89700 42.30700
C  -9.90000 33.93100 40.30700
O  -9.95700 32.68100 40.35400
C  -8.82500 34.77400 39.44800
C  -7.42300 34.32400 39.88600
O  -6.54700 34.02400 39.07600
O  -7.31800 34.18200 41.28100
C  -6.10400 33.46800 41.75800
H  -7.27900 41.28200 38.88500
H  -13.15500 42.88100 41.03700
H  -14.06600 36.60300 42.50100
H  -6.66200 36.77200 38.63200
H  -6.90400 39.38400 37.48400
H  -5.51000 38.13700 39.82900
H  -5.69700 39.88200 39.94900
H  -4.78400 39.18300 38.64300
H  -7.93800 37.82300 36.21300
H  -8.94600 36.55300 36.93700
H  -7.57300 34.97800 35.73300
H  -6.15700 35.69400 36.51900
H  -8.79300 44.78100 38.68400
H  -7.68700 43.42300 38.53700
H  -7.67600 44.57500 39.95700
H  -13.53200 44.73900 39.96100
H  -12.88000 46.23900 40.45600
H  -12.63300 44.87600 41.52100
H  -15.33400 40.89600 41.16500
H  -14.66800 39.13300 43.54900
H  -15.52100 42.60300 42.64900
H  -14.18900 42.05200 43.65800
H  -15.80100 41.34100 43.87600
H  -15.67800 37.76900 41.14200
H  -16.65100 39.07600 41.52600
H  -16.36700 36.51300 42.93100
H  -17.82800 37.49500 42.78300
H  -16.66800 37.89100 44.02400
H  -12.91900 34.07800 43.37100
H  -12.16700 32.98700 42.29100
H  -13.65900 33.68400 41.71800
H  -8.88300 34.70600 38.36200
H  -6.17600 33.16000 42.80100
H  -5.16500 34.00400 41.61900
H  -6.09800 32.60300 41.09500
Mg 0.54500 43.92000 25.71000
C  2.14900 43.79100 28.85600
C  -2.40400 42.81800 27.24800
C  -0.69800 43.68200 22.67700
C  3.83700 44.37400 24.22600
N  -0.03400 43.50400 27.79500
C  0.73200 43.62300 28.90900
C  -0.05600 43.50500 30.17600
C  -1.42700 42.94500 29.61300
C  -1.32700 43.09500 28.09800
C  -1.77000 41.45000 29.94500
C  -0.02000 44.77800 31.06400
C  0.31900 44.65100 32.60000
H  0.35800 43.20800 33.19000
N  -1.32400 43.42600 25.08100
C  -2.40000 42.96500 25.85200
C  -3.54000 42.87300 24.98200
C  -3.09500 43.12000 23.66200
C  -1.64800 43.36100 23.73100
C  -4.90500 42.44100 25.45300
C  -3.88900 43.14900 22.33200
O  -3.34200 43.47900 21.28200
C  -5.31700 42.82700 22.39100
N  1.45400 43.91200 23.63500
C  0.64100 43.95000 22.61100
C  1.44500 44.03200 21.38800
C  2.91000 44.44000 21.85200
C  2.74300 44.24700 23.35600
C  1.32000 42.74800 20.52200
C  3.33100 45.90200 21.46800
C  2.52800 47.02800 22.19700
N  2.53000 44.27500 26.36000
C  3.74600 44.32800 25.63500
C  4.84300 44.38900 26.60500
C  4.25800 44.19500 27.84300
C  2.88400 44.06600 27.67500
C  6.32800 44.48700 26.33000
C  4.56200 44.14900 29.25800
O  5.66400 44.20700 29.86700
C  3.18400 43.92900 29.95500
C  3.30500 42.62300 30.79200
O  2.95800 41.48500 30.54700
O  3.93000 43.01400 31.92400
C  4.50600 41.92000 32.79400
H  -3.35400 42.48400 27.67100
H  -1.14500 43.60500 21.68300
H  4.79200 44.64300 23.76900
H  0.46400 42.72400 30.73100
H  -2.26800 43.57400 29.90300
H  -1.74200 40.84300 29.04000
H  -2.78700 41.45100 30.33700
H  -1.06000 41.09100 30.69100
H  -1.04400 45.14200 31.14600
H  0.60000 45.53900 30.59100
H  -0.43000 45.19700 33.17400
H  1.27600 45.07300 32.90600
H  -5.64200 43.22500 25.28000
H  -5.10800 42.16400 26.48700
H  -5.20600 41.56200 24.88200
H  -5.82200 42.96600 21.43500
H  -5.71400 43.52400 23.13000
H  -5.51700 41.82600 22.77200
H  1.07900 44.89500 20.83200
H  3.69500 43.74100 21.56500
H  0.48500 42.17400 20.92300
H  2.23600 42.15700 20.48800
H  0.99700 43.00900 19.51500
H  3.23500 45.98600 20.38600
H  4.40700 45.99400 21.61300
H  1.81600 47.51800 21.53400
H  3.22400 47.83600 22.42100
H  2.05100 46.77200 23.14400
H  6.80500 45.23100 26.96800
H  6.62200 44.63000 25.29000
H  6.76900 43.54000 26.64100
H  3.02300 44.84900 30.51700
H  5.57600 41.84600 32.60000
H  4.03100 40.95500 32.61500
H  4.39500 42.17100 33.84800

