158

Mg 1.52700 -0.81600 43.58800
C  4.92600 0.06000 44.01200
C  0.99200 2.29100 42.29200
C  -1.54700 -1.90000 42.86900
C  2.53300 -4.15100 44.09000
N  2.91300 0.98400 43.02600
C  4.24800 1.19500 43.42000
C  4.69000 2.59100 43.07200
C  3.30100 3.31400 42.91100
C  2.29700 2.14500 42.63700
C  2.96300 4.21300 44.17700
C  5.56400 2.74700 41.78800
C  5.63100 1.72600 40.52500
H  5.45600 2.29300 39.09300
N  -0.05500 0.08100 42.68000
C  -0.15300 1.38300 42.23100
C  -1.57700 1.66100 41.84000
C  -2.28900 0.48000 42.05400
C  -1.29600 -0.50700 42.58800
C  -2.06000 2.97300 41.25300
C  -3.74000 0.30100 41.64600
O  -4.35400 1.20300 41.03800
C  -4.51100 -0.97900 41.90100
N  0.62000 -2.74300 43.48800
C  -0.68600 -2.92800 43.24800
C  -1.17600 -4.39900 43.40500
C  0.18400 -4.99000 43.85500
C  1.23200 -3.92600 43.69800
C  -2.42900 -4.53300 44.36200
C  0.54400 -6.28900 43.15000
C  0.95200 -7.39900 44.04100
N  3.29000 -1.85900 44.08900
C  3.55000 -3.21500 44.29000
C  4.90500 -3.39500 44.70000
C  5.55300 -2.16500 44.56200
C  4.49400 -1.29200 44.14100
C  5.56400 -4.70400 44.99700
C  6.77100 -1.38500 44.77000
O  7.88900 -1.80200 44.99200
C  6.40200 0.13100 44.46400
C  6.62400 0.96500 45.74800
O  5.69800 1.43900 46.35700
O  7.93800 1.10200 45.97600
C  8.20800 2.26700 46.80800
H  0.55500 3.26800 42.07600
H  -2.55800 -2.30500 42.79200
H  2.80600 -5.17200 44.36600
H  5.28100 3.03600 43.87300
H  3.31300 3.90800 41.99800
H  2.40700 3.61200 44.89800
H  2.36600 5.07900 43.89200
H  3.84200 4.56500 44.71600
H  6.54700 2.90900 42.23000
H  5.44400 3.68500 41.24600
H  4.97900 0.86200 40.65600
H  6.67100 1.40200 40.55900
H  -2.32400 3.04300 40.19800
H  -1.30400 3.74800 41.38100
H  -2.91200 3.25500 41.87200
H  -5.50300 -0.73500 41.52000
H  -4.47800 -1.28600 42.94600
H  -3.99800 -1.63000 41.19400
H  -1.40000 -4.68800 42.37800
H  0.10700 -5.18900 44.92300
H  -2.65600 -3.48400 44.55000
H  -2.15000 -5.09400 45.25400
H  -3.23800 -4.98400 43.78700
H  1.37900 -6.03800 42.49700
H  -0.27700 -6.54500 42.48000
H  0.84200 -7.12200 45.08900
H  1.86600 -7.94000 43.79600
H  0.12900 -8.10200 43.91000
H  6.50400 -4.75100 44.44700
H  4.92600 -5.53700 44.70100
H  5.68100 -4.72200 46.08100
H  7.11600 0.52900 43.74300
H  7.53000 2.27200 47.66100
H  8.02400 3.15700 46.20700
H  9.24000 2.32200 47.15500
Mg 35.10100 2.22400 28.97100
C  33.06800 3.59500 31.53400
C  37.72600 2.21800 31.02600
C  37.04800 1.38800 26.28800
C  32.47300 2.88400 26.71900
N  35.31300 2.93900 31.02400
C  34.39000 3.22700 31.95800
C  34.99800 3.29700 33.38100
C  36.54300 3.09300 33.07300
C  36.50200 2.72300 31.63000
C  37.37700 4.39000 33.36800
C  34.36100 2.14900 34.28200
C  33.76400 2.61200 35.57000
H  34.52000 3.71200 36.22500
N  37.06200 1.77400 28.69600
C  37.94200 1.70900 29.74600
C  39.16200 1.05200 29.31900
C  39.05900 0.86500 27.91100
C  37.64800 1.30400 27.57100
C  40.34800 0.91500 30.27300
C  40.04000 0.38400 26.84200
O  39.86100 0.41500 25.63700
C  41.32400 -0.20300 27.26500
N  34.70900 1.92500 26.87800
C  35.71400 1.64700 26.02700
C  35.15000 1.67800 24.57100
C  33.66200 2.03700 24.76600
C  33.57800 2.33000 26.20500
C  35.93100 2.71500 23.69300
C  32.62900 0.96100 24.20300
C  32.63700 -0.43400 24.85100
N  33.19200 3.09400 29.03800
C  32.25400 3.20500 28.08600
C  31.04400 3.78100 28.62400
C  31.30800 3.98300 29.98200
C  32.63200 3.50800 30.19800
C  29.77400 4.01700 28.03500
C  30.71600 4.32900 31.23700
O  29.66300 4.84100 31.51700
C  31.85700 4.06700 32.32700
C  32.10400 5.20000 33.22800
O  32.83400 6.15500 33.05800
O  31.32000 5.03300 34.31200
C  31.50100 6.01100 35.44700
H  38.52200 2.11900 31.76700
H  37.66700 1.12000 25.42900
H  31.63600 2.82700 26.02000
H  34.92700 4.27700 33.85200
H  37.04200 2.30900 33.64200
H  38.02200 4.81800 32.60100
H  37.91500 4.16400 34.28900
H  36.70600 5.19500 33.66700
H  35.00200 1.29900 34.51400
H  33.52900 1.79300 33.67500
H  33.64400 1.78700 36.27200
H  32.79200 3.04400 35.33300
H  40.85300 -0.01600 30.01500
H  39.96700 0.80500 31.28800
H  40.98000 1.80200 30.23100
H  41.88300 -0.72600 26.48900
H  41.18600 -0.89500 28.09600
H  41.99500 0.59600 27.57900
H  35.27600 0.66500 24.18900
H  33.51800 2.99600 24.26800
H  36.39200 3.35500 24.44500
H  35.22900 3.23300 23.04000
H  36.66000 2.08100 23.18800
H  32.74800 0.70600 23.15100
H  31.67000 1.47700 24.13800
H  32.66100 -1.22400 24.10100
H  31.71400 -0.58500 25.41200
H  33.52000 -0.54400 25.48100
H  29.74400 5.00000 27.56400
H  28.94900 4.15600 28.73400
H  29.43700 3.41700 27.19000
H  31.44100 3.15400 32.75300
H  30.56000 6.53600 35.60900
H  32.31200 6.69700 35.20200
H  31.77600 5.59000 36.41400

