158

Mg 40.27600 7.17000 29.14300
C  41.92500 8.73400 31.99800
C  38.29200 5.56700 31.30400
C  39.06500 5.55300 26.46100
C  42.93600 8.47400 27.23300
N  40.08300 7.30200 31.37600
C  40.89300 7.89600 32.31600
C  40.34000 7.65800 33.71000
C  39.36300 6.52000 33.51400
C  39.19700 6.44300 31.96500
C  39.90900 5.19400 34.10600
C  39.75900 8.93100 34.27700
C  39.40500 9.03800 35.74600
H  40.29500 10.06000 36.57100
N  38.71900 5.87500 28.97300
C  37.96300 5.37300 29.90500
C  36.92100 4.53600 29.33600
C  37.08500 4.69300 27.88200
C  38.35500 5.34500 27.71000
C  35.92600 3.81800 30.16500
C  36.11700 4.36300 26.69200
O  36.36300 4.47900 25.47800
C  34.81100 3.88500 27.15600
N  40.97100 6.94600 27.11500
C  40.26200 6.28300 26.22000
C  40.76700 6.52900 24.79300
C  41.94400 7.57600 25.03700
C  42.03500 7.64900 26.56800
C  41.24300 5.23800 23.94700
C  41.91300 8.96800 24.25300
C  40.91100 9.99200 24.65500
N  42.07100 8.28300 29.49900
C  43.05100 8.67000 28.60700
C  44.04000 9.41300 29.29600
C  43.62300 9.49300 30.61900
C  42.37900 8.82400 30.70200
C  45.36000 9.82800 28.81700
C  43.97800 10.01800 31.91800
O  44.93300 10.71000 32.23900
C  42.84800 9.55700 32.84800
C  43.45800 8.61800 33.84800
O  44.12900 7.63800 33.61600
O  43.40400 9.16300 35.11900
C  44.02700 8.34100 36.13700
H  37.63400 5.08400 32.02900
H  38.73400 5.09000 25.53000
H  43.60700 8.97600 26.53300
H  41.21200 7.41800 34.31800
H  38.34400 6.74000 33.83100
H  40.88100 5.28800 34.59200
H  40.07400 4.45400 33.32300
H  39.19400 4.76000 34.80500
H  38.77900 8.96900 33.80100
H  40.25800 9.83600 33.92800
H  39.55200 8.07600 36.23700
H  38.33600 9.24400 35.79400
H  36.21200 3.82200 31.21700
H  35.89100 2.75800 29.91100
H  34.92000 4.21700 30.03800
H  34.31800 4.51400 27.89700
H  35.13000 2.97000 27.65600
H  34.13300 3.63600 26.33900
H  39.93900 7.04800 24.31000
H  42.87100 7.09800 24.72100
H  40.87700 5.16200 22.92300
H  41.07400 4.28800 24.45400
H  42.32900 5.29100 23.86900
H  41.60400 8.77300 23.22500
H  42.93400 9.32000 24.39700
H  40.21500 9.64600 25.41900
H  40.35300 10.31500 23.77600
H  41.51000 10.77000 25.12900
H  45.29300 9.72200 27.73400
H  46.09300 9.15800 29.26700
H  45.65500 10.82200 29.15200
H  42.32600 10.38500 33.32800
H  43.50600 7.38300 36.14400
H  43.93300 8.72400 37.15300
H  45.11100 8.37700 36.02900
Mg 35.72000 49.59700 25.75800
C  35.30700 47.81100 28.73100
C  34.91800 52.41800 27.54500
C  35.90000 51.19300 22.85900
C  36.27500 46.52600 24.13900
N  35.01600 50.01000 27.88400
C  35.06900 49.15700 28.91800
C  34.90500 49.88800 30.28200
C  34.58900 51.31000 29.80700
C  34.88100 51.29000 28.32300
C  33.14000 51.98800 30.06100
C  36.26800 49.72300 31.00500
C  36.30800 49.58000 32.49400
H  35.07200 49.85100 33.36900
N  35.46300 51.51000 25.29300
C  35.16800 52.53400 26.12500
C  34.91700 53.75500 25.45600
C  35.21700 53.48500 24.09000
C  35.50500 51.96600 23.98800
C  34.75600 55.09700 26.21100
C  35.23000 54.55400 22.99500
O  35.64300 54.28300 21.84000
C  34.94100 56.07900 23.31200
N  35.88200 48.86400 23.69700
C  36.17000 49.80200 22.78300
C  36.55000 49.17100 21.45200
C  36.90500 47.71100 21.94700
C  36.36000 47.67600 23.35900
C  35.42300 49.27200 20.37200
C  38.41900 47.28700 21.80800
C  38.55100 45.87600 21.20200
N  35.72600 47.55000 26.26000
C  35.93000 46.46100 25.51900
C  35.99400 45.26200 26.35500
C  35.74800 45.75700 27.67100
C  35.59900 47.16900 27.56000
C  36.19600 43.81300 25.90000
C  35.59400 45.37000 29.00500
O  35.46500 44.23000 29.48800
C  35.42200 46.71600 29.79200
C  34.21100 46.47700 30.61100
O  33.07200 46.69600 30.25700
O  34.42000 45.83500 31.82600
C  33.40300 45.83700 32.86200
H  34.60500 53.30600 28.09800
H  35.99500 51.76700 21.93400
H  36.69000 45.60700 23.72200
H  34.11000 49.45000 30.88600
H  35.33600 51.97500 30.24200
H  33.24900 52.78200 30.80000
H  32.63200 51.17200 30.57400
H  32.68300 52.37200 29.14900
H  36.86300 50.59700 30.74000
H  36.76800 48.86700 30.55100
H  37.16300 50.18500 32.79500
H  36.48300 48.52000 32.67900
H  33.88200 55.74000 26.10800
H  35.65100 55.70900 26.10900
H  34.73400 54.97700 27.29400
H  35.17300 56.64000 22.40600
H  35.71200 56.31300 24.04600
H  33.94300 56.29700 23.69100
H  37.49100 49.58500 21.09000
H  36.16400 47.05300 21.49200
H  35.65500 48.84900 19.39400
H  35.25900 50.34000 20.23000
H  34.54800 48.66200 20.59500
H  39.00400 47.28900 22.72800
H  38.85600 48.00900 21.11900
H  38.63300 45.90700 20.11500
H  37.68000 45.25100 21.39900
H  39.26800 45.28000 21.76600
H  35.67800 43.51000 24.99000
H  35.78500 43.08300 26.59700
H  37.27800 43.69300 25.83900
H  36.34900 46.84000 30.35200
H  33.84000 46.28400 33.75500
H  33.06700 44.81400 33.03000
H  32.56800 46.50400 32.64600

