158

Mg 41.97100 41.15000 26.63300
C  41.04000 43.46000 28.91300
C  42.92600 39.09100 29.07700
C  42.86700 38.81000 24.26400
C  41.74400 43.50700 24.10000
N  41.90400 41.23000 28.73800
C  41.48400 42.27400 29.47300
C  41.59700 42.02600 30.91900
C  42.39100 40.66500 30.97200
C  42.50400 40.32500 29.48100
C  43.71100 40.51000 31.69900
C  40.21100 42.13600 31.65800
C  40.24800 41.48700 33.09000
H  39.70900 42.36700 34.29300
N  42.56700 39.16600 26.65500
C  42.91900 38.51600 27.79700
C  43.39700 37.10300 27.50200
C  43.27900 36.99700 26.05900
C  42.87200 38.35800 25.61700
C  43.64500 36.03300 28.59500
C  43.49100 35.67500 25.23700
O  43.61100 35.71300 24.00100
C  43.52400 34.29700 25.83000
N  42.46800 41.17600 24.42300
C  42.66000 40.05000 23.68300
C  42.49200 40.34200 22.11100
C  42.02600 41.83800 22.14900
C  42.10100 42.22900 23.62200
C  43.76700 39.98700 21.32100
C  40.58000 41.95500 21.60200
C  39.55000 41.25900 22.46000
N  41.45200 43.12400 26.48600
C  41.39200 43.95500 25.38200
C  40.76400 45.19600 25.87400
C  40.66900 45.08500 27.25200
C  41.11000 43.75900 27.58100
C  40.53900 46.45100 25.11900
C  40.42800 45.78600 28.43900
O  40.07000 47.01800 28.46600
C  40.54500 44.81200 29.59800
C  41.59200 45.29600 30.62500
O  42.69200 45.76200 30.43800
O  40.93200 45.41700 31.87900
C  41.74400 45.85100 33.03600
H  43.42300 38.56300 29.89400
H  43.02200 38.07500 23.47100
H  41.47300 44.14800 23.25900
H  42.23600 42.83600 31.26900
H  41.79700 39.87800 31.43800
H  43.96700 39.47700 31.93500
H  43.55800 41.00100 32.66000
H  44.49000 40.98800 31.10500
H  39.42900 41.73400 31.01500
H  39.93600 43.17100 31.86500
H  41.28200 41.23700 33.32500
H  39.71700 40.53500 33.13300
H  43.62200 36.48100 29.58900
H  44.69300 35.74500 28.51100
H  43.13900 35.08300 28.42200
H  44.39500 34.15200 26.46900
H  43.62300 33.51800 25.07300
H  42.50300 34.27200 26.21200
H  41.65200 39.79000 21.68900
H  42.77600 42.52600 21.75900
H  44.47600 39.62300 22.06500
H  44.08600 40.90800 20.83300
H  43.57000 39.29100 20.50600
H  40.52700 41.44100 20.64200
H  40.33900 43.00100 21.41300
H  39.32200 41.93400 23.28600
H  39.86300 40.29800 22.86800
H  38.65800 40.97400 21.90300
H  41.41700 47.08400 24.99200
H  39.88700 46.96600 25.82500
H  40.08000 46.23800 24.15400
H  39.63100 44.72700 30.18600
H  42.79500 45.60400 32.88600
H  41.31400 45.39000 33.92500
H  41.70200 46.93800 33.10900
Mg -1.18500 34.66900 26.51900
C  -2.58700 32.90600 29.37800
C  -0.09400 37.04900 28.80200
C  -0.31900 36.35400 23.91600
C  -2.79000 32.31500 24.62400
N  -1.42600 34.94100 28.90100
C  -1.88500 34.09700 29.81700
C  -1.71100 34.68700 31.22000
C  -0.87200 35.92100 30.97100
C  -0.80500 35.99200 29.43200
C  -1.45100 37.23700 31.56000
C  -1.01200 33.69400 32.16800
C  -1.56700 33.49700 33.56500
H  -0.78000 33.19500 34.85200
N  -0.29700 36.36200 26.41300
C  0.09800 37.23100 27.42000
C  0.84000 38.33800 26.82100
C  0.90400 38.15400 25.42300
C  0.06800 36.95200 25.20500
C  1.58200 39.34200 27.68400
C  1.61600 39.08100 24.39200
O  1.33200 38.96700 23.20700
C  2.42900 40.34300 24.76700
N  -1.67400 34.46200 24.54600
C  -1.08700 35.21300 23.59200
C  -1.51600 34.79900 22.19500
C  -2.08100 33.37100 22.51600
C  -2.28100 33.43500 24.00200
C  -2.55400 35.66500 21.51700
C  -1.24000 32.13000 21.99400
C  0.05600 31.75900 22.76000
N  -2.45900 32.91100 26.86400
C  -3.04700 32.15800 25.95600
C  -3.84200 31.10900 26.56500
C  -3.66800 31.36400 27.92800
C  -2.87600 32.51800 28.07700
C  -4.52300 30.04200 25.81200
C  -3.93100 30.79100 29.19600
O  -4.36300 29.67900 29.54000
C  -3.38200 31.83100 30.21100
C  -4.44900 32.48300 30.94600
O  -5.34200 33.14600 30.52000
O  -4.36000 32.10900 32.27000
C  -5.35300 32.73700 33.19900
H  0.36800 37.85200 29.38000
H  -0.06200 36.94800 23.03600
H  -3.05300 31.53400 23.90700
H  -2.67100 34.99900 31.63200
H  0.16900 35.72900 31.23200
H  -1.90500 37.82500 30.76300
H  -0.69500 37.76900 32.13700
H  -2.19200 37.02900 32.33100
H  0.02900 33.91700 32.40400
H  -0.92500 32.75500 31.62200
H  -2.39600 32.79200 33.51100
H  -2.09400 34.42800 33.77300
H  2.65900 39.26100 27.53300
H  1.31300 39.36900 28.74000
H  1.16100 40.28700 27.33900
H  1.67700 41.06500 25.08500
H  2.93600 40.69700 23.86900
H  3.15500 40.18400 25.56400
H  -0.61500 34.64000 21.60300
H  -3.06800 33.20100 22.08600
H  -2.17100 35.94100 20.53400
H  -2.54000 36.60800 22.06400
H  -3.50100 35.15300 21.34800
H  -0.72500 32.40300 21.07300
H  -1.87900 31.27400 21.77400
H  0.12700 32.30700 23.70000
H  0.97200 31.95500 22.20300
H  0.10100 30.69300 22.98300
H  -4.18000 30.05900 24.77700
H  -5.60500 30.17700 25.83400
H  -4.23500 29.12900 26.33300
H  -2.71700 31.27000 30.86800
H  -4.91700 33.30900 34.01800
H  -5.83700 31.86600 33.64000
H  -6.03600 33.42300 32.69800

