158

Mg 16.12500 50.95100 25.34900
C  17.81000 50.03400 28.23700
C  13.44400 51.79600 27.32600
C  14.23900 51.37100 22.54400
C  18.77200 49.74300 23.44700
N  15.75700 51.13600 27.53900
C  16.66500 50.75700 28.53200
C  16.19400 51.15100 29.96700
C  14.68600 51.54000 29.70400
C  14.57900 51.56200 28.12200
C  13.68400 50.63800 30.41700
C  17.04900 52.16300 30.61600
C  17.27000 51.87900 32.14800
H  16.29100 51.16400 33.09300
N  14.06000 51.54600 25.02200
C  13.13000 51.74400 25.96400
C  11.87700 52.06400 25.37700
C  12.03700 51.94800 23.95700
C  13.45700 51.55800 23.82100
C  10.76700 52.62600 26.25400
C  11.01800 52.16200 22.84600
O  11.39800 52.13900 21.67900
C  9.52100 52.31800 23.15600
N  16.44000 50.72400 23.33000
C  15.55000 51.00900 22.37200
C  16.09600 50.80700 21.00900
C  17.61200 50.33100 21.26400
C  17.66600 50.29800 22.79600
C  15.34500 49.71300 20.18300
C  18.63900 51.35600 20.71500
C  18.84600 51.38900 19.15600
N  17.88900 49.91500 25.72300
C  18.85000 49.49700 24.83900
C  19.92500 48.88500 25.60400
C  19.55200 49.02500 26.94100
C  18.31000 49.68300 26.94700
C  21.12000 48.17900 25.07700
C  19.95500 48.72200 28.32000
O  20.94600 48.15000 28.75800
C  18.85500 49.44700 29.18200
C  18.34800 48.47300 30.18100
O  17.25000 47.93000 30.19200
O  19.23100 48.49500 31.23100
C  18.72700 47.82900 32.44200
H  12.63400 51.92800 28.04700
H  13.69900 51.43500 21.59700
H  19.64000 49.51200 22.82500
H  16.24500 50.26200 30.59500
H  14.52600 52.56800 30.02800
H  13.07300 51.37800 30.93300
H  14.21300 49.95500 31.08100
H  13.02000 50.12800 29.71800
H  16.71600 53.19300 30.48500
H  18.04800 52.18600 30.17900
H  17.42400 52.88600 32.53400
H  18.16800 51.26100 32.18400
H  10.10500 53.27400 25.67900
H  11.10500 53.21400 27.10700
H  10.15400 51.88300 26.76400
H  9.16700 51.53800 23.83000
H  8.95400 52.43600 22.23300
H  9.43300 53.27100 23.67900
H  16.01000 51.79000 20.54500
H  17.84600 49.34800 20.85400
H  14.60100 49.21100 20.80100
H  16.04700 49.01200 19.73100
H  14.84100 50.12700 19.31000
H  19.62000 51.05900 21.08600
H  18.38700 52.36500 21.03800
H  18.46300 52.37700 18.90200
H  18.30400 50.53500 18.74900
H  19.91500 51.29700 18.96400
H  21.22200 48.59700 24.07600
H  21.00700 47.09600 25.13400
H  22.00800 48.46100 25.64200
H  19.24300 50.23100 29.83300
H  18.79300 46.74200 32.39500
H  17.67800 48.09800 32.56600
H  19.27100 48.17600 33.32000
Mg -10.28100 40.36500 42.35900
C  -9.03700 37.05200 41.43500
C  -7.52900 41.64900 40.87300
C  -11.80600 43.19700 42.43000
C  -13.39500 38.62100 42.93400
N  -8.58200 39.33100 41.15300
C  -8.20500 38.04300 40.96700
C  -6.91000 37.83900 40.26900
C  -6.32700 39.39400 40.29100
C  -7.56900 40.23800 40.76300
C  -5.12600 39.68200 41.26400
C  -7.09100 37.23100 38.82500
C  -6.30600 35.98800 38.44100
H  -5.29500 36.29500 37.26700
N  -9.70500 42.24300 41.82700
C  -8.51700 42.55500 41.25400
C  -8.39600 43.95900 41.22000
C  -9.64600 44.51000 41.61700
C  -10.46400 43.33000 41.94200
C  -7.10500 44.66600 40.80100
C  -10.02200 45.95700 41.75100
O  -9.28200 46.86000 41.30500
C  -11.27200 46.36900 42.47200
N  -12.29400 40.85300 42.58700
C  -12.66400 42.12900 42.68600
C  -14.08000 42.29200 43.01300
C  -14.70700 40.78100 43.05500
C  -13.40000 40.01200 42.76100
C  -14.56700 43.13500 44.29100
C  -15.76100 40.55100 41.98400
C  -16.97000 39.64600 42.43200
N  -11.08100 38.32500 42.45600
C  -12.31000 37.82700 42.79900
C  -12.22600 36.38600 42.90700
C  -10.97900 36.03000 42.38000
C  -10.31500 37.28600 42.11200
C  -13.40300 35.44600 43.29800
C  -10.10800 34.92600 41.96100
O  -10.24600 33.73800 41.96500
C  -8.81800 35.56000 41.37100
C  -7.62000 35.11200 42.18500
O  -7.21300 35.62600 43.19400
O  -7.15900 33.96400 41.62200
C  -5.94200 33.41800 42.18700
H  -6.57700 42.06300 40.53400
H  -12.39800 44.08300 42.67000
H  -14.37300 38.23600 43.23100
H  -6.14000 37.32000 40.83900
H  -5.99400 39.77800 39.32600
H  -4.88400 38.78200 41.83000
H  -5.22400 40.57600 41.88100
H  -4.29500 39.92700 40.60300
H  -6.93500 38.00900 38.07700
H  -8.13100 36.94100 38.67600
H  -6.99200 35.17500 38.20700
H  -5.87400 35.66500 39.38800
H  -7.03600 44.40100 39.74600
H  -6.26100 44.29800 41.38600
H  -7.09600 45.75000 40.91600
H  -11.41300 45.84100 43.41600
H  -11.97000 46.04500 41.70100
H  -11.30900 47.45400 42.37000
H  -14.49600 42.81900 42.15500
H  -15.08900 40.50000 44.03600
H  -14.74300 42.42100 45.09400
H  -15.46600 43.73600 44.15500
H  -13.81400 43.80800 44.70300
H  -15.35700 40.03400 41.11400
H  -16.24700 41.49400 41.73200
H  -17.90200 40.21000 42.39900
H  -16.80700 39.22400 43.42300
H  -17.04200 38.77800 41.77600
H  -14.29600 35.87000 42.83800
H  -13.46900 35.55600 44.38100
H  -13.20300 34.40300 43.05300
H  -8.76700 35.21600 40.33800
H  -5.93900 32.37400 41.87500
H  -5.81000 33.44400 43.26900
H  -5.03600 33.89500 41.81400

