158

Mg 1.82700 -2.64100 44.34800
C  5.39700 -2.47000 43.82800
C  1.60000 0.19900 42.33900
C  -1.33500 -3.32700 44.05200
C  2.38600 -5.86900 45.71600
N  3.44100 -1.26700 43.26100
C  4.83900 -1.42700 43.14000
C  5.41000 -0.36800 42.15700
C  4.17400 0.50900 41.75200
C  2.94200 -0.19400 42.50100
C  4.31800 2.03700 42.05300
C  6.27600 -1.02900 40.94100
C  7.62900 -0.43000 40.58500
H  7.68800 0.86600 39.83000
N  0.22800 -1.61600 43.51300
C  0.38400 -0.43300 42.78000
C  -0.94000 0.03000 42.43800
C  -1.91000 -0.94100 42.83400
C  -1.03100 -1.97500 43.54000
C  -1.03500 1.44200 41.87300
C  -3.39900 -0.87700 42.66300
O  -3.96800 0.04200 42.10000
C  -4.30500 -1.79900 43.30000
N  0.75100 -4.35900 44.84000
C  -0.58100 -4.34600 44.67600
C  -1.16100 -5.67200 45.16600
C  0.04700 -6.57900 45.46600
C  1.11400 -5.57400 45.34000
C  -2.28700 -5.45100 46.32800
C  0.23900 -7.79300 44.52700
C  0.65800 -9.15000 45.28900
N  3.48200 -3.83600 44.93600
C  3.57400 -5.13000 45.35800
C  4.97000 -5.49900 45.59400
C  5.65800 -4.42700 45.13500
C  4.74900 -3.49300 44.55000
C  5.44400 -6.81200 46.15600
C  7.04500 -4.03800 44.91500
O  8.02000 -4.56500 45.23000
C  6.92500 -2.78200 43.85800
C  7.68900 -1.59100 44.31700
O  7.30600 -0.64300 44.97000
O  8.98200 -1.63100 43.80300
C  9.77700 -0.43700 43.91200
H  1.51400 1.04500 41.65500
H  -2.35700 -3.67900 43.89700
H  2.55200 -6.87600 46.10300
H  6.09300 0.28400 42.70200
H  3.84600 0.48700 40.71300
H  5.33800 2.29600 42.33700
H  3.61700 2.28000 42.85100
H  3.99800 2.63200 41.19800
H  5.64200 -1.02900 40.05400
H  6.46600 -2.07800 41.16700
H  8.12200 -1.18300 39.97000
H  8.27600 -0.30100 41.45200
H  -2.07100 1.64100 41.59800
H  -0.46300 1.42000 40.94600
H  -0.54100 2.18100 42.50500
H  -5.37900 -1.65200 43.19000
H  -3.91800 -1.98400 44.30300
H  -4.13500 -2.70700 42.72100
H  -1.64800 -6.04800 44.26600
H  0.00400 -6.90800 46.50400
H  -2.67100 -4.44000 46.19000
H  -1.86300 -5.35400 47.32700
H  -3.01600 -6.25100 46.19800
H  1.05500 -7.58700 43.83400
H  -0.69900 -8.01200 44.01700
H  -0.11800 -9.91500 45.24700
H  0.84600 -9.14300 46.36200
H  1.60500 -9.44200 44.83500
H  5.57700 -6.75400 47.23600
H  6.44800 -7.02400 45.78800
H  4.71200 -7.58000 45.90900
H  7.26000 -3.07700 42.86300
H  10.32900 -0.44900 44.85200
H  9.15800 0.45500 43.82500
H  10.61300 -0.46900 43.21200
Mg 42.25400 41.11100 26.41600
C  41.63800 43.50500 28.95100
C  42.96000 38.73900 28.58800
C  43.49400 39.29400 23.76300
C  41.76400 43.82600 24.02600
N  42.52100 41.23400 28.58600
C  41.99300 42.19600 29.46100
C  41.89300 41.68000 30.94700
C  42.30400 40.18100 30.67500
C  42.54500 40.00800 29.18600
C  43.42100 39.69100 31.66400
C  40.47300 41.89100 31.58000
C  40.21900 41.18800 32.93800
H  39.48400 42.02300 34.02400
N  43.03800 39.25100 26.23400
C  43.34800 38.38100 27.27600
C  43.84200 37.15100 26.77500
C  44.04500 37.30200 25.36200
C  43.53200 38.69600 25.05400
C  44.02200 35.90100 27.62700
C  44.57200 36.33700 24.28900
O  44.77800 36.56700 23.11800
C  44.72500 34.83500 24.64200
N  42.47800 41.48600 24.24100
C  43.03100 40.55000 23.34600
C  43.00600 40.95300 21.86100
C  42.15700 42.24900 21.94300
C  42.18800 42.62300 23.49700
C  44.41900 41.13800 21.16000
C  40.70700 42.11500 21.47700
C  39.70200 40.97800 21.96300
N  41.90300 43.29600 26.39200
C  41.61500 44.19800 25.41300
C  41.15600 45.43600 25.97800
C  41.18100 45.24700 27.33900
C  41.64700 43.91100 27.56100
C  40.77300 46.72000 25.36600
C  40.95500 45.84200 28.66800
O  40.55500 46.93800 28.93500
C  41.10600 44.73700 29.70400
C  42.04000 45.18400 30.79900
O  43.28300 45.26900 30.74200
O  41.29200 45.41700 31.85100
C  41.96100 45.52700 33.13300
H  43.21200 37.90700 29.24800
H  43.68700 38.64300 22.90800
H  41.53900 44.59600 23.28500
H  42.69000 42.19800 31.48200
H  41.42400 39.57100 30.88300
H  44.35200 39.70100 31.09600
H  43.08800 38.75400 32.11100
H  43.53900 40.41100 32.47400
H  39.81000 41.48500 30.81600
H  40.18200 42.91300 31.82200
H  41.20300 40.85100 33.26500
H  39.53500 40.34900 32.80900
H  43.40600 35.13700 27.15300
H  43.84300 36.01400 28.69600
H  45.01300 35.45300 27.55500
H  45.07500 34.32300 23.74600
H  43.82400 34.50200 25.15700
H  45.44700 34.81100 25.45800
H  42.43900 40.19200 21.32400
H  42.54800 43.07700 21.35300
H  44.51300 40.39300 20.37000
H  45.03600 40.75500 21.97400
H  44.80600 42.10200 20.83000
H  40.84200 41.98900 20.40300
H  40.37700 43.11100 21.77200
H  39.96100 40.42900 22.86900
H  39.42800 40.46700 21.04100
H  38.78600 41.47800 22.27800
H  39.84700 47.07600 25.81800
H  40.50900 46.48100 24.33500
H  41.56700 47.46100 25.45600
H  40.13300 44.63400 30.18300
H  42.35100 44.52500 33.31400
H  41.43100 45.87800 34.01800
H  42.76800 46.25800 33.18500

