158

Mg 34.78400 3.04200 29.38200
C  33.11900 4.22000 32.12900
C  37.58700 2.51400 31.24300
C  36.49200 2.13300 26.52300
C  32.15900 4.06500 27.28000
N  35.31800 3.34300 31.47800
C  34.42700 3.83100 32.39600
C  35.17900 3.86300 33.78600
C  36.66600 3.53000 33.44800
C  36.53700 3.11700 31.99000
C  37.68500 4.72800 33.48800
C  34.51300 2.98600 34.86300
C  34.01800 3.74700 36.14100
H  35.00600 4.67700 36.82900
N  36.72500 2.40700 28.92700
C  37.67700 2.20700 29.87200
C  38.93400 1.78700 29.24100
C  38.63800 1.67100 27.86100
C  37.23700 2.03700 27.73500
C  40.15400 1.46500 30.03600
C  39.49500 1.18300 26.63800
O  39.02600 0.97400 25.56200
C  40.91700 0.84300 26.84500
N  34.36300 2.99900 27.19700
C  35.33200 2.72300 26.29100
C  34.73300 2.94900 24.81400
C  33.28500 3.44200 25.09100
C  33.22500 3.49700 26.61200
C  35.58700 4.02900 24.03000
C  32.16500 2.53000 24.36900
C  31.45500 1.44100 25.17300
N  33.02200 3.84200 29.61700
C  32.06600 4.22400 28.72200
C  30.92100 4.58600 29.42300
C  31.26700 4.54500 30.71400
C  32.60000 4.12300 30.81400
C  29.58100 4.96100 28.95500
C  30.80400 4.83300 32.05300
O  29.69000 5.25300 32.43500
C  32.00400 4.68200 33.06800
C  32.27800 6.10200 33.52800
O  33.02500 6.88400 33.02100
O  31.58400 6.30300 34.68300
C  31.98700 7.50000 35.47800
H  38.45700 2.51800 31.90400
H  36.99800 1.92500 25.57800
H  31.27300 4.32200 26.69600
H  35.05300 4.91300 34.05200
H  36.90800 2.62700 34.00800
H  37.09800 5.64500 33.43700
H  38.24400 4.74400 32.55200
H  38.30100 4.68900 34.38600
H  35.15000 2.18900 35.24600
H  33.67300 2.54000 34.32900
H  33.59200 2.98500 36.79500
H  33.15700 4.39300 35.96500
H  41.04400 2.04200 29.78400
H  40.34700 0.40500 29.87600
H  40.01800 1.51500 31.11700
H  41.42500 1.73100 27.22100
H  41.36900 0.49300 25.91700
H  40.98600 0.01000 27.54400
H  34.84700 1.96900 24.35100
H  33.13300 4.49000 24.83400
H  36.66300 3.96500 24.18800
H  35.26700 4.99100 24.43100
H  35.39400 3.93200 22.96100
H  32.56100 2.10900 23.44500
H  31.41100 3.17100 23.91200
H  30.42900 1.70900 25.42400
H  31.97200 1.18900 26.09900
H  31.38000 0.49600 24.63400
H  29.86400 5.65500 28.16300
H  28.95300 5.47100 29.68500
H  29.18700 4.00600 28.60600
H  31.95200 3.94600 33.87000
H  32.31700 8.24600 34.75400
H  32.72800 7.44500 36.27600
H  31.10400 8.00000 35.87500
Mg 48.48900 35.20300 27.20200
C  46.87900 33.52000 29.59300
C  48.53400 37.94900 29.36000
C  50.03900 37.02200 24.92100
C  48.40400 32.40200 25.10700
N  47.88400 35.65800 29.19600
C  47.33300 34.75200 30.00300
C  47.19600 35.22000 31.50000
C  47.34500 36.77300 31.30200
C  47.92600 36.78800 29.82300
C  46.02300 37.49600 31.46900
C  48.23700 34.45100 32.41000
C  48.93700 35.16100 33.55600
H  48.03800 35.94800 34.55400
N  49.03300 37.26400 27.10100
C  49.05300 38.22900 28.10800
C  49.66800 39.46800 27.61300
C  50.03600 39.24300 26.25100
C  49.80600 37.74100 26.04700
C  49.72200 40.78400 28.40200
C  50.61400 40.17600 25.20300
O  50.91700 39.90000 24.07100
C  50.80100 41.67300 25.63500
N  49.06100 34.84600 25.23200
C  49.77100 35.77000 24.52900
C  50.32300 35.15700 23.19200
C  49.88200 33.64300 23.34400
C  49.04600 33.60100 24.61400
C  49.84300 35.82600 21.92700
C  51.13600 32.70700 23.37900
C  51.02200 31.34500 22.81700
N  47.81900 33.33500 27.26800
C  47.78000 32.30500 26.35400
C  47.00600 31.19000 26.89000
C  46.57800 31.62400 28.14400
C  47.12000 32.93000 28.38100
C  46.68100 29.88900 26.21000
C  45.83600 31.17900 29.31700
O  45.26800 30.12900 29.59600
C  45.83500 32.53900 30.19500
C  45.96200 32.19500 31.61200
O  46.77900 31.40700 32.05400
O  44.95200 32.78900 32.34000
C  44.79700 32.54300 33.77600
H  48.55300 38.77000 30.07900
H  50.72800 37.52500 24.24000
H  48.43700 31.43700 24.59600
H  46.18000 34.94400 31.78300
H  48.11400 37.20000 31.94500
H  46.23600 38.48200 31.05800
H  45.70900 37.77400 32.47500
H  45.19900 36.94900 31.01000
H  48.95600 33.92400 31.78300
H  47.80800 33.58300 32.91000
H  49.60900 35.85600 33.05300
H  49.66700 34.51000 34.03800
H  50.77100 41.06000 28.50800
H  49.46300 40.59100 29.44300
H  49.22900 41.64600 27.95100
H  49.85500 42.11800 25.94200
H  51.23200 42.23400 24.80600
H  51.57200 41.57700 26.40000
H  51.40300 35.29800 23.24700
H  49.16700 33.24900 22.62100
H  49.47300 35.09400 21.20900
H  50.71000 36.26800 21.43700
H  49.20100 36.65000 22.23900
H  51.40800 32.56100 24.42500
H  51.88600 33.20200 22.76300
H  50.02100 31.20800 22.40800
H  51.02000 30.61400 23.62600
H  51.80900 31.12900 22.09400
H  47.65400 29.53000 25.87600
H  45.97600 30.15400 25.42200
H  46.25600 29.11200 26.84600
H  44.85300 32.99700 30.07400
H  43.85300 32.02400 33.94100
H  44.69400 33.45700 34.36100
H  45.65300 31.97100 34.13400

