158

Mg 43.97400 5.76000 46.38000
C  41.98200 8.81900 46.08500
C  41.12000 4.05700 45.53300
C  45.93100 3.25800 46.00700
C  46.79000 7.98400 46.53700
N  41.78000 6.39900 46.01300
C  41.17200 7.68400 45.86400
C  39.69100 7.59000 45.54200
C  39.40100 6.05300 45.55200
C  40.86100 5.42300 45.75500
C  38.34400 5.62000 46.62800
C  39.39200 8.29300 44.18800
C  40.46300 8.03700 43.05800
H  40.09800 8.17000 41.57300
N  43.61700 3.87200 46.00900
C  42.35600 3.30300 45.64000
C  42.49100 1.87800 45.53100
C  43.88800 1.57300 45.73800
C  44.60900 2.91700 45.95700
C  41.38700 0.95100 45.02000
C  44.56800 0.18100 45.58900
O  43.95200 -0.78300 45.21500
C  45.90000 -0.08800 46.03100
N  46.14300 5.67800 46.32200
C  46.64000 4.45700 46.24100
C  48.14900 4.50800 46.35300
C  48.43600 6.07300 46.55300
C  47.04600 6.65600 46.53300
C  48.82800 3.70900 47.45500
C  49.56400 6.57400 45.61500
C  50.92300 6.91300 46.26200
N  44.35500 7.85500 46.24100
C  45.56400 8.60000 46.45900
C  45.36600 10.02200 46.47100
C  43.91400 10.16700 46.33200
C  43.37000 8.79900 46.24300
C  46.40100 11.13000 46.73800
C  42.82100 11.12300 46.36500
O  42.89400 12.34100 46.48900
C  41.51000 10.25100 46.11200
C  40.58400 10.46100 47.28400
O  40.82000 10.04000 48.39900
O  39.38300 11.10700 46.95900
C  38.34500 11.24600 47.95500
H  40.23800 3.52700 45.16800
H  46.67200 2.46300 45.90100
H  47.71200 8.56900 46.49400
H  39.06500 8.04400 46.31000
H  38.94300 5.65800 44.64500
H  38.02500 6.47400 47.22600
H  38.72800 4.82700 47.27000
H  37.43400 5.18100 46.21900
H  39.38400 9.35600 44.43200
H  38.55600 7.92200 43.59500
H  40.97100 7.09100 43.24100
H  41.12400 8.88400 43.24600
H  41.61800 0.69500 43.98600
H  40.39600 1.37300 45.18800
H  41.51600 0.03400 45.59400
H  45.98600 -1.17100 46.12100
H  46.21700 0.29800 47.00000
H  46.56100 0.24600 45.23100
H  48.47100 4.14800 45.37500
H  48.84600 6.22200 47.55200
H  48.14300 3.67600 48.30200
H  49.70900 4.26700 47.77400
H  49.13500 2.74900 47.03900
H  49.16800 7.46400 45.12700
H  49.72500 5.75100 44.91900
H  51.20800 7.96000 46.15400
H  51.73300 6.29200 45.88100
H  50.90000 6.66200 47.32200
H  46.06500 12.06800 46.29800
H  47.29100 10.84200 46.17800
H  46.63700 11.24000 47.79600
H  40.97200 10.56600 45.21800
H  38.06200 12.23700 48.31200
H  38.64800 10.75300 48.87800
H  37.36900 10.87700 47.63900
Mg 17.14400 51.99800 25.36600
C  18.94000 50.42000 27.98500
C  14.83800 53.09700 27.54500
C  15.29800 53.01200 22.77900
C  19.45800 50.37700 23.14800
N  16.92800 51.73800 27.56700
C  17.79200 51.06200 28.41400
C  17.43200 51.37700 29.89300
C  15.94600 52.09300 29.64000
C  15.89400 52.32900 28.16900
C  14.65600 51.36000 30.29000
C  18.43500 52.18800 30.67900
C  18.46000 52.04000 32.18900
H  17.37600 51.21900 32.86500
N  15.33200 52.97600 25.21200
C  14.56600 53.47500 26.17500
C  13.42400 54.19700 25.60100
C  13.51700 54.11000 24.15500
C  14.71800 53.31900 23.99100
C  12.31100 54.76600 26.56900
C  12.54600 54.74300 23.13300
O  12.66000 54.55800 21.94400
C  11.53800 55.65600 23.60900
N  17.44200 51.71300 23.33600
C  16.49400 52.27500 22.45600
C  16.86300 51.81900 20.98700
C  18.35500 51.28900 21.09800
C  18.45400 51.19500 22.58000
C  15.81900 50.71100 20.66900
C  19.44000 52.20000 20.50200
C  20.07600 53.33900 21.31000
N  18.90200 50.72500 25.46300
C  19.68900 50.16400 24.50000
C  20.80100 49.45200 25.08400
C  20.51300 49.48300 26.46600
C  19.33600 50.19700 26.60200
C  21.92900 48.72100 24.29300
C  20.96900 49.10100 27.82800
O  21.98200 48.50200 28.10300
C  19.99800 49.76800 28.77500
C  19.61500 48.80400 29.83400
O  18.80200 47.89100 29.74000
O  20.26500 49.06200 30.98300
C  19.79700 48.19600 32.10600
H  14.11100 53.45200 28.27800
H  14.72700 53.36600 21.91800
H  20.20700 49.92300 22.49700
H  17.34300 50.47500 30.49800
H  15.90400 53.05600 30.14900
H  14.18100 51.00900 29.37300
H  13.98800 51.99200 30.87500
H  15.04800 50.58200 30.94400
H  18.20000 53.23400 30.48300
H  19.35600 52.06700 30.10800
H  18.47700 53.03000 32.64400
H  19.39200 51.53800 32.44800
H  12.58200 55.78200 26.85600
H  12.35800 54.21800 27.50900
H  11.34300 54.65500 26.07800
H  10.78500 55.11900 24.18500
H  11.10600 56.16200 22.74600
H  12.03700 56.36500 24.26900
H  16.79200 52.69200 20.33800
H  18.33800 50.29800 20.64600
H  15.24000 50.96000 19.77900
H  15.14500 50.39600 21.46500
H  16.29500 49.78400 20.34900
H  19.11100 52.64200 19.56100
H  20.13100 51.47900 20.06500
H  21.10000 53.10000 21.59800
H  19.50200 53.61400 22.19500
H  20.20900 54.24700 20.72100
H  22.16200 49.15600 23.32100
H  21.74800 47.65900 24.12800
H  22.76900 48.94800 24.95000
H  20.59400 50.60100 29.14900
H  19.86000 48.80000 33.01200
H  20.40000 47.28800 32.11700
H  18.77900 47.81300 32.03300

