158

Mg 25.97100 0.41300 29.80000
C  27.70300 0.18800 32.74900
C  23.04500 0.68700 31.43400
C  24.48900 0.48800 26.78800
C  29.08100 -0.30000 28.04500
N  25.49300 0.43500 31.83000
C  26.29500 0.39800 32.87200
C  25.51600 0.71000 34.22800
C  24.06300 0.54600 33.76400
C  24.17900 0.54300 32.25200
C  23.42100 -0.83500 34.22100
C  25.98500 2.12200 34.73500
C  26.68900 2.15700 36.05300
H  26.22000 3.28500 37.09200
N  24.07400 0.44200 29.18800
C  22.92600 0.57600 29.98700
C  21.70900 0.58700 29.22600
C  22.19200 0.41000 27.85500
C  23.66500 0.50500 27.87100
C  20.32800 0.65000 29.87400
C  21.30800 0.31800 26.55900
O  21.76700 0.21800 25.42100
C  19.79000 0.37400 26.77700
N  26.75900 0.17000 27.67200
C  25.82400 0.18800 26.65000
C  26.58300 0.19900 25.34000
C  28.08100 -0.06000 25.70500
C  28.04700 -0.01100 27.22300
C  26.04700 -0.99100 24.52800
C  29.16200 0.88300 25.21100
C  28.90600 1.57100 23.90800
N  27.93900 -0.01100 30.28000
C  29.05200 -0.34400 29.50200
C  30.24500 -0.40300 30.37100
C  29.76600 -0.10400 31.66500
C  28.36900 0.04100 31.55900
C  31.57800 -0.70000 29.86300
C  30.15300 0.11500 33.04400
O  31.27200 0.21800 33.53300
C  28.85800 0.29200 33.80400
C  28.91900 -0.67900 34.90200
O  28.57100 -1.82400 34.74000
O  29.29400 -0.16800 36.11800
C  29.18200 -0.91400 37.37400
H  22.15500 0.76300 32.06100
H  24.12000 0.64400 25.77200
H  30.01400 -0.52200 27.52300
H  25.80900 -0.04300 34.96000
H  23.45300 1.33600 34.20200
H  22.94300 -0.63000 35.17900
H  24.24000 -1.51900 34.44500
H  22.73600 -1.40100 33.59000
H  25.06700 2.69700 34.85600
H  26.64200 2.52400 33.96400
H  27.77200 2.23600 35.95100
H  26.47700 1.21300 36.55600
H  20.28500 0.10500 30.81700
H  19.55400 0.09300 29.34700
H  19.97800 1.67300 30.00700
H  19.40900 -0.41000 27.43100
H  19.33300 0.28400 25.79100
H  19.50800 1.35500 27.15800
H  26.26900 1.06200 24.75300
H  28.38900 -1.09500 25.55700
H  25.32800 -1.56100 25.11600
H  26.85600 -1.62400 24.16200
H  25.44700 -0.64800 23.68500
H  30.10900 0.34500 25.17000
H  29.33300 1.61300 26.00300
H  29.69800 1.18300 23.26600
H  29.10900 2.63800 24.00300
H  27.95000 1.47300 23.39400
H  31.67600 -1.63600 29.31300
H  32.23200 -0.83300 30.72500
H  31.76200 0.08300 29.12800
H  28.83800 1.28600 34.25200
H  28.83600 -1.92800 37.17600
H  28.58400 -0.31900 38.06400
H  30.11800 -1.07300 37.91100
Mg 37.05200 49.57300 24.96200
C  37.39800 47.66800 27.89600
C  35.61300 52.05700 26.85700
C  36.18400 51.02600 22.06000
C  38.16100 46.79600 23.16400
N  36.62400 49.89500 27.17100
C  36.86800 48.95800 28.17800
C  36.58000 49.59300 29.53600
C  36.00000 51.04000 29.18100
C  36.07300 51.02300 27.64100
C  34.52500 51.39900 29.65700
C  37.83600 49.59200 30.47900
C  37.69800 48.88000 31.86300
H  36.48700 49.24500 32.74400
N  36.15600 51.36500 24.51000
C  35.65900 52.24200 25.42700
C  35.02100 53.37100 24.72800
C  35.25300 53.14700 23.31200
C  35.86400 51.81800 23.22500
C  34.40300 54.46400 25.44100
C  34.81300 53.96800 22.14900
O  35.12200 53.66400 20.97100
C  34.03600 55.24000 22.38200
N  37.20000 49.04500 22.89600
C  36.94200 49.89300 21.88000
C  37.14000 49.14200 20.48600
C  38.02800 47.96000 20.89700
C  37.80400 47.92700 22.41000
C  35.90900 48.81400 19.67200
C  39.50100 48.04800 20.51000
C  40.02500 46.75200 19.81900
N  37.55300 47.59900 25.36600
C  38.04500 46.60800 24.59400
C  38.48300 45.46800 25.36100
C  38.16900 45.83000 26.69600
C  37.73400 47.17300 26.64100
C  39.04800 44.26200 24.77500
C  38.23000 45.36700 28.05100
O  38.44500 44.30000 28.58200
C  37.81200 46.60700 28.88200
C  36.73700 46.21900 29.78800
O  35.55400 46.47800 29.62800
O  37.11900 45.47500 30.87500
C  36.06700 45.19900 31.90200
H  35.09200 52.80200 27.46200
H  35.91400 51.46500 21.09800
H  38.66100 46.09900 22.48900
H  35.77300 49.08800 30.06600
H  36.61100 51.81500 29.64400
H  34.45700 52.41400 30.05000
H  34.33000 50.80900 30.55300
H  33.78900 51.21000 28.87600
H  38.08200 50.65200 30.53100
H  38.58200 49.02800 29.92000
H  38.63400 49.04300 32.39800
H  37.65300 47.80900 31.66000
H  34.12700 54.30500 26.48300
H  33.48400 54.80100 24.96100
H  35.13900 55.26600 25.39100
H  34.30800 55.86200 23.23500
H  32.97800 55.14000 22.62700
H  34.10600 55.79300 21.44600
H  37.69800 49.84700 19.87000
H  37.55000 47.05400 20.52400
H  35.04000 49.41900 19.93200
H  35.55200 47.78600 19.60900
H  36.20800 48.97400 18.63600
H  40.07900 48.27300 21.40600
H  39.60900 48.72800 19.66500
H  39.33300 45.91200 19.88200
H  40.87100 46.48600 20.45300
H  40.23700 46.92400 18.76400
H  38.19600 43.61000 24.58800
H  39.57400 43.85900 25.64100
H  39.59300 44.39700 23.84100
H  38.75600 46.81000 29.38600
H  35.13000 44.72500 31.61100
H  35.70600 46.17900 32.21200
H  36.44000 44.58000 32.71900

