158

Mg 7.15700 53.00800 41.40000
C  6.62600 49.67100 40.53500
C  10.32900 52.66200 40.24700
C  7.33300 56.30800 41.57300
C  3.92300 53.18100 42.75100
N  8.23700 51.40800 40.43300
C  7.89100 50.10500 40.20100
C  9.02900 49.24100 39.52400
C  10.27500 50.12200 39.92700
C  9.58200 51.52400 40.31900
C  11.05700 49.48300 41.11100
C  8.90400 49.01000 37.97600
C  8.63700 50.24200 37.09500
H  7.26300 50.17600 36.31100
N  8.56300 54.37300 40.86200
C  9.83700 54.01400 40.36700
C  10.59500 55.24400 40.24300
C  9.78900 56.27400 40.59100
C  8.52300 55.71200 41.06800
C  11.95800 55.28700 39.63400
C  10.22000 57.73300 40.70900
O  11.35600 58.02100 40.31700
C  9.31300 58.88900 41.26700
N  5.77900 54.51700 42.04700
C  6.17300 55.82200 42.02100
C  5.03300 56.77200 42.48100
C  4.12100 55.67500 43.16000
C  4.63300 54.36900 42.66300
C  5.38700 57.93600 43.46000
C  2.60900 55.95200 43.05000
C  1.85800 55.85100 41.75200
N  5.60500 51.69100 41.74400
C  4.34800 51.86900 42.33700
C  3.66600 50.61500 42.41600
C  4.53400 49.74000 41.67400
C  5.67400 50.41400 41.29400
C  2.32900 50.31100 42.96100
C  4.59500 48.37400 41.10600
O  3.73900 47.50800 41.17100
C  5.96900 48.28900 40.39300
C  5.75300 47.78700 39.00900
O  5.04600 48.34900 38.15800
O  6.43000 46.52900 38.89100
C  5.76300 45.78200 37.85800
H  11.38700 52.52500 40.01600
H  7.41500 57.39300 41.66800
H  2.98900 53.20700 43.31600
H  8.91600 48.26800 40.00300
H  10.81400 50.36300 39.01100
H  10.60800 48.54300 41.43200
H  11.03300 50.21500 41.91900
H  12.13700 49.36500 41.01200
H  8.08100 48.30000 37.89300
H  9.86900 48.66700 37.60400
H  9.42700 50.31000 36.34600
H  8.53500 51.17700 37.64600
H  12.09100 56.10200 38.92200
H  12.20600 54.48300 38.94100
H  12.75800 55.27200 40.37400
H  8.95100 58.63500 42.26300
H  8.51100 58.98100 40.53500
H  9.95200 59.77200 41.25700
H  4.48600 57.16600 41.62500
H  4.43400 55.56600 44.19900
H  6.45300 57.91300 43.68400
H  4.85300 57.89200 44.40900
H  5.04700 58.82000 42.92100
H  2.38200 56.90600 43.52500
H  2.15600 55.20300 43.69900
H  2.50000 55.68000 40.88800
H  1.41300 56.79100 41.42500
H  1.15000 55.03800 41.91100
H  1.94600 51.17000 43.51100
H  2.22900 49.46600 43.64300
H  1.81400 50.10500 42.02200
H  6.66400 47.60900 40.88600
H  6.22400 44.79600 37.91000
H  6.10800 46.24100 36.93100
H  4.69500 45.58500 37.94700
Mg -6.77000 24.91900 25.47800
C  -5.06100 26.26200 28.16900
C  -8.45300 22.71000 27.66100
C  -7.95400 23.23500 22.82100
C  -4.73000 26.76300 23.32100
N  -6.82100 24.58300 27.70500
C  -6.09800 25.37500 28.52000
C  -6.47600 24.93400 30.04700
C  -7.36000 23.60600 29.82700
C  -7.61100 23.66500 28.36100
C  -6.70500 22.20000 30.15800
C  -7.23100 26.01400 30.84700
C  -7.00300 25.99200 32.29900
H  -6.27400 24.79500 32.97300
N  -8.20700 23.37300 25.22500
C  -8.75200 22.60400 26.24800
C  -9.72100 21.68400 25.65800
C  -9.54500 21.79300 24.22500
C  -8.50700 22.79800 24.05100
C  -10.64100 20.78000 26.51700
C  -10.16800 20.96100 23.13400
O  -9.92400 20.99100 21.92100
C  -11.04900 19.79900 23.60400
N  -6.42000 25.03700 23.40800
C  -7.04000 24.27000 22.51900
C  -6.38700 24.32300 21.11800
C  -5.52400 25.59100 21.25700
C  -5.61700 25.87700 22.75100
C  -5.62000 23.03200 20.64600
C  -5.93600 26.82600 20.35700
C  -4.97200 27.26600 19.26100
N  -5.12400 26.16400 25.66800
C  -4.50500 26.98000 24.74000
C  -3.46300 27.74600 25.37200
C  -3.63300 27.50000 26.73000
C  -4.64800 26.51600 26.80600
C  -2.45700 28.73000 24.75000
C  -3.11700 27.73900 28.03900
O  -2.20900 28.47400 28.39100
C  -4.04000 26.98200 29.01000
C  -3.24200 26.03700 29.81100
O  -2.81700 24.96800 29.39600
O  -2.97300 26.47100 31.07600
C  -2.11200 25.80600 32.00700
H  -9.01300 22.03300 28.30900
H  -8.34700 22.74900 21.92600
H  -4.23500 27.43000 22.61200
H  -5.51400 24.64300 30.46900
H  -8.31300 23.72400 30.34100
H  -5.69000 22.48700 30.43500
H  -6.55000 21.62000 29.24800
H  -7.13000 21.65800 31.00300
H  -8.30300 26.03900 30.65500
H  -6.84600 26.98900 30.54800
H  -7.99100 26.14600 32.73100
H  -6.41400 26.84300 32.64000
H  -11.03000 21.52800 27.20800
H  -10.10700 20.01200 27.07700
H  -11.49600 20.34400 26.00100
H  -11.22400 19.03000 22.85100
H  -12.01900 20.19700 23.90100
H  -10.58500 19.19600 24.38500
H  -7.11200 24.67200 20.38400
H  -4.49900 25.25400 21.10400
H  -5.92200 22.80800 19.62200
H  -6.06800 22.23200 21.23400
H  -4.55100 23.17700 20.80300
H  -6.08400 27.62300 21.08600
H  -6.81100 26.61600 19.74100
H  -3.95400 27.09900 19.61000
H  -4.93700 28.32700 19.01100
H  -5.03400 26.71500 18.32300
H  -2.16000 28.24700 23.81900
H  -1.51400 28.79300 25.29300
H  -2.96400 29.67500 24.55700
H  -4.59600 27.68000 29.63600
H  -2.48900 26.11500 32.98200
H  -1.03300 25.94700 31.94600
H  -2.39800 24.75800 31.91100

