158

Mg 0.98700 8.06600 26.80800
C  1.46700 9.89600 29.83800
C  0.30700 5.31900 28.64100
C  0.42700 6.64900 23.95000
C  1.82500 11.17900 25.05600
N  0.91800 7.67100 28.98000
C  0.99800 8.51400 30.01300
C  0.59100 7.85800 31.32300
C  0.86700 6.35600 30.98700
C  0.75700 6.40900 29.43300
C  2.23600 5.82200 31.42600
C  -0.84600 8.11700 31.77600
C  -1.20500 8.49100 33.31800
H  -0.03500 8.48200 34.28600
N  0.47400 6.24900 26.39700
C  0.11600 5.25500 27.23800
C  -0.46500 4.14000 26.52200
C  -0.43500 4.50100 25.21000
C  0.12300 5.84200 25.15300
C  -0.92600 2.79200 27.05000
C  -0.89600 3.70100 23.95000
O  -0.70600 4.19800 22.89600
C  -1.61400 2.36800 24.04400
N  1.25200 8.79300 24.77800
C  0.95500 7.95900 23.78800
C  1.44400 8.50300 22.43200
C  1.45100 10.02300 22.78400
C  1.57700 10.00500 24.31300
C  2.90300 7.83700 22.09000
C  0.14600 10.69200 22.45400
C  0.20100 12.23100 22.10900
N  1.75500 10.06600 27.23000
C  2.06200 11.12500 26.47700
C  2.47700 12.29300 27.28200
C  2.17400 11.84300 28.62200
C  1.82800 10.50600 28.52400
C  2.86900 13.69000 26.68600
C  2.21500 12.27200 29.96400
O  2.53400 13.36000 30.35500
C  1.61300 11.01400 30.83200
C  2.63600 10.81300 31.92800
O  3.68400 10.20400 31.85000
O  2.17400 11.41900 33.07300
C  3.19600 11.52800 34.12600
H  0.20500 4.42600 29.26100
H  0.48600 6.17300 22.96900
H  1.96300 12.12800 24.53300
H  1.20000 8.28000 32.12200
H  0.04100 5.78300 31.40900
H  2.96900 6.58100 31.70000
H  2.57500 5.35400 30.50200
H  2.19600 5.14100 32.27600
H  -1.43300 7.22300 31.56200
H  -1.22500 8.82000 31.03400
H  -2.05400 7.85400 33.56600
H  -1.49800 9.52900 33.16200
H  -1.86600 2.42000 26.64100
H  -0.98100 2.74800 28.13700
H  -0.23900 1.98100 26.80500
H  -1.09100 1.74100 24.76500
H  -1.73400 1.87100 23.08100
H  -2.53300 2.66800 24.54800
H  0.81100 8.19700 21.59800
H  2.28200 10.44700 22.21900
H  3.51600 8.12700 22.94300
H  3.27200 8.46800 21.28100
H  2.66700 6.80200 21.84200
H  -0.50200 10.54400 23.31800
H  -0.25000 10.23500 21.54700
H  1.16500 12.60200 21.76200
H  0.01500 12.83300 22.99800
H  -0.49100 12.53000 21.32100
H  2.11000 14.05300 25.99300
H  3.77800 13.63200 26.08700
H  3.09700 14.39100 27.48900
H  0.62300 11.19200 31.25000
H  3.45600 12.58700 34.14800
H  4.13100 11.03700 33.85800
H  2.84000 11.09500 35.06100
Mg 10.11500 48.24100 25.38000
C  7.94200 48.64600 27.92500
C  12.73300 49.14400 27.44800
C  12.22400 47.65400 22.76900
C  7.45300 47.76600 23.05000
N  10.28300 48.66900 27.45400
C  9.25300 48.62400 28.38500
C  9.78800 48.63900 29.84100
C  11.26100 49.22900 29.56600
C  11.50800 49.02300 28.08600
C  11.57400 50.67400 30.00900
C  9.64000 47.23000 30.53900
C  10.40000 47.10300 31.83600
H  9.59600 46.61500 33.04600
N  12.18700 48.38100 25.14100
C  13.03400 48.71700 26.13300
C  14.42300 48.67600 25.61500
C  14.28800 48.12800 24.29100
C  12.85900 48.01900 24.01900
C  15.72000 48.96000 26.39300
C  15.36100 47.56700 23.36200
O  15.21300 46.95300 22.31600
C  16.74900 47.76200 23.71500
N  9.86600 47.83400 23.16300
C  10.90300 47.67000 22.31400
C  10.44800 47.10200 20.97500
C  8.94500 46.90100 21.22300
C  8.70400 47.55400 22.55600
C  10.74000 47.90200 19.72600
C  8.38900 45.47200 21.11700
C  8.82700 44.46400 22.26100
N  8.12100 48.46100 25.41300
C  7.14800 48.22100 24.45200
C  5.80900 48.36200 24.97300
C  6.07900 48.61600 26.36100
C  7.48500 48.60300 26.55300
C  4.47000 48.23000 24.27400
C  5.53300 48.76300 27.65700
O  4.37800 48.88100 28.01000
C  6.65100 48.72100 28.73100
C  6.24200 47.51700 29.61500
O  6.18600 46.37300 29.19400
O  5.96300 47.91700 30.93900
C  5.69200 46.83600 31.85800
H  13.51000 49.43200 28.16000
H  12.90900 47.42700 21.95000
H  6.66200 47.55900 22.32600
H  9.14700 49.29000 30.43600
H  11.96500 48.67000 30.18300
H  11.92400 51.33700 29.21800
H  12.22300 50.66100 30.88500
H  10.65000 51.19000 30.27100
H  10.05300 46.48000 29.86500
H  8.56800 47.06400 30.64500
H  10.76300 48.10300 32.07100
H  11.19600 46.40000 31.59000
H  15.58300 49.29600 27.42100
H  16.30200 49.77400 25.96200
H  16.33000 48.05700 26.40500
H  16.82700 48.78600 24.07900
H  17.39700 47.73600 22.84000
H  17.06000 47.05800 24.48700
H  10.90900 46.13200 20.78900
H  8.32500 47.46600 20.52700
H  11.36900 48.68500 20.15000
H  9.87300 48.47300 19.39300
H  11.31500 47.38200 18.95900
H  8.59800 45.27600 20.06500
H  7.30700 45.57200 21.20600
H  7.90100 43.98200 22.57600
H  9.39300 45.00600 23.01800
H  9.43500 43.72400 21.74000
H  4.12600 47.19800 24.21200
H  4.56300 48.72800 23.30900
H  3.64800 48.75600 24.75800
H  6.64600 49.61900 29.34900
H  6.06800 47.09800 32.84700
H  6.11500 45.87800 31.55500
H  4.61300 46.68600 31.88300

