158

Mg 49.91200 46.56900 43.59400
C  46.76300 46.90900 42.05900
C  50.26500 43.45600 41.92700
C  53.33300 46.80500 43.93500
C  49.58700 49.91000 44.51500
N  48.64200 45.38200 42.16500
C  47.38500 45.70300 41.71100
C  46.76900 44.53600 40.85400
C  47.97000 43.49500 40.92100
C  49.04000 44.15000 41.76900
C  47.68900 42.00800 41.45600
C  46.30100 44.94200 39.41500
C  44.87400 44.58600 39.07200
H  44.71900 43.38800 38.11300
N  51.53800 45.28600 43.07700
C  51.50500 44.05700 42.44900
C  52.75000 43.39100 42.44500
C  53.68600 44.34300 42.89200
C  52.87700 45.56600 43.37800
C  53.07900 42.08500 41.72400
C  55.14100 44.16400 42.92300
O  55.74000 43.11500 42.63100
C  56.10700 45.28200 43.34300
N  51.23700 48.00400 44.22600
C  52.58300 47.93600 44.26900
C  53.24800 49.21900 44.85300
C  51.99100 50.09200 45.12600
C  50.86800 49.26500 44.59100
C  54.11900 48.89600 46.11600
C  52.11500 51.50500 44.47300
C  51.72500 52.73600 45.38800
N  48.30900 48.05800 43.61600
C  48.37900 49.41200 43.99800
C  47.13500 50.06300 43.73200
C  46.48600 49.12400 42.88800
C  47.27800 47.98000 42.85600
C  46.62300 51.35800 44.12500
C  45.26200 48.94300 42.07400
O  44.29600 49.66700 41.80400
C  45.36000 47.38800 41.66600
C  44.25100 46.61800 42.31500
O  44.36500 45.85800 43.25300
O  43.08000 46.84400 41.62800
C  41.93600 46.09600 42.14600
H  50.28800 42.46900 41.46200
H  54.35700 47.16600 44.05600
H  49.46800 50.89600 44.97000
H  45.93100 44.17800 41.45100
H  48.51500 43.44200 39.97800
H  46.62900 41.79700 41.59800
H  48.02800 41.89900 42.48600
H  48.27100 41.35500 40.80600
H  46.99300 44.55700 38.66600
H  46.44100 46.01600 39.29600
H  44.25000 45.36600 38.63700
H  44.33500 44.44000 40.00800
H  53.62300 42.46600 40.85900
H  52.18900 41.61400 41.30700
H  53.81900 41.41600 42.16200
H  57.09400 44.98500 42.99000
H  56.00700 45.32600 44.42800
H  55.97800 46.21100 42.78800
H  53.94900 49.63900 44.13100
H  51.74600 50.23000 46.17900
H  55.16900 48.93200 45.82400
H  53.93700 47.88200 46.47000
H  53.92500 49.48700 47.01100
H  51.52200 51.50900 43.55900
H  53.14100 51.68400 44.15200
H  51.33800 53.52600 44.74500
H  52.72200 53.02400 45.72100
H  51.07200 52.42200 46.20300
H  46.28000 52.04300 43.35100
H  47.39400 51.90100 44.67200
H  45.65700 51.15600 44.58700
H  45.13600 47.41500 40.60000
H  41.17300 46.01800 41.37200
H  41.54500 46.63100 43.01200
H  42.15800 45.07000 42.44000
Mg 17.03300 52.26900 25.87000
C  18.80300 51.20800 28.60600
C  14.43600 52.94100 27.92600
C  15.40600 53.42500 23.21100
C  19.73000 51.30000 23.84300
N  16.65000 52.06300 28.02800
C  17.57400 51.66700 28.94000
C  17.08900 51.98300 30.40200
C  15.52300 52.29200 30.17200
C  15.46300 52.45600 28.62900
C  14.57700 51.19300 30.78900
C  17.85200 53.11800 31.11500
C  18.18200 52.89900 32.62500
H  17.13600 51.92200 33.38900
N  15.12400 53.21100 25.66300
C  14.20100 53.29600 26.65300
C  13.13500 53.95600 26.06300
C  13.33200 54.12900 24.68400
C  14.66500 53.61200 24.45200
C  11.93700 54.41800 26.90400
C  12.46900 54.55100 23.51700
O  12.80300 54.89500 22.40400
C  11.03700 54.86300 23.77800
N  17.55600 52.54900 23.80300
C  16.69400 52.91100 22.92300
C  17.24600 52.88600 21.49100
C  18.67900 52.23400 21.71800
C  18.72600 52.07000 23.21500
C  16.29500 52.12200 20.52900
C  19.81300 53.17200 21.21100
C  21.00600 52.50000 20.46700
N  18.78700 51.22900 26.05100
C  19.84900 50.98700 25.17700
C  20.89500 50.28500 25.81900
C  20.55600 50.40400 27.18900
C  19.34100 50.98100 27.28800
C  22.19400 49.70300 25.27500
C  21.03300 50.21000 28.52100
O  22.07300 49.74800 28.91000
C  19.97400 50.78300 29.48000
C  19.63000 49.59100 30.20200
O  18.82000 48.72500 29.82600
O  20.33000 49.53900 31.36300
C  19.54200 49.12800 32.49500
H  13.61600 53.17300 28.60800
H  14.82300 53.65000 22.31600
H  20.50400 50.93400 23.16600
H  17.14300 51.01800 30.90600
H  15.27300 53.14400 30.80600
H  14.13400 50.66300 29.94600
H  13.75100 51.57900 31.38600
H  15.12800 50.55100 31.47600
H  17.24900 54.02600 31.12500
H  18.69700 53.25000 30.43900
H  18.24200 53.86800 33.12100
H  19.19800 52.50400 32.66400
H  11.70500 55.48000 26.82500
H  11.99800 54.26800 27.98200
H  11.13700 53.81000 26.48200
H  10.86700 55.77200 24.35600
H  10.48700 54.04300 24.23800
H  10.53900 55.07100 22.83100
H  17.40200 53.91200 21.15600
H  18.63800 51.25500 21.23900
H  15.35200 52.59100 20.24600
H  16.16200 51.16800 21.03800
H  16.74400 51.85300 19.57400
H  20.26400 53.76700 22.00500
H  19.40500 53.77000 20.39700
H  21.98900 52.76500 20.85500
H  21.01700 52.59100 19.38100
H  20.91000 51.41600 20.52900
H  23.02500 50.05000 25.88800
H  22.36300 50.09300 24.27100
H  21.97200 48.63600 25.27100
H  20.51000 51.49400 30.10900
H  20.04100 48.21600 32.82400
H  18.45900 49.00700 32.45600
H  19.56100 49.89600 33.26800

