158

Mg 41.58400 7.30900 29.32800
C  43.16100 9.13500 31.97200
C  38.95300 6.68500 31.45300
C  40.14500 5.47200 26.95600
C  44.33600 7.93000 27.40700
N  41.19700 7.83500 31.45800
C  41.92800 8.58900 32.33900
C  41.28500 8.58900 33.77000
C  40.01300 7.64300 33.59000
C  40.08500 7.34600 32.03700
C  40.02900 6.32200 34.34100
C  40.94800 10.02500 34.12500
C  39.90800 10.22200 35.33600
H  40.27500 11.01000 36.60900
N  39.78400 6.25400 29.23600
C  38.85600 6.15600 30.15400
C  37.71400 5.41600 29.59600
C  37.98700 5.11800 28.21500
C  39.37100 5.58800 28.11700
C  36.49600 5.03400 30.51200
C  37.19400 4.38200 27.13900
O  37.63700 4.07100 26.04400
C  35.79100 3.98300 27.46000
N  42.08500 6.87700 27.50200
C  41.38400 5.98200 26.70800
C  42.16800 5.59800 25.39800
C  43.34600 6.67000 25.48200
C  43.24700 7.21300 26.89900
C  42.55900 4.07200 25.42300
C  43.25000 7.72600 24.40700
C  42.14300 8.78600 24.53100
N  43.46300 8.29800 29.63600
C  44.42800 8.42100 28.69700
C  45.48700 9.21100 29.28800
C  45.02600 9.51900 30.62600
C  43.74600 8.97600 30.71700
C  46.74000 9.62700 28.64200
C  45.35600 10.23300 31.88800
O  46.34200 10.98200 32.10600
C  44.15300 9.88100 32.86000
C  44.74400 9.06800 34.01600
O  45.38200 8.07000 33.87400
O  44.32100 9.54100 35.20900
C  44.44000 8.56200 36.33300
H  38.22100 6.49300 32.24100
H  39.74800 4.84500 26.15400
H  45.15500 7.94700 26.68400
H  41.91800 8.17800 34.55800
H  39.02800 8.06700 33.78700
H  39.12500 6.22400 34.94200
H  40.78000 6.27200 35.12900
H  40.10600 5.49400 33.63600
H  40.49600 10.46500 33.23600
H  41.85700 10.54400 34.42600
H  39.67900 9.21300 35.67800
H  38.98300 10.66700 34.97100
H  35.58200 5.28100 29.97300
H  36.49500 5.38800 31.54300
H  36.41400 3.94900 30.57700
H  35.93900 3.19400 28.19700
H  35.08600 3.67000 26.69000
H  35.33400 4.80900 28.00500
H  41.50000 5.70900 24.54300
H  44.30900 6.23300 25.22000
H  42.19900 3.52500 26.29500
H  43.63800 3.95500 25.52400
H  42.20600 3.54100 24.53900
H  42.95200 7.20900 23.49400
H  44.25100 8.12500 24.24400
H  41.58000 8.94000 23.61100
H  42.65700 9.71200 24.78900
H  41.37200 8.51300 25.25100
H  47.18600 8.69300 28.29900
H  47.45300 10.00600 29.37400
H  46.57600 10.35900 27.85100
H  43.71000 10.72700 33.38500
H  45.48400 8.60500 36.64200
H  44.15200 7.54700 36.05800
H  43.76500 8.91500 37.11200
Mg 35.20300 48.87500 24.93200
C  35.29100 47.35300 28.06500
C  33.84000 51.64100 26.45300
C  35.09600 50.32100 21.84100
C  36.21300 45.92300 23.48400
N  34.70900 49.43600 27.06500
C  34.81300 48.67600 28.13600
C  34.38000 49.37600 29.38600
C  34.01100 50.80600 28.87000
C  34.19600 50.61900 27.36200
C  32.65500 51.28600 29.28600
C  35.48700 49.47300 30.50500
C  34.97900 48.86900 31.90800
H  34.71200 49.90200 33.01600
N  34.52100 50.77100 24.25300
C  33.96900 51.72800 25.06700
C  33.75700 52.84500 24.18600
C  34.11900 52.56100 22.83400
C  34.57800 51.18600 22.92600
C  33.08300 54.12000 24.70700
C  33.87600 53.33200 21.53400
O  34.14900 52.90600 20.41400
C  33.22800 54.67800 21.59700
N  35.60000 48.15500 22.92700
C  35.53400 48.98800 21.82800
C  36.00900 48.22600 20.50300
C  36.57600 46.95500 21.12000
C  36.05600 46.96500 22.61600
C  35.05200 47.93600 19.47600
C  38.13600 46.78000 21.05300
C  38.61700 45.33500 20.86700
N  35.55700 47.00900 25.60200
C  35.89900 45.86500 24.82900
C  36.27500 44.84800 25.83100
C  35.98200 45.39500 27.07300
C  35.52000 46.71700 26.87700
C  36.80400 43.43300 25.65300
C  36.03500 45.05600 28.44700
O  36.40300 44.07500 29.08900
C  35.51300 46.29500 29.12300
C  34.22900 45.90400 29.84200
O  33.22400 45.53500 29.22400
O  34.31700 45.82600 31.19400
C  33.16700 45.34300 32.00200
H  33.65800 52.58300 26.97400
H  35.17000 50.68000 20.81200
H  36.78600 45.05500 23.15000
H  33.43200 49.03000 29.79900
H  34.68700 51.62800 29.10300
H  31.87800 51.08400 28.54900
H  32.63500 52.36100 29.46700
H  32.31800 50.76800 30.18400
H  35.68100 50.53800 30.63400
H  36.44400 49.03700 30.22100
H  35.68900 48.09400 32.19700
H  34.08800 48.26000 31.75300
H  32.26700 54.47000 24.07500
H  33.78800 54.95100 24.74600
H  32.66300 54.06800 25.71100
H  33.90400 55.28800 22.19700
H  32.18800 54.48500 21.85900
H  33.22600 54.96300 20.54500
H  36.86400 48.73800 20.06200
H  35.99800 46.12700 20.71100
H  35.25100 48.69900 18.72300
H  34.01300 48.00900 19.79700
H  35.27700 47.02200 18.92700
H  38.58200 47.10600 21.99300
H  38.55200 47.40400 20.26100
H  37.88700 44.64400 20.44400
H  38.83600 44.92900 21.85400
H  39.49500 45.25800 20.22600
H  37.55300 43.23200 26.41800
H  37.12700 43.33300 24.61700
H  35.93000 42.84400 25.93000
H  36.28700 46.52100 29.85700
H  33.27100 44.31100 32.33500
H  32.20600 45.45000 31.50000
H  33.18400 45.92800 32.92200

