158

Mg 47.14900 24.77800 28.84900
C  47.76100 26.97600 31.49000
C  45.66600 22.62400 31.17300
C  46.43400 22.56400 26.38500
C  48.84500 26.80700 26.72600
N  46.89400 24.75200 31.13300
C  47.11100 25.84900 31.94500
C  46.73800 25.58300 33.38100
C  46.14000 24.18100 33.26200
C  46.17600 23.84200 31.79700
C  46.91700 23.12700 34.16300
C  45.64800 26.64800 33.91100
C  46.03200 27.48600 35.13900
H  45.11500 27.48800 36.43000
N  46.17000 22.84500 28.79000
C  45.65400 22.12500 29.80900
C  45.02600 20.89200 29.31300
C  45.21200 20.91200 27.89700
C  45.99000 22.14000 27.61600
C  44.18400 19.92300 30.21800
C  44.72000 19.98300 26.80800
O  44.93600 20.09700 25.56300
C  43.70700 18.91300 27.18900
N  47.46400 24.73600 26.90600
C  47.18800 23.72600 26.04800
C  47.69900 23.94900 24.63600
C  48.13600 25.41100 24.72800
C  48.19900 25.64100 26.21400
C  48.77600 22.94400 24.06600
C  47.19200 26.45300 23.96700
C  45.79200 26.53200 24.55600
N  48.10200 26.50600 29.00500
C  48.77500 27.28300 28.05400
C  49.29400 28.51600 28.64800
C  48.93600 28.41200 30.01200
C  48.22100 27.12600 30.21200
C  50.00600 29.65100 27.91100
C  48.92200 29.09700 31.23800
O  49.26400 30.19000 31.44200
C  48.19500 28.19600 32.29200
C  49.22100 27.96100 33.34100
O  50.09700 27.09500 33.32200
O  49.12500 28.95800 34.30200
C  50.05500 28.82600 35.44200
H  45.22000 21.91100 31.87000
H  46.33200 21.91100 25.51600
H  49.41100 27.42100 26.02300
H  47.65900 25.61400 33.96500
H  45.10300 24.20300 33.59800
H  46.92200 22.16400 33.65200
H  46.35400 23.02700 35.09000
H  47.91300 23.49200 34.41400
H  44.64400 26.23800 34.01800
H  45.64900 27.33200 33.06200
H  45.92200 28.51800 34.80500
H  47.08000 27.29400 35.37200
H  43.23900 19.75000 29.70400
H  43.90300 20.36900 31.17300
H  44.71900 18.98500 30.36400
H  42.84100 19.24900 27.75900
H  44.18400 18.04100 27.63700
H  43.26100 18.55800 26.26000
H  46.83200 23.83700 23.98500
H  49.16800 25.43800 24.37700
H  48.56200 21.94900 24.45700
H  49.82000 23.23200 24.18700
H  48.57900 22.94500 22.99400
H  47.01100 26.01100 22.98700
H  47.71100 27.41100 23.96700
H  45.82600 27.30600 25.32300
H  45.44100 25.55500 24.88900
H  45.10800 26.88700 23.78500
H  49.78000 29.67700 26.84500
H  51.08600 29.56800 28.03400
H  49.70600 30.61900 28.31100
H  47.38000 28.79400 32.69800
H  49.67600 28.06800 36.12800
H  50.19000 29.78500 35.94200
H  51.05700 28.51700 35.14500
Mg 36.22500 49.52700 25.16700
C  36.38200 47.69400 28.11400
C  35.19800 52.21400 26.87600
C  35.96800 51.12700 22.17900
C  37.78700 46.86700 23.55100
N  35.71900 49.77400 27.21500
C  35.97000 48.99200 28.32800
C  35.80200 49.69000 29.59100
C  35.43600 51.14900 29.18500
C  35.49900 51.08500 27.65300
C  34.05600 51.60600 29.79700
C  37.08300 49.55000 30.48100
C  36.84000 48.94200 31.86900
H  35.46700 49.01800 32.52600
N  35.58200 51.39800 24.60600
C  35.23100 52.42600 25.47500
C  34.75700 53.56700 24.73200
C  35.03600 53.26900 23.33700
C  35.57900 51.86900 23.33500
C  34.08500 54.81400 25.31800
C  34.79800 54.19200 22.10500
O  35.15500 53.78000 20.99900
C  34.13000 55.47300 22.26900
N  36.64200 48.99700 23.12400
C  36.53500 49.85700 22.06600
C  36.94400 49.22200 20.69800
C  37.82800 48.06200 21.29600
C  37.48500 47.97500 22.77200
C  35.72700 48.82600 19.87400
C  39.37400 48.09200 20.98700
C  40.41400 48.57500 22.02000
N  36.85200 47.66600 25.62000
C  37.48400 46.69800 24.87100
C  37.73100 45.53800 25.69500
C  37.24400 45.81400 26.94200
C  36.73300 47.17200 26.88600
C  38.39100 44.29800 25.26200
C  37.08900 45.28600 28.28500
O  37.34800 44.22500 28.79400
C  36.54800 46.53300 29.07800
C  35.27200 46.18100 29.79200
O  34.11600 46.34900 29.36900
O  35.50800 45.54700 30.94400
C  34.43900 45.13800 31.77100
H  35.06200 53.16300 27.40000
H  35.87100 51.58300 21.19100
H  38.49200 46.26800 22.96900
H  34.92500 49.25800 30.07200
H  36.13600 51.90500 29.54300
H  33.32200 51.49000 29.00000
H  34.00100 52.65200 30.10000
H  33.80200 50.94500 30.62500
H  37.59600 50.50800 30.55800
H  37.76400 48.91200 29.91800
H  37.54700 49.51600 32.46800
H  37.17000 47.90700 31.78500
H  33.05900 55.06500 25.04600
H  34.68700 55.69100 25.08300
H  34.16000 54.71400 26.40100
H  34.94200 56.18200 22.43000
H  33.41200 55.51700 23.08800
H  33.66800 55.75900 21.32400
H  37.64700 49.83100 20.12900
H  37.49400 47.09300 20.92400
H  34.85500 49.18000 20.42300
H  35.55000 47.76500 19.69700
H  35.88700 49.29300 18.90200
H  39.51200 48.68900 20.08500
H  39.53400 47.03200 20.78900
H  41.23100 49.17900 21.62400
H  40.85500 47.67200 22.44300
H  39.83200 49.13200 22.75400
H  39.11900 44.45700 24.46700
H  37.59700 43.59800 25.00300
H  38.86800 43.98100 26.18900
H  37.26000 46.87600 29.82900
H  34.08600 44.12800 31.56200
H  33.65600 45.89600 31.73200
H  34.78300 44.95500 32.78900

