158

Mg 7.86900 2.62200 28.49000
C  9.50600 1.26500 31.43700
C  6.15800 4.78000 30.75900
C  5.94600 3.57100 25.93100
C  9.37000 0.15200 26.67100
N  7.79900 2.81200 30.88000
C  8.65300 2.28900 31.80400
C  8.64600 2.95900 33.24600
C  7.39300 3.95000 32.92800
C  7.09700 3.91200 31.42000
C  6.11500 3.70400 33.86600
C  9.96200 3.64200 33.65100
C  10.43900 3.26300 35.10200
H  9.56500 3.61100 36.36300
N  6.34000 3.98300 28.39800
C  5.74600 4.74200 29.42000
C  4.69600 5.57200 28.81300
C  4.79900 5.43600 27.43300
C  5.74100 4.37200 27.14600
C  3.73800 6.37200 29.60500
C  3.88200 6.07000 26.34200
O  3.92200 5.73700 25.17400
C  2.78300 7.13700 26.78400
N  7.77500 2.02400 26.56700
C  6.84300 2.48200 25.72200
C  7.01800 1.80900 24.32900
C  8.30700 0.81900 24.55000
C  8.49500 0.99500 26.00800
C  5.69600 1.06100 23.86600
C  9.67200 1.19400 23.77200
C  10.69900 2.05700 24.49200
N  9.22900 0.99400 28.88300
C  9.71100 0.08400 27.99800
C  10.50000 -0.86900 28.71600
C  10.49200 -0.45300 30.08300
C  9.71300 0.71100 30.14600
C  11.18500 -2.03800 28.13500
C  10.92100 -0.74500 31.44900
O  11.53000 -1.69400 31.89200
C  10.41200 0.41600 32.39800
C  9.59900 -0.35100 33.44000
O  8.45800 -0.75200 33.27100
O  10.39200 -0.56100 34.54100
C  9.76600 -1.14400 35.75800
H  5.66600 5.58200 31.31300
H  5.40000 3.94700 25.06300
H  9.77400 -0.69800 26.11700
H  8.33900 2.17000 33.93100
H  7.67200 4.97700 33.16500
H  6.23700 2.73600 34.35200
H  5.25200 3.68400 33.20200
H  6.05200 4.56900 34.52700
H  9.90800 4.73000 33.62500
H  10.66300 3.34600 32.87100
H  11.25400 3.95100 35.32700
H  10.82100 2.24500 35.17400
H  3.74400 5.90600 30.59000
H  2.72800 6.20800 29.23000
H  4.05100 7.41200 29.70000
H  1.80900 6.69100 26.98500
H  2.67200 7.72500 25.87300
H  3.11800 7.91700 27.46700
H  7.25700 2.57200 23.58700
H  8.05600 -0.22000 24.33300
H  4.90300 1.12800 24.61000
H  5.69500 -0.00500 23.63900
H  5.33800 1.70500 23.06300
H  9.33500 1.75800 22.90200
H  10.13400 0.25300 23.47200
H  11.44900 1.54700 25.09700
H  10.40300 2.93900 25.06000
H  11.24300 2.52000 23.66800
H  12.12900 -1.77400 27.66000
H  10.45400 -2.30600 27.37300
H  11.15400 -2.86500 28.84500
H  11.31600 0.85600 32.81700
H  10.51100 -1.80100 36.20700
H  8.83400 -1.64700 35.50200
H  9.54700 -0.41500 36.53800
Mg 48.48900 35.20300 27.20200
C  46.87900 33.52000 29.59300
C  48.53400 37.94900 29.36000
C  50.03900 37.02200 24.92100
C  48.40400 32.40200 25.10700
N  47.88400 35.65800 29.19600
C  47.33300 34.75200 30.00300
C  47.19600 35.22000 31.50000
C  47.34500 36.77300 31.30200
C  47.92600 36.78800 29.82300
C  46.02300 37.49600 31.46900
C  48.23700 34.45100 32.41000
C  48.93700 35.16100 33.55600
H  48.03800 35.94800 34.55400
N  49.03300 37.26400 27.10100
C  49.05300 38.22900 28.10800
C  49.66800 39.46800 27.61300
C  50.03600 39.24300 26.25100
C  49.80600 37.74100 26.04700
C  49.72200 40.78400 28.40200
C  50.61400 40.17600 25.20300
O  50.91700 39.90000 24.07100
C  50.80100 41.67300 25.63500
N  49.06100 34.84600 25.23200
C  49.77100 35.77000 24.52900
C  50.32300 35.15700 23.19200
C  49.88200 33.64300 23.34400
C  49.04600 33.60100 24.61400
C  49.84300 35.82600 21.92700
C  51.13600 32.70700 23.37900
C  51.02200 31.34500 22.81700
N  47.81900 33.33500 27.26800
C  47.78000 32.30500 26.35400
C  47.00600 31.19000 26.89000
C  46.57800 31.62400 28.14400
C  47.12000 32.93000 28.38100
C  46.68100 29.88900 26.21000
C  45.83600 31.17900 29.31700
O  45.26800 30.12900 29.59600
C  45.83500 32.53900 30.19500
C  45.96200 32.19500 31.61200
O  46.77900 31.40700 32.05400
O  44.95200 32.78900 32.34000
C  44.79700 32.54300 33.77600
H  48.55300 38.77000 30.07900
H  50.72800 37.52500 24.24000
H  48.43700 31.43700 24.59600
H  46.18000 34.94400 31.78300
H  48.11400 37.20000 31.94500
H  46.23600 38.48200 31.05800
H  45.70900 37.77400 32.47500
H  45.19900 36.94900 31.01000
H  48.95600 33.92400 31.78300
H  47.80800 33.58300 32.91000
H  49.60900 35.85600 33.05300
H  49.66700 34.51000 34.03800
H  50.77100 41.06000 28.50800
H  49.46300 40.59100 29.44300
H  49.22900 41.64600 27.95100
H  49.85500 42.11800 25.94200
H  51.23200 42.23400 24.80600
H  51.57200 41.57700 26.40000
H  51.40300 35.29800 23.24700
H  49.16700 33.24900 22.62100
H  49.47300 35.09400 21.20900
H  50.71000 36.26800 21.43700
H  49.20100 36.65000 22.23900
H  51.40800 32.56100 24.42500
H  51.88600 33.20200 22.76300
H  50.02100 31.20800 22.40800
H  51.02000 30.61400 23.62600
H  51.80900 31.12900 22.09400
H  47.65400 29.53000 25.87600
H  45.97600 30.15400 25.42200
H  46.25600 29.11200 26.84600
H  44.85300 32.99700 30.07400
H  43.85300 32.02400 33.94100
H  44.69400 33.45700 34.36100
H  45.65300 31.97100 34.13400

