158

Mg 25.22100 50.40700 26.21400
C  23.40900 51.52400 29.02500
C  27.40900 48.87700 28.49500
C  27.38700 50.03000 23.69600
C  22.92800 51.90300 24.18200
N  25.36700 50.33700 28.48600
C  24.50500 50.80400 29.39200
C  24.93200 50.45700 30.80200
C  26.30700 49.73200 30.58000
C  26.32000 49.50900 29.10800
C  27.58500 50.58900 31.01000
C  23.89200 49.52800 31.54400
C  23.33000 50.06200 32.86300
H  24.23000 50.87000 33.79800
N  27.13900 49.63000 26.11400
C  27.83400 48.97900 27.11500
C  28.95300 48.34100 26.54800
C  29.04800 48.72100 25.18600
C  27.83800 49.54200 24.95000
C  29.94500 47.54300 27.41800
C  30.06500 48.26800 24.23100
O  30.00400 48.56000 23.02800
C  31.34400 47.60900 24.73300
N  25.20000 50.89200 24.30300
C  26.20300 50.65000 23.39900
C  25.83700 50.89800 21.85400
C  24.32400 51.29100 22.06800
C  24.04700 51.27200 23.55700
C  26.69500 52.06400 21.19200
C  23.24600 50.35600 21.44300
C  23.18100 50.47800 19.95100
N  23.46700 51.33900 26.48000
C  22.67500 51.98500 25.59500
C  21.47000 52.46500 26.19300
C  21.76500 52.32200 27.59300
C  23.02100 51.69600 27.67200
C  20.32300 53.10900 25.51500
C  21.33900 52.67100 28.93500
O  20.42000 53.36600 29.33400
C  22.36200 52.12200 29.83800
C  22.89500 53.30200 30.67800
O  23.70500 54.16600 30.36600
O  22.23500 53.27800 31.88500
C  22.32600 54.53600 32.71600
H  28.00300 48.31100 29.21600
H  28.02500 49.75300 22.85400
H  22.20000 52.40500 23.54100
H  24.98400 51.44400 31.26200
H  26.37100 48.83200 31.19100
H  27.93500 51.28200 30.24400
H  28.33700 49.95400 31.47900
H  27.23000 51.18400 31.85100
H  24.26500 48.53000 31.77200
H  23.08300 49.47700 30.81500
H  22.95300 49.23600 33.46600
H  22.38100 50.59800 32.88100
H  30.92700 48.01200 27.47000
H  29.98900 46.54200 26.98800
H  29.67500 47.43600 28.46900
H  31.89700 48.30300 25.36500
H  31.91600 47.31500 23.85300
H  31.21600 46.63400 25.20400
H  25.91000 50.08300 21.13300
H  24.05800 52.22900 21.58100
H  27.03400 52.79700 21.92500
H  26.04200 52.46500 20.41600
H  27.61400 51.69500 20.73800
H  22.30200 50.59900 21.93000
H  23.56700 49.36600 21.76500
H  23.37800 49.50600 19.49900
H  23.65600 51.30600 19.42500
H  22.10300 50.54900 19.80100
H  20.14300 52.48000 24.64300
H  20.49300 54.18000 25.41000
H  19.38600 53.05900 26.07000
H  21.81300 51.51000 30.55300
H  23.29500 54.54400 33.21500
H  21.43700 54.54000 33.34600
H  22.17700 55.36100 32.01900
Mg -5.82700 24.51200 27.30000
C  -3.98300 26.30900 29.66400
C  -6.85500 22.39800 29.84700
C  -7.59100 22.77500 25.05300
C  -4.66600 26.58300 24.80200
N  -5.38200 24.35500 29.48600
C  -4.71600 25.26000 30.21300
C  -5.03000 25.15400 31.69200
C  -5.71200 23.73300 31.83900
C  -6.03700 23.48000 30.30000
C  -4.86800 22.62000 32.47800
C  -5.99600 26.31600 32.11800
C  -5.54000 26.92800 33.48200
H  -6.23100 26.29900 34.78000
N  -6.98600 22.82300 27.44200
C  -7.29400 22.09600 28.56200
C  -8.18600 21.02700 28.20600
C  -8.44600 21.08000 26.83900
C  -7.70300 22.28200 26.42500
C  -8.73400 20.04100 29.24500
C  -9.34400 20.21400 25.95600
O  -9.50200 20.44500 24.76000
C  -10.01900 19.08400 26.62400
N  -6.00700 24.61400 25.20800
C  -6.91500 23.87800 24.56200
C  -6.79800 24.22800 23.05600
C  -5.87600 25.45600 23.00800
C  -5.60200 25.63900 24.48000
C  -6.28900 23.16800 22.00900
C  -6.55400 26.74200 22.34000
C  -5.75600 27.38200 21.16300
N  -4.45300 26.05100 27.23800
C  -4.11600 26.78100 26.12000
C  -3.23800 27.85900 26.59800
C  -3.09000 27.70400 27.90700
C  -3.87100 26.60300 28.29400
C  -2.61200 28.88500 25.70400
C  -2.47500 28.18000 29.14400
O  -1.76700 29.13600 29.19800
C  -3.12400 27.32900 30.36300
C  -1.87600 26.88400 31.11400
O  -1.03900 26.08700 30.70700
O  -1.89300 27.54200 32.34900
C  -0.87400 27.00000 33.28900
H  -7.23300 21.86500 30.72200
H  -8.11200 22.24900 24.25000
H  -4.33000 27.35400 24.10500
H  -4.01300 25.10900 32.08000
H  -6.64500 23.75100 32.40300
H  -5.61700 22.11600 33.09000
H  -4.10400 22.98700 33.16300
H  -4.44600 21.86800 31.81200
H  -6.97900 25.85700 32.22500
H  -6.18100 27.04900 31.33300
H  -5.76200 27.99200 33.39900
H  -4.48400 26.84000 33.73600
H  -9.82200 19.99500 29.19700
H  -8.38600 20.19100 30.26700
H  -8.33700 19.05500 29.00200
H  -10.47700 18.46600 25.85200
H  -10.76600 19.49200 27.30500
H  -9.34000 18.44900 27.19300
H  -7.82700 24.50200 22.82300
H  -4.92500 25.32200 22.49200
H  -7.03500 22.70800 21.36100
H  -5.77100 22.29600 22.40800
H  -5.53600 23.66500 21.39600
H  -6.69400 27.47900 23.13100
H  -7.61600 26.63100 22.12000
H  -5.05100 26.65600 20.75700
H  -5.33300 28.34700 21.44300
H  -6.40800 27.64900 20.33100
H  -1.92600 28.41800 24.99700
H  -1.91500 29.37300 26.38500
H  -3.43000 29.49600 25.32100
H  -3.67100 28.01500 31.01000
H  0.09800 26.63000 32.96100
H  -1.31100 26.01700 33.47000
H  -0.83100 27.37100 34.31200

