158

Mg 43.80400 3.33800 47.10700
C  41.83600 6.31100 46.86300
C  40.71300 1.60800 46.83600
C  45.49500 0.80100 46.72100
C  46.69700 5.50200 46.69400
N  41.51200 3.99700 46.97500
C  40.99800 5.28800 46.97500
C  39.46500 5.23100 47.11600
C  39.16800 3.61900 47.30300
C  40.54500 3.02300 47.11200
C  38.57500 3.18700 48.64600
C  38.69000 5.92900 45.95200
C  39.36300 6.09100 44.55800
H  38.78100 5.35700 43.34900
N  43.18300 1.47900 46.64800
C  41.93700 0.91500 46.65600
C  42.12400 -0.49500 46.35100
C  43.49500 -0.74800 46.20400
C  44.14200 0.50900 46.50600
C  40.93200 -1.35000 46.00600
C  43.97100 -2.13000 45.85700
O  43.18200 -3.07800 45.70000
C  45.42500 -2.39300 45.80500
N  45.76000 3.22200 46.80200
C  46.25000 1.99800 46.79200
C  47.76400 1.94900 47.13200
C  48.15600 3.44700 46.53000
C  46.81200 4.12500 46.69600
C  48.02600 1.86700 48.64100
C  48.65400 3.42700 45.00800
C  50.18100 3.58700 44.67500
N  44.26200 5.45500 47.05100
C  45.43900 6.16600 46.75400
C  45.26300 7.54000 46.65100
C  43.84200 7.65300 46.75600
C  43.27800 6.35300 46.91900
C  46.28400 8.56500 46.42600
C  42.73300 8.62800 46.70300
O  42.79800 9.85600 46.51400
C  41.38700 7.76800 46.78500
C  40.74600 8.19100 48.07200
O  41.21700 8.13100 49.16400
O  39.54400 8.86800 47.81600
C  38.76000 9.62000 48.89500
H  39.79400 1.02500 46.75200
H  46.07900 -0.10300 46.90700
H  47.63900 6.04500 46.59300
H  39.21700 5.70800 48.06500
H  38.48800 3.24300 46.54000
H  38.05300 3.95900 49.21200
H  39.37200 2.85400 49.31100
H  37.92100 2.36000 48.37100
H  38.40100 6.95800 46.16300
H  37.77900 5.36200 45.76000
H  40.41500 5.84200 44.70200
H  39.41200 7.15600 44.32900
H  41.22400 -1.79700 45.05600
H  40.04000 -0.78100 45.74100
H  40.76300 -2.08000 46.79700
H  45.97700 -2.41500 46.74500
H  45.74500 -1.46900 45.32300
H  45.72000 -3.31100 45.29500
H  48.26100 1.16500 46.56100
H  48.88200 3.93700 47.17900
H  48.31500 2.85200 49.00700
H  48.74800 1.06400 48.79100
H  47.08700 1.54100 49.08900
H  48.12800 4.31100 44.64800
H  48.26600 2.46500 44.67400
H  50.67600 3.94200 45.57900
H  50.34500 4.42200 43.99400
H  50.64500 2.71900 44.20500
H  47.03000 8.69400 47.21000
H  45.87700 9.56800 46.30300
H  46.87800 8.35200 45.53700
H  40.77400 8.01200 45.91700
H  38.77700 9.05800 49.82900
H  37.80100 9.75400 48.39500
H  39.23100 10.59700 49.00400
Mg 8.78100 47.85800 25.22000
C  6.99400 48.02100 28.14500
C  11.27300 49.65400 26.84900
C  10.44600 48.01900 22.20700
C  5.90100 46.80300 23.42800
N  9.01100 48.80300 27.17700
C  8.26400 48.63400 28.28500
C  8.83800 49.27000 29.59800
C  9.90200 50.18600 28.95800
C  10.07000 49.55200 27.54200
C  9.44300 51.67200 28.88700
C  9.35700 48.35500 30.64400
C  9.11100 48.87900 32.06900
H  8.65600 47.77700 33.16700
N  10.71400 48.54100 24.74000
C  11.55200 49.20400 25.56800
C  12.76700 49.37000 24.82100
C  12.50100 49.08100 23.47100
C  11.15300 48.49900 23.42600
C  14.13500 49.89300 25.32500
C  13.43300 49.13600 22.25800
O  13.09900 48.79600 21.12800
C  14.88000 49.56600 22.46600
N  8.28800 47.36400 23.13600
C  9.09400 47.52300 22.12400
C  8.43000 47.00200 20.82100
C  7.08000 46.43100 21.23600
C  7.07800 46.81300 22.72700
C  8.44200 48.02700 19.60000
C  6.73500 44.92900 21.03400
C  5.36200 44.63900 20.54200
N  6.87200 47.36600 25.63400
C  5.81100 47.03800 24.81800
C  4.60800 47.13300 25.59900
C  5.05900 47.29900 26.91200
C  6.42400 47.48700 26.91100
C  3.21900 46.96700 25.19400
C  4.65800 47.45500 28.27500
O  3.46700 47.38800 28.65500
C  5.91300 47.74400 29.11500
C  6.15900 46.57500 29.95500
O  7.20300 45.99000 30.01800
O  4.98700 46.34600 30.66200
C  5.01800 45.11900 31.51600
H  11.94300 50.43600 27.21200
H  11.02800 48.04900 21.28300
H  4.94500 46.42800 23.05600
H  8.08800 49.84200 30.14300
H  10.87700 50.15000 29.44400
H  8.36300 51.81100 28.94100
H  9.72300 52.20600 27.97900
H  9.88100 52.24600 29.70300
H  10.43000 48.19000 30.55000
H  8.85500 47.38800 30.61800
H  8.50100 49.78000 32.13700
H  10.11400 49.20300 32.34700
H  15.00900 49.27400 25.12300
H  14.13200 50.04900 26.40400
H  14.32900 50.86700 24.87400
H  15.03500 50.51000 22.98700
H  15.31200 49.69800 21.47400
H  15.41800 48.80900 23.03600
H  8.80100 46.07500 20.38400
H  6.34000 47.10100 20.79800
H  9.14300 48.84500 19.77000
H  7.43100 48.43200 19.56100
H  8.78500 47.48500 18.71800
H  6.91200 44.24500 21.86400
H  7.36500 44.58300 20.21500
H  4.82000 44.02800 21.26400
H  5.36100 44.10500 19.59100
H  4.79800 45.56400 20.42200
H  2.74800 47.80400 24.67900
H  2.77900 46.83100 26.18200
H  3.00800 46.04800 24.64700
H  5.67200 48.59100 29.75800
H  5.77000 44.33800 31.39800
H  4.03400 44.67700 31.35900
H  5.10200 45.49400 32.53600

