158

Mg 54.60800 24.04800 44.46100
C  51.94800 26.22400 43.35900
C  52.83400 21.42400 42.69800
C  57.28600 22.12200 44.76300
C  56.36400 26.97100 45.33300
N  52.62800 23.87700 43.13100
C  51.71000 24.88200 42.91900
C  50.43800 24.39100 42.18600
C  50.63800 22.82300 42.39000
C  52.10900 22.68100 42.73600
C  49.80900 21.97900 43.45700
C  50.22900 24.67900 40.70200
C  51.49800 24.61200 39.84300
H  51.40400 25.36600 38.52900
N  54.98500 22.05300 43.87700
C  54.13300 21.14300 43.18000
C  54.87500 19.95700 43.06500
C  56.12400 20.10900 43.78800
C  56.20500 21.51000 44.16600
C  54.30200 18.73500 42.39100
C  57.04100 18.87800 44.07700
O  56.88700 17.76200 43.52000
C  58.17100 19.04900 45.06700
N  56.57300 24.52100 44.80200
C  57.50700 23.51700 44.98000
C  58.83200 24.10600 45.49700
C  58.53500 25.70400 45.40000
C  57.10600 25.74600 45.17300
C  59.26500 23.59400 46.95700
C  59.26700 26.51500 44.27100
C  59.99200 27.81600 44.61000
N  54.23800 26.05200 44.58800
C  55.02200 27.13600 45.03700
C  54.23800 28.36400 45.00200
C  53.02000 28.01600 44.34700
C  53.10200 26.64000 44.10300
C  54.62500 29.71800 45.55300
C  51.70700 28.55700 43.98100
O  51.27900 29.68200 44.10900
C  50.98800 27.40600 43.26000
C  50.50300 27.91100 41.89700
O  51.06700 28.59400 41.08800
O  49.13900 27.57100 41.80300
C  48.57600 28.21000 40.59800
H  52.23200 20.64000 42.23200
H  58.13000 21.44300 44.90100
H  56.85300 27.87900 45.69100
H  49.53100 24.68900 42.71200
H  50.51500 22.37900 41.40200
H  49.02300 22.55400 43.94700
H  50.40800 21.75900 44.34100
H  49.47000 21.01400 43.08100
H  49.76300 25.65300 40.54900
H  49.54600 23.99100 40.20300
H  51.74800 23.56500 39.67300
H  52.23100 25.21700 40.37600
H  53.34200 18.87400 41.89600
H  54.05000 18.09100 43.23400
H  55.04500 18.25300 41.75600
H  58.03200 19.75600 45.88500
H  58.96500 19.35600 44.38600
H  58.33400 18.07200 45.52200
H  59.62500 23.78800 44.82100
H  58.81200 26.00800 46.40900
H  59.43800 24.48800 47.55700
H  60.22200 23.07400 46.90600
H  58.43500 23.08300 47.44400
H  58.59000 26.72100 43.44200
H  59.95500 25.80400 43.81200
H  59.43500 28.72100 44.36900
H  61.00400 27.93800 44.22100
H  60.12500 27.84400 45.69200
H  54.46900 30.47100 44.78100
H  55.67700 29.66700 45.83100
H  54.07000 29.90500 46.47200
H  50.08400 27.15200 43.81500
H  48.55500 29.29900 40.56900
H  47.55200 27.85600 40.47300
H  49.10100 27.84300 39.71600
Mg -2.19400 35.66400 27.21500
C  -3.54900 33.45800 29.51400
C  -0.62700 37.30900 29.64200
C  -1.11100 37.77900 24.85000
C  -3.99400 33.84600 24.71000
N  -2.29800 35.55900 29.34000
C  -2.79700 34.50000 30.09200
C  -2.59500 34.65600 31.59300
C  -1.64300 35.95000 31.61200
C  -1.60700 36.38900 30.18100
C  -2.01700 37.10700 32.69800
C  -1.89500 33.39100 32.20700
C  -2.63600 32.76100 33.40800
H  -1.75100 32.75700 34.67100
N  -1.03400 37.30400 27.20100
C  -0.42700 37.79000 28.32200
C  0.50200 38.87000 27.96500
C  0.52500 38.84900 26.57500
C  -0.58500 38.01800 26.16700
C  1.18800 39.63400 29.03500
C  1.26100 39.67900 25.63400
O  1.16800 39.67000 24.44600
C  2.39100 40.58100 26.20600
N  -2.61600 35.81700 25.12400
C  -2.04800 36.83600 24.36300
C  -2.32500 36.68900 22.85600
C  -3.20700 35.42200 22.78300
C  -3.32600 34.98900 24.31300
C  -2.93300 37.92300 22.16100
C  -2.61300 34.26700 21.93300
C  -1.45400 33.47000 22.52200
N  -3.66600 34.14400 27.12300
C  -4.24300 33.47200 26.07100
C  -4.98400 32.30900 26.58900
C  -4.79000 32.26800 27.97200
C  -3.85700 33.37300 28.23300
C  -5.83000 31.51100 25.66600
C  -4.97900 31.52800 29.19800
O  -5.43000 30.39900 29.39300
C  -4.35800 32.41300 30.25900
C  -5.50200 33.00600 31.05000
O  -6.26600 33.88400 30.64900
O  -5.58000 32.31800 32.23400
C  -6.52300 32.83200 33.17400
H  -0.04700 37.69800 30.48200
H  -0.70100 38.40900 24.05800
H  -4.58300 33.33000 23.94900
H  -3.56600 34.78000 32.07200
H  -0.59200 35.70200 31.76400
H  -2.23400 36.71500 33.69100
H  -2.83000 37.68600 32.26000
H  -1.09400 37.67500 32.81200
H  -0.94300 33.76900 32.58200
H  -1.55300 32.57100 31.57600
H  -2.91400 31.71500 33.27400
H  -3.52700 33.35200 33.61900
H  1.10500 39.20400 30.03400
H  0.75100 40.63000 28.97100
H  2.25600 39.81200 28.90600
H  2.86000 41.07800 25.35700
H  3.17700 40.10300 26.78900
H  1.91700 41.25400 26.92100
H  -1.41600 36.32400 22.37800
H  -4.26200 35.52900 22.52900
H  -3.80600 37.73700 21.53500
H  -2.19100 38.47400 21.58400
H  -3.23900 38.63900 22.92300
H  -2.22300 34.62600 20.98100
H  -3.42700 33.59600 21.65900
H  -0.65800 33.26500 21.80700
H  -1.82100 32.53800 22.95200
H  -1.02600 33.99000 23.37900
H  -5.39600 31.38200 24.67400
H  -6.62900 32.19000 25.36700
H  -6.32100 30.64900 26.11600
H  -3.73600 31.79500 30.90600
H  -7.35500 33.41200 32.77500
H  -6.04600 33.41700 33.96000
H  -7.16600 32.04100 33.56100

