158

Mg 35.15700 49.18600 25.10500
C  35.21400 47.51400 28.23300
C  33.78700 52.00400 26.73900
C  34.43400 50.49300 22.16700
C  36.04200 46.13500 23.63400
N  34.48500 49.64600 27.24500
C  34.73600 48.86800 28.36800
C  34.29300 49.60400 29.65700
C  33.77400 51.02200 29.12000
C  34.08500 50.94100 27.59400
C  32.28800 51.41700 29.43800
C  35.48500 49.67000 30.62300
C  35.19000 49.15100 32.07800
H  33.68800 48.96200 32.55300
N  34.29200 51.04700 24.49600
C  33.84200 52.06600 25.31600
C  33.30600 53.20400 24.45600
C  33.40800 52.70500 23.11700
C  34.07600 51.39200 23.16700
C  32.62300 54.47700 25.08000
C  33.01100 53.36400 21.84300
O  33.06300 52.81600 20.69300
C  32.33200 54.76200 21.80200
N  35.38200 48.45100 23.15600
C  35.05400 49.21300 22.14100
C  35.38700 48.48800 20.77900
C  35.90700 47.08500 21.28400
C  35.76600 47.20100 22.77100
C  34.20700 48.40700 19.78700
C  37.33000 46.84000 20.79500
C  38.33900 47.85600 21.39900
N  35.64700 47.22200 25.74200
C  36.09700 46.09700 25.02000
C  36.40700 45.00300 25.99600
C  36.11900 45.56400 27.23300
C  35.65800 46.88400 27.03000
C  36.78300 43.54600 25.76200
C  36.05500 45.19300 28.59300
O  36.31900 44.17000 29.24200
C  35.44800 46.52600 29.31600
C  34.22300 45.95600 30.05100
O  33.07400 45.96300 29.65400
O  34.53800 45.46500 31.28000
C  33.43500 44.81100 32.10700
H  33.49300 52.93300 27.23200
H  34.22300 50.94000 21.19300
H  36.38700 45.21600 23.15700
H  33.51700 48.91600 29.99100
H  34.44700 51.73700 29.59500
H  31.57000 50.63500 29.68500
H  31.92400 51.90300 28.53200
H  32.39500 52.14000 30.24600
H  36.03900 50.59700 30.76600
H  36.26200 49.01400 30.23100
H  35.79100 49.76700 32.74600
H  35.56800 48.13500 32.18900
H  32.52600 55.41500 24.53200
H  33.04200 54.71500 26.05800
H  31.62600 54.18100 25.40600
H  32.45000 55.03100 20.75200
H  32.91600 55.50400 22.34700
H  31.32300 54.56000 22.16000
H  36.16700 49.06300 20.27900
H  35.26200 46.25600 20.99300
H  34.62700 48.55400 18.79200
H  33.31600 49.02400 19.90600
H  33.75700 47.41500 19.78300
H  37.31500 47.09800 19.73600
H  37.73300 45.83000 20.87000
H  38.02600 48.52300 22.20200
H  38.62900 48.44100 20.52700
H  39.23900 47.34400 21.73900
H  37.20200 43.60100 24.75700
H  35.91800 42.88300 25.76000
H  37.60000 43.34500 26.45500
H  36.21500 46.93400 29.97400
H  33.24000 43.75100 31.94400
H  32.42500 45.19600 31.96400
H  33.66300 44.91100 33.16800
Mg -0.16700 44.52300 24.55300
C  1.96300 43.49600 27.14600
C  -2.88600 43.54300 26.43900
C  -2.11100 44.66000 21.78900
C  2.71600 44.85200 22.50500
N  -0.39500 43.43700 26.42800
C  0.59500 43.43500 27.45700
C  0.01900 43.31100 28.88300
C  -1.46000 42.94100 28.52600
C  -1.63000 43.35900 27.06500
C  -1.82500 41.47700 28.73600
C  0.23800 44.59600 29.77900
C  -0.10700 44.49100 31.29600
H  -0.59300 43.15200 31.75700
N  -2.24000 44.34900 24.20700
C  -3.18200 43.99200 25.12700
C  -4.46500 43.98500 24.50400
C  -4.28400 44.21900 23.08400
C  -2.81400 44.37900 22.96100
C  -5.76700 43.86400 25.24300
C  -5.26800 44.27600 21.90500
O  -4.91200 44.54700 20.75000
C  -6.67900 43.94900 22.17100
N  0.22900 44.97400 22.44800
C  -0.75500 44.96900 21.53100
C  -0.17700 45.49200 20.18100
C  1.30800 45.74400 20.51300
C  1.47400 45.21900 21.92600
C  -0.24000 44.61900 18.90000
C  1.77100 47.21800 20.58100
C  0.85900 48.14200 21.41200
N  1.87400 44.39100 24.72600
C  2.89300 44.48600 23.79300
C  4.17600 44.15100 24.45100
C  3.82000 43.73300 25.76300
C  2.44300 43.92300 25.91000
C  5.56600 44.23600 23.87500
C  4.33600 43.25900 27.04700
O  5.47200 42.91500 27.30200
C  3.16400 43.36500 28.11900
C  3.13200 42.21300 28.97300
O  2.85100 41.06800 28.59800
O  3.41800 42.60300 30.29600
C  3.47800 41.47900 31.25300
H  -3.76000 43.40300 27.07900
H  -2.80800 44.69000 20.94900
H  3.43400 45.15600 21.74000
H  0.51700 42.46800 29.36200
H  -2.07900 43.57700 29.15800
H  -2.22800 41.03100 27.82700
H  -2.64800 41.53100 29.44800
H  -1.04700 40.82500 29.13300
H  -0.38400 45.36200 29.31700
H  1.29600 44.82300 29.64300
H  -0.96000 45.14400 31.48100
H  0.65900 44.87300 31.96900
H  -6.39700 44.73500 25.06200
H  -5.57900 43.57500 26.27700
H  -6.36500 43.07000 24.79700
H  -6.63200 43.04600 22.78100
H  -7.33700 43.86100 21.30600
H  -7.13600 44.71200 22.80100
H  -0.74500 46.37200 19.88000
H  2.07900 45.37400 19.83700
H  -1.08900 44.94100 18.29800
H  -0.60500 43.67000 19.29400
H  0.68900 44.42700 18.36300
H  1.62000 47.55700 19.55600
H  2.83200 47.16700 20.82600
H  0.18500 47.63200 22.10100
H  0.38200 48.87000 20.75600
H  1.45500 48.76600 22.07700
H  5.57400 44.50300 22.81800
H  6.13800 43.32800 24.06800
H  6.05800 44.91900 24.56800
H  3.32200 44.26400 28.71400
H  4.11300 40.70300 30.82700
H  2.50600 41.19900 31.66100
H  4.06900 41.96000 32.03200

