158

Mg 41.69100 41.36800 26.16000
C  41.14500 43.64300 28.70000
C  42.65300 39.10800 28.60900
C  42.22400 39.12600 23.71100
C  41.49900 43.95200 23.89600
N  41.95400 41.41400 28.34800
C  41.58000 42.41300 29.21000
C  41.84900 42.12700 30.68600
C  42.51300 40.67600 30.63500
C  42.36400 40.37400 29.13400
C  44.00100 40.56300 31.06000
C  40.55000 42.12000 31.57300
C  40.47600 43.01100 32.78400
H  39.99800 42.26800 34.05400
N  42.40500 39.33500 26.20200
C  42.69300 38.60300 27.29900
C  43.04300 37.22100 26.88200
C  42.93500 37.21700 25.45400
C  42.50500 38.59900 25.02800
C  43.28500 36.09200 27.80800
C  43.16800 36.07800 24.49100
O  42.95000 36.24500 23.29400
C  43.69800 34.80400 24.98000
N  42.02100 41.53200 24.10200
C  42.06800 40.48600 23.22600
C  42.07500 40.85500 21.77300
C  42.00100 42.45200 21.82800
C  41.70500 42.67900 23.31600
C  43.25300 40.30800 21.00400
C  40.94400 43.05500 20.81200
C  41.37000 44.35200 20.14800
N  41.28600 43.32000 26.26500
C  41.13600 44.24000 25.22700
C  40.74800 45.52800 25.75400
C  40.69600 45.28600 27.13100
C  41.04900 43.96300 27.39900
C  40.66400 46.82200 25.00000
C  40.52100 46.04700 28.33300
O  40.23100 47.24200 28.51200
C  40.80000 44.97700 29.44400
C  41.93800 45.52400 30.19200
O  43.15100 45.56700 29.81600
O  41.48100 46.03200 31.36200
C  42.49700 46.53600 32.25100
H  43.19400 38.48700 29.32600
H  42.18200 38.44700 22.85700
H  41.43600 44.68700 23.09200
H  42.60900 42.79900 31.08500
H  41.97100 39.95100 31.24200
H  44.09400 40.06500 32.02500
H  44.38400 41.57300 31.20500
H  44.63200 40.11200 30.29400
H  40.27100 41.12600 31.92400
H  39.80600 42.52600 30.88800
H  39.77200 43.82900 32.63400
H  41.44300 43.49700 32.91400
H  44.33500 35.80800 27.74500
H  42.68600 35.25800 27.44200
H  43.10700 36.49600 28.80500
H  43.79800 34.03500 24.21500
H  42.92600 34.35600 25.60600
H  44.66800 34.97400 25.44800
H  41.17200 40.34800 21.43300
H  43.02800 42.76000 21.62900
H  43.99600 39.75500 21.57900
H  43.78700 41.15500 20.57400
H  42.88100 39.60500 20.25900
H  40.02300 43.20100 21.37700
H  40.69900 42.28700 20.07900
H  41.24700 44.02800 19.11400
H  42.45000 44.43400 20.26300
H  40.80500 45.25600 20.37400
H  39.68700 46.91500 24.52400
H  41.37000 46.75200 24.17300
H  40.73300 47.64400 25.71300
H  39.96100 44.95300 30.14000
H  42.83600 45.75300 32.92800
H  41.98000 47.31600 32.81000
H  43.30900 47.04900 31.73500
Mg 9.24700 48.47900 25.65200
C  6.82800 49.06500 28.15900
C  11.65800 49.45900 27.95300
C  11.36900 48.15400 23.23200
C  6.52000 47.81700 23.48200
N  9.24100 49.32200 27.69300
C  8.17400 49.34500 28.53500
C  8.61300 49.55400 30.01500
C  9.95800 50.20500 29.73800
C  10.32900 49.60900 28.40700
C  9.91000 51.70900 29.73700
C  8.83000 48.21100 30.79700
C  9.49500 48.23100 32.23600
H  8.85100 47.23600 33.20600
N  11.19100 48.75700 25.61000
C  12.01000 49.04900 26.63300
C  13.43100 49.01000 26.17200
C  13.32700 48.67400 24.78900
C  11.94100 48.58400 24.48600
C  14.56600 49.28000 27.03500
C  14.54600 48.47200 23.79300
O  14.53000 48.25200 22.61300
C  15.89300 48.45200 24.45800
N  8.94100 47.90000 23.68000
C  10.04900 47.89100 22.86500
C  9.63200 47.38500 21.46200
C  8.05600 47.54500 21.45200
C  7.83500 47.72200 22.96000
C  10.23100 48.05700 20.22000
C  7.24900 46.34100 20.81900
C  6.05300 46.57800 19.86800
N  7.04900 48.34200 25.73500
C  6.11500 48.08000 24.77700
C  4.75400 48.16700 25.40300
C  5.01400 48.43700 26.73000
C  6.41500 48.65200 26.85900
C  3.44600 47.89800 24.71700
C  4.36100 48.51400 27.96000
O  3.19100 48.29100 28.30900
C  5.49000 49.02600 28.91000
C  5.38900 48.07400 30.06300
O  5.49000 46.86800 30.01200
O  4.88800 48.68600 31.19000
C  4.36800 47.68900 32.16400
H  12.44100 49.91600 28.56100
H  12.14800 48.06400 22.47200
H  5.77700 47.61600 22.70800
H  7.88300 50.11700 30.59600
H  10.81500 49.91500 30.34600
H  8.88200 52.06600 29.80600
H  10.37600 52.09700 28.83100
H  10.44400 52.09300 30.60600
H  9.61600 47.67300 30.26700
H  7.97600 47.53500 30.78000
H  9.36000 49.22200 32.66900
H  10.54300 48.00100 32.04500
H  15.12800 48.34900 27.10700
H  14.30200 49.54100 28.06000
H  15.16200 50.05500 26.55400
H  16.18600 49.42900 24.84300
H  16.64800 48.07100 23.77100
H  15.98100 47.63500 25.17400
H  10.00100 46.36100 21.39200
H  7.63200 48.50600 21.16200
H  11.29400 48.21700 20.40400
H  9.67200 48.95900 19.97100
H  10.29900 47.31200 19.42800
H  6.90400 45.72600 21.65000
H  7.89100 45.71300 20.20200
H  6.03200 47.56200 19.39800
H  5.10300 46.30500 20.32800
H  6.14300 45.86300 19.05000
H  3.09900 48.76100 24.14900
H  2.71300 47.46100 25.39500
H  3.63100 47.06900 24.03400
H  5.06600 49.98800 29.19800
H  3.81000 46.86600 31.71600
H  3.81600 48.04000 33.03500
H  5.19000 47.11800 32.59600

