158

Mg 39.49500 10.31900 29.70400
C  41.45500 11.75200 32.23900
C  37.37800 9.12600 32.04100
C  37.72600 8.81000 27.09900
C  42.19300 10.66700 27.58300
N  39.48500 10.34600 31.96600
C  40.33600 11.05600 32.74600
C  39.78400 11.08500 34.22900
C  38.64300 9.99500 34.15900
C  38.46400 9.77300 32.59500
C  38.85000 8.62300 34.85300
C  39.42400 12.52500 34.78600
C  40.14700 12.96200 36.05000
H  39.33300 13.57300 37.21600
N  37.73900 9.24800 29.57700
C  37.05300 8.75500 30.70700
C  35.77700 8.25600 30.23600
C  35.87200 8.11500 28.79500
C  37.19000 8.68800 28.44600
C  34.74800 7.87800 31.27100
C  34.84900 7.67300 27.78500
O  34.98700 7.61000 26.58000
C  33.58700 7.22500 28.35700
N  39.91000 9.77600 27.64100
C  38.95600 9.39000 26.71500
C  39.50600 9.44800 25.28800
C  40.98300 9.70600 25.57800
C  41.05300 10.11700 27.01500
C  39.27600 8.15600 24.43200
C  41.61200 10.71000 24.54400
C  41.36000 12.19700 24.73400
N  41.43600 11.05600 29.80500
C  42.41800 11.14800 28.87900
C  43.55100 11.81800 29.32100
C  43.25700 12.05200 30.66700
C  41.95300 11.52900 30.94400
C  44.69200 12.12100 28.56300
C  43.73400 12.61800 31.88300
O  44.79200 13.23200 31.98000
C  42.69000 12.35900 32.99700
C  43.20000 11.30400 33.93100
O  43.55900 10.17200 33.64300
O  43.29100 11.73000 35.25300
C  43.72100 10.76900 36.30200
H  36.67300 8.69100 32.75300
H  37.12800 8.39700 26.28400
H  43.03000 10.77500 26.88900
H  40.50300 10.74000 34.97200
H  37.68100 10.27700 34.58800
H  39.77100 8.62600 35.43700
H  38.92400 7.85000 34.08900
H  37.98800 8.30200 35.43700
H  38.35800 12.57600 35.00700
H  39.55900 13.23300 33.96800
H  41.01300 13.55800 35.76200
H  40.45500 12.01000 36.48200
H  34.91000 6.82600 31.50600
H  33.74900 8.04100 30.86600
H  34.75500 8.54200 32.13400
H  32.99400 7.91100 28.96100
H  33.78500 6.38200 29.01900
H  32.88600 6.82100 27.62600
H  39.11100 10.30000 24.73500
H  41.49900 8.74800 25.64900
H  39.15200 8.28800 23.35700
H  38.29300 7.77100 24.70200
H  39.90800 7.28400 24.60500
H  41.21000 10.37200 23.58900
H  42.68300 10.52300 24.46600
H  40.46100 12.46500 25.28900
H  41.26100 12.64400 23.74400
H  42.20600 12.65200 25.24800
H  45.47200 12.45700 29.24600
H  44.49700 12.99000 27.93400
H  44.93500 11.23900 27.97100
H  42.38400 13.24100 33.56100
H  44.73800 10.50200 36.01500
H  43.03200 9.92600 36.23700
H  43.73300 11.17700 37.31200
Mg 48.20300 35.29200 28.03700
C  46.47300 33.57700 30.47000
C  48.51300 37.89200 30.20700
C  49.47200 37.12800 25.52300
C  47.67900 32.66700 25.77700
N  47.83900 35.58600 30.16100
C  47.13100 34.70400 30.93900
C  46.90500 35.29400 32.30500
C  47.24200 36.82000 32.15700
C  47.98100 36.77700 30.77400
C  46.05400 37.80600 32.10200
C  47.72400 34.55200 33.47100
C  49.08600 34.97500 33.92700
H  49.30300 35.69200 35.26200
N  48.97700 37.22300 27.90200
C  49.02100 38.13200 28.96100
C  49.63600 39.31300 28.50900
C  50.05600 39.11200 27.16100
C  49.57300 37.76200 26.80800
C  49.89400 40.53000 29.37400
C  50.94800 39.92000 26.22200
O  51.31800 39.55100 25.06700
C  51.32900 41.31100 26.59900
N  48.29300 35.02200 25.92200
C  48.94600 35.85200 25.14200
C  48.83400 35.42000 23.64800
C  48.31000 33.99600 23.78000
C  48.15300 33.83600 25.29800
C  47.96800 36.29500 22.68700
C  49.30200 32.95900 23.17500
C  49.33600 32.81100 21.67700
N  47.24300 33.58200 28.04000
C  47.05300 32.58400 27.06700
C  46.32000 31.48000 27.64200
C  45.90700 31.92000 28.82900
C  46.55500 33.14100 29.11400
C  45.95100 30.22400 26.99600
C  45.05800 31.56700 29.92800
O  44.26200 30.59500 30.05500
C  45.25900 32.74300 31.01700
C  45.49400 32.20200 32.35700
O  46.39900 31.39700 32.68900
O  44.62000 32.76000 33.19500
C  44.59900 32.44500 34.62900
H  48.61000 38.70300 30.93200
H  50.01600 37.72700 24.79000
H  47.52100 31.71400 25.26800
H  45.93900 35.21100 32.80200
H  47.97300 37.20600 32.86900
H  45.39700 37.71600 31.23600
H  46.46100 38.81600 32.15700
H  45.47800 37.63800 33.01200
H  47.99800 33.56200 33.10600
H  47.15200 34.55200 34.39800
H  49.59200 35.53100 33.13800
H  49.66500 34.05100 33.94400
H  50.88200 40.56100 29.83400
H  49.16800 40.66300 30.17600
H  49.77100 41.42500 28.76600
H  50.39700 41.81000 26.86800
H  51.83800 41.72600 25.72900
H  51.93300 41.41800 27.50000
H  49.85500 35.44300 23.26800
H  47.34900 33.91700 23.27200
H  46.95600 36.41600 23.07400
H  47.88700 35.83300 21.70400
H  48.34100 37.32000 22.67700
H  48.96700 31.96500 23.47100
H  50.28400 33.15700 23.60500
H  50.33400 33.18500 21.44900
H  48.53400 33.33600 21.15800
H  49.25700 31.75200 21.43400
H  44.87300 30.14200 26.85700
H  46.44600 29.40400 27.51500
H  46.36900 30.27500 25.99100
H  44.37000 33.37300 31.02500
H  45.26400 31.61500 34.86800
H  43.55700 32.23800 34.87600
H  44.91900 33.32900 35.18000

