158

Mg 47.68100 16.70100 29.02900
C  45.25600 16.39000 31.74300
C  49.59500 18.69100 31.01500
C  49.54000 17.31000 26.40600
C  45.10100 15.31700 26.97500
N  47.39300 17.35400 31.13500
C  46.42900 17.07800 32.11000
C  46.86900 17.55800 33.50200
C  48.12000 18.39600 33.15200
C  48.43400 18.15600 31.61600
C  47.93800 19.90500 33.45600
C  47.00700 16.36200 34.55300
C  46.19300 16.48300 35.86800
H  46.08200 17.82400 36.56000
N  49.41000 17.75100 28.79100
C  50.04400 18.50300 29.69500
C  51.22300 19.07900 29.08100
C  51.30300 18.58600 27.79700
C  50.06000 17.78900 27.61000
C  52.16900 19.94700 29.78300
C  52.33600 18.94300 26.65000
O  52.17200 18.46000 25.57500
C  53.50400 19.89800 26.90300
N  47.36700 16.13300 27.06200
C  48.28300 16.58500 26.19000
C  47.77600 16.45000 24.76200
C  46.48200 15.62600 24.88000
C  46.27200 15.68000 26.36400
C  47.57900 17.81700 23.92700
C  46.60000 14.15900 24.36200
C  45.94200 13.88000 23.02600
N  45.68400 15.86700 29.26000
C  44.80200 15.37300 28.31300
C  43.53100 15.04300 28.90600
C  43.74000 15.31700 30.23800
C  45.02500 15.88100 30.41800
C  42.50500 14.22200 28.20800
C  43.10600 15.28300 31.51700
O  41.98200 14.89300 31.82500
C  44.11200 15.89700 32.60400
C  43.44500 17.04300 33.21400
O  43.48400 18.14800 32.78700
O  42.77800 16.68700 34.34900
C  42.07400 17.78100 34.98600
H  50.12900 19.31400 31.73500
H  50.19600 17.27400 25.53300
H  44.23500 15.20300 26.32000
H  46.02000 18.17000 33.80700
H  48.94500 18.08900 33.79400
H  47.06100 20.12700 34.06400
H  47.79500 20.45600 32.52600
H  48.77900 20.35800 33.98000
H  48.05600 16.30100 34.84000
H  46.61700 15.46400 34.07300
H  46.83100 15.89500 36.52700
H  45.20100 16.03300 35.89200
H  53.17100 19.52200 29.72000
H  51.96300 20.11100 30.84100
H  52.13400 20.95300 29.36400
H  54.10100 20.02800 26.00100
H  54.23500 19.45000 27.57600
H  53.25200 20.88100 27.30300
H  48.57400 15.83700 24.34300
H  45.59200 16.05800 24.42200
H  46.53700 17.79700 23.60800
H  48.35500 17.83900 23.16200
H  47.85500 18.75900 24.40100
H  46.10700 13.49400 25.07100
H  47.63400 13.81600 24.37700
H  45.04300 13.28100 23.17100
H  46.57400 13.22000 22.43100
H  45.87700 14.78800 22.42700
H  42.79800 13.19400 27.99600
H  42.11200 14.59400 27.26200
H  41.67200 14.10800 28.90200
H  44.34400 15.19600 33.40500
H  41.43200 18.18800 34.20400
H  42.74600 18.46400 35.50500
H  41.50300 17.33500 35.80100
Mg 7.55900 53.26700 41.26500
C  7.06300 49.72300 40.70200
C  10.85400 52.73300 40.25500
C  7.96900 56.46800 41.10800
C  4.13700 53.42200 41.68300
N  8.79800 51.46400 40.52500
C  8.32800 50.18500 40.39900
C  9.55100 49.25900 39.98100
C  10.81000 50.21000 40.17700
C  10.14100 51.58200 40.37600
C  11.69800 49.78200 41.33400
C  9.49900 48.72200 38.56200
C  9.13400 49.55600 37.35300
H  8.20300 48.95200 36.27700
N  9.20600 54.45700 40.75800
C  10.46400 54.04700 40.32200
C  11.30000 55.16500 40.08000
C  10.40600 56.33900 40.29000
C  9.14900 55.83300 40.72400
C  12.68300 54.98100 39.63200
C  10.80400 57.74300 39.97900
O  11.94400 58.01900 39.72200
C  9.76700 58.90200 39.84800
N  6.11900 54.74100 41.06400
C  6.64000 55.99400 41.32200
C  5.54400 56.98300 41.74700
C  4.26700 56.01800 41.89500
C  4.86800 54.65400 41.58100
C  5.88700 57.86200 43.05500
C  3.04700 56.36800 41.13500
C  3.10800 56.32400 39.64900
N  5.92900 51.95700 41.33600
C  4.53600 52.15600 41.48900
C  3.84300 50.94200 41.52300
C  4.85200 49.96500 41.26900
C  6.08200 50.59700 41.14600
C  2.38700 50.67600 41.74600
C  5.04200 48.55000 41.12600
O  4.19700 47.63800 41.09800
C  6.45400 48.33200 40.71300
C  6.34200 47.61400 39.43600
O  5.84900 48.08300 38.41000
O  6.89900 46.37400 39.54200
C  6.79800 45.46400 38.37500
H  11.88200 52.42300 40.05700
H  8.09500 57.53500 41.30300
H  3.08100 53.46000 41.95700
H  9.64000 48.43500 40.68800
H  11.27200 50.26000 39.19000
H  11.67800 48.70700 41.51200
H  11.15500 50.29200 42.13100
H  12.68200 50.20700 41.14000
H  8.71700 47.96300 38.53200
H  10.40400 48.13000 38.42600
H  10.05400 49.84600 36.84500
H  8.66900 50.44200 37.78500
H  12.79700 54.12400 38.96900
H  13.39000 54.91300 40.45900
H  12.90100 55.89300 39.07600
H  9.05600 58.60200 39.07800
H  10.23000 59.84100 39.54500
H  9.28800 59.21800 40.77500
H  5.40500 57.66800 40.91100
H  4.07500 56.14800 42.96000
H  5.97200 58.92800 42.84300
H  6.88400 57.56100 43.37900
H  5.18900 57.63900 43.86200
H  2.86000 57.40900 41.39900
H  2.17300 55.82900 41.50100
H  2.08600 56.45400 39.29300
H  3.53700 55.38000 39.31500
H  3.70200 57.16400 39.28900
H  2.14400 49.64700 41.47900
H  1.66800 51.32000 41.23900
H  2.40000 50.87500 42.81700
H  6.92300 47.64000 41.41200
H  6.98400 45.98300 37.43500
H  5.81000 45.00400 38.34300
H  7.63400 44.76500 38.39200

