158

Mg 46.51700 25.70300 28.26800
C  47.77200 27.93100 30.73100
C  45.91900 23.47600 30.71900
C  46.04500 23.47400 25.78400
C  47.85500 27.93700 25.77300
N  46.71500 25.76300 30.48200
C  47.12400 26.81100 31.28000
C  46.84000 26.55800 32.73400
C  46.45700 25.05200 32.74900
C  46.39400 24.66600 31.19600
C  47.46800 24.09300 33.58800
C  45.62400 27.46100 33.26100
C  45.12500 27.03300 34.65200
H  44.76700 28.15000 35.66300
N  45.81100 23.76800 28.29800
C  45.74100 22.97500 29.40200
C  45.46200 21.63000 28.96300
C  45.42400 21.59100 27.53100
C  45.72900 22.97500 27.13400
C  45.45200 20.48400 29.94000
C  45.18700 20.43600 26.51000
O  45.24200 20.55700 25.29100
C  44.91500 19.20200 27.09700
N  46.77600 25.79000 26.08800
C  46.46700 24.71500 25.35500
C  46.62400 25.08200 23.83900
C  47.08000 26.50200 23.79600
C  47.27800 26.74600 25.32700
C  47.71200 24.14200 23.27900
C  45.97500 27.41200 23.15600
C  46.05700 27.50800 21.61800
N  47.64000 27.51700 28.18800
C  48.13000 28.27200 27.12100
C  48.86800 29.41300 27.65200
C  48.72900 29.38500 29.06300
C  47.96600 28.20100 29.33300
C  49.54400 30.51200 26.81500
C  48.97900 30.04700 30.37500
O  49.59300 31.07700 30.60900
C  48.32500 29.21600 31.46700
C  49.34900 28.87500 32.52000
O  50.42500 28.35400 32.26900
O  48.90600 29.18800 33.76100
C  49.90000 29.07900 34.88400
H  45.56600 22.86000 31.54900
H  45.85600 22.71800 25.02000
H  48.17600 28.64800 25.00800
H  47.75700 26.87000 33.23300
H  45.44900 24.87100 33.12300
H  46.97100 23.61600 34.43300
H  48.27600 24.64000 34.07400
H  47.91800 23.33300 32.94900
H  44.82200 27.44200 32.52400
H  46.04900 28.46400 33.22300
H  45.92800 26.40900 35.04500
H  44.21400 26.46100 34.47800
H  45.90500 19.53900 29.64200
H  44.43500 20.19100 30.19800
H  45.88100 20.76400 30.90200
H  44.17800 19.25400 27.89800
H  45.86100 18.83200 27.49300
H  44.52200 18.47800 26.38300
H  45.68200 24.86500 23.33600
H  48.04900 26.66400 23.32400
H  48.52400 24.08500 24.00300
H  48.05100 24.53800 22.32200
H  47.33500 23.12200 23.19900
H  46.12200 28.41100 23.56500
H  44.94600 27.09000 23.31500
H  46.38600 28.49300 21.28700
H  45.04400 27.44900 21.21900
H  46.71400 26.74400 21.20300
H  49.81900 31.37000 27.42900
H  49.02100 30.84200 25.91800
H  50.45300 29.96500 26.56300
H  47.57500 29.81100 31.98700
H  49.63200 28.32400 35.62200
H  49.86300 30.02100 35.43100
H  50.91900 28.92600 34.52900
Mg 48.26900 35.03900 26.72200
C  46.40000 34.00700 29.48600
C  49.08100 37.95500 28.49300
C  49.68600 36.06600 23.83700
C  46.90900 32.32100 24.95300
N  47.94500 35.80600 28.85100
C  47.11400 35.21300 29.80500
C  47.27300 35.97700 31.16400
C  47.88200 37.37200 30.65900
C  48.36900 37.05300 29.27700
C  46.85100 38.53500 30.61000
C  48.38600 35.16400 32.00700
C  48.10500 34.71400 33.40300
H  47.15200 35.59600 34.16500
N  49.28600 36.73300 26.24800
C  49.50200 37.84700 27.12200
C  50.43000 38.64700 26.49200
C  50.86200 37.96000 25.29700
C  49.90600 36.85800 25.07200
C  50.97600 39.96400 27.18600
C  51.99800 38.30500 24.23800
O  52.16700 37.58500 23.25700
C  52.88400 39.46500 24.41700
N  48.27700 34.40000 24.70300
C  48.86000 34.96200 23.57800
C  48.87100 34.13900 22.34400
C  48.15000 32.87800 22.83000
C  47.76800 33.20900 24.26800
C  48.38500 34.72300 21.05900
C  48.97500 31.56800 22.71600
C  48.44100 30.36100 21.90800
N  47.04100 33.39900 27.12500
C  46.53000 32.39700 26.24700
C  45.54200 31.63000 26.95700
C  45.47100 32.23500 28.23500
C  46.46200 33.26000 28.31500
C  45.04100 30.33300 26.53900
C  44.79500 32.13200 29.47600
O  43.90200 31.34400 29.85100
C  45.31800 33.29000 30.35100
C  45.83000 32.78400 31.58700
O  46.84800 32.17000 31.68500
O  44.99600 33.13600 32.54700
C  45.02100 32.38400 33.79800
H  49.17700 38.91000 29.01300
H  50.36200 36.05100 22.98000
H  46.55500 31.42100 24.44600
H  46.31200 36.15100 31.64800
H  48.74900 37.66900 31.24900
H  45.85200 38.12000 30.74200
H  46.85400 38.99200 29.62000
H  46.95500 39.35800 31.31800
H  49.30500 35.74900 31.97900
H  48.56300 34.25500 31.43100
H  49.01900 34.73500 33.99600
H  47.76100 33.68100 33.44800
H  50.59500 40.20600 28.17800
H  50.54000 40.71200 26.52400
H  52.06600 39.98400 27.20400
H  52.33700 40.40500 24.34800
H  53.76500 39.44700 23.77600
H  53.32300 39.35700 25.40900
H  49.93400 33.95600 22.18500
H  47.18100 32.72100 22.35600
H  47.64700 33.99900 20.71300
H  49.16100 34.64400 20.29700
H  47.96500 35.72200 21.17600
H  49.18200 31.01100 23.63000
H  49.97200 31.84200 22.37100
H  49.29400 29.90200 21.40900
H  47.64700 30.62200 21.20800
H  48.12800 29.48900 22.48100
H  44.67300 30.36000 25.51400
H  44.11300 30.11200 27.06700
H  45.70100 29.46800 26.60800
H  44.63100 34.09300 30.61700
H  44.39000 31.49600 33.82200
H  44.54100 32.91300 34.62200
H  46.01700 32.05400 34.09000

