158

Mg 16.72300 51.70800 25.18300
C  18.73200 50.61400 27.89000
C  14.44200 52.65300 27.53200
C  14.98500 52.84800 22.66400
C  19.14200 50.42200 23.00300
N  16.65100 51.85200 27.43300
C  17.52400 51.21700 28.33400
C  17.14800 51.48800 29.83500
C  15.63800 51.90400 29.72500
C  15.58500 52.17800 28.14900
C  14.60800 50.90500 30.31900
C  18.01200 52.65800 30.37600
C  18.51100 52.64500 31.88000
H  17.52200 52.09400 32.94000
N  14.97200 52.64900 25.05300
C  14.17400 52.98100 26.11200
C  13.00900 53.60100 25.59700
C  13.10700 53.71400 24.23200
C  14.37700 53.05000 23.86100
C  11.86700 54.24200 26.54300
C  12.23500 54.38200 23.25700
O  12.46800 54.60800 22.08400
C  10.82000 54.84100 23.72400
N  17.02900 51.72500 23.08200
C  16.14900 52.20600 22.21000
C  16.53200 51.99100 20.71600
C  17.93900 51.37100 20.89200
C  18.03800 51.15700 22.38800
C  15.68800 51.13900 19.82500
C  19.11200 52.21000 20.32100
C  20.24700 51.33600 19.63800
N  18.58800 50.70900 25.35300
C  19.42000 50.16900 24.39700
C  20.46900 49.47100 24.99900
C  20.28900 49.63800 26.38400
C  19.08600 50.37600 26.54200
C  21.69200 48.75700 24.36000
C  20.76100 49.32300 27.67800
O  21.80900 48.85900 28.00600
C  19.84700 49.97200 28.76700
C  19.48900 49.05800 29.79700
O  18.65400 48.16000 29.67700
O  20.14400 49.29400 30.96100
C  19.65100 48.56300 32.14700
H  13.70700 52.96900 28.27600
H  14.36300 53.16900 21.82600
H  19.80400 49.92700 22.29000
H  17.28500 50.59200 30.44000
H  15.36400 52.84100 30.20900
H  13.85600 50.60000 29.59100
H  14.08700 51.35100 31.16600
H  15.06300 49.97900 30.67000
H  17.47200 53.60500 30.38500
H  18.93900 52.76700 29.81300
H  18.62600 53.70300 32.11700
H  19.41100 52.03100 31.89400
H  12.14500 54.40700 27.58400
H  10.98400 53.60800 26.47000
H  11.71900 55.24400 26.14100
H  10.33600 54.18900 24.45100
H  10.24400 54.95800 22.80600
H  10.84000 55.87600 24.06600
H  16.64700 52.94600 20.20400
H  17.99000 50.36400 20.48000
H  16.18600 50.54200 19.06100
H  14.95300 51.74700 19.29800
H  15.04000 50.48200 20.40400
H  19.51400 52.76100 21.17100
H  18.74700 53.00400 19.67000
H  20.34800 51.48600 18.56300
H  20.04500 50.27100 19.75600
H  21.24600 51.46700 20.05500
H  21.44900 48.39400 23.36100
H  21.97200 47.88700 24.95500
H  22.53000 49.44400 24.47500
H  20.54000 50.69200 29.20300
H  19.39100 47.59000 31.72900
H  18.79200 48.97200 32.67900
H  20.37000 48.53500 32.96500
Mg 9.57900 48.41200 25.31400
C  7.66300 48.97200 28.14800
C  12.33000 49.47000 27.06000
C  11.31200 47.85500 22.44300
C  6.60700 47.88500 23.52800
N  9.91300 48.98300 27.41100
C  9.03300 49.10700 28.41100
C  9.68200 49.55400 29.74700
C  11.01200 50.20400 29.17200
C  11.09200 49.50700 27.76600
C  11.07800 51.77700 29.07600
C  10.04600 48.49400 30.82000
C  9.55700 48.74200 32.29500
H  9.54100 47.44800 33.15600
N  11.58600 48.56000 24.84300
C  12.54700 49.00800 25.68700
C  13.77900 48.90700 25.01700
C  13.55500 48.42000 23.74500
C  12.07900 48.26200 23.57000
C  15.04000 49.31400 25.71900
C  14.55000 48.10100 22.65900
O  14.27300 47.60900 21.57800
C  15.97300 48.48300 22.87100
N  9.06500 48.04800 23.25300
C  9.94600 47.65500 22.28800
C  9.26900 47.22600 20.95600
C  7.79000 47.10500 21.40400
C  7.79900 47.81400 22.84900
C  9.44500 48.14800 19.69600
C  7.20500 45.68600 21.35400
C  7.47200 44.65500 22.45900
N  7.53000 48.52700 25.67400
C  6.41200 48.29500 24.83300
C  5.16600 48.38300 25.60200
C  5.59200 48.73600 26.90600
C  7.02100 48.75100 26.91300
C  3.79000 48.18700 25.15000
C  5.14300 49.03300 28.26000
O  4.01400 49.01500 28.78100
C  6.49200 49.15000 29.15200
C  6.41900 48.05800 30.13200
O  6.86000 46.94000 29.85900
O  5.78200 48.41500 31.29600
C  5.50400 47.37100 32.25900
H  13.21400 49.92300 27.51400
H  11.87400 47.63400 21.53300
H  5.73800 47.64900 22.91000
H  9.13900 50.35300 30.25300
H  11.92200 49.88800 29.68200
H  10.22200 52.31800 29.48000
H  11.25900 52.02800 28.03100
H  11.93700 52.08600 29.67200
H  11.10400 48.22900 30.81200
H  9.51200 47.62200 30.44400
H  8.68800 49.37500 32.47800
H  10.45600 49.28600 32.58400
H  15.02500 49.62500 26.76400
H  15.58700 50.08600 25.17900
H  15.68300 48.43400 25.73500
H  15.96200 49.48200 23.30700
H  16.57900 48.17100 22.02100
H  16.36600 47.80000 23.62400
H  9.48700 46.16600 20.82500
H  7.27900 47.87000 20.82000
H  9.39500 49.20900 19.94000
H  8.78200 47.91500 18.86300
H  10.45500 47.94600 19.33800
H  7.44600 45.11200 20.45900
H  6.12000 45.75200 21.43100
H  8.00500 45.10500 23.29700
H  8.19600 43.91400 22.11800
H  6.59700 44.11900 22.82600
H  3.07800 48.48600 25.91900
H  3.68700 47.14500 24.84700
H  3.67900 48.85300 24.29400
H  6.38800 50.04700 29.76200
H  6.31100 47.26800 32.98400
H  5.29600 46.42800 31.75200
H  4.64400 47.56900 32.89800

