158

Mg 24.00900 -5.60100 45.32800
C  26.42600 -3.40300 43.83400
C  21.69700 -4.40300 43.09200
C  22.09900 -8.13000 46.27500
C  26.61200 -6.70800 47.40200
N  24.12000 -4.14200 43.58100
C  25.20600 -3.36000 43.17700
C  24.78100 -2.36500 42.14400
C  23.18300 -2.53700 42.06600
C  22.92400 -3.77500 42.95600
C  22.41100 -1.29800 42.55200
C  25.52500 -2.68500 40.78800
C  25.99000 -1.46900 39.90000
H  25.54000 -1.55800 38.43500
N  22.15900 -6.14800 44.82900
C  21.39800 -5.55800 43.86300
C  20.14300 -6.18300 43.79800
C  20.06800 -7.17000 44.87400
C  21.45200 -7.17000 45.42500
C  19.01900 -5.76700 42.89100
C  18.92900 -7.95800 45.36500
O  17.79900 -7.69000 44.82400
C  19.03400 -8.95600 46.46600
N  24.28700 -7.22100 46.54400
C  23.34600 -8.11500 46.81600
C  23.85000 -9.26100 47.71100
C  25.24800 -8.64900 48.26300
C  25.45000 -7.49300 47.34400
C  22.88500 -9.83000 48.81800
C  26.45100 -9.63500 48.37600
C  27.34700 -9.60400 49.64800
N  26.08700 -5.08500 45.64700
C  26.93500 -5.62200 46.55100
C  28.23800 -4.92500 46.42100
C  28.07500 -3.97700 45.39700
C  26.77500 -4.15300 44.95700
C  29.47900 -5.09200 47.21700
C  28.71100 -2.85400 44.70000
O  29.79600 -2.31500 44.89400
C  27.74200 -2.52400 43.54600
C  27.58400 -1.08200 43.52400
O  27.20800 -0.40000 44.41500
O  28.05400 -0.62000 42.28100
C  28.06000 0.81200 42.17200
H  20.96600 -4.02300 42.37500
H  21.56300 -9.04000 46.55100
H  27.35300 -7.01000 48.14500
H  24.99400 -1.33300 42.42200
H  22.78000 -2.90600 41.12300
H  22.90900 -0.42700 42.97900
H  21.76200 -1.53500 43.39500
H  21.97600 -1.00700 41.59600
H  24.87500 -3.30900 40.17500
H  26.43900 -3.24500 40.98300
H  27.07600 -1.50900 39.81500
H  25.63100 -0.52400 40.31000
H  18.29300 -6.52700 42.60300
H  19.47900 -5.30200 42.01900
H  18.40300 -5.01000 43.37600
H  19.39700 -8.57100 47.41900
H  19.61400 -9.81400 46.12700
H  18.01100 -9.27500 46.66600
H  24.18800 -10.05400 47.04400
H  25.03100 -8.15100 49.20700
H  21.92400 -9.31600 48.79200
H  23.16300 -9.84400 49.87200
H  22.85500 -10.88300 48.54000
H  27.00900 -9.54100 47.44500
H  26.00000 -10.62700 48.36100
H  28.38200 -9.85600 49.41500
H  27.04400 -10.44300 50.27400
H  27.21800 -8.68400 50.22000
H  29.26200 -5.21400 48.27800
H  30.12300 -4.21300 47.18900
H  29.98400 -5.97800 46.83400
H  28.13600 -2.75000 42.55400
H  28.36300 1.21400 41.20500
H  28.82400 1.27900 42.79300
H  27.11600 1.32400 42.36000
Mg 25.47100 1.35700 29.38400
C  27.59700 0.82900 32.24000
C  22.77300 1.53700 31.60100
C  23.46000 1.34400 26.70900
C  28.21800 0.62500 27.37100
N  25.30100 1.20800 31.68400
C  26.23700 1.14200 32.63900
C  25.66000 1.24800 33.98500
C  24.10300 1.26900 33.76400
C  24.04200 1.35900 32.26800
C  23.37700 0.07100 34.39600
C  26.10500 2.43600 34.81900
C  26.66100 2.19000 36.18600
H  26.21900 3.10500 37.35400
N  23.37900 1.55700 29.15400
C  22.48500 1.57400 30.19700
C  21.16900 1.72700 29.57700
C  21.23700 1.70900 28.15900
C  22.75800 1.55500 27.93800
C  19.89000 1.65300 30.43400
C  20.14600 1.79200 27.04200
O  20.48100 1.74300 25.85400
C  18.74900 1.84100 27.44800
N  25.81400 0.94900 27.36900
C  24.82900 1.06300 26.44600
C  25.38000 0.59900 25.07800
C  26.98200 0.72400 25.20100
C  26.99000 0.76100 26.74700
C  24.84700 -0.70300 24.67200
C  27.60700 1.92900 24.55300
C  28.58000 1.68500 23.40800
N  27.54800 0.83800 29.68700
C  28.47100 0.56700 28.74700
C  29.78100 0.40600 29.42700
C  29.49600 0.42200 30.76100
C  28.10400 0.65900 30.91100
C  31.03700 0.14800 28.79500
C  30.06000 0.33000 32.12700
O  31.18300 0.09300 32.48200
C  28.83400 0.59200 33.07900
C  28.79100 -0.54400 34.03400
O  28.74800 -1.75800 33.76800
O  28.88200 -0.08000 35.36600
C  28.98700 -1.00800 36.48500
H  21.98300 1.78700 32.31200
H  22.83300 1.34900 25.81600
H  28.95700 0.48500 26.57900
H  25.97500 0.32800 34.47800
H  23.57800 2.16200 34.10300
H  23.90200 -0.53600 35.13300
H  23.02800 -0.57100 33.58700
H  22.39500 0.35600 34.77600
H  25.26400 3.11600 34.95500
H  26.81300 2.96100 34.17800
H  27.71000 2.48600 36.16100
H  26.54700 1.13900 36.45400
H  20.04700 1.38900 31.48000
H  19.16900 0.95700 30.00500
H  19.36700 2.60400 30.53400
H  18.04000 1.86500 26.62000
H  18.56700 2.62700 28.18100
H  18.59100 0.91900 28.00800
H  25.11000 1.27600 24.26700
H  27.47400 -0.19400 24.87800
H  25.64300 -1.41700 24.46100
H  24.32600 -0.73800 23.71500
H  24.19800 -1.11100 25.44700
H  28.17600 2.39200 25.35900
H  26.86700 2.68100 24.28200
H  29.61400 1.86900 23.69800
H  28.43700 2.28200 22.50800
H  28.46300 0.68300 22.99500
H  31.19900 0.89900 28.02300
H  30.91700 -0.82300 28.31400
H  31.80300 0.19600 29.56900
H  29.04400 1.49700 33.64800
H  28.03500 -1.53800 36.52000
H  28.96200 -0.55900 37.47800
H  29.81900 -1.71000 36.42200

