158

Mg 30.38700 57.62500 40.45100
C  27.60800 55.64000 39.59300
C  32.39800 55.16600 38.98000
C  33.01100 59.78600 40.67800
C  28.25500 60.32900 40.90400
N  29.99600 55.72000 39.09500
C  28.81900 54.99600 39.11500
C  28.91800 53.56100 38.79300
C  30.51200 53.42300 38.77000
C  30.98800 54.84800 38.97100
C  31.05200 52.52600 39.88600
C  28.16300 53.00100 37.53700
C  28.72600 53.05400 36.13200
H  27.80400 53.71100 35.03900
N  32.39600 57.48000 39.94000
C  32.99200 56.38700 39.30900
C  34.41700 56.64700 39.16500
C  34.65000 58.01300 39.64900
C  33.32500 58.53600 40.13200
C  35.51700 55.65300 38.67900
C  35.95600 58.63600 39.66800
O  36.96000 58.03200 39.31900
C  36.16000 60.08500 40.03000
N  30.56200 59.63900 40.77100
C  31.75000 60.26200 40.98800
C  31.64400 61.68400 41.57700
C  30.08600 61.87300 41.57400
C  29.62400 60.55200 40.94100
C  32.43500 61.84100 42.93000
C  29.48600 63.17300 40.97600
C  29.66100 64.48900 41.76200
N  28.33100 57.87400 40.41400
C  27.62200 59.07800 40.72800
C  26.28300 58.78000 40.55400
C  26.15300 57.46200 40.15200
C  27.50200 56.92800 40.07800
C  25.14700 59.66100 40.87200
C  25.26900 56.48200 39.74200
O  24.06200 56.43200 39.55000
C  26.18300 55.19200 39.43500
C  25.74500 54.03800 40.24500
O  26.34200 53.62500 41.22200
O  24.54900 53.46000 39.77200
C  23.73000 52.78900 40.85200
H  33.03800 54.29900 38.80600
H  33.84000 60.48700 40.79500
H  27.57000 61.17800 40.93200
H  28.68800 53.03700 39.72100
H  30.88400 53.13100 37.78800
H  31.59200 53.06700 40.66300
H  31.80600 51.91000 39.39500
H  30.29100 51.86800 40.30600
H  27.16800 53.44100 37.46900
H  28.00200 51.93300 37.68800
H  28.89200 52.05700 35.72300
H  29.69600 53.54500 36.05700
H  35.92800 56.00900 37.73400
H  35.15700 54.63700 38.51700
H  36.29400 55.39500 39.39900
H  35.81600 60.41300 41.01100
H  35.64400 60.60800 39.22500
H  37.20800 60.38200 40.01600
H  31.99600 62.31200 40.75900
H  29.66200 61.79100 42.57500
H  32.87100 60.94100 43.36600
H  31.70500 62.17600 43.66700
H  33.17200 62.64200 42.87300
H  28.43400 62.99000 40.75900
H  29.84800 63.27000 39.95300
H  28.72500 64.74700 42.25700
H  29.87100 65.23600 40.99700
H  30.53900 64.46100 42.40700
H  24.89200 60.12800 39.92000
H  25.38800 60.51500 41.50500
H  24.32900 59.09300 41.31500
H  25.95900 54.87600 38.41700
H  23.38400 53.61100 41.47900
H  24.36400 52.03300 41.31500
H  22.91900 52.24300 40.36900
Mg 16.31600 51.53700 26.90000
C  18.28800 50.34200 29.52700
C  13.98400 52.48600 29.11900
C  14.43700 52.55700 24.25600
C  18.94500 50.66900 24.70900
N  16.18700 51.47300 29.05300
C  17.12600 50.98400 29.92000
C  16.66900 51.22400 31.39900
C  15.14800 51.57800 31.31300
C  15.09600 51.86100 29.76100
C  14.04900 50.45600 31.68100
C  17.60300 52.38200 32.01500
C  17.93500 52.33300 33.57000
H  17.02500 51.40500 34.46000
N  14.42100 52.40000 26.69100
C  13.65900 52.76300 27.74400
C  12.59100 53.52100 27.21700
C  12.60900 53.48000 25.83500
C  13.82200 52.74300 25.47700
C  11.64700 54.23600 28.08200
C  11.68200 54.12100 24.86700
O  11.81500 53.99900 23.67000
C  10.56900 55.04200 25.35500
N  16.66100 51.59800 24.83000
C  15.67300 52.02200 23.88500
C  16.34900 52.21000 22.53900
C  17.73100 51.60600 22.70700
C  17.81700 51.29400 24.19200
C  15.50800 51.80300 21.28100
C  18.88800 52.44900 22.11100
C  20.03100 51.73400 21.29800
N  18.22100 50.58300 27.00500
C  19.19900 50.32900 26.09400
C  20.38800 49.67100 26.70600
C  20.04900 49.77400 28.06600
C  18.75100 50.27800 28.21200
C  21.72600 49.23700 26.01400
C  20.58000 49.51500 29.32500
O  21.70800 49.10900 29.65000
C  19.46800 49.89400 30.37900
C  19.17500 48.54000 30.95300
O  19.14200 47.42800 30.40200
O  18.92600 48.66300 32.34400
C  18.11900 47.56600 32.86800
H  13.18200 52.82400 29.77900
H  13.81200 53.02600 23.49300
H  19.73000 50.38100 24.00800
H  16.59400 50.35200 32.04800
H  15.01500 52.43200 31.97600
H  13.41800 50.59700 32.55800
H  14.55900 49.49500 31.75900
H  13.40900 50.53400 30.80300
H  17.05500 53.32300 31.96600
H  18.56100 52.36400 31.49500
H  17.96200 53.35700 33.94200
H  18.93800 51.92600 33.69600
H  11.72700 54.11700 29.16200
H  10.70100 53.71800 27.92400
H  11.34100 55.24100 27.78800
H  9.96900 55.43100 24.53200
H  10.77700 55.98100 25.86800
H  9.93800 54.48800 26.05000
H  16.55200 53.28100 22.51200
H  17.80700 50.59300 22.31200
H  15.47500 52.65100 20.59700
H  14.46300 51.54400 21.45100
H  16.03100 51.00100 20.75900
H  19.40600 52.87100 22.97200
H  18.42200 53.24700 21.53300
H  20.43800 52.47000 20.60400
H  19.77700 50.78300 20.83000
H  20.84300 51.54600 22.00100
H  22.47500 48.90500 26.73300
H  22.13900 50.09300 25.47800
H  21.53000 48.39800 25.34600
H  19.86100 50.55700 31.15000
H  17.64200 47.91300 33.78500
H  18.63600 46.62800 33.06900
H  17.21600 47.43800 32.27100

