158

Mg 50.35500 35.53800 27.21300
C  47.94200 34.29600 29.51600
C  50.69300 38.34400 29.17700
C  52.17800 36.78200 24.78300
C  49.09900 33.24900 24.95400
N  49.46600 36.21400 29.09800
C  48.68500 35.38200 29.95800
C  48.69200 36.00700 31.36600
C  49.12400 37.48400 31.05000
C  49.84300 37.33600 29.71100
C  47.94300 38.52000 31.11600
C  49.70000 35.27500 32.30000
C  49.26900 35.23100 33.81100
H  48.24500 36.27600 34.34500
N  51.46900 37.24100 27.07600
C  51.53100 38.31700 28.00000
C  52.42000 39.38100 27.47500
C  52.86600 38.93400 26.20000
C  52.18000 37.60600 25.99400
C  52.79000 40.56400 28.32800
C  53.85400 39.54100 25.29600
O  54.11200 39.07600 24.22700
C  54.55700 40.81100 25.69400
N  50.73600 34.98100 25.22100
C  51.61600 35.62800 24.39400
C  51.73200 34.99400 23.06300
C  50.94500 33.69200 23.27500
C  50.15700 33.93600 24.58000
C  51.22400 35.96800 21.95100
C  51.87700 32.46000 23.32500
C  51.32200 31.20300 22.50700
N  48.81600 34.06500 27.15200
C  48.41700 33.23900 26.19200
C  47.34400 32.39000 26.61300
C  47.15800 32.75100 27.92700
C  48.01900 33.80200 28.17600
C  46.73000 31.28100 25.90500
C  46.38100 32.53200 29.14900
O  45.52100 31.71900 29.42100
C  46.85300 33.57800 30.21100
C  47.31400 32.72000 31.39000
O  48.39900 32.12500 31.43100
O  46.38000 32.67400 32.46600
C  46.72800 31.89600 33.59400
H  50.71300 39.22800 29.81700
H  52.66800 37.30600 23.96000
H  48.59200 32.50200 24.34000
H  47.68000 36.01900 31.76900
H  49.73600 37.77200 31.90400
H  47.96400 39.04700 30.16200
H  48.06500 39.26500 31.90100
H  46.99500 37.98300 31.14100
H  50.64100 35.82400 32.28000
H  49.94200 34.31200 31.85200
H  50.13100 35.34500 34.46800
H  48.94300 34.19900 33.94700
H  53.86800 40.55800 28.49000
H  52.27400 40.58000 29.28800
H  52.37000 41.42700 27.81300
H  53.82400 41.59700 25.87100
H  55.15200 41.25000 24.89300
H  55.27000 40.66700 26.50600
H  52.78000 34.84400 22.80600
H  50.25500 33.49900 22.45400
H  50.39100 35.35500 21.60800
H  51.97900 36.18100 21.19400
H  50.88800 36.89100 22.42500
H  51.86300 32.03400 24.32800
H  52.90700 32.66600 23.03400
H  52.21900 30.69000 22.16100
H  50.75700 31.40900 21.59800
H  50.72800 30.60200 23.19600
H  47.53900 30.70000 25.46300
H  46.01700 31.71100 25.20200
H  46.14500 30.59700 26.52000
H  46.01200 34.22900 30.45100
H  47.80100 31.80700 33.76200
H  46.21000 30.94500 33.46900
H  46.23500 32.40300 34.42400
Mg -10.74700 38.34600 41.74300
C  -8.93900 35.60500 40.78500
C  -8.33200 40.43700 40.16900
C  -12.91800 40.90800 41.98600
C  -13.39500 36.12700 42.72900
N  -8.93300 38.01800 40.58700
C  -8.43000 36.80400 40.23800
C  -7.15400 36.94100 39.46100
C  -6.79700 38.45200 39.46200
C  -8.10300 39.04600 40.13000
C  -5.53900 38.92100 40.24700
C  -7.30600 36.34400 38.02400
C  -6.23800 35.26000 37.65400
H  -5.18700 35.61700 36.59500
N  -10.55600 40.40300 41.35400
C  -9.57200 41.06900 40.63900
C  -9.88300 42.49800 40.51700
C  -11.09700 42.72300 41.16100
C  -11.55600 41.31500 41.61900
C  -8.89900 43.49200 39.96300
C  -11.81500 44.14700 41.32800
O  -11.39100 45.15300 40.79600
C  -13.02200 44.23900 42.22000
N  -12.91500 38.40900 42.12500
C  -13.51300 39.64500 42.26900
C  -15.02500 39.46000 42.63800
C  -15.09600 37.91900 42.92200
C  -13.72400 37.45100 42.55900
C  -15.70900 40.42500 43.73600
C  -16.28700 37.20700 42.19300
C  -16.18500 36.94700 40.66200
N  -11.04500 36.22600 41.85600
C  -12.19800 35.52200 42.34600
C  -11.71700 34.14400 42.57800
C  -10.37400 34.10500 41.97400
C  -10.07900 35.39900 41.54400
C  -12.48000 33.00600 43.20900
C  -9.19300 33.26600 41.60700
O  -8.96200 32.06800 41.81000
C  -8.28300 34.20300 40.75500
C  -6.89400 34.20900 41.34500
O  -5.91100 33.52700 40.95800
O  -6.77300 35.19700 42.32900
C  -5.40000 35.44900 42.75200
H  -7.65400 41.03900 39.56000
H  -13.69300 41.67700 41.97000
H  -14.08100 35.42000 43.20000
H  -6.25600 36.55200 39.94200
H  -6.65700 38.92200 38.48800
H  -5.68900 39.93800 40.60800
H  -4.63400 38.90100 39.64000
H  -5.47700 38.30000 41.14000
H  -7.21400 37.16000 37.30700
H  -8.34000 36.06500 37.82500
H  -6.87000 34.41600 37.37700
H  -5.71200 34.99100 38.57000
H  -9.03400 44.40300 40.54500
H  -9.02200 43.57600 38.88300
H  -7.96800 42.96300 40.16400
H  -12.96900 43.52200 43.04000
H  -13.91400 44.03300 41.62900
H  -13.07500 45.25500 42.61100
H  -15.63700 39.77700 41.79300
H  -15.14000 37.92300 44.01100
H  -16.35800 39.90500 44.44100
H  -16.37400 41.14100 43.25200
H  -15.02500 40.91400 44.42900
H  -17.18400 37.80500 42.35300
H  -16.50900 36.28900 42.73900
H  -16.44800 37.89000 40.18300
H  -16.86000 36.13400 40.39700
H  -15.19500 36.59300 40.37500
H  -12.12800 32.01500 42.92400
H  -13.55300 32.98600 43.01800
H  -12.32200 33.06300 44.28600
H  -8.38100 33.90400 39.71200
H  -4.84900 34.52000 42.90000
H  -5.36100 35.94200 43.72300
H  -4.92000 36.07600 42.00100

