158

Mg 16.83500 51.43500 27.22100
C  19.24700 50.07200 29.51300
C  14.68500 51.73900 29.87900
C  14.59000 52.43300 25.06900
C  19.01700 50.61800 24.67200
N  16.98000 50.95700 29.44800
C  18.10500 50.53400 30.15800
C  17.90000 50.82100 31.66200
C  16.36800 51.11600 31.67400
C  15.96500 51.29800 30.27900
C  15.53700 50.07400 32.47700
C  18.77400 52.04600 32.16900
C  19.09800 51.96000 33.74400
H  18.15300 51.10500 34.67000
N  14.94000 52.08300 27.41900
C  14.18200 52.08200 28.63000
C  12.81100 52.55900 28.32500
C  12.75100 52.75500 26.88000
C  14.10800 52.41800 26.40100
C  11.69400 52.58100 29.40000
C  11.62400 53.32900 26.04600
O  11.73600 53.51400 24.83700
C  10.24300 53.56800 26.73000
N  16.86500 51.61200 25.17400
C  15.83400 52.12400 24.50900
C  16.18000 52.18800 22.98200
C  17.60400 51.61300 22.89600
C  17.85500 51.23800 24.33500
C  15.26500 51.40500 22.04100
C  18.67900 52.67400 22.38500
C  19.69400 52.10200 21.25400
N  18.71600 50.49800 27.05100
C  19.50700 50.24000 25.93200
C  20.68800 49.53300 26.34900
C  20.64800 49.53000 27.71500
C  19.48200 50.10700 28.11000
C  21.72900 48.89800 25.43000
C  21.45100 49.18900 28.90400
O  22.53500 48.68000 28.95200
C  20.54100 49.59600 30.12600
C  20.27200 48.43500 31.06800
O  19.98300 47.28800 30.71700
O  20.42400 48.97500 32.35300
C  20.13300 47.97000 33.32500
H  14.00800 51.89900 30.72000
H  13.89000 52.80000 24.31600
H  19.68000 50.35000 23.84700
H  18.13700 49.96200 32.28900
H  16.30900 52.13200 32.06300
H  14.72700 49.61600 31.90800
H  15.07700 50.57900 33.32700
H  16.17500 49.21100 32.66600
H  18.17100 52.93200 31.97000
H  19.64100 52.09600 31.51000
H  19.13800 53.01000 34.03500
H  20.09300 51.52000 33.81600
H  11.94700 52.37400 30.43900
H  10.91300 51.86700 29.13800
H  11.38400 53.62500 29.35400
H  10.28000 54.42300 27.40600
H  10.01200 52.64200 27.25700
H  9.53800 53.50800 25.90200
H  16.17200 53.25500 22.75600
H  17.75100 50.68200 22.34800
H  15.87200 50.91200 21.28100
H  14.54600 52.06100 21.55100
H  14.67100 50.68000 22.59700
H  19.31500 53.00200 23.20700
H  18.17000 53.58500 22.07200
H  20.63500 52.65100 21.29100
H  19.35700 52.07400 20.21800
H  19.95100 51.07200 21.50500
H  22.04600 47.99300 25.94900
H  22.48000 49.67600 25.29000
H  21.24000 48.67600 24.48100
H  20.98100 50.47300 30.60000
H  20.70400 47.07600 33.07300
H  19.07200 47.72300 33.29000
H  20.37200 48.22500 34.35700
Mg -12.25200 16.23400 41.96900
C  -9.09100 14.50900 41.38400
C  -10.80300 19.02400 40.69400
C  -15.22600 17.39800 41.71000
C  -13.51500 13.06900 42.84400
N  -10.15400 16.62700 40.91200
C  -9.09300 15.83400 40.93500
C  -7.92700 16.62800 40.54100
C  -8.42700 18.14400 40.36800
C  -9.90400 17.92900 40.66400
C  -7.62800 19.22500 41.23800
C  -7.24400 16.00600 39.26000
C  -5.74100 16.15900 39.21200
H  -5.11100 16.73400 37.98700
N  -12.92100 18.02400 41.31100
C  -12.18300 19.03100 40.83700
C  -13.09500 20.08000 40.53800
C  -14.38100 19.70700 40.94500
C  -14.22000 18.32600 41.31400
C  -12.60800 21.39100 39.94900
C  -15.61600 20.53600 40.80900
O  -15.56300 21.69800 40.29800
C  -17.02100 20.17400 41.31300
N  -14.13000 15.30300 42.15600
C  -15.21000 16.09100 42.12800
C  -16.48000 15.23300 42.17700
C  -16.02900 13.81300 42.69200
C  -14.45700 14.00300 42.50300
C  -17.62100 15.80400 43.06900
C  -16.63700 12.53800 42.00500
C  -17.04300 11.41300 43.02200
N  -11.47900 14.18400 42.22800
C  -12.08600 13.06800 42.71000
C  -11.12700 11.96400 42.87000
C  -9.90200 12.54400 42.41100
C  -10.20500 13.87800 41.97700
C  -11.38800 10.59300 43.42300
C  -8.44900 12.22200 42.23200
O  -7.73700 11.23900 42.43500
C  -7.85500 13.51700 41.53200
C  -6.75800 14.02700 42.39000
O  -6.86800 14.77700 43.33300
O  -5.56500 13.65800 41.84800
C  -4.40800 14.22100 42.50700
H  -10.43800 20.02400 40.45200
H  -16.23600 17.81100 41.68100
H  -13.99600 12.13000 43.12600
H  -7.28000 16.61600 41.41800
H  -8.25800 18.40300 39.32300
H  -8.33000 19.83800 41.80300
H  -6.99000 19.93700 40.71600
H  -6.96800 18.71900 41.94300
H  -7.69500 16.42200 38.35900
H  -7.37700 14.92600 39.18800
H  -5.27300 15.18900 39.38400
H  -5.44600 16.70800 40.10600
H  -12.73800 22.26700 40.58400
H  -13.27600 21.39600 39.08800
H  -11.61600 21.43400 39.49800
H  -17.36200 19.38600 40.64200
H  -17.68000 21.01700 41.10500
H  -17.07600 19.95600 42.38000
H  -16.88400 15.18100 41.16600
H  -16.18800 13.58300 43.74500
H  -17.19400 16.53200 43.75900
H  -18.12000 15.00500 43.61900
H  -18.18800 16.30200 42.28300
H  -15.96100 12.13000 41.25400
H  -17.55300 12.92800 41.56100
H  -18.01300 11.74800 43.39100
H  -16.23600 11.21300 43.72700
H  -17.10000 10.59900 42.30000
H  -11.59000 10.67900 44.49100
H  -10.59000 9.86000 43.29900
H  -12.28900 10.13100 43.02100
H  -7.41500 13.18900 40.59000
H  -4.34200 15.30800 42.47400
H  -3.49300 13.87900 42.02400
H  -4.40700 13.94100 43.56000

