158

Mg 34.62000 3.18100 30.52900
C  32.21500 3.73000 33.07200
C  37.07800 3.46600 32.90000
C  36.83700 2.58500 28.16400
C  32.10300 3.54500 28.15600
N  34.57300 3.52400 32.67800
C  33.47500 3.54000 33.56200
C  33.92500 3.78500 35.03300
C  35.53000 3.95100 34.88200
C  35.75500 3.73200 33.37200
C  36.13500 5.20500 35.62000
C  33.48300 2.52000 35.80400
C  32.91800 2.81900 37.28200
H  33.58100 3.86800 38.19100
N  36.66500 2.90600 30.52500
C  37.47100 3.15200 31.63800
C  38.84700 2.87100 31.23600
C  38.82300 2.42000 29.85100
C  37.41900 2.64400 29.46200
C  40.00000 2.99500 32.22000
C  39.97900 1.90100 28.98300
O  39.73400 1.58900 27.84100
C  41.41000 1.69400 29.49500
N  34.40200 3.00700 28.46600
C  35.49900 2.81600 27.70100
C  35.12000 2.94100 26.18500
C  33.60100 3.30700 26.18600
C  33.33500 3.19900 27.65200
C  36.08800 3.92400 25.51900
C  32.72800 2.26600 25.46400
C  32.34500 0.88200 26.14500
N  32.56300 3.32700 30.51900
C  31.67200 3.59000 29.49500
C  30.37800 3.91300 29.98700
C  30.54200 3.92800 31.36900
C  31.92000 3.69800 31.67300
C  29.12400 4.11000 29.22400
C  29.83000 4.18900 32.57200
O  28.67100 4.45200 32.78100
C  30.92600 4.21400 33.69200
C  30.93200 5.58500 34.24900
O  31.36100 6.59200 33.73100
O  30.33900 5.45600 35.47400
C  30.54300 6.58300 36.35100
H  37.76400 3.60200 33.73900
H  37.37800 2.33000 27.25100
H  31.36600 3.93000 27.44800
H  33.45800 4.70700 35.37800
H  36.20600 3.24500 35.36500
H  36.00900 5.03200 36.68800
H  35.73900 6.16300 35.28200
H  37.21200 5.17600 35.45700
H  34.34000 1.89300 36.05000
H  32.73500 2.01600 35.19200
H  33.13800 1.89100 37.81000
H  31.82800 2.84500 37.28000
H  40.96300 3.14200 31.72900
H  39.96500 2.05000 32.76100
H  39.81100 3.87500 32.83500
H  41.90600 2.65000 29.66100
H  41.81700 1.04200 28.72200
H  41.34700 1.22700 30.47800
H  35.45000 2.02000 25.70400
H  33.35700 4.28500 25.77200
H  36.54100 3.38700 24.68500
H  36.75900 4.49400 26.16100
H  35.59600 4.75300 25.01100
H  33.19600 1.93600 24.53700
H  31.74200 2.71100 25.33100
H  31.29400 0.93800 26.42800
H  33.07800 0.69100 26.92900
H  32.26000 0.14900 25.34300
H  28.87700 5.17000 29.29400
H  28.27400 3.73600 29.79600
H  29.14700 3.95000 28.14600
H  30.53000 3.45500 34.36700
H  30.99800 6.20500 37.26600
H  29.55400 7.01500 36.50700
H  31.15300 7.40500 35.97600
Mg 30.63900 57.59900 40.54900
C  27.61400 55.79600 39.53800
C  32.48400 54.96600 39.23400
C  33.29200 59.57700 40.53800
C  28.50100 60.40200 41.09300
N  30.12500 55.68600 39.56600
C  28.85400 55.13100 39.26700
C  28.96000 53.67100 38.83600
C  30.51900 53.36600 39.12600
C  31.09600 54.72900 39.39700
C  30.71000 52.42700 40.36300
C  28.58100 53.41000 37.31200
C  29.20600 54.33100 36.22500
H  28.60300 54.54100 34.73800
N  32.63000 57.37400 40.00300
C  33.15800 56.23000 39.50700
C  34.47300 56.39900 39.13500
C  34.81900 57.69700 39.58200
C  33.54600 58.27500 40.09600
C  35.34700 55.41700 38.41900
C  36.22100 58.22900 39.47000
O  37.09400 57.54100 38.92500
C  36.48500 59.63400 39.85300
N  30.83500 59.64900 40.83300
C  32.09300 60.22700 40.93100
C  32.00300 61.75600 41.06500
C  30.45800 61.95800 41.41800
C  29.83700 60.59700 41.05800
C  32.87000 62.45100 42.07900
C  29.93000 63.32400 40.75000
C  28.73800 64.06000 41.57700
N  28.53600 58.01500 40.45100
C  27.83500 59.16600 40.78400
C  26.45700 58.90900 40.67500
C  26.26100 57.56800 40.24500
C  27.58100 57.08700 40.07100
C  25.30000 59.85900 40.94300
C  25.28900 56.51300 39.70300
O  24.10400 56.53700 39.50600
C  26.20400 55.26700 39.23200
C  25.86300 54.14100 40.05700
O  26.45600 53.75800 41.08200
O  24.77300 53.57500 39.47400
C  24.36700 52.44300 40.18900
H  33.09600 54.12500 38.90300
H  34.05800 60.35200 40.46300
H  27.83500 61.25300 41.24900
H  28.30800 53.06800 39.46800
H  30.98600 52.88200 38.26700
H  31.09000 51.49000 39.95500
H  29.74900 52.32000 40.86500
H  31.48900 52.72600 41.06500
H  27.51600 53.18200 37.25700
H  29.10700 52.48500 37.07500
H  30.17700 53.87300 36.03500
H  29.46100 55.33000 36.58000
H  34.80600 54.61200 37.92100
H  35.99600 55.01500 39.19700
H  36.00800 55.89100 37.69300
H  37.51900 59.94200 39.70000
H  36.10000 59.88900 40.84000
H  36.02600 60.27400 39.09900
H  32.08000 62.08700 40.02900
H  30.29700 62.06600 42.49100
H  32.32800 62.95600 42.87800
H  33.46700 63.23700 41.61700
H  33.53300 61.71100 42.52800
H  29.61300 63.22100 39.71200
H  30.76200 64.02500 40.80600
H  28.53200 63.49100 42.48200
H  27.82700 64.00200 40.98200
H  28.97400 65.09800 41.81500
H  24.77700 59.72300 41.88900
H  24.59400 59.81200 40.11400
H  25.66100 60.88600 40.87700
H  26.17000 54.98600 38.18000
H  23.73600 51.79200 39.58300
H  23.76600 52.69500 41.06300
H  25.27100 51.89100 40.44700

