158

Mg 27.52500 49.69100 26.96600
C  25.58300 50.58400 29.75200
C  30.15800 49.15600 29.21800
C  29.51000 48.61200 24.39400
C  24.98000 50.45500 24.89100
N  27.77900 49.87400 29.24800
C  26.86400 50.20100 30.15900
C  27.26800 49.82400 31.59200
C  28.78300 49.56800 31.42900
C  28.93600 49.59100 29.86300
C  29.74100 50.65100 31.95400
C  26.44500 48.70400 32.29300
C  25.49500 49.11600 33.51100
H  25.80200 48.47000 34.87500
N  29.55600 48.99100 26.86300
C  30.45600 48.84400 27.86100
C  31.71700 48.19800 27.30400
C  31.60400 48.29500 25.88000
C  30.17200 48.63600 25.66000
C  32.84500 47.80300 28.19800
C  32.51600 48.01000 24.85200
O  32.28400 48.27000 23.63000
C  33.84200 47.48300 25.18300
N  27.33200 49.69000 24.99000
C  28.23200 49.10900 24.11800
C  27.68400 49.07300 22.66200
C  26.25500 49.62500 22.83000
C  26.19800 49.99400 24.36000
C  28.57700 49.82400 21.62700
C  25.04300 48.60900 22.48600
C  23.82000 49.20200 21.76500
N  25.67900 50.44800 27.18000
C  24.75800 50.74500 26.25500
C  23.60500 51.29400 26.85900
C  23.83100 51.20800 28.29500
C  25.11000 50.65900 28.40300
C  22.27300 51.70100 26.21600
C  23.30300 51.48400 29.66100
O  22.20300 51.80800 30.03600
C  24.49300 51.11800 30.66600
C  24.78300 52.33900 31.47100
O  25.62600 53.23900 31.29100
O  23.98200 52.20200 32.52700
C  24.08700 53.38300 33.41700
H  30.97800 49.05300 29.93200
H  30.07300 48.18800 23.56000
H  24.08300 50.73300 24.33400
H  27.10000 50.73800 32.16200
H  29.15200 48.56800 31.65700
H  29.24200 51.42600 32.53600
H  30.27400 51.08400 31.10800
H  30.45400 50.12000 32.58400
H  27.19400 48.07400 32.77200
H  25.92500 48.07400 31.57100
H  24.51700 48.76100 33.18600
H  25.25800 50.17600 33.60300
H  32.53800 47.55600 29.21400
H  33.51700 48.65900 28.26900
H  33.32600 46.88100 27.87000
H  34.20200 48.09100 26.01300
H  34.49100 47.58800 24.31300
H  33.78000 46.42900 25.45500
H  27.66800 48.03100 22.34500
H  26.19900 50.51600 22.20400
H  29.50800 50.15400 22.08700
H  28.13400 50.64200 21.05800
H  28.95800 49.07900 20.92800
H  24.68100 48.09000 23.37400
H  25.41700 47.89800 21.75000
H  24.04100 50.19600 21.37500
H  23.01200 49.43300 22.46000
H  23.42900 48.52300 21.00800
H  22.26500 51.38400 25.17300
H  22.15100 52.77400 26.37000
H  21.43700 51.28800 26.78000
H  24.06200 50.39100 31.35300
H  24.02700 54.39600 33.01800
H  24.95500 53.41400 34.07500
H  23.30400 53.41000 34.17400
Mg 6.76200 52.82100 40.98700
C  6.05100 49.31900 41.03300
C  9.79900 52.24600 39.58600
C  7.14200 56.06200 40.53200
C  3.46900 53.32000 42.10000
N  7.70100 50.98500 40.31500
C  7.28500 49.66100 40.50400
C  8.41800 48.68900 39.91300
C  9.62200 49.60600 39.75800
C  9.03700 51.06100 39.91300
C  10.79700 49.46500 40.82000
C  7.99600 47.97300 38.63600
C  7.16200 48.73600 37.58400
H  7.83000 49.35600 36.32200
N  8.29500 53.97400 40.21300
C  9.48800 53.56600 39.72200
C  10.39800 54.67500 39.45600
C  9.70700 55.87200 39.73400
C  8.28100 55.38700 40.13500
C  11.85500 54.48600 39.01300
C  10.23700 57.24200 39.50500
O  11.40700 57.50600 39.06100
C  9.34200 58.46400 39.76700
N  5.45100 54.33600 40.97700
C  5.88400 55.65400 40.83400
C  4.85800 56.68100 41.24500
C  3.68500 55.77200 41.73000
C  4.20900 54.34300 41.50400
C  5.27300 57.75100 42.29300
C  2.39000 56.10900 40.99800
C  1.07600 55.69300 41.68600
N  5.03600 51.64600 41.45500
C  3.84700 52.01000 42.10000
C  3.12300 50.85900 42.63600
C  3.94700 49.77600 42.16200
C  5.04500 50.36500 41.43100
C  1.79400 50.85100 43.38600
C  4.08700 48.32600 42.15000
O  3.28800 47.48900 42.54600
C  5.42900 48.01700 41.47600
C  5.06400 47.18400 40.31000
O  4.59100 47.53700 39.19700
O  5.44500 45.91200 40.57100
C  5.32800 44.98000 39.41500
H  10.78100 51.92300 39.23300
H  7.27200 57.13700 40.39200
H  2.51200 53.42900 42.61500
H  8.58800 48.02700 40.76200
H  10.18600 49.54400 38.82800
H  10.92100 50.34800 41.44600
H  11.75100 49.22500 40.35100
H  10.60100 48.70700 41.57900
H  7.58900 46.99200 38.88200
H  8.98000 47.79000 38.20400
H  6.56800 49.54700 38.00600
H  6.55400 47.91700 37.20000
H  12.05700 55.06900 38.11400
H  12.21500 53.47400 38.82800
H  12.36600 54.86200 39.89900
H  9.84800 59.39000 39.49500
H  9.03900 58.38200 40.81100
H  8.51700 58.28600 39.07700
H  4.54400 57.33400 40.43000
H  3.55800 55.82500 42.81100
H  6.30200 57.61800 42.62700
H  4.66100 57.77800 43.19400
H  5.25700 58.70400 41.76400
H  2.27100 55.77200 39.96900
H  2.23600 57.16500 40.77900
H  1.13200 55.63900 42.77300
H  0.89900 54.69700 41.28000
H  0.28700 56.42100 41.49800
H  1.02200 50.63000 42.64900
H  1.69600 51.84600 43.81900
H  1.92500 50.19700 44.24800
H  6.10200 47.54300 42.19000
H  6.14800 45.03800 38.70000
H  4.43100 45.13400 38.81600
H  5.29300 43.97500 39.83400

