158

Mg 40.30900 9.77800 29.99000
C  42.24100 11.20500 32.43600
C  38.15300 8.52700 32.30500
C  38.45400 8.49500 27.47700
C  42.99700 10.31600 27.75100
N  40.26100 9.82300 32.09200
C  41.04700 10.57500 32.82900
C  40.54200 10.64500 34.30000
C  39.39800 9.48900 34.31000
C  39.22100 9.26200 32.83500
C  39.77700 8.20100 35.09000
C  40.07600 12.04300 34.85800
C  39.63900 12.08400 36.33900
H  40.27200 13.04500 37.35700
N  38.59800 8.62600 29.88300
C  37.78800 8.24000 30.93500
C  36.59100 7.48000 30.46500
C  36.59100 7.58400 29.00200
C  37.91100 8.32800 28.73000
C  35.50300 6.86300 31.36200
C  35.55000 7.03900 28.04000
O  35.67200 7.14700 26.80400
C  34.18400 6.53000 28.46600
N  40.59100 9.45800 27.88800
C  39.61900 8.95900 27.07300
C  40.14000 8.91000 25.55000
C  41.59300 9.44800 25.72000
C  41.78600 9.79200 27.17000
C  40.00600 7.66000 24.68800
C  41.87900 10.69900 24.76600
C  41.70600 12.10900 25.17900
N  42.22800 10.56500 29.98100
C  43.20200 10.73100 28.99400
C  44.37400 11.36000 29.61000
C  43.99400 11.67100 30.95100
C  42.71100 11.06500 31.14500
C  45.77800 11.58700 29.05100
C  44.44600 12.34000 32.21000
O  45.41500 13.07200 32.45500
C  43.29100 12.02500 33.20800
C  43.88700 11.44500 34.43800
O  44.34200 10.31700 34.48300
O  43.90900 12.36900 35.47200
C  44.44800 12.00400 36.77600
H  37.40300 8.17400 33.01500
H  37.87500 8.14200 26.62100
H  43.82200 10.41400 27.04200
H  41.38800 10.40500 34.94300
H  38.43500 9.83800 34.68400
H  40.86400 8.14200 35.03500
H  39.42100 7.32600 34.54800
H  39.38800 8.25300 36.10700
H  39.26300 12.46000 34.26400
H  40.90300 12.74100 34.72800
H  39.58400 11.06300 36.71800
H  38.61000 12.43400 36.26800
H  35.89000 6.93200 32.37800
H  35.31800 5.89300 30.90000
H  34.60500 7.47800 31.31800
H  34.38700 5.57700 28.95500
H  33.67800 6.28100 27.53300
H  33.63300 7.22000 29.10600
H  39.60900 9.76400 25.12700
H  42.31500 8.68700 25.42500
H  39.91500 6.81600 25.37200
H  40.91900 7.50500 24.11200
H  39.21200 7.66400 23.94100
H  41.22400 10.68200 23.89500
H  42.77700 10.59600 24.15700
H  41.39300 12.75300 24.35800
H  42.65400 12.51700 25.53100
H  40.94900 12.11400 25.96400
H  46.18500 10.58100 29.14900
H  46.40000 12.21500 29.68900
H  45.69400 12.00700 28.04800
H  42.81500 12.95800 33.50900
H  43.66400 11.86100 37.52000
H  45.23000 12.65700 37.16400
H  45.01700 11.07400 36.77300
Mg 54.59200 25.01200 44.84600
C  51.93900 27.18900 43.83500
C  52.60400 22.43700 43.67300
C  57.27300 23.10400 44.71200
C  56.32000 27.72400 45.92000
N  52.56800 24.86800 43.61500
C  51.67500 25.87400 43.49700
C  50.27700 25.29500 42.95000
C  50.42600 23.88600 43.45900
C  51.93100 23.71400 43.51300
C  49.77200 23.52900 44.80500
C  50.12400 25.44200 41.46200
C  48.69500 25.27900 40.85100
H  48.56800 24.30300 39.64400
N  54.92800 23.00100 44.28700
C  53.98100 22.12500 43.85400
C  54.54600 20.85300 43.66900
C  55.98500 21.05900 43.73200
C  56.14600 22.45600 44.21100
C  53.71700 19.63500 43.28200
C  57.06400 20.03200 43.40300
O  56.78800 18.84800 43.31400
C  58.52800 20.45700 43.16000
N  56.48600 25.30900 45.38700
C  57.44800 24.35400 45.26800
C  58.81100 24.94700 45.67900
C  58.50700 26.37800 46.17000
C  57.03700 26.51400 45.83400
C  59.59500 24.03800 46.71000
C  59.25400 27.55900 45.37100
C  59.91700 28.61700 46.29900
N  54.22100 27.03900 44.99600
C  55.02600 27.97600 45.58900
C  54.30300 29.26500 45.53500
C  53.03500 28.96100 44.91400
C  53.08300 27.62100 44.57500
C  54.72200 30.71400 46.04200
C  51.87800 29.52800 44.44700
O  51.53300 30.70000 44.45800
C  51.05200 28.34100 43.76100
C  50.53100 28.65100 42.39600
O  51.19600 29.07900 41.49200
O  49.19000 28.41900 42.26800
C  48.62000 28.96100 40.99400
H  51.97700 21.54300 43.64600
H  58.19700 22.53200 44.60300
H  56.89800 28.62500 46.13600
H  49.42300 25.74700 43.45500
H  49.86400 23.28700 42.74300
H  50.48100 23.56600 45.63200
H  49.18400 22.61100 44.83300
H  49.14800 24.34500 45.16800
H  50.75100 24.61100 41.14000
H  50.70200 26.30100 41.11900
H  48.33200 26.27300 40.58800
H  48.04700 24.80000 41.58500
H  53.91100 19.59900 42.21000
H  52.66500 19.61900 43.56800
H  54.23800 18.75300 43.65400
H  58.78100 21.36900 42.61900
H  58.96000 19.55200 42.73100
H  58.94500 20.68400 44.14100
H  59.39600 24.96800 44.76000
H  58.67400 26.57700 47.22800
H  58.96400 23.19900 47.00300
H  59.68400 24.61800 47.62800
H  60.58500 23.74200 46.36100
H  58.56400 28.08500 44.71200
H  60.01000 27.01300 44.80600
H  60.99700 28.47100 46.26500
H  59.55000 28.44700 47.31100
H  59.71000 29.66700 46.09100
H  53.92000 31.40700 45.78700
H  55.58700 31.08300 45.49000
H  54.71700 30.79500 47.12900
H  50.11100 28.20900 44.29700
H  48.78800 30.02900 41.13000
H  47.54500 28.80700 41.08600
H  49.06500 28.45900 40.13500

