158

Mg 1.48900 8.29300 25.70600
C  1.98100 9.63300 28.88200
C  1.90400 5.20800 27.15600
C  1.33100 6.90200 22.62900
C  2.28200 11.43400 24.19700
N  1.78500 7.47600 27.85000
C  1.84800 8.19200 28.99700
C  1.74700 7.31900 30.20500
C  1.90800 5.83800 29.60700
C  1.84400 6.18600 28.16300
C  3.21300 5.16900 30.10300
C  0.43100 7.54600 31.00400
C  0.46000 7.64900 32.52900
H  1.68500 7.10700 33.23500
N  1.45300 6.35100 25.03100
C  1.59000 5.23200 25.78300
C  1.40400 4.08100 24.93100
C  1.05400 4.52200 23.67900
C  1.32500 6.01300 23.68900
C  1.35600 2.63100 25.43500
C  0.73900 3.69800 22.44400
O  0.62100 4.20800 21.31400
C  0.45400 2.24300 22.67300
N  1.75100 9.11100 23.76700
C  1.61700 8.28500 22.65900
C  1.76900 9.10600 21.33000
C  1.68100 10.54700 21.88200
C  1.85800 10.36200 23.36500
C  3.02500 8.81100 20.57700
C  0.31800 11.33100 21.59600
C  0.17400 12.13800 20.24600
N  2.07800 10.18700 26.36000
C  2.32800 11.33800 25.65000
C  2.57300 12.39100 26.61700
C  2.48100 11.75200 27.90100
C  2.12000 10.41000 27.63300
C  2.72600 13.92600 26.25800
C  2.48900 12.03600 29.30900
O  2.81000 13.07200 29.86600
C  2.08000 10.71200 29.97200
C  3.11100 10.32600 31.02600
O  4.20300 9.79900 30.83200
O  2.68600 10.95100 32.21300
C  3.72800 11.05900 33.33000
H  2.13300 4.20300 27.51800
H  1.05400 6.46800 21.66600
H  2.41600 12.43100 23.77400
H  2.58100 7.59800 30.84900
H  1.12000 5.16400 29.94200
H  2.93000 4.28400 30.67300
H  3.85200 5.83200 30.68600
H  3.87400 4.87700 29.28600
H  -0.18900 6.69700 30.71700
H  -0.07700 8.42900 30.61500
H  -0.31500 7.12200 33.08500
H  0.39300 8.68400 32.86500
H  1.75200 1.92800 24.70200
H  0.35000 2.29600 25.68700
H  2.08600 2.65000 26.24400
H  1.45600 1.81500 22.69900
H  -0.12400 2.00300 21.78100
H  -0.18800 2.07100 23.53700
H  0.84800 8.98100 20.75900
H  2.49700 11.16100 21.50200
H  3.87700 9.42300 20.87200
H  2.99800 8.79300 19.48700
H  3.34000 7.79000 20.79000
H  0.26200 12.08000 22.38600
H  -0.42800 10.55400 21.76000
H  0.17900 13.20400 20.47400
H  -0.69700 11.72800 19.73500
H  1.02700 11.88200 19.61800
H  1.76100 14.33900 26.55100
H  3.06700 14.19600 25.25900
H  3.42700 14.41800 26.93300
H  1.12800 10.78000 30.49800
H  4.14500 12.05900 33.44700
H  4.67700 10.52400 33.29400
H  3.23000 10.79300 34.26300
Mg 45.29200 4.35800 47.64400
C  43.27200 7.11300 47.24400
C  42.48200 2.40100 46.89100
C  47.25500 1.71700 47.71400
C  48.12200 6.41600 47.42100
N  43.05100 4.75400 47.34600
C  42.50000 5.98400 47.15100
C  40.99200 5.79000 46.56100
C  40.81300 4.23500 46.69800
C  42.16000 3.74600 46.99700
C  39.73100 3.84900 47.82800
C  40.87500 6.40100 45.14700
C  39.69200 7.38500 44.92100
H  38.83700 7.07500 43.71500
N  44.92000 2.31700 47.36500
C  43.74200 1.73300 47.03300
C  44.00800 0.25200 46.88900
C  45.39800 0.02000 47.18300
C  45.90900 1.36600 47.48000
C  42.98800 -0.76900 46.42300
C  46.18200 -1.39200 47.08900
O  45.55200 -2.38300 46.78600
C  47.68200 -1.51600 47.37700
N  47.41100 4.05500 47.43800
C  47.93700 2.88800 47.72400
C  49.47300 2.89300 48.07700
C  49.63300 4.49900 48.23400
C  48.31800 5.05400 47.56800
C  49.82700 2.14000 49.33300
C  50.91800 4.99700 47.47600
C  52.26300 4.24100 47.53100
N  45.68600 6.30800 47.46000
C  46.86600 7.03500 47.39400
C  46.52500 8.50300 47.37100
C  45.16600 8.54500 47.30200
C  44.70500 7.21800 47.43200
C  47.39100 9.68200 47.10700
C  44.00100 9.46800 47.24000
O  43.94900 10.69600 47.11500
C  42.74500 8.55400 47.08500
C  41.64900 8.89700 48.00600
O  41.47700 8.45300 49.18300
O  40.61600 9.66100 47.45400
C  39.42900 9.83800 48.32200
H  41.62500 1.74400 46.72400
H  47.92600 0.85700 47.75400
H  48.99100 7.04000 47.63900
H  40.31600 6.23900 47.28800
H  40.36200 3.79000 45.81100
H  38.99800 4.65000 47.92200
H  40.20700 3.75800 48.80400
H  39.32300 2.91700 47.43700
H  40.87600 5.52600 44.49600
H  41.80800 6.92800 44.94700
H  40.01800 8.42400 44.97500
H  38.97700 7.31600 45.74100
H  43.49800 -1.11700 45.52500
H  42.07000 -0.35600 46.00600
H  42.87500 -1.63900 47.06900
H  47.97600 -2.55600 47.23100
H  47.99200 -1.29800 48.39900
H  48.13600 -0.90000 46.60100
H  49.95800 2.47100 47.19700
H  49.59500 4.72000 49.30100
H  50.11400 2.76700 50.17700
H  50.71700 1.56000 49.09200
H  49.05400 1.47100 49.71200
H  51.00400 5.99000 47.91800
H  50.70000 5.14600 46.41800
H  53.13100 4.89400 47.44100
H  52.33500 3.57500 46.67200
H  52.37600 3.71000 48.47600
H  47.83100 9.61700 46.11200
H  48.23200 9.70200 47.80000
H  46.82300 10.60800 47.20200
H  42.41800 8.68400 46.05300
H  38.85200 10.61200 47.81700
H  39.77500 10.16200 49.30400
H  38.83700 8.92800 48.41600

