158

Mg 2.39700 -1.65800 44.76600
C  5.63900 -0.41200 44.30300
C  1.19900 0.69700 42.63500
C  -0.64200 -3.33100 44.82500
C  3.87800 -4.47900 46.29300
N  3.34100 -0.01400 43.54800
C  4.61800 0.33500 43.59000
C  4.91100 1.57500 42.75000
C  3.44000 2.08400 42.37800
C  2.60400 0.88500 42.88600
C  2.98900 3.45300 43.01200
C  5.67800 1.19100 41.34100
C  6.84600 2.15800 40.93700
H  6.34900 3.32400 40.05300
N  0.47600 -1.29600 44.03600
C  0.26500 -0.32500 43.08100
C  -1.14600 -0.33600 42.82700
C  -1.74400 -1.45300 43.51000
C  -0.64600 -2.04800 44.22700
C  -1.84500 0.78200 42.07600
C  -3.21700 -1.77000 43.48900
O  -4.01600 -1.22100 42.75400
C  -3.80000 -2.76200 44.30700
N  1.67200 -3.59800 45.61800
C  0.39200 -4.02800 45.48100
C  0.36100 -5.52200 45.97300
C  1.85100 -5.84000 46.34500
C  2.51000 -4.53100 46.09600
C  -0.71900 -6.00000 47.04200
C  2.42200 -7.06900 45.52800
C  1.48300 -8.21700 45.33200
N  4.36200 -2.32700 45.31200
C  4.77100 -3.46600 45.91700
C  6.24600 -3.37600 46.06100
C  6.61900 -2.19200 45.44000
C  5.46100 -1.57000 44.99900
C  7.18600 -4.49100 46.62000
C  7.77500 -1.42100 45.06000
O  8.97200 -1.55000 45.30300
C  7.19300 -0.22900 44.20800
C  7.58200 1.00500 44.84200
O  7.06400 1.47400 45.85900
O  8.42500 1.70600 44.07200
C  8.61700 3.06900 44.54200
H  0.72100 1.52400 42.10700
H  -1.56300 -3.90500 44.70800
H  4.33000 -5.33600 46.79600
H  5.47600 2.34000 43.28400
H  3.40700 2.06300 41.28800
H  3.92800 3.95200 43.25100
H  2.41100 3.33100 43.92800
H  2.43200 4.12400 42.35800
H  5.06900 1.30200 40.44400
H  6.12500 0.20800 41.49300
H  7.80500 1.75800 40.60900
H  7.09600 2.63800 41.88400
H  -2.77300 0.51500 41.57000
H  -1.17300 1.20500 41.32800
H  -2.18400 1.49700 42.82500
H  -4.88300 -2.66100 44.36600
H  -3.32200 -2.46600 45.24100
H  -3.51100 -3.78800 44.08000
H  0.08400 -6.02200 45.04500
H  2.03400 -5.99500 47.40800
H  -1.07500 -5.14300 47.61400
H  -0.22700 -6.75200 47.65800
H  -1.51400 -6.49300 46.48200
H  3.32800 -7.41600 46.02600
H  2.85100 -6.80200 44.56300
H  0.70100 -8.22700 46.09200
H  2.03000 -9.15400 45.43700
H  1.04000 -8.30000 44.34000
H  7.31200 -4.68600 47.68500
H  8.17000 -4.32200 46.18200
H  6.76400 -5.38500 46.16100
H  7.47100 -0.22300 43.15400
H  9.01700 3.13300 45.55400
H  7.69000 3.63500 44.45100
H  9.30200 3.58300 43.86700
Mg 29.36300 58.00800 40.79500
C  26.36700 56.38100 39.69700
C  31.09500 55.52800 39.17800
C  32.21300 60.03400 40.73700
C  27.45600 60.84100 41.60200
N  28.75000 56.10800 39.63100
C  27.48800 55.66700 39.33700
C  27.59100 54.36100 38.50300
C  29.11900 54.00800 38.47900
C  29.70400 55.26600 39.12200
C  29.58700 52.66800 39.22600
C  26.93600 54.48800 37.14800
C  27.05900 55.79200 36.40600
H  26.85300 55.80700 34.91700
N  31.34300 57.74100 40.25500
C  31.90500 56.63000 39.68400
C  33.33000 56.71600 39.47600
C  33.74800 57.98800 40.07900
C  32.44500 58.65000 40.41600
C  34.17200 55.67100 38.82500
C  35.15900 58.54100 40.20200
O  36.08500 57.99700 39.58500
C  35.49500 59.71200 41.02200
N  29.73900 60.13000 41.07000
C  30.99300 60.67600 41.08500
C  30.95000 62.16900 41.41000
C  29.39700 62.41300 41.70500
C  28.80400 61.02800 41.39000
C  32.07300 62.61300 42.41500
C  28.82200 63.57500 40.87600
C  28.71200 64.96200 41.60700
N  27.29800 58.47700 40.84400
C  26.66700 59.70500 41.22200
C  25.22400 59.52500 41.21100
C  25.04600 58.17100 40.66700
C  26.33600 57.64900 40.36400
C  24.22000 60.53500 41.69100
C  24.08700 57.26500 40.12900
O  22.84100 57.29900 40.11900
C  24.88600 56.10000 39.36900
C  24.45500 54.82600 40.05000
O  23.82700 54.00200 39.42700
O  24.95200 54.60000 41.27500
C  24.94200 53.21700 41.78200
H  31.71000 54.74000 38.74000
H  33.06600 60.70700 40.63100
H  26.85500 61.71000 41.87700
H  26.94600 53.67100 39.04800
H  29.35700 53.99400 37.41500
H  28.68900 52.22600 39.65600
H  30.29100 52.89900 40.02600
H  29.95200 51.92900 38.51200
H  25.89900 54.18200 37.28800
H  27.39100 53.77600 36.46000
H  28.01100 56.24400 36.68500
H  26.29300 56.47600 36.77000
H  33.73100 54.69300 38.63500
H  35.03400 55.61500 39.49000
H  34.63100 56.04100 37.90800
H  34.73200 59.80200 41.79500
H  35.54300 60.59200 40.38000
H  36.49100 59.51300 41.41900
H  31.22100 62.63600 40.46300
H  29.19300 62.64800 42.75000
H  31.55400 62.92800 43.32100
H  32.65700 63.49300 42.14900
H  32.74800 61.84600 42.79400
H  27.91800 63.25500 40.35600
H  29.52800 63.74900 40.06400
H  27.79700 64.96400 42.20000
H  28.70200 65.71800 40.82200
H  29.58500 64.98500 42.26000
H  24.23400 61.49500 41.17400
H  24.49100 60.81200 42.70900
H  23.20700 60.13500 41.73000
H  24.59900 56.22800 38.32600
H  24.34900 53.30400 42.69200
H  25.96200 52.92000 42.02600
H  24.42300 52.41300 41.26000

