158

Mg 54.43500 24.16200 44.45500
C  51.62000 26.31200 43.70700
C  52.27200 21.66600 43.25900
C  57.13600 22.40900 44.44800
C  56.00200 26.99700 45.68100
N  52.27200 24.02000 43.43400
C  51.29500 25.03000 43.36500
C  49.99000 24.53400 42.74000
C  50.07500 23.00000 43.15000
C  51.60600 22.87300 43.25000
C  49.41200 22.67500 44.52600
C  49.82500 24.76500 41.23100
C  51.11100 24.61600 40.26400
H  50.83700 25.02000 38.78800
N  54.65800 22.33300 44.01800
C  53.68300 21.45000 43.51200
C  54.35100 20.16400 43.42300
C  55.69800 20.29700 43.88000
C  55.87900 21.73700 44.09000
C  53.77600 18.84000 42.90500
C  56.74800 19.22400 44.01700
O  56.40400 18.04900 43.70000
C  58.09500 19.44500 44.55100
N  56.47500 24.78900 44.73700
C  57.37100 23.76400 44.84100
C  58.64400 24.33000 45.50300
C  58.14200 25.68100 46.23900
C  56.78400 25.78800 45.54800
C  59.55400 23.28800 46.34000
C  59.05700 26.96700 46.05900
C  59.28500 27.52300 44.60100
N  54.07000 26.26900 44.49300
C  54.74000 27.21400 45.11100
C  54.01500 28.44500 45.30500
C  52.74500 28.17600 44.61200
C  52.83300 26.77800 44.29900
C  54.46700 29.75300 45.82000
C  51.38600 28.69000 44.31000
O  50.81400 29.77900 44.52100
C  50.67300 27.50200 43.63700
C  50.23200 28.08300 42.25500
O  50.90600 28.15100 41.22700
O  48.86300 28.28100 42.38100
C  48.09400 28.31600 41.12600
H  51.63900 20.77700 43.25600
H  58.08200 21.88100 44.30900
H  56.36600 27.76900 46.36200
H  49.20600 25.06300 43.28200
H  49.63200 22.29100 42.45000
H  48.60400 21.96400 44.35700
H  48.96500 23.54000 45.01600
H  50.19200 22.21100 45.13100
H  49.46600 25.78800 41.11800
H  49.23500 23.98200 40.75400
H  51.59100 23.64400 40.37400
H  51.87200 25.30200 40.63700
H  54.50800 18.63800 42.12300
H  52.83700 18.93400 42.35800
H  53.72200 18.00900 43.60800
H  57.93900 19.96100 45.49700
H  58.70300 20.01400 43.84700
H  58.60300 18.52200 44.83200
H  59.29000 24.63700 44.68000
H  58.15400 25.48300 47.31000
H  59.33500 22.23600 46.15700
H  59.59000 23.49700 47.40900
H  60.58800 23.53000 46.09200
H  60.05700 26.72000 46.41700
H  58.68000 27.74300 46.72600
H  60.09100 26.98300 44.10400
H  59.39700 28.60400 44.67800
H  58.41100 27.30700 43.98600
H  55.35400 29.81400 46.45100
H  53.56400 30.12200 46.30700
H  54.65100 30.44400 44.99700
H  49.81300 27.27900 44.26900
H  47.37000 27.50100 41.13300
H  48.72700 28.30200 40.24000
H  47.43400 29.18300 41.09600
Mg 30.35100 57.59300 41.16400
C  27.34200 55.89800 40.21200
C  32.07200 54.81900 40.16800
C  32.95500 59.53100 41.42600
C  28.23500 60.50700 41.64100
N  29.74200 55.57800 40.27800
C  28.48500 55.16200 39.92500
C  28.58800 53.95100 39.15200
C  30.01600 53.35500 39.46900
C  30.68100 54.61000 40.08200
C  30.07500 52.21200 40.53200
C  28.26300 54.18700 37.61700
C  27.00800 53.50200 36.96400
H  26.47700 54.22200 35.65700
N  32.29000 57.24500 40.84200
C  32.83700 56.02300 40.45900
C  34.24400 56.16400 40.60900
C  34.52400 57.49700 41.14600
C  33.25600 58.13800 41.20100
C  35.33200 55.18500 40.06100
C  35.89700 58.04900 41.51000
O  36.87400 57.37800 41.30900
C  36.16100 59.40400 42.09400
N  30.53000 59.77000 41.54500
C  31.79500 60.27200 41.57300
C  31.76700 61.87300 41.60500
C  30.20500 62.16500 41.80600
C  29.62800 60.75000 41.66400
C  32.78100 62.58300 42.61500
C  29.50800 63.23000 40.87000
C  28.81600 64.43600 41.56100
N  28.24600 58.09300 41.15500
C  27.57000 59.26300 41.42200
C  26.12600 59.06700 41.48700
C  26.00200 57.72300 40.99000
C  27.33300 57.23700 40.78300
C  25.07200 60.09400 41.90000
C  25.04200 56.62400 40.60200
O  23.82900 56.55400 40.65400
C  25.82500 55.49500 39.98000
C  25.49100 54.16000 40.54600
O  25.96400 53.78400 41.64900
O  24.43800 53.49300 39.91300
C  24.21000 52.15800 40.44900
H  32.72500 53.96100 39.99200
H  33.79900 60.22200 41.47500
H  27.70700 61.43400 41.87500
H  27.90700 53.15000 39.43900
H  30.66500 53.00600 38.66600
H  30.94300 51.56600 40.40500
H  29.21200 51.55200 40.43700
H  30.16600 52.61100 41.54200
H  29.12900 53.71900 37.14700
H  28.31100 55.27400 37.56300
H  26.24900 53.50900 37.74600
H  27.28900 52.46600 36.77700
H  34.88500 54.45000 39.39300
H  35.95900 54.64300 40.76900
H  36.05300 55.71800 39.44100
H  35.41000 59.63000 42.85100
H  36.10100 60.18000 41.33100
H  37.17200 59.52700 42.48000
H  32.07100 62.13800 40.59300
H  29.99700 62.42100 42.84500
H  32.57000 62.36000 43.66100
H  32.65900 63.66600 42.59300
H  33.78100 62.23400 42.35700
H  28.77900 62.69000 40.26500
H  30.32100 63.61600 40.25600
H  27.74700 64.23000 41.50400
H  28.95500 65.39400 41.06000
H  29.12700 64.53200 42.60200
H  24.53000 60.51700 41.05400
H  25.55900 60.99200 42.28000
H  24.37200 59.63700 42.60000
H  25.67100 55.34800 38.91100
H  23.14000 52.11800 40.24600
H  24.23000 52.02000 41.53000
H  24.71900 51.40600 39.84700

