158

Mg 47.54300 16.74600 28.31100
C  45.83300 16.60800 31.46700
C  49.96500 18.75100 29.96700
C  49.05600 17.16700 25.47400
C  44.91300 15.14100 26.91200
N  47.76100 17.73300 30.44900
C  47.01900 17.33900 31.56700
C  47.55100 18.01800 32.82100
C  48.73200 18.84500 32.22800
C  48.91000 18.39100 30.79100
C  48.48000 20.38100 32.21300
C  47.98200 17.02000 33.93500
C  47.83300 17.59100 35.45100
H  47.91200 19.08900 35.62200
N  49.36100 17.72000 27.79900
C  50.13000 18.51100 28.64200
C  51.31000 18.85100 27.87900
C  51.07000 18.45800 26.47100
C  49.81000 17.68800 26.54300
C  52.50600 19.60700 28.47900
C  51.75500 18.70600 25.24600
O  51.33900 18.27900 24.21800
C  52.92500 19.60200 25.26300
N  47.07000 16.15200 26.46100
C  47.84500 16.46800 25.44100
C  47.19700 15.98200 24.14400
C  46.14000 14.97600 24.63700
C  45.96900 15.52600 26.08700
C  46.71300 17.12600 23.19500
C  46.58500 13.48700 24.67000
C  46.16200 12.71100 23.40500
N  45.68400 16.11000 28.94500
C  44.67500 15.50900 28.21900
C  43.56200 15.16500 29.12000
C  44.01900 15.58000 30.37300
C  45.26400 16.12700 30.25500
C  42.30000 14.32100 28.88400
C  43.72100 15.44800 31.74600
O  42.81900 14.85600 32.31900
C  44.88200 16.12200 32.55900
C  44.29200 17.22900 33.33000
O  43.66100 18.19500 32.94100
O  44.48000 16.96600 34.66000
C  43.92900 17.82200 35.70300
H  50.75300 19.19600 30.57900
H  49.47600 17.26100 24.47000
H  44.10300 14.52200 26.52100
H  46.74800 18.64400 33.21100
H  49.68800 18.66800 32.72200
H  47.62900 20.75500 32.78300
H  48.39900 20.60600 31.15000
H  49.44000 20.73700 32.58800
H  49.06400 16.94900 33.82700
H  47.51300 16.03800 33.87400
H  48.44400 17.04700 36.17100
H  46.82300 17.28200 35.72100
H  53.45200 19.06600 28.48900
H  52.27500 19.90000 29.50400
H  52.57900 20.44500 27.78500
H  53.41800 19.65600 24.29200
H  53.67100 19.13400 25.90500
H  52.69600 20.63200 25.54000
H  47.97200 15.35700 23.69800
H  45.18800 15.11300 24.12500
H  46.27900 16.63200 22.32600
H  47.61700 17.59400 22.80500
H  45.93200 17.68300 23.71400
H  46.39300 13.01800 25.63500
H  47.66200 13.31800 24.65600
H  47.04100 12.16500 23.06300
H  45.75900 13.38000 22.64500
H  45.36400 12.04300 23.73100
H  41.92600 14.33600 27.86000
H  41.54000 14.46800 29.65100
H  42.62000 13.29500 29.06400
H  45.26400 15.28900 33.14900
H  42.90600 17.55800 35.97300
H  43.80600 18.85400 35.37400
H  44.56500 17.85100 36.58700
Mg 47.90400 35.70400 28.40600
C  46.18600 33.63400 30.56400
C  47.86800 38.16000 30.83700
C  49.22300 37.76100 26.17400
C  47.79600 33.14100 25.90500
N  47.36600 35.76800 30.49700
C  46.70600 34.77000 31.18600
C  46.79500 34.98600 32.64900
C  46.70700 36.59800 32.64000
C  47.39400 36.87900 31.27300
C  45.21000 37.10800 32.64400
C  48.11800 34.44400 33.24900
C  47.97400 33.87800 34.66600
H  47.25800 34.85700 35.64800
N  48.54300 37.73200 28.50300
C  48.37600 38.53400 29.55600
C  48.99000 39.79900 29.22400
C  49.39400 39.78500 27.87400
C  49.15400 38.37200 27.46300
C  49.07500 40.91800 30.25100
C  49.99500 40.88200 27.00600
O  50.17400 40.71500 25.79800
C  50.26600 42.20700 27.62800
N  48.14000 35.56600 26.20800
C  48.87500 36.60800 25.64200
C  49.51900 36.14400 24.32100
C  49.11700 34.61800 24.21700
C  48.24400 34.41100 25.47000
C  49.23500 36.98600 23.03700
C  50.36800 33.77300 24.21000
C  50.69600 33.00300 22.85100
N  47.16700 33.80600 28.20400
C  47.16000 32.88200 27.16000
C  46.53200 31.62500 27.65400
C  45.96900 31.96500 28.92600
C  46.47900 33.26300 29.23700
C  46.38100 30.47400 26.84300
C  45.17500 31.45300 29.95500
O  44.69800 30.33100 30.14100
C  45.20500 32.56200 31.08000
C  45.54700 32.01500 32.40100
O  46.48500 31.28100 32.66600
O  44.57500 32.49200 33.30400
C  44.57100 32.15900 34.71500
H  47.69300 38.86800 31.65000
H  49.71500 38.39800 25.43600
H  47.91200 32.30500 25.21200
H  45.94300 34.61000 33.21600
H  47.23300 37.14200 33.42400
H  44.50100 36.28100 32.61300
H  45.18300 37.76000 31.77100
H  44.90300 37.72000 33.49200
H  48.93900 35.16100 33.27100
H  48.55100 33.66300 32.62300
H  48.96400 33.95500 35.11700
H  47.64200 32.84400 34.57400
H  50.10900 41.26400 30.26100
H  48.71600 40.60700 31.23200
H  48.51100 41.81500 29.99600
H  50.85100 42.76000 26.89400
H  50.89300 42.24600 28.51800
H  49.37000 42.79300 27.83700
H  50.59600 36.24700 24.45700
H  48.49000 34.57400 23.32600
H  48.65900 37.87400 23.29900
H  48.82200 36.53600 22.13400
H  50.18700 37.37100 22.67200
H  50.24400 33.05700 25.02300
H  51.25100 34.37000 24.44000
H  50.61500 31.92400 22.98500
H  51.71100 33.19800 22.50500
H  50.05700 33.17000 21.98300
H  46.81900 30.54800 25.84800
H  45.31800 30.29300 26.68200
H  46.61200 29.54400 27.36300
H  44.20700 32.99900 31.13300
H  43.58400 31.73900 34.90800
H  44.46900 33.05500 35.32700
H  45.45300 31.54000 34.88300

