158

Mg 25.85000 0.36600 29.58100
C  27.68600 0.14500 32.61400
C  22.94400 0.99300 31.52500
C  23.96300 0.16300 26.86500
C  28.65500 -0.58300 27.90900
N  25.35100 0.45200 31.81900
C  26.32300 0.45300 32.79600
C  25.66600 0.81300 34.15600
C  24.09600 0.87900 33.88400
C  24.09700 0.75800 32.31900
C  23.18200 -0.28800 34.45800
C  26.23200 2.08400 34.86100
C  26.93600 1.82100 36.22400
H  26.55000 2.73400 37.40200
N  23.78300 0.53300 29.26900
C  22.77900 0.87200 30.12200
C  21.54600 1.10300 29.42200
C  21.74500 0.86600 28.04600
C  23.20900 0.41400 28.02500
C  20.26200 1.56300 30.19300
C  20.94200 0.92500 26.87100
O  21.37100 0.87000 25.71600
C  19.43500 1.17100 26.98300
N  26.19900 -0.40600 27.68900
C  25.28400 -0.21500 26.65900
C  25.97600 -0.30700 25.23100
C  27.45800 -0.67600 25.60800
C  27.48300 -0.56700 27.13900
C  25.25800 -1.42200 24.34100
C  28.52200 0.35000 25.05400
C  28.47700 1.76000 25.63200
N  27.80500 -0.05400 30.16400
C  28.77900 -0.50300 29.29700
C  29.98600 -0.82400 30.09500
C  29.54300 -0.48600 31.42400
C  28.24600 -0.08800 31.37800
C  31.23400 -1.40700 29.63600
C  29.97600 -0.45300 32.79800
O  31.09200 -0.68100 33.29500
C  28.74100 -0.04300 33.61400
C  28.49400 -1.10000 34.63400
O  27.87100 -2.16800 34.43600
O  29.12900 -0.73800 35.81500
C  28.89000 -1.69500 36.85900
H  22.05500 1.16000 32.13600
H  23.52100 0.26400 25.87200
H  29.63300 -0.68000 27.43200
H  25.75600 -0.09200 34.75700
H  23.61700 1.85100 34.00400
H  23.05500 -1.09600 33.73700
H  22.26900 0.10100 34.90700
H  23.73400 -0.76900 35.26600
H  25.39000 2.76900 34.95900
H  27.00600 2.57300 34.26800
H  27.98700 1.89900 35.94800
H  26.61600 0.84800 36.59900
H  19.88000 0.62100 30.58800
H  19.53800 2.16500 29.64400
H  20.61000 2.23900 30.97400
H  19.06000 0.47600 27.73500
H  18.98100 0.92100 26.02500
H  19.20100 2.17200 27.34400
H  25.99300 0.70000 24.81500
H  27.79100 -1.65800 25.27100
H  25.74100 -2.37700 24.13300
H  25.17500 -0.99100 23.34300
H  24.26900 -1.65700 24.73400
H  28.36700 0.47100 23.98200
H  29.49300 -0.11200 25.23300
H  29.33900 2.04200 26.23500
H  27.59500 1.95500 26.24300
H  28.44700 2.50200 24.83500
H  31.93600 -0.57400 29.59800
H  31.11800 -1.86400 28.65300
H  31.51200 -2.11800 30.41500
H  28.86600 0.87200 34.19400
H  28.12100 -1.34700 37.55000
H  29.88800 -1.70300 37.29600
H  28.63000 -2.71500 36.57300
Mg -10.31700 17.67600 42.73100
C  -6.85300 17.77000 43.06800
C  -10.26600 21.11300 42.31100
C  -13.62200 17.52300 41.62200
C  -10.20300 14.14300 42.44300
N  -8.77100 19.17200 42.72800
C  -7.38300 18.99800 42.81400
C  -6.66300 20.29400 42.49800
C  -7.82100 21.30600 42.74400
C  -9.07700 20.51700 42.66700
C  -7.69200 21.95000 44.18500
C  -5.85500 20.25600 41.12800
C  -6.71100 19.63000 39.96600
H  -5.98200 19.46600 38.61700
N  -11.87100 19.15400 42.25300
C  -11.55600 20.46500 42.13800
C  -12.75300 21.18400 41.70900
C  -13.75200 20.21500 41.37000
C  -13.12900 18.87300 41.76800
C  -12.74600 22.73900 41.69800
C  -15.08000 20.39300 40.80200
O  -15.59500 21.49600 40.75900
C  -15.97800 19.30900 40.35100
N  -11.58700 16.10600 41.93200
C  -12.93300 16.31500 41.75100
C  -13.64100 15.02700 41.35000
C  -12.67400 13.92600 41.91100
C  -11.39400 14.76300 42.14800
C  -15.12800 14.78900 41.76000
C  -12.43200 12.68200 40.97100
C  -12.22800 11.32700 41.67900
N  -8.88900 16.26700 42.73800
C  -8.99700 14.86900 42.70500
C  -7.68900 14.28900 43.05000
C  -6.79100 15.42300 43.11700
C  -7.61500 16.56200 42.99100
C  -7.31500 12.86100 43.37000
C  -5.39500 15.80900 43.24500
O  -4.38500 15.11900 43.49500
C  -5.39100 17.35600 43.14800
C  -4.76500 17.79800 44.33000
O  -3.76800 18.54100 44.28900
O  -5.22900 17.19900 45.49400
C  -4.29100 17.33100 46.61000
H  -10.17400 22.19800 42.22700
H  -14.64300 17.35700 41.27100
H  -10.06300 13.06100 42.40800
H  -5.93300 20.33200 43.30600
H  -7.81900 22.13200 42.03300
H  -6.84900 21.57500 44.76500
H  -8.57500 21.66300 44.75600
H  -7.57900 23.01700 43.99100
H  -5.00000 19.66000 41.44600
H  -5.50200 21.25900 40.88500
H  -7.67500 20.12700 39.84900
H  -6.79700 18.58100 40.25000
H  -12.14800 23.13900 40.87900
H  -12.56900 23.23400 42.65300
H  -13.68700 23.27100 41.55900
H  -15.48300 18.52700 39.77400
H  -16.76100 19.78100 39.75700
H  -16.48200 18.88000 41.21700
H  -13.56600 14.88100 40.27200
H  -13.01000 13.65900 42.91300
H  -15.74000 15.08600 40.90800
H  -15.42300 15.44100 42.58200
H  -15.34100 13.74700 41.99800
H  -11.59700 12.83000 40.28600
H  -13.27700 12.50400 40.30500
H  -13.14100 10.80300 41.39500
H  -12.15300 11.47300 42.75600
H  -11.36800 10.76900 41.30900
H  -8.16600 12.20100 43.20400
H  -7.03900 12.70200 44.41300
H  -6.48800 12.53900 42.73700
H  -4.74000 17.61800 42.31400
H  -4.65300 16.76600 47.46800
H  -4.19800 18.32600 47.04600
H  -3.32300 16.91300 46.33100

