158

Mg 48.15000 25.52800 29.76600
C  49.77300 27.50800 32.08800
C  47.08500 23.52500 32.48300
C  47.05200 23.24000 27.67500
C  49.71800 27.25500 27.10100
N  48.55800 25.43400 32.10700
C  49.15200 26.45300 32.80700
C  48.88400 26.34400 34.29300
C  48.21100 24.91100 34.37200
C  47.92600 24.55900 32.91700
C  49.03800 23.80900 35.15800
C  48.01400 27.51500 34.98500
C  48.67500 28.25400 36.19700
H  47.66400 28.65300 37.34800
N  47.16200 23.77000 30.04300
C  46.78700 23.07700 31.16800
C  46.06100 21.93600 30.86700
C  46.08600 21.77200 29.47300
C  46.77200 23.00100 28.98200
C  45.46000 20.97800 31.96200
C  45.49500 20.69500 28.61700
O  45.60500 20.60500 27.40100
C  44.76800 19.56100 29.21300
N  48.54900 25.16600 27.68300
C  47.83700 24.20100 27.01600
C  47.87200 24.32400 25.46800
C  48.68200 25.72000 25.37300
C  48.97400 26.11900 26.81000
C  48.69200 23.24400 24.68800
C  47.92800 26.76000 24.47600
C  48.64500 27.05000 23.16300
N  49.45500 27.08600 29.55700
C  49.98700 27.68600 28.41600
C  50.68600 28.94700 28.86800
C  50.67600 28.82300 30.22200
C  49.98600 27.67500 30.66500
C  51.40000 29.94800 28.01200
C  51.09000 29.53800 31.40300
O  51.67000 30.60600 31.51600
C  50.53200 28.67600 32.62600
C  51.73500 28.17400 33.48500
O  52.34200 27.17500 33.31400
O  51.87400 29.09500 34.53300
C  52.77100 28.82700 35.65100
H  46.56500 23.04800 33.31700
H  46.37800 22.72900 26.98400
H  50.02000 27.94600 26.31200
H  49.84200 26.32900 34.81100
H  47.22100 24.98900 34.82000
H  49.72700 24.26700 35.86800
H  49.76600 23.28300 34.54000
H  48.25600 23.25600 35.67800
H  47.04300 27.10000 35.25600
H  47.92800 28.23600 34.17300
H  49.25400 29.07600 35.77600
H  49.42800 27.56100 36.57100
H  45.78300 21.16000 32.98600
H  45.73800 19.93900 31.78600
H  44.38300 21.09800 32.08500
H  45.29500 19.02400 30.00100
H  44.49100 18.88400 28.40400
H  43.89500 20.02800 29.66700
H  46.82900 24.40000 25.15800
H  49.66500 25.55500 24.93300
H  48.06300 22.40600 24.38900
H  49.27700 22.82800 25.50800
H  49.32000 23.64800 23.89400
H  47.61600 27.59000 25.11000
H  46.92100 26.37900 24.30600
H  47.93200 26.96800 22.34300
H  49.54300 26.46700 22.96000
H  49.05200 28.05500 23.04700
H  51.63600 29.48200 27.05500
H  52.35700 30.05400 28.52500
H  50.78000 30.81200 27.77500
H  49.92800 29.40600 33.16500
H  53.52300 28.09800 35.35100
H  52.19700 28.35200 36.44700
H  53.25800 29.74700 35.97400
Mg 1.39700 42.61600 25.83500
C  3.54100 42.74200 28.51200
C  -1.22400 42.40800 28.05900
C  -0.71500 42.31900 23.22200
C  4.06900 42.66000 23.63300
N  1.19900 42.61800 28.06100
C  2.24900 42.67900 28.94100
C  1.66600 42.71700 30.39000
C  0.18800 42.41800 30.26500
C  0.00800 42.53600 28.72400
C  -0.14800 40.98400 30.65500
C  2.06000 44.08600 31.12300
C  2.03600 43.95800 32.63200
H  0.74100 44.00200 33.38800
N  -0.73500 42.60500 25.65100
C  -1.59000 42.44300 26.70400
C  -2.97100 42.31800 26.17300
C  -2.84800 42.35800 24.71800
C  -1.40500 42.38800 24.46400
C  -4.10700 42.01200 27.13000
C  -3.95600 42.38400 23.67600
O  -3.69700 42.35200 22.42200
C  -5.42300 42.37000 24.05500
N  1.57100 42.62900 23.70700
C  0.61400 42.36900 22.86900
C  1.15800 41.99300 21.51800
C  2.60300 42.55000 21.59400
C  2.77600 42.68000 23.07300
C  1.04300 40.45800 21.11100
C  2.90900 43.85500 20.79200
C  2.95700 43.94300 19.29900
N  3.42400 42.67000 25.98800
C  4.38700 42.79000 25.02900
C  5.67100 42.97200 25.62000
C  5.40200 42.87000 27.04900
C  4.01600 42.73400 27.19400
C  7.02400 43.13800 25.08400
C  6.04900 42.78900 28.30000
O  7.20900 42.67400 28.56700
C  4.89700 42.72100 29.35400
C  4.95100 41.49000 30.28000
O  4.71100 40.35900 30.02200
O  5.49300 41.87000 31.45500
C  5.86200 40.74300 32.24700
H  -2.04300 42.41300 28.78100
H  -1.35000 42.07700 22.36700
H  4.89000 42.66300 22.91200
H  2.13900 41.87400 30.89400
H  -0.32600 43.21900 30.79600
H  -0.36700 40.31600 29.82200
H  -1.04300 40.87800 31.26800
H  0.65900 40.53000 31.23000
H  1.19500 44.73600 30.99400
H  2.97000 44.51300 30.70100
H  2.63800 44.79900 32.97600
H  2.64000 43.14700 33.03900
H  -3.97900 41.02700 27.57800
H  -4.99700 41.85300 26.52200
H  -4.19700 42.73900 27.93800
H  -6.05600 42.51800 23.18000
H  -5.52200 43.13100 24.83000
H  -5.84700 41.47900 24.51700
H  0.57400 42.61900 20.84300
H  3.26400 41.77200 21.21100
H  0.69800 40.36700 20.08200
H  0.29800 39.94000 21.71500
H  2.00400 39.95800 21.23300
H  3.95300 44.10200 20.98600
H  2.33800 44.68600 21.20600
H  2.24300 44.68600 18.94500
H  2.71500 42.96400 18.88600
H  3.95100 44.13800 18.89600
H  7.51700 43.77000 25.82200
H  6.99200 43.74100 24.17700
H  7.59700 42.23500 24.87300
H  4.88900 43.67700 29.87700
H  5.08000 40.00400 32.42500
H  6.20400 40.96300 33.25800
H  6.74900 40.30000 31.79500

