158

Mg 24.39900 -4.77600 45.39700
C  26.46400 -2.53500 43.82200
C  21.77200 -3.52700 43.48000
C  22.67900 -7.77800 45.92400
C  27.17000 -6.23000 47.00100
N  24.17400 -3.23700 43.82000
C  25.16600 -2.41000 43.44100
C  24.59900 -1.47200 42.41000
C  23.10300 -1.48200 42.72800
C  23.00900 -2.82700 43.41700
C  22.52200 -0.34800 43.59000
C  24.92300 -1.92100 40.96900
C  25.20700 -0.70300 40.03400
H  24.90500 -0.85600 38.53700
N  22.39200 -5.52300 44.85100
C  21.52100 -4.88600 44.00000
C  20.30400 -5.68400 44.03800
C  20.55700 -6.89500 44.65500
C  21.94400 -6.78800 45.21900
C  19.00900 -5.17900 43.37400
C  19.61900 -8.02000 44.90600
O  18.52000 -7.92600 44.32300
C  19.91000 -9.27900 45.86700
N  24.71800 -6.63500 46.55400
C  23.84400 -7.70900 46.58600
C  24.46100 -8.93100 47.31700
C  25.81700 -8.35800 47.75100
C  25.92900 -6.93200 47.08500
C  23.58500 -9.57600 48.41300
C  27.10300 -9.33100 47.70900
C  27.72900 -9.71200 49.12800
N  26.38800 -4.35200 45.55100
C  27.41300 -5.01000 46.26300
C  28.67100 -4.32700 46.01700
C  28.37100 -3.38100 45.05100
C  26.96300 -3.46200 44.84100
C  30.02300 -4.78300 46.53700
C  28.85400 -2.41600 44.12800
O  30.04700 -2.09400 43.92400
C  27.64300 -1.79400 43.28200
C  27.62900 -0.34000 43.59900
O  27.29300 0.08400 44.72500
O  28.03800 0.38300 42.48700
C  27.97400 1.81500 42.77800
H  20.92800 -3.07300 42.95500
H  22.34700 -8.80900 45.78700
H  27.92100 -6.74600 47.60300
H  25.06200 -0.49800 42.57200
H  22.49500 -1.65700 41.84000
H  21.84300 0.28100 43.01400
H  23.38600 0.27400 43.82200
H  22.12800 -0.70900 44.54000
H  24.06000 -2.48400 40.61200
H  25.77900 -2.59600 40.99900
H  26.26600 -0.44800 40.01700
H  24.64900 0.17500 40.36100
H  18.28000 -5.97200 43.20700
H  19.22500 -4.72400 42.40700
H  18.67600 -4.37100 44.02700
H  20.29700 -9.02900 46.85500
H  20.63800 -9.84800 45.29000
H  18.97300 -9.80700 46.04600
H  24.61700 -9.71200 46.57300
H  25.68300 -8.08600 48.79800
H  23.34800 -10.62800 48.24900
H  22.65400 -9.06600 48.65700
H  24.14400 -9.53700 49.34800
H  27.88100 -9.06600 46.99200
H  26.68900 -10.22100 47.23400
H  28.81200 -9.62200 49.04400
H  27.47700 -10.71900 49.46000
H  27.51400 -8.95900 49.88600
H  30.74500 -4.56200 45.75100
H  29.96800 -5.87000 46.46700
H  30.20800 -4.39000 47.53600
H  27.82100 -2.06600 42.24200
H  27.27500 2.21000 42.04000
H  28.95700 2.26900 42.65900
H  27.56600 2.20200 43.71200
Mg 27.15400 50.41100 26.40600
C  25.33000 51.66400 29.29300
C  29.60500 49.29900 28.53700
C  29.04300 49.80700 23.62400
C  24.83100 52.12300 24.42800
N  27.42500 50.53800 28.67800
C  26.51700 51.01900 29.66900
C  27.04800 50.72300 31.03100
C  28.50100 50.05400 30.74400
C  28.57400 49.99400 29.19700
C  29.76500 50.74900 31.32200
C  26.04400 49.84500 31.82600
C  25.63600 50.26700 33.22200
H  26.70300 50.62000 34.31700
N  28.99900 49.50800 26.07900
C  29.83500 49.12400 27.09600
C  31.02500 48.56600 26.55800
C  30.98100 48.75500 25.10900
C  29.67900 49.38300 24.86200
C  32.16800 48.06900 27.38000
C  31.97400 48.44500 24.02900
O  31.79200 48.55800 22.79300
C  33.33100 47.74200 24.47300
N  27.05600 51.04300 24.35700
C  27.83300 50.48400 23.36100
C  27.44600 51.02100 22.00800
C  26.10000 51.67300 22.29200
C  25.97700 51.57700 23.79700
C  28.44400 51.96800 21.28400
C  24.89100 51.02700 21.50400
C  24.16400 49.90500 22.13800
N  25.47900 51.68900 26.70300
C  24.66700 52.29300 25.79500
C  23.60600 53.05800 26.46200
C  23.80300 52.78200 27.84000
C  24.96400 51.98200 27.94300
C  22.55600 53.94100 25.82100
C  23.31100 53.02900 29.19100
O  22.27100 53.62900 29.52600
C  24.30300 52.34200 30.23000
C  24.92600 53.37500 31.17300
O  25.94100 54.06100 30.95200
O  24.21200 53.41900 32.27700
C  24.74700 54.19900 33.40600
H  30.41300 48.83200 29.10500
H  29.52500 49.66200 22.65500
H  24.12700 52.69600 23.82100
H  27.09600 51.68600 31.54000
H  28.53300 49.02300 31.09700
H  30.38000 51.02300 30.46400
H  30.33900 50.13500 32.01700
H  29.44400 51.63300 31.87200
H  26.46800 48.85200 31.97500
H  25.11600 49.75800 31.26100
H  25.01400 49.46300 33.61500
H  25.15200 51.24100 33.16300
H  31.76600 47.69300 28.32100
H  32.80600 48.88600 27.71600
H  32.75400 47.22900 27.00800
H  33.75800 47.94000 25.45700
H  33.96800 47.78100 23.58900
H  33.23200 46.66000 24.56200
H  27.31600 50.19100 21.31400
H  26.10200 52.75500 22.15400
H  29.48900 51.98800 21.59500
H  28.06100 52.98900 21.30700
H  28.35200 51.69600 20.23300
H  25.27000 50.68500 20.54100
H  24.25000 51.87700 21.27000
H  23.14300 50.14100 22.43900
H  24.63000 49.48800 23.03000
H  24.25800 49.10200 21.40700
H  21.68900 53.84600 26.47600
H  22.30600 53.63200 24.80600
H  23.01000 54.93200 25.81800
H  23.70800 51.56100 30.70300
H  24.63600 55.20500 33.00100
H  25.73600 53.81800 33.65800
H  24.13300 54.16000 34.30600

