158

Mg 35.77300 2.64600 30.77700
C  33.30000 3.57400 33.24100
C  38.13300 2.79000 33.35300
C  38.15800 2.11300 28.55500
C  33.37100 2.81000 28.46500
N  35.70600 2.99200 33.04300
C  34.62000 3.37300 33.79700
C  35.01600 3.65100 35.23700
C  36.59000 3.64900 35.18200
C  36.84000 3.05000 33.82000
C  37.35900 4.94900 35.52500
C  34.25700 2.60600 36.17400
C  34.09300 2.88100 37.64300
H  35.01600 3.91400 38.31800
N  37.91000 2.50900 30.95900
C  38.66500 2.63000 32.05400
C  40.08000 2.43700 31.69700
C  40.10600 2.17400 30.30100
C  38.72000 2.27300 29.85700
C  41.23000 2.57100 32.64500
C  41.25700 1.73600 29.37300
O  41.12700 1.56300 28.15600
C  42.62300 1.58200 29.96700
N  35.73300 2.41900 28.83600
C  36.83700 2.19900 28.08400
C  36.45000 1.94600 26.63000
C  34.89300 1.96300 26.61600
C  34.64100 2.45500 27.98900
C  37.08000 2.96500 25.56500
C  34.09800 0.65000 26.29300
C  34.05900 0.32600 24.78500
N  33.78200 3.22300 30.78100
C  32.89000 3.15500 29.71400
C  31.58100 3.47400 30.12300
C  31.71100 3.74400 31.51100
C  33.04700 3.56000 31.87500
C  30.38200 3.52500 29.22200
C  30.97600 3.95400 32.74800
O  29.77200 4.01800 32.98100
C  31.99900 3.99700 33.96300
C  31.96500 5.32700 34.56700
O  32.56600 6.32800 34.12600
O  31.17300 5.32200 35.63900
C  31.23400 6.54500 36.52100
H  38.88400 2.83200 34.14500
H  38.90800 2.03200 27.76400
H  32.63300 2.87300 27.66200
H  34.67300 4.62500 35.58900
H  36.75600 2.92900 35.98300
H  37.86200 5.28400 34.61800
H  38.22500 4.73600 36.15100
H  36.65000 5.72600 35.81100
H  34.90300 1.73200 36.08700
H  33.29200 2.33100 35.75000
H  34.24500 1.98600 38.24600
H  33.04000 3.05300 37.86900
H  40.99700 3.04600 33.59800
H  41.91300 3.30000 32.20900
H  41.87000 1.73000 32.91300
H  42.55800 1.02300 30.90100
H  43.15200 2.51900 30.13800
H  43.33600 1.05800 29.33000
H  36.82800 0.93600 26.46900
H  34.60400 2.79800 25.97900
H  37.78800 2.48800 24.88700
H  37.58200 3.78000 26.08600
H  36.29300 3.45900 24.99600
H  33.08200 0.87800 26.61800
H  34.33000 -0.23400 26.88600
H  34.68100 1.06500 24.27900
H  33.10100 0.25300 24.27000
H  34.47200 -0.67300 24.64500
H  29.74300 2.79400 29.71700
H  30.46300 3.24200 28.17300
H  29.70500 4.37900 29.24300
H  31.73500 3.25100 34.71200
H  31.17200 6.22900 37.56200
H  30.40500 7.18700 36.22200
H  32.19300 7.05300 36.41700
Mg 47.71500 16.43400 28.63100
C  45.76500 15.98700 31.47300
C  49.74300 18.64700 30.49300
C  49.32100 17.07900 25.92200
C  45.04700 15.09400 26.74500
N  47.79900 17.19000 30.73500
C  46.94200 16.74700 31.74200
C  47.48200 17.23800 33.11100
C  48.56800 18.23200 32.67300
C  48.71800 18.02800 31.16500
C  48.19700 19.74100 32.96600
C  48.05200 16.02300 33.86500
C  48.06200 16.10100 35.38100
H  47.88800 17.38600 36.11900
N  49.43600 17.53400 28.32500
C  50.11000 18.45700 29.14200
C  51.21600 19.02700 28.45000
C  51.13900 18.43700 27.12900
C  49.94600 17.65200 27.09300
C  52.33400 19.73100 29.15900
C  51.96500 18.79600 25.96000
O  51.92600 18.24400 24.86800
C  52.86200 19.88500 25.93700
N  47.12400 16.26800 26.58100
C  48.11200 16.50700 25.67400
C  47.64900 16.15500 24.25000
C  46.40700 15.20600 24.50400
C  46.12200 15.62000 26.02600
C  47.30200 17.36700 23.32900
C  46.65000 13.69300 24.48600
C  45.89800 12.92200 23.35700
N  45.82000 15.68600 28.99400
C  44.88400 15.10500 28.11300
C  43.79600 14.58900 28.88300
C  44.12400 14.97700 30.21500
C  45.31200 15.59700 30.20600
C  42.58800 13.75900 28.33600
C  43.65100 14.95800 31.57600
O  42.60900 14.54500 32.08400
C  44.69200 15.64600 32.44300
C  43.97200 16.76900 33.10500
O  43.34300 17.65700 32.54100
O  44.06700 16.59300 34.48300
C  43.31100 17.46800 35.36500
H  50.44500 19.22800 31.09500
H  49.94900 17.23500 25.04200
H  44.26600 14.72900 26.07400
H  46.74700 17.82700 33.65800
H  49.53200 18.09000 33.16200
H  47.12600 19.83600 33.14300
H  48.47500 20.32800 32.09100
H  48.74800 20.12100 33.82700
H  49.09300 15.90400 33.56200
H  47.60400 15.08300 33.54100
H  48.95900 15.59600 35.74100
H  47.24900 15.48400 35.76300
H  53.33800 19.60400 28.75200
H  52.55200 19.24500 30.11000
H  52.13400 20.79400 29.29000
H  52.85700 20.48100 26.85000
H  52.75200 20.48400 25.03300
H  53.88900 19.53200 25.85000
H  48.39600 15.49900 23.80200
H  45.71800 15.47300 23.70300
H  46.47300 16.99400 22.72700
H  48.19300 17.51400 22.71800
H  47.11800 18.30100 23.85900
H  46.39100 13.31500 25.47500
H  47.72500 13.52600 24.41500
H  46.42800 11.99700 23.13100
H  45.89000 13.50700 22.43700
H  44.88700 12.74800 23.72600
H  42.64000 12.71200 28.63400
H  42.66000 13.97900 27.27100
H  41.63600 14.24300 28.55600
H  44.98100 14.89300 33.17600
H  43.22500 16.97900 36.33500
H  42.30000 17.42700 34.95800
H  43.58400 18.50900 35.53900

