158

Mg 30.44600 56.97400 40.57500
C  27.75900 54.90900 39.76300
C  32.56600 54.31900 39.77800
C  33.11500 59.08200 40.63200
C  28.30000 59.67000 40.92700
N  30.13600 54.90400 39.73300
C  28.93700 54.24500 39.63200
C  29.09100 52.75900 39.48500
C  30.68800 52.58600 39.76100
C  31.20600 54.03200 39.72900
C  30.98600 51.98100 41.15300
C  28.70900 52.15600 38.10300
C  29.11700 52.76100 36.77800
H  28.10400 53.19300 35.70700
N  32.48500 56.70000 40.33000
C  33.16100 55.54000 40.03800
C  34.57800 55.81700 39.99700
C  34.75800 57.20500 40.25200
C  33.39300 57.73700 40.51300
C  35.70600 54.88300 39.49400
C  36.19300 57.90400 40.30200
O  37.23100 57.28300 40.08900
C  36.23600 59.44300 40.53500
N  30.67400 59.08200 40.68800
C  31.83900 59.71200 40.88100
C  31.71300 61.21200 41.29400
C  30.17700 61.26800 41.42500
C  29.65900 59.90800 40.96000
C  32.49300 61.71600 42.55400
C  29.53200 62.52600 40.70300
C  29.46200 63.66100 41.74400
N  28.42000 57.27900 40.35200
C  27.68900 58.44700 40.62700
C  26.27600 58.12200 40.44700
C  26.26400 56.77000 40.05800
C  27.64600 56.25400 40.04200
C  25.06800 59.12600 40.58500
C  25.41400 55.71200 39.65900
O  24.19300 55.68500 39.39500
C  26.29400 54.43600 39.46600
C  25.81200 53.38300 40.39900
O  26.28700 53.07200 41.49400
O  24.74800 52.75800 39.84100
C  23.95500 51.83900 40.69600
H  33.20600 53.43600 39.73000
H  33.94000 59.76600 40.84400
H  27.63300 60.49400 41.18700
H  28.49500 52.32400 40.28700
H  31.11300 51.97900 38.96100
H  30.03900 51.63900 41.57100
H  31.47800 52.63500 41.87300
H  31.64800 51.12400 41.03000
H  27.63200 52.01500 38.19100
H  29.22000 51.19400 38.15900
H  29.88600 52.11200 36.35700
H  29.65100 53.66900 37.06000
H  36.58400 54.76800 40.12900
H  36.00800 55.31200 38.53800
H  35.24000 53.90900 39.34200
H  35.98500 59.75200 41.55000
H  35.56200 59.93800 39.83600
H  37.18500 59.91200 40.27500
H  32.10900 61.89900 40.54700
H  30.01500 61.26100 42.50300
H  33.28200 61.03200 42.86700
H  31.88800 61.92800 43.43600
H  33.12600 62.57600 42.33200
H  28.50000 62.21600 40.53600
H  29.93000 62.85500 39.74300
H  30.30700 63.75500 42.42700
H  28.57300 63.65600 42.37500
H  29.42400 64.58800 41.17300
H  25.35800 60.07800 41.03100
H  24.10400 58.82300 40.99400
H  24.75800 59.33300 39.56100
H  26.14600 54.12700 38.43100
H  24.61800 50.99400 40.88000
H  23.22900 51.43900 39.98800
H  23.53700 52.28600 41.59700
Mg -12.63600 37.75400 41.86200
C  -10.16100 35.47400 40.85700
C  -10.56600 40.24600 40.71100
C  -15.26200 40.04200 42.22800
C  -14.61300 35.21700 42.90700
N  -10.66700 37.79100 40.62800
C  -9.77500 36.75300 40.50100
C  -8.55800 37.28300 39.72500
C  -8.54300 38.77100 40.12600
C  -9.99300 38.97000 40.53300
C  -7.52100 39.17000 41.31500
C  -8.70100 36.79500 38.21800
C  -7.54400 36.00700 37.74300
H  -6.58300 36.68200 36.70700
N  -12.90200 39.90200 41.46400
C  -11.89600 40.68700 41.01700
C  -12.35500 42.03600 40.94400
C  -13.71600 42.04200 41.39300
C  -14.07000 40.63800 41.70000
C  -11.51600 43.18200 40.57900
C  -14.63100 43.32600 41.52000
O  -14.21500 44.43600 41.27500
C  -16.02100 43.13500 41.93300
N  -14.76300 37.56100 42.37000
C  -15.56200 38.65400 42.63700
C  -16.83500 38.23900 43.31100
C  -16.66900 36.62700 43.47300
C  -15.28000 36.41400 42.87900
C  -17.20600 38.84100 44.68300
C  -17.89300 35.84600 42.96100
C  -17.91500 35.79200 41.37100
N  -12.54000 35.73200 41.82700
C  -13.40200 34.81200 42.33000
C  -12.77200 33.50000 42.20700
C  -11.55100 33.65100 41.59600
C  -11.44800 35.05000 41.39600
C  -13.35900 32.33600 42.87700
C  -10.30700 33.01900 40.96800
O  -9.99600 31.83300 40.78500
C  -9.36200 34.22800 40.55800
C  -8.16500 34.16500 41.41700
O  -8.12000 34.67900 42.53100
O  -7.14600 33.43100 40.79700
C  -5.86700 33.41900 41.47300
H  -9.79300 41.00300 40.56000
H  -16.11100 40.70200 42.42200
H  -15.16800 34.40900 43.38900
H  -7.62900 36.90300 40.14900
H  -8.26500 39.41900 39.29500
H  -6.71400 38.44600 41.42700
H  -8.00900 39.40300 42.26100
H  -6.94100 40.05400 41.05000
H  -8.81700 37.67600 37.58800
H  -9.54000 36.11400 38.07500
H  -7.85700 35.10500 37.21700
H  -7.00100 35.64900 38.61700
H  -12.04100 43.93600 39.99300
H  -10.58800 42.87800 40.09300
H  -11.17800 43.63800 41.50900
H  -16.52300 42.41300 41.28800
H  -16.54500 44.08900 41.87100
H  -15.87200 42.77200 42.95000
H  -17.71000 38.50900 42.71900
H  -16.48100 36.30200 44.49700
H  -17.54300 38.06900 45.37500
H  -17.99600 39.56800 44.49400
H  -16.35300 39.25900 45.21800
H  -18.76000 36.37500 43.35600
H  -17.98100 34.83800 43.36700
H  -18.84900 35.94900 40.83100
H  -17.42600 34.88500 41.01600
H  -17.21700 36.52700 40.97000
H  -12.88300 32.08200 43.82400
H  -13.43000 31.48500 42.20000
H  -14.38700 32.47800 43.21000
H  -9.06500 34.00900 39.53200
H  -5.72200 32.42600 41.89800
H  -5.78400 34.04700 42.36000
H  -5.09300 33.48400 40.70900

