158

Mg 16.65300 51.82600 26.81400
C  18.84800 50.74600 29.32900
C  14.52700 52.87700 29.38900
C  14.65600 53.06300 24.57600
C  18.90300 50.75300 24.45200
N  16.65900 51.75000 29.12800
C  17.68200 51.30700 29.88600
C  17.40600 51.53000 31.32600
C  15.85800 51.92600 31.36200
C  15.59900 52.20100 29.86100
C  14.88600 50.90500 31.95400
C  18.35500 52.66500 31.86300
C  18.26100 53.04100 33.42600
H  17.38200 52.10100 34.30500
N  14.77400 52.71000 26.94600
C  14.19000 53.23100 28.08200
C  13.09600 54.03800 27.67300
C  13.07400 54.14800 26.26000
C  14.22200 53.29700 25.86100
C  12.13400 54.66600 28.71600
C  12.18800 54.86100 25.32300
O  12.29600 54.82400 24.10200
C  11.13100 55.78700 25.96000
N  16.75100 51.72000 24.82500
C  15.71800 52.30700 24.01000
C  15.88100 51.92600 22.49200
C  17.42800 51.64700 22.52300
C  17.69300 51.28400 23.98800
C  15.09100 50.65800 21.98200
C  18.23400 52.91500 21.93300
C  19.47500 52.58200 21.04700
N  18.52600 50.89600 26.75500
C  19.27600 50.48600 25.72400
C  20.52200 49.91500 26.17800
C  20.33700 49.92600 27.56600
C  19.11000 50.55500 27.90100
C  21.62500 49.45500 25.33600
C  20.98700 49.68900 28.86200
O  22.10500 49.23600 29.17800
C  20.00400 50.15000 30.00300
C  19.66300 48.93800 30.82600
O  19.14500 47.92800 30.37300
O  20.06300 49.09600 32.17200
C  19.59900 48.08700 33.15800
H  13.89300 53.20300 30.21600
H  13.97700 53.37700 23.78100
H  19.58800 50.45800 23.65400
H  17.48300 50.62900 31.93500
H  15.83900 52.91700 31.81500
H  14.21300 51.44000 32.62400
H  15.40900 50.07800 32.43400
H  14.28700 50.48300 31.14700
H  18.10900 53.55400 31.28200
H  19.39400 52.40600 31.66500
H  17.95500 54.07800 33.56200
H  19.31600 53.18900 33.65600
H  11.33500 53.95700 28.93500
H  11.75900 55.64900 28.43300
H  12.59100 54.77400 29.69900
H  11.57900 56.65200 26.45000
H  10.49500 55.20100 26.62400
H  10.48800 55.99600 25.10500
H  15.74200 52.68200 21.71900
H  17.76500 50.77000 21.96900
H  14.26000 50.45700 22.65800
H  15.64300 49.72100 22.04900
H  14.78600 50.82500 20.94800
H  18.57300 53.46100 22.81300
H  17.55700 53.67100 21.53500
H  19.24900 52.86600 20.01900
H  19.71300 51.51800 21.02800
H  20.35600 53.01900 21.51700
H  21.98300 50.14900 24.57600
H  21.41900 48.53600 24.78700
H  22.42400 49.18700 26.02700
H  20.64700 50.77000 30.62800
H  18.89400 47.34200 32.79000
H  19.01100 48.65600 33.87800
H  20.48300 47.62000 33.59100
Mg 0.77400 42.76900 26.56000
C  3.37000 42.90500 28.97400
C  -1.36700 42.03300 28.95100
C  -1.42200 42.52900 24.14500
C  3.28700 43.34100 24.17200
N  1.04900 42.52700 28.74800
C  2.15800 42.70100 29.48700
C  1.71800 42.73100 30.91400
C  0.28400 42.16100 30.93000
C  -0.06600 42.18100 29.44600
C  0.03300 40.83500 31.59800
C  1.95300 44.18100 31.54900
C  1.61200 44.31300 33.09500
H  1.38500 43.06400 34.03600
N  -1.10100 42.30900 26.54400
C  -1.86300 42.10600 27.67400
C  -3.24400 41.95400 27.28000
C  -3.31900 41.97400 25.84300
C  -1.92100 42.27500 25.46100
C  -4.33300 41.64800 28.32800
C  -4.50500 41.73800 24.88700
O  -4.46600 41.80100 23.72400
C  -5.76600 41.26600 25.47400
N  0.89200 43.20100 24.49300
C  -0.16300 42.98000 23.65000
C  0.26700 42.78700 22.13200
C  1.68500 43.35500 22.24500
C  1.94800 43.26100 23.72400
C  0.18900 41.24600 21.73900
C  1.78000 44.78900 21.84200
C  2.92500 45.22300 20.86900
N  2.88100 43.15800 26.54300
C  3.76500 43.37100 25.48500
C  5.10300 43.46400 25.96000
C  5.01500 43.22600 27.34500
C  3.64700 43.08700 27.60200
C  6.35100 43.77200 25.16600
C  5.78900 43.18000 28.57400
O  7.03600 43.22100 28.76900
C  4.71200 43.00600 29.69900
C  5.10000 41.89500 30.62500
O  5.02000 40.69400 30.37500
O  5.50400 42.41700 31.83900
C  5.51300 41.43900 32.97200
H  -2.17300 41.77200 29.63900
H  -2.17100 42.38800 23.36400
H  4.05400 43.57800 23.43200
H  2.44600 42.06400 31.37500
H  -0.26700 42.95800 31.43100
H  -0.00700 40.03500 30.85800
H  -0.78300 40.85900 32.31900
H  0.99000 40.55200 32.03800
H  1.28400 44.89300 31.06700
H  2.97000 44.49900 31.31800
H  0.77800 44.97200 33.33700
H  2.57000 44.66200 33.48200
H  -5.12300 42.37700 28.14800
H  -4.10900 41.96500 29.34600
H  -4.82800 40.67700 28.34800
H  -6.26400 42.16400 25.83900
H  -5.62600 40.41000 26.13500
H  -6.41800 40.81700 24.72400
H  -0.44500 43.35900 21.53800
H  2.37400 42.69800 21.71400
H  0.02100 40.67100 22.65000
H  1.06200 40.93500 21.16600
H  -0.65400 41.05900 21.07400
H  1.90800 45.44500 22.70300
H  0.88000 45.11900 21.32300
H  2.50800 45.37500 19.87400
H  3.69100 44.50700 20.57200
H  3.55600 46.02200 21.25700
H  6.09900 44.54500 24.44000
H  6.68600 42.87800 24.64100
H  7.19800 44.07000 25.78400
H  4.76700 43.90400 30.31400
H  6.54000 41.14500 33.18800
H  4.87200 40.57700 32.79200
H  4.95100 41.88300 33.79400

