158

Mg 16.66400 -1.42500 27.70400
C  15.81900 0.39700 30.56600
C  18.87200 -3.25800 29.58800
C  17.76400 -2.94900 24.85300
C  14.75300 0.67900 25.72800
N  17.34100 -1.34400 29.79900
C  16.92400 -0.42500 30.76300
C  17.52300 -0.67600 32.12500
C  18.60300 -1.77500 31.66400
C  18.24100 -2.24600 30.31700
C  20.00900 -1.19300 31.75000
C  16.50500 -1.28000 33.14100
C  16.23400 -0.54200 34.49500
H  17.54400 0.00500 35.09700
N  18.04500 -2.98000 27.30900
C  18.74000 -3.62100 28.25200
C  19.39600 -4.76900 27.56600
C  19.20800 -4.61200 26.13200
C  18.30400 -3.47800 26.04400
C  20.19600 -5.83800 28.27300
C  19.75000 -5.36800 24.94400
O  19.53200 -5.10000 23.78100
C  20.52000 -6.62600 25.10400
N  16.51000 -0.99900 25.66200
C  16.93900 -1.82300 24.67500
C  16.51900 -1.26400 23.28900
C  15.49600 -0.14900 23.58100
C  15.52700 -0.18200 25.11800
C  17.72100 -0.77000 22.47800
C  14.09200 -0.32300 22.90400
C  14.07800 -0.35300 21.38200
N  15.42600 0.21300 28.05900
C  14.70900 0.93500 27.08900
C  13.89600 1.84600 27.80900
C  14.33500 1.70300 29.20200
C  15.21100 0.64300 29.28900
C  12.76600 2.81400 27.31700
C  14.13400 2.19500 30.53500
O  13.28300 3.01300 30.94200
C  15.08100 1.37800 31.43600
C  15.92900 2.48600 31.95700
O  16.81400 3.03800 31.35000
O  15.27200 2.88400 33.11200
C  15.70500 4.13800 33.62800
H  19.53400 -3.88800 30.18600
H  17.89400 -3.37900 23.85800
H  13.99800 1.17500 25.11500
H  17.93100 0.26200 32.50200
H  18.52500 -2.69100 32.24900
H  20.07500 -0.32500 32.40600
H  20.45200 -0.95600 30.78200
H  20.74300 -1.82100 32.25400
H  16.78300 -2.32000 33.31600
H  15.53000 -1.19900 32.66100
H  15.83800 -1.29100 35.18100
H  15.42700 0.18000 34.37500
H  19.98400 -6.86700 27.98200
H  20.00000 -5.87300 29.34400
H  21.25400 -5.66200 28.08100
H  20.89300 -7.02300 24.15900
H  19.77100 -7.29700 25.52300
H  21.30700 -6.51400 25.85000
H  16.01000 -2.11000 22.82800
H  15.86900 0.82000 23.24900
H  17.75800 0.31100 22.34200
H  17.75000 -1.32300 21.53900
H  18.65600 -1.11300 22.92000
H  13.44300 0.50500 23.18800
H  13.66500 -1.29300 23.15900
H  13.12700 -0.07100 20.93200
H  14.28800 -1.36700 21.04000
H  14.89000 0.26700 21.00200
H  12.72200 3.74100 27.88900
H  11.75800 2.40600 27.38200
H  12.89600 3.15700 26.29100
H  14.61600 0.91200 32.30500
H  15.01800 4.98000 33.54000
H  16.71400 4.37800 33.29200
H  15.77500 3.90500 34.69100
Mg 25.08600 1.85900 29.26500
C  27.32700 1.38100 32.01600
C  22.54000 1.75300 31.46000
C  23.02100 1.74100 26.61400
C  27.92200 1.34100 27.18600
N  25.02300 1.67500 31.54500
C  26.04100 1.51700 32.46200
C  25.54000 1.69800 33.88500
C  23.98900 1.68300 33.56600
C  23.79100 1.65300 32.07500
C  23.23100 0.64100 34.36300
C  26.02500 2.95900 34.62300
C  25.15900 3.44100 35.78700
H  25.90500 4.22100 36.92700
N  23.03100 1.88400 29.10100
C  22.16200 1.84500 30.07700
C  20.88100 2.08500 29.55400
C  20.92100 1.95500 28.11400
C  22.31500 1.80000 27.89500
C  19.65400 2.05300 30.49900
C  19.84300 1.81700 27.01700
O  20.10100 1.69400 25.80400
C  18.39600 1.74400 27.47400
N  25.43500 1.40300 27.25900
C  24.41600 1.60000 26.33900
C  24.91300 1.55200 24.88300
C  26.51600 1.72000 25.14600
C  26.65900 1.41200 26.59200
C  24.45400 0.40000 24.01500
C  27.08000 3.14600 24.76700
C  26.82600 4.33100 25.65500
N  27.21400 1.48000 29.47000
C  28.16200 1.34900 28.54100
C  29.43100 1.07600 29.18900
C  29.15500 1.11400 30.55300
C  27.77200 1.37300 30.63700
C  30.82800 0.83300 28.64100
C  29.68200 1.02400 31.91100
O  30.81300 0.90900 32.32700
C  28.54600 1.21900 32.89000
C  28.47700 0.23700 34.03100
O  27.67500 -0.73200 34.05400
O  29.37800 0.51000 35.05500
C  29.59200 -0.61300 35.90100
H  21.76400 1.75500 32.22800
H  22.37100 1.90500 25.75200
H  28.73900 1.46200 26.47100
H  25.63600 0.86600 34.58400
H  23.64400 2.66000 33.90400
H  23.64600 -0.33700 34.11900
H  22.15100 0.65200 34.21400
H  23.34400 0.78400 35.43800
H  26.12500 3.73400 33.86400
H  27.05900 2.85200 34.94900
H  24.77800 2.51600 36.21900
H  24.33900 4.10200 35.50600
H  19.20600 3.02000 30.73100
H  19.96500 1.65900 31.46700
H  18.88300 1.36500 30.15300
H  17.93300 0.76200 27.57000
H  17.91300 2.29000 26.66300
H  18.18600 2.32700 28.37100
H  24.59600 2.48100 24.40900
H  27.15200 0.99800 24.63400
H  25.15600 0.18200 23.21000
H  23.45900 0.62100 23.63000
H  24.39500 -0.44900 24.69500
H  26.46900 3.46200 23.92100
H  28.11200 3.02800 24.43700
H  26.82300 3.91900 26.66400
H  25.89500 4.89000 25.56400
H  27.60300 5.08900 25.55400
H  31.02000 -0.16700 29.03200
H  31.57900 1.58300 28.89000
H  30.83300 0.73000 27.55600
H  28.70300 2.16900 33.40100
H  28.79900 -0.65200 36.64800
H  30.51600 -0.54300 36.47400
H  29.64300 -1.50800 35.28000

