158

Mg 25.86700 0.67300 29.15500
C  27.95100 0.37300 32.07600
C  23.17900 1.35100 31.19100
C  24.10500 0.59400 26.50100
C  28.66900 -0.73600 27.32400
N  25.60500 0.73700 31.45400
C  26.62700 0.64500 32.41800
C  25.95800 0.84500 33.79500
C  24.47900 1.28100 33.46400
C  24.36600 1.09300 31.99700
C  23.39900 0.22300 34.12800
C  26.70900 1.91000 34.66300
C  26.93400 1.48700 36.08500
H  26.47100 2.47600 37.16700
N  23.90000 1.02900 28.89600
C  22.94400 1.24700 29.78300
C  21.75400 1.45300 29.15700
C  21.92800 1.18900 27.76400
C  23.38300 0.90900 27.65900
C  20.44200 1.72200 29.88100
C  20.81300 1.08100 26.67400
O  21.00500 0.53500 25.57600
C  19.39600 1.57400 26.93400
N  26.37800 -0.00800 27.21400
C  25.40100 0.18400 26.27600
C  25.92000 -0.14800 24.82500
C  27.36400 -0.62100 25.07500
C  27.52200 -0.47700 26.57500
C  25.04600 -1.05900 23.94200
C  28.35400 0.15900 24.20700
C  28.84700 1.48100 24.76500
N  27.85800 -0.05100 29.57700
C  28.81200 -0.56900 28.73200
C  30.10800 -0.67700 29.42100
C  29.77600 -0.35100 30.76800
C  28.41500 0.05800 30.78200
C  31.45400 -1.25900 28.95000
C  30.32900 -0.33600 32.13400
O  31.40400 -0.58400 32.61300
C  29.17700 0.14700 32.97600
C  28.84400 -0.87400 33.93100
O  28.13400 -1.80700 33.68600
O  29.38400 -0.61700 35.16500
C  28.92000 -1.53800 36.21100
H  22.28300 1.60100 31.76200
H  23.47400 0.76500 25.62600
H  29.54700 -0.91600 26.70000
H  25.98300 -0.09900 34.33900
H  24.22000 2.32500 33.63900
H  23.60500 -0.80600 33.83400
H  22.35200 0.41500 33.89200
H  23.45300 0.20100 35.21600
H  26.09100 2.80100 34.77200
H  27.63800 2.22000 34.18500
H  28.00600 1.56100 36.27100
H  26.68000 0.46500 36.36800
H  19.59100 1.33300 29.32200
H  20.28700 2.78900 30.04500
H  20.54300 1.22100 30.84400
H  18.84400 0.76900 27.42000
H  18.94300 1.86000 25.98500
H  19.41200 2.47400 27.54800
H  25.75200 0.83900 24.39400
H  27.36800 -1.70400 24.95100
H  24.08700 -1.37600 24.35100
H  25.62300 -1.88400 23.52500
H  24.77800 -0.38200 23.13100
H  27.77900 0.31400 23.29400
H  29.23600 -0.36700 23.84100
H  28.34600 1.72400 25.70300
H  28.68000 2.26600 24.02700
H  29.92200 1.45200 24.93900
H  32.29300 -0.72200 29.39300
H  31.60200 -0.98100 27.90600
H  31.42600 -2.33200 29.14200
H  29.48600 1.04400 33.51200
H  29.72000 -1.54900 36.95100
H  28.83100 -2.59000 35.93900
H  28.01700 -1.20300 36.72000
Mg 47.34900 34.34600 26.81800
C  45.56500 33.50700 29.73200
C  47.84700 37.51300 28.19900
C  48.75100 35.32000 23.89600
C  46.32800 31.31100 25.35600
N  46.84600 35.39000 28.85500
C  46.10700 34.82200 29.88600
C  45.93700 35.75200 31.07300
C  46.91500 36.90700 30.65000
C  47.17300 36.64500 29.15600
C  46.55900 38.35200 30.92100
C  46.25100 35.44100 32.58600
C  45.07500 35.57500 33.54400
H  45.47300 35.82700 35.01300
N  48.26200 36.05600 26.22200
C  48.35000 37.26500 26.91800
C  49.03500 38.25000 26.11700
C  49.33900 37.63200 24.82600
C  48.82200 36.25800 24.94300
C  49.52700 39.60800 26.65000
C  50.10500 38.18800 23.53900
O  50.30000 37.58300 22.47200
C  50.75500 39.51000 23.63300
N  47.61000 33.38900 25.00200
C  48.23600 33.99500 23.92900
C  48.32700 33.08100 22.72100
C  47.41200 31.89000 23.09000
C  47.06700 32.25400 24.58600
C  48.12400 33.75500 21.30900
C  48.23000 30.59000 22.89200
C  49.39400 30.29800 23.79300
N  46.36300 32.63600 27.46700
C  45.91500 31.52000 26.71600
C  45.07600 30.73400 27.59000
C  44.96300 31.48200 28.76700
C  45.66100 32.67000 28.65400
C  44.34800 29.40000 27.25500
C  44.24500 31.44800 30.01900
O  43.41500 30.64200 30.51900
C  44.60100 32.78900 30.69000
C  45.26500 32.26200 31.94700
O  46.43500 32.00600 32.20000
O  44.23100 31.94200 32.81700
C  44.65600 31.14000 33.97000
H  48.05900 38.48000 28.66000
H  49.16800 35.67400 22.95000
H  45.96800 30.40000 24.87400
H  44.98300 36.25600 30.91900
H  47.87200 36.57300 31.04900
H  46.47800 38.88000 29.97100
H  47.40000 38.75000 31.48800
H  45.58100 38.45800 31.39200
H  47.01700 36.07700 33.03000
H  46.58400 34.42700 32.80600
H  44.45000 34.69300 33.40500
H  44.48700 36.43000 33.21100
H  48.97400 40.43100 26.19500
H  50.60200 39.71300 26.50500
H  49.40200 39.58700 27.73200
H  50.05800 40.25600 24.01500
H  51.23500 39.76300 22.68800
H  51.51100 39.43400 24.41400
H  49.39100 32.84100 22.72400
H  46.43400 31.90100 22.61000
H  49.08200 33.61000 20.80900
H  47.73500 34.77100 21.37500
H  47.33700 33.21000 20.78800
H  48.66600 30.60200 21.89300
H  47.51600 29.77400 23.00600
H  50.23800 30.34000 23.10600
H  49.29400 29.28800 24.19100
H  49.53800 31.01800 24.59900
H  44.24100 29.33100 26.17300
H  43.37900 29.41700 27.75400
H  45.13300 28.76100 27.65800
H  43.69000 33.33200 30.94200
H  45.63600 31.31400 34.41300
H  44.39000 30.12600 33.67200
H  43.94500 31.20700 34.79400

