158

Mg 55.84300 24.38100 45.30400
C  52.91100 26.18800 44.33500
C  54.18600 21.45300 44.23600
C  58.71100 22.82200 45.55900
C  57.30400 27.44000 46.25500
N  53.79900 23.92000 44.28400
C  52.80700 24.79600 44.01200
C  51.62000 24.10200 43.42000
C  51.91400 22.61500 43.82700
C  53.44900 22.60600 44.17700
C  51.02000 22.12500 45.01200
C  51.37600 24.35100 41.89800
C  49.92400 24.58300 41.53500
H  49.70100 24.54600 40.00400
N  56.43900 22.48700 44.95900
C  55.62400 21.40900 44.57800
C  56.31100 20.23600 44.65900
C  57.59700 20.55000 45.13700
C  57.59100 21.99400 45.28800
C  55.68900 18.90200 44.23000
C  58.62300 19.43200 45.41600
O  58.29600 18.27100 45.21800
C  59.96300 19.68900 45.93000
N  57.77200 25.03000 45.78400
C  58.76900 24.18000 45.84100
C  60.06100 24.93100 46.23700
C  59.66000 26.38000 46.40700
C  58.18200 26.30700 46.06900
C  60.74600 24.35000 47.49700
C  60.37800 27.44500 45.48900
C  61.67600 28.08400 45.90900
N  55.25200 26.37200 45.35600
C  55.90200 27.45900 45.88400
C  55.01000 28.60000 45.81100
C  53.85300 28.19200 45.16600
C  54.06200 26.77400 44.98200
C  55.30200 29.95800 46.28900
C  52.51000 28.59800 44.72300
O  51.85300 29.67500 44.74500
C  51.83700 27.34500 44.09400
C  51.84000 27.79200 42.59500
O  52.87900 27.87600 41.91200
O  50.60100 28.00700 42.14200
C  50.64900 28.68500 40.81700
H  53.61000 20.55200 44.01400
H  59.66100 22.28400 45.54900
H  57.70700 28.39700 46.59300
H  50.70000 24.49300 43.85600
H  51.78900 21.99500 42.94000
H  50.17200 21.46800 44.81900
H  50.61700 22.96600 45.57600
H  51.68000 21.67300 45.75200
H  51.67900 23.43500 41.39100
H  52.09400 25.04400 41.45900
H  49.51200 25.47500 42.00700
H  49.34900 23.74600 41.92900
H  56.37700 18.47900 43.49700
H  54.81600 19.02600 43.58900
H  55.46500 18.29800 45.10900
H  60.66500 20.04600 45.17700
H  60.43100 18.82800 46.40800
H  59.99700 20.48900 46.67000
H  60.69800 24.85400 45.35600
H  59.71200 26.75900 47.42700
H  61.19700 23.41000 47.17900
H  60.00700 24.21400 48.28700
H  61.58900 24.92200 47.88500
H  59.67300 28.24800 45.27500
H  60.60000 26.93700 44.55100
H  61.59600 29.14300 45.66500
H  62.55900 27.72900 45.37700
H  61.79400 27.91100 46.97900
H  55.26200 30.61700 45.42300
H  56.27000 30.00300 46.78700
H  54.47700 30.42500 46.82700
H  50.81100 27.34000 44.46000
H  51.38700 29.47700 40.68700
H  49.70400 29.20200 40.65000
H  50.73100 28.10600 39.89700
Mg -2.26900 34.77100 27.14000
C  -4.09900 33.17900 29.72700
C  -0.83400 36.84100 29.42600
C  -1.32700 36.82900 24.57700
C  -4.26500 32.89200 24.93000
N  -2.54800 35.02700 29.38700
C  -3.30000 34.25100 30.25500
C  -2.99300 34.58800 31.73100
C  -2.26400 35.98500 31.51800
C  -1.77600 35.93500 30.06500
C  -2.96000 37.29600 31.80700
C  -2.17300 33.48600 32.41300
C  -1.92300 33.72300 33.88000
H  -2.48600 32.82800 34.93300
N  -1.06800 36.43300 27.02000
C  -0.44400 37.08500 28.07500
C  0.43200 38.09400 27.56400
C  0.27400 38.12300 26.10800
C  -0.78400 37.10600 25.84700
C  1.35800 38.85800 28.45200
C  1.14100 38.90500 25.08700
O  0.89200 38.73800 23.91400
C  2.23200 39.76900 25.42200
N  -2.80000 34.91700 25.07100
C  -2.22500 35.88600 24.19700
C  -2.73800 35.70400 22.75500
C  -3.56400 34.34300 22.86100
C  -3.54800 33.98200 24.36800
C  -3.56400 36.88600 22.27900
C  -3.24100 33.12900 21.82300
C  -2.32500 31.93100 22.38200
N  -3.84900 33.28100 27.20000
C  -4.48400 32.53600 26.24800
C  -5.40700 31.61000 26.79700
C  -5.21200 31.76200 28.18800
C  -4.30500 32.84600 28.40600
C  -6.31600 30.67100 26.09300
C  -5.64800 31.23400 29.47800
O  -6.56500 30.45600 29.82400
C  -4.92300 32.14500 30.48600
C  -5.94300 32.73000 31.42400
O  -6.85000 33.45500 31.01600
O  -5.73500 32.36300 32.76100
C  -6.82400 32.65300 33.62500
H  -0.27600 37.42800 30.15900
H  -0.99000 37.54300 23.82300
H  -4.74500 32.14500 24.29400
H  -3.90500 34.78100 32.29600
H  -1.29400 35.92600 32.01100
H  -3.76200 37.20000 32.53800
H  -3.33900 37.59200 30.83000
H  -2.23200 37.97500 32.25200
H  -1.17000 33.37600 32.00200
H  -2.77500 32.58000 32.34300
H  -2.25200 34.73900 34.09700
H  -0.84600 33.79900 34.02900
H  0.87100 39.81100 28.65800
H  2.33800 38.94000 27.98300
H  1.57600 38.39400 29.41400
H  2.66200 40.35900 24.61200
H  3.02700 39.11300 25.77600
H  1.96100 40.53400 26.15000
H  -1.83800 35.67100 22.14100
H  -4.61800 34.56900 22.70000
H  -4.62100 36.62100 22.30200
H  -3.30900 37.29900 21.30400
H  -3.59100 37.64900 23.05700
H  -2.82000 33.64100 20.95800
H  -4.20300 32.76600 21.45900
H  -1.73100 31.58100 21.53800
H  -2.98000 31.07800 22.55900
H  -1.67400 32.20500 23.21200
H  -7.30000 31.13900 26.05800
H  -6.37500 29.83200 26.78600
H  -6.03800 30.27700 25.11500
H  -4.18700 31.51100 30.97900
H  -6.50400 32.93400 34.62900
H  -7.32400 31.68700 33.69300
H  -7.48300 33.44200 33.26300

