158

Mg 47.00200 17.52400 28.50800
C  45.33800 16.81600 31.55100
C  49.59800 18.83900 30.31600
C  48.29400 18.32500 25.64800
C  44.25800 16.06600 26.82900
N  47.37900 17.91100 30.74200
C  46.56100 17.60000 31.76400
C  47.22300 17.96600 33.05700
C  48.42700 18.86000 32.56300
C  48.44800 18.54600 31.12000
C  48.35400 20.42200 32.78100
C  47.58100 16.77900 34.01400
C  47.27600 16.85000 35.52700
H  46.96700 18.13900 36.18300
N  48.82900 18.43800 28.06300
C  49.84200 18.75700 28.92100
C  50.99600 18.95300 28.14700
C  50.58700 19.02800 26.78700
C  49.17400 18.60200 26.75500
C  52.32600 19.24300 28.77300
C  51.44000 19.37300 25.54900
O  51.02700 19.28300 24.36100
C  52.83200 19.86400 25.73100
N  46.40500 17.20600 26.48000
C  47.10800 17.69500 25.45100
C  46.44600 17.38000 24.09000
C  45.18500 16.54700 24.46600
C  45.28100 16.53700 25.98800
C  46.17200 18.47300 23.06300
C  45.16400 15.09200 23.83100
C  44.69600 14.98400 22.37200
N  45.14600 16.72200 29.01500
C  44.18200 16.02900 28.21700
C  43.12600 15.48000 29.00400
C  43.54700 15.81700 30.31100
C  44.81300 16.48600 30.27200
C  42.02800 14.58100 28.60900
C  43.25800 15.59200 31.77000
O  42.29800 14.95300 32.32300
C  44.37100 16.35400 32.57200
C  43.66900 17.45400 33.33800
O  43.68100 18.64700 33.06600
O  43.16300 16.94600 34.50000
C  42.66400 17.99600 35.45300
H  50.43300 19.25100 30.88600
H  48.76400 18.63600 24.71300
H  43.45800 15.74400 26.15900
H  46.48900 18.58900 33.56800
H  49.29800 18.42000 33.04800
H  47.92300 20.87300 31.88700
H  49.33400 20.75100 33.12700
H  47.63900 20.49900 33.60000
H  48.64500 16.58400 33.87800
H  47.01200 15.93600 33.62200
H  48.14900 16.37100 35.97000
H  46.45100 16.20200 35.82100
H  52.20700 19.11300 29.84900
H  52.58600 20.29200 28.62900
H  53.07400 18.52400 28.43900
H  52.86000 20.77500 26.32800
H  53.13800 20.28700 24.77400
H  53.57200 19.10100 25.97500
H  47.12800 16.71800 23.55900
H  44.24100 16.97000 24.12300
H  46.40100 17.95600 22.13100
H  46.74900 19.38000 23.24400
H  45.09800 18.65700 23.07500
H  44.63100 14.37500 24.45600
H  46.13400 14.64100 24.03800
H  45.45900 14.43400 21.82000
H  44.59900 15.98900 21.96200
H  43.70900 14.55700 22.19500
H  41.92300 13.82200 29.38400
H  42.32300 14.22700 27.62100
H  41.11700 15.17500 28.54100
H  44.83100 15.78700 33.38100
H  42.54200 17.48500 36.40800
H  41.80100 18.58900 35.15200
H  43.45100 18.73200 35.61900
Mg 49.20400 35.30700 27.78500
C  47.18400 33.82400 30.27600
C  49.46300 38.01700 29.87500
C  51.26900 36.60000 25.59900
C  48.54500 32.68100 25.77000
N  48.39100 35.77900 29.92800
C  47.66800 35.02700 30.74400
C  47.77500 35.52700 32.22900
C  48.22200 37.08000 31.95700
C  48.85500 36.94600 30.53300
C  47.09200 38.14100 32.18400
C  48.99400 34.83600 32.97200
C  48.73300 34.38900 34.35300
H  47.73800 35.29100 35.19400
N  50.17800 37.07600 27.74400
C  50.12500 38.15300 28.63900
C  50.80100 39.37400 28.06500
C  51.43200 38.90800 26.82200
C  50.98800 37.52700 26.67600
C  50.82400 40.69500 28.77100
C  52.40500 39.55300 25.90600
O  52.82400 39.07100 24.86700
C  52.98300 40.91400 26.28700
N  49.71100 34.78700 25.88200
C  50.72600 35.41900 25.20000
C  51.15200 34.58400 23.94600
C  50.10100 33.42100 23.94200
C  49.36700 33.66000 25.27000
C  51.11400 35.35700 22.61600
C  50.75600 32.02000 23.75900
C  50.26100 31.32500 22.49500
N  48.08700 33.57200 27.91700
C  47.84500 32.63100 26.95900
C  47.00000 31.57600 27.50200
C  46.70100 32.05400 28.75800
C  47.44200 33.27000 28.99300
C  46.56800 30.38600 26.76900
C  45.89300 31.77300 29.89300
O  45.15400 30.84800 30.02500
C  46.18400 32.88300 30.90200
C  46.48300 32.22200 32.18800
O  47.40400 31.45800 32.38000
O  45.48600 32.39600 33.05800
C  45.62900 31.70600 34.31500
H  49.58100 38.96600 30.40200
H  51.98900 36.92600 24.84500
H  48.40400 31.81500 25.12000
H  46.78900 35.59400 32.69000
H  48.97500 37.34900 32.69700
H  46.10900 37.68700 32.31200
H  47.01400 38.85500 31.36400
H  47.34000 38.77200 33.03700
H  49.95000 35.35300 32.89100
H  49.19600 33.87100 32.50700
H  49.73100 34.45100 34.78600
H  48.29500 33.39200 34.30400
H  50.05600 40.64400 29.54300
H  50.55400 41.46400 28.04700
H  51.79100 40.95000 29.20700
H  53.71600 40.77100 27.08100
H  52.22200 41.59600 26.66600
H  53.55500 41.23400 25.41600
H  52.16200 34.27700 24.21800
H  49.38600 33.53500 23.12800
H  52.08600 35.72900 22.29300
H  50.33600 36.11500 22.71500
H  50.95500 34.53900 21.91400
H  50.59900 31.44800 24.67400
H  51.83400 32.08900 23.61300
H  50.36600 32.07400 21.71100
H  49.21000 31.06900 22.62700
H  50.98000 30.55300 22.22100
H  46.85700 30.30300 25.72100
H  45.48300 30.31600 26.84900
H  46.96200 29.47300 27.21500
H  45.25100 33.44500 30.91700
H  46.45900 32.01500 34.95000
H  45.74600 30.64700 34.08400
H  44.67300 31.77800 34.83500

