158

Mg 17.65500 -0.28700 27.56600
C  16.80800 1.37800 30.61700
C  19.50600 -2.43800 29.43300
C  18.69100 -1.56300 24.70500
C  15.66400 2.07200 25.93300
N  18.28100 -0.34700 29.71700
C  17.67200 0.29300 30.77500
C  18.01400 -0.33000 32.14100
C  19.17600 -1.33500 31.73600
C  18.99600 -1.39500 30.21500
C  20.66300 -0.88300 31.92400
C  16.84700 -1.08000 32.83900
C  16.72200 -0.85900 34.33600
H  18.05300 -0.56100 35.09600
N  18.84300 -1.83200 27.15500
C  19.50100 -2.70100 28.03200
C  20.19000 -3.74100 27.27600
C  19.91300 -3.50300 25.92300
C  19.13700 -2.28200 25.85800
C  21.03500 -4.86400 27.98200
C  20.51000 -4.27200 24.77100
O  20.24100 -3.99900 23.60500
C  21.46800 -5.47600 24.97500
N  17.19500 0.16500 25.67000
C  17.89100 -0.42800 24.60200
C  17.79400 0.38500 23.36200
C  16.50800 1.27000 23.69500
C  16.44100 1.21200 25.22200
C  19.04300 1.18500 22.83000
C  15.11900 1.06100 22.95200
C  14.96600 1.97000 21.67100
N  16.54800 1.39400 28.12400
C  15.71400 2.26200 27.34500
C  15.03300 3.18700 28.16300
C  15.37000 2.82900 29.40800
C  16.39900 1.85900 29.37700
C  14.10600 4.28000 27.68000
C  15.08200 3.12300 30.88500
O  14.42600 4.03400 31.41600
C  15.99900 2.17800 31.63800
C  16.89300 3.05100 32.54900
O  17.99900 3.47500 32.23400
O  16.32200 3.27800 33.75600
C  17.05900 4.17100 34.65500
H  20.05100 -3.20900 29.98100
H  18.98100 -1.95000 23.72600
H  15.12800 2.75200 25.26700
H  18.27000 0.47800 32.82600
H  19.04300 -2.32100 32.18200
H  21.16800 -0.70600 30.97500
H  21.16900 -1.73800 32.37400
H  20.53500 -0.00900 32.56200
H  16.96200 -2.16300 32.82700
H  15.93200 -0.83600 32.29900
H  16.37700 -1.74500 34.86900
H  16.05400 -0.02100 34.53600
H  20.96000 -4.75900 29.06400
H  22.07800 -4.72800 27.69800
H  20.62000 -5.84400 27.74300
H  22.39100 -5.12300 25.43500
H  21.65200 -5.66600 23.91800
H  21.02600 -6.33700 25.47700
H  17.65300 -0.36200 22.58100
H  16.80100 2.30600 23.52500
H  19.99100 0.76700 23.16900
H  19.09500 2.26600 22.95700
H  19.24500 0.90600 21.79500
H  14.33900 1.26300 23.68700
H  14.97500 0.01000 22.70400
H  14.27100 2.80600 21.74600
H  14.59000 1.38900 20.82900
H  16.00700 2.25600 21.51700
H  14.11300 4.39500 26.59700
H  14.23500 5.22900 28.20000
H  13.13600 3.93200 28.03600
H  15.51400 1.53800 32.37500
H  17.11300 3.63400 35.60200
H  16.48000 5.08100 34.81700
H  18.07800 4.33900 34.30700
Mg 42.21100 40.81700 26.30600
C  41.35000 43.33300 28.74900
C  43.21000 38.79600 28.70600
C  43.04700 38.67800 23.87000
C  41.35900 43.24100 23.88400
N  42.37100 41.19800 28.41700
C  41.81200 42.14300 29.30900
C  41.93300 41.75100 30.73100
C  42.75100 40.36400 30.68000
C  42.71100 40.04500 29.12100
C  44.16700 40.39600 31.37000
C  40.57900 41.69700 31.50500
C  40.45700 42.67900 32.71200
H  39.99700 42.13700 34.07700
N  43.01400 39.00200 26.27200
C  43.38100 38.25600 27.36200
C  43.79800 37.01700 26.89000
C  43.97200 37.04000 25.49600
C  43.34200 38.31200 25.15400
C  44.31500 35.93100 27.76200
C  44.49900 36.01300 24.48400
O  44.47000 36.14500 23.28100
C  45.11900 34.76400 24.96700
N  42.02400 40.89900 24.22500
C  42.52500 39.88800 23.44800
C  42.21600 40.12800 21.95600
C  41.73100 41.56700 21.94900
C  41.65600 41.95000 23.42400
C  43.41400 39.98800 20.92700
C  40.32800 41.85400 21.27800
C  40.20200 43.27400 20.53900
N  41.59000 42.92200 26.28500
C  41.25500 43.76900 25.20100
C  40.86800 45.08300 25.68300
C  40.76800 44.89400 27.09300
C  41.28500 43.59800 27.41600
C  40.62000 46.23600 24.80300
C  40.37700 45.57400 28.33100
O  39.79000 46.61800 28.49400
C  40.80100 44.52200 29.51400
C  41.80200 45.17900 30.40600
O  42.93700 45.51900 30.09300
O  41.22500 45.60300 31.59800
C  42.04400 46.32800 32.58900
H  43.54800 38.23700 29.58100
H  43.31200 37.93000 23.12000
H  41.13200 43.94700 23.08200
H  42.64500 42.51600 31.04000
H  42.11500 39.52700 30.96800
H  44.92800 40.41700 30.58900
H  44.31900 39.47600 31.93500
H  44.27300 41.17200 32.12800
H  40.44300 40.65100 31.78200
H  39.82800 42.07200 30.81000
H  39.79700 43.50000 32.42900
H  41.41500 43.14800 32.93500
H  44.11500 36.09200 28.82100
H  45.38000 35.71700 27.66500
H  43.75600 35.00600 27.62100
H  44.34800 34.30500 25.58500
H  45.98100 35.11400 25.53500
H  45.47200 34.17800 24.11800
H  41.42100 39.40500 21.77400
H  42.50600 42.23100 21.56500
H  43.01000 39.40100 20.10200
H  44.28400 39.39700 21.21400
H  43.80700 40.94300 20.57800
H  39.58000 41.76700 22.06600
H  40.02300 41.09900 20.55300
H  40.34500 43.19800 19.46200
H  40.97600 43.91400 20.96300
H  39.19200 43.65300 20.69600
H  41.30400 46.46300 23.98500
H  40.76200 47.08600 25.46900
H  39.67300 46.25500 24.26200
H  39.86000 44.26500 30.00200
H  41.35900 46.91400 33.20200
H  42.63900 47.08700 32.08100
H  42.68400 45.65400 33.15800

