158

Mg -1.52300 17.38500 26.93700
C  -2.18400 15.07000 29.43400
C  -1.89900 19.90800 28.98000
C  -1.17900 19.46300 24.25600
C  -1.48100 14.64600 24.59600
N  -2.02800 17.39900 28.95800
C  -2.14500 16.36400 29.88900
C  -2.23100 16.95400 31.39200
C  -2.15500 18.57300 31.18900
C  -2.07400 18.68600 29.61400
C  -3.33100 19.31900 31.94900
C  -1.16600 16.28700 32.35300
C  -0.97500 16.89200 33.74600
H  -1.03800 15.96900 35.09600
N  -1.52000 19.43800 26.65300
C  -1.80400 20.29100 27.65800
C  -1.80000 21.61200 27.14000
C  -1.59400 21.49300 25.73400
C  -1.36700 20.09800 25.51200
C  -2.05500 22.85000 27.89200
C  -1.62300 22.63100 24.66400
O  -1.55500 22.38800 23.47400
C  -1.98500 23.99500 25.05300
N  -1.44600 17.00000 24.75600
C  -1.14200 18.08100 23.98100
C  -1.04200 17.62800 22.48700
C  -0.86500 15.99700 22.64700
C  -1.28400 15.86900 24.09600
C  -2.18800 18.08900 21.56000
C  0.59500 15.56400 22.36000
C  1.80900 16.34500 22.84100
N  -1.84000 15.22700 26.95300
C  -1.75800 14.23700 25.93600
C  -1.93700 12.95900 26.52800
C  -1.99200 13.23500 27.95100
C  -2.02000 14.65100 28.11700
C  -1.89200 11.62200 25.88600
C  -2.13500 12.57300 29.19100
O  -2.18300 11.39000 29.51900
C  -2.18000 13.69400 30.23900
C  -0.87800 13.60300 30.88800
O  0.23000 14.02800 30.51200
O  -1.07100 13.08300 32.09700
C  0.12200 12.94500 32.99300
H  -2.03300 20.61800 29.79900
H  -1.07600 20.05500 23.34400
H  -1.36700 13.86000 23.84600
H  -3.21200 16.61800 31.73000
H  -1.20400 18.77800 31.68100
H  -4.02800 19.65800 31.18300
H  -2.88900 20.19900 32.41700
H  -3.89400 18.67000 32.61900
H  -0.23400 16.18700 31.79700
H  -1.51600 15.29200 32.62700
H  -1.67500 17.71300 33.90300
H  0.01200 17.35300 33.75800
H  -1.28600 23.61100 27.76500
H  -2.02600 22.64200 28.96200
H  -2.99200 23.31700 27.58900
H  -1.90600 24.57500 24.13300
H  -1.20900 24.47300 25.65000
H  -2.95100 24.05000 25.55500
H  -0.10800 18.04500 22.11000
H  -1.58000 15.45000 22.03300
H  -2.25800 19.13300 21.25300
H  -3.10500 17.65500 21.95800
H  -2.30500 17.50400 20.64800
H  0.68800 15.69100 21.28100
H  0.81100 14.51100 22.53500
H  1.55200 17.13000 23.55200
H  2.35300 16.86000 22.04900
H  2.38700 15.75000 23.54800
H  -1.44700 11.63600 24.89200
H  -2.92600 11.27700 25.91400
H  -1.26900 10.96400 26.49200
H  -2.97900 13.56500 30.96900
H  0.62900 13.88400 33.21200
H  0.93600 12.30000 32.66000
H  -0.09800 12.41700 33.92100
Mg 49.81000 46.23800 43.23700
C  46.60600 46.78500 41.96900
C  49.85100 43.10800 41.79200
C  53.17700 46.09100 43.74000
C  49.82900 49.47000 44.54800
N  48.33600 45.12200 41.91700
C  47.06700 45.47000 41.58400
C  46.32600 44.30500 40.90100
C  47.30900 43.06700 41.15600
C  48.64000 43.81200 41.53600
C  46.75300 42.03400 42.15900
C  46.13900 44.68000 39.38200
C  44.72700 44.42300 38.85500
H  44.63000 43.35700 37.75200
N  51.30100 44.72500 42.91900
C  51.08400 43.53100 42.32000
C  52.26700 42.72900 42.41300
C  53.28900 43.54000 42.96700
C  52.65700 44.88300 43.19200
C  52.32300 41.23300 41.96500
C  54.70900 43.06000 43.23700
O  54.99900 41.87800 43.11200
C  55.68500 43.94200 43.84100
N  51.32800 47.66000 43.72600
C  52.54800 47.25800 44.07400
C  53.33800 48.32500 44.85100
C  52.19900 49.33000 45.25400
C  51.09700 48.81600 44.38800
C  54.19000 47.71000 46.07400
C  52.46000 50.83500 45.07800
C  52.10100 51.75200 46.26000
N  48.56400 47.88800 43.22500
C  48.62700 49.10200 43.86700
C  47.42900 49.88100 43.56200
C  46.59900 49.00700 42.84600
C  47.31900 47.78200 42.64400
C  47.19600 51.28200 43.89700
C  45.29100 48.88800 42.21700
O  44.33300 49.65300 42.05800
C  45.29000 47.45100 41.54600
C  44.08200 46.68500 42.09500
O  44.15500 46.11000 43.22500
O  42.98900 46.80000 41.37700
C  41.72700 46.20300 41.84600
H  49.80400 42.04600 41.54000
H  54.24200 46.00900 43.96400
H  49.82500 50.34100 45.20700
H  45.36400 44.14400 41.38800
H  47.42400 42.63400 40.16200
H  47.01500 41.06700 41.73200
H  45.67000 42.11000 42.25300
H  47.30300 42.11900 43.09700
H  46.84700 44.23200 38.68500
H  46.23200 45.76500 39.40600
H  44.23400 45.28000 38.39600
H  44.03500 44.10900 39.63700
H  51.47600 40.92900 41.35000
H  52.31400 40.54100 42.80700
H  53.19500 41.07100 41.33200
H  56.57000 43.38000 44.14100
H  55.30900 44.44800 44.73000
H  55.84500 44.70000 43.07400
H  54.06800 48.75800 44.16600
H  51.83300 49.16700 46.26800
H  53.87700 48.30600 46.93000
H  55.26600 47.82200 45.94600
H  53.83800 46.69800 46.27600
H  51.98400 51.25500 44.19200
H  53.53400 50.96300 44.94400
H  51.58900 52.63900 45.88500
H  52.98200 52.09200 46.80400
H  51.44200 51.34000 47.02400
H  48.03700 51.73900 44.42000
H  46.25900 51.30100 44.45300
H  47.02600 51.90300 43.01800
H  45.16200 47.62900 40.47900
H  41.90600 45.37100 42.52600
H  41.18700 45.68500 41.05400
H  41.16900 46.98100 42.36700

