158

Mg 2.65600 -1.53100 44.42400
C  6.00200 -0.83300 43.62800
C  1.64900 0.87900 42.33000
C  -0.52500 -2.55100 44.81400
C  3.76200 -4.70000 45.58700
N  3.72700 -0.09100 43.27400
C  5.09000 0.08300 43.06700
C  5.34100 1.12700 42.06400
C  3.90800 1.72700 41.78600
C  3.00900 0.76700 42.55700
C  3.67700 3.22900 42.16900
C  6.06400 0.54700 40.76000
C  6.92100 1.56800 40.10400
H  6.41900 2.07900 38.77000
N  0.83200 -0.83800 43.75200
C  0.61900 0.20400 42.93500
C  -0.73600 0.50000 42.78900
C  -1.47200 -0.59400 43.36700
C  -0.34700 -1.37500 44.06800
C  -1.15000 1.75700 41.98500
C  -2.93600 -0.75300 43.30700
O  -3.66300 0.10400 42.77200
C  -3.62500 -1.98200 43.87000
N  1.77100 -3.43000 45.04400
C  0.42100 -3.48000 45.22000
C  0.04500 -4.91000 45.79400
C  1.41800 -5.48300 46.23200
C  2.38100 -4.50000 45.61700
C  -1.03900 -5.01400 46.83800
C  1.69900 -6.93100 45.87000
C  2.46900 -7.84700 46.87700
N  4.47500 -2.58700 44.68300
C  4.74700 -3.79900 45.17500
C  6.14900 -3.99900 45.27600
C  6.72700 -2.82200 44.72800
C  5.63800 -2.04100 44.29700
C  6.84000 -5.21900 45.85600
C  7.91900 -2.12900 44.42000
O  9.07100 -2.43800 44.58000
C  7.48300 -0.83600 43.64400
C  8.10100 0.31300 44.37900
O  7.88800 0.56700 45.54500
O  8.66700 1.08000 43.40700
C  9.38300 2.34100 43.69500
H  1.43800 1.59700 41.53500
H  -1.54100 -2.94400 44.88900
H  4.09500 -5.70500 45.85600
H  5.97200 1.91300 42.47800
H  3.64200 1.79900 40.73100
H  4.68100 3.64300 42.26600
H  3.23100 3.35900 43.15500
H  3.10400 3.71800 41.38100
H  5.33300 0.12300 40.07100
H  6.65800 -0.33600 40.99000
H  7.90200 1.09800 40.03900
H  7.06100 2.48700 40.67300
H  -2.16300 2.12400 42.14700
H  -1.14600 1.57700 40.91000
H  -0.38500 2.46800 42.29600
H  -4.67800 -1.87100 43.61000
H  -3.38700 -1.85800 44.92600
H  -3.18800 -2.85900 43.39200
H  -0.16900 -5.63600 45.01000
H  1.49000 -5.25400 47.29600
H  -1.63500 -4.12000 46.65900
H  -0.83500 -5.23100 47.88600
H  -1.63800 -5.86800 46.52200
H  2.18600 -6.91100 44.89500
H  0.82000 -7.48400 45.53900
H  3.47400 -8.06300 46.51300
H  1.89800 -8.76700 46.99800
H  2.75900 -7.44600 47.84800
H  6.20200 -6.10200 45.88800
H  7.15400 -4.91700 46.85500
H  7.71000 -5.45200 45.24200
H  7.91800 -0.76900 42.64700
H  8.71800 3.16900 43.44900
H  10.20200 2.41600 42.97900
H  9.82100 2.36700 44.69300
Mg 48.57200 45.08200 43.69000
C  45.18600 45.25700 42.48400
C  48.55100 41.82000 43.06400
C  51.82600 45.24700 44.26000
C  48.33200 48.65400 43.93500
N  46.97800 43.69900 42.77800
C  45.67200 43.94100 42.46000
C  44.90100 42.63200 42.18200
C  45.93600 41.60600 42.78900
C  47.29500 42.39200 42.85300
C  45.51700 41.04300 44.12400
C  44.67600 42.55000 40.68100
C  43.22300 42.25100 40.28300
H  42.80100 42.86800 38.90600
N  50.06300 43.74300 43.44600
C  49.86300 42.41700 43.28400
C  51.08700 41.68700 43.38600
C  52.06700 42.61000 43.81000
C  51.35400 43.95900 43.81500
C  51.21500 40.14400 43.07300
C  53.48200 42.29900 44.00000
O  53.91200 41.18800 43.75100
C  54.49000 43.38800 44.41800
N  49.99200 46.80000 43.74900
C  51.23100 46.53000 44.24000
C  51.97700 47.81900 44.67900
C  50.79700 48.90900 44.67400
C  49.63100 48.13200 44.06600
C  52.63000 47.56800 46.09000
C  50.87500 50.18500 43.77100
C  50.45700 51.51700 44.44100
N  47.09400 46.68500 43.48200
C  47.17100 48.04600 43.56300
C  45.85200 48.67000 43.27600
C  45.03800 47.59000 42.90000
C  45.85900 46.40300 42.98300
C  45.50500 50.13400 43.29300
C  43.70800 47.28900 42.45200
O  42.71800 48.01400 42.43500
C  43.73400 45.76600 42.13500
C  42.69600 45.05000 42.88800
O  41.76400 44.44000 42.36400
O  42.89100 45.15400 44.24900
C  41.85000 44.65000 45.15500
H  48.64300 40.74600 42.89100
H  52.86200 45.28100 44.60300
H  48.30800 49.71500 44.19200
H  43.97800 42.63700 42.76000
H  46.00400 40.81500 42.04100
H  44.70000 41.55000 44.63700
H  46.37300 41.13300 44.79300
H  45.22400 39.99300 44.09300
H  45.29200 41.71800 40.34100
H  45.00300 43.48400 40.22400
H  42.50500 42.62800 41.01200
H  43.08600 41.17300 40.19500
H  50.32900 39.74500 42.58000
H  51.36300 39.70000 44.05800
H  52.03600 39.95700 42.38100
H  54.42800 44.23600 43.73500
H  55.51100 43.01000 44.37500
H  54.17600 43.66200 45.42500
H  52.64700 47.94900 43.82900
H  50.54700 49.26600 45.67300
H  52.25900 46.62800 46.49800
H  52.35400 48.36600 46.77900
H  53.71900 47.57600 46.03600
H  50.19600 49.98400 42.94300
H  51.94800 50.26400 43.59800
H  51.24600 52.22400 44.18500
H  50.23800 51.48400 45.50900
H  49.49600 51.82300 44.02700
H  45.01800 50.40900 42.35700
H  46.46400 50.62800 43.44800
H  44.83500 50.33300 44.12900
H  43.46400 45.65400 41.08400
H  42.15000 44.99200 46.14600
H  41.76100 43.56400 45.14000
H  40.85700 45.07100 45.00000

