158

Mg 2.07400 -0.97500 44.73800
C  5.50100 -0.32800 43.81200
C  1.10900 1.46000 42.61100
C  -1.01200 -2.51400 44.53300
C  3.38000 -4.15900 45.90800
N  3.27100 0.46600 43.42100
C  4.61500 0.58000 43.19300
C  4.80200 1.72700 42.24800
C  3.39100 2.47800 42.01400
C  2.50000 1.40800 42.68200
C  3.41200 3.92800 42.64700
C  5.50800 1.17600 40.97900
C  6.76900 1.87500 40.49000
H  6.76000 2.39500 39.03700
N  0.27500 -0.35100 44.00100
C  0.04200 0.67900 43.14900
C  -1.35900 0.72600 42.89500
C  -1.96900 -0.37500 43.49100
C  -0.89300 -1.17600 44.06200
C  -2.07600 1.79900 42.22200
C  -3.44800 -0.64100 43.56000
O  -4.22800 0.10200 42.99200
C  -4.13300 -1.78200 44.29100
N  1.30500 -3.04500 45.21700
C  -0.03300 -3.37200 45.00600
C  -0.36200 -4.74800 45.62900
C  1.10900 -5.35100 45.94600
C  1.99000 -4.15800 45.63600
C  -1.34000 -4.70200 46.87100
C  1.45900 -6.71300 45.27800
C  2.32800 -7.64900 46.16300
N  4.05300 -1.98600 45.02100
C  4.35100 -3.21500 45.62900
C  5.75900 -3.41700 45.68200
C  6.31200 -2.28600 45.00400
C  5.20000 -1.50500 44.61200
C  6.50100 -4.60500 46.33200
C  7.53500 -1.61900 44.49500
O  8.69400 -1.86000 44.64100
C  7.02500 -0.26800 43.74500
C  7.62600 0.83600 44.60400
O  7.42300 0.97900 45.85300
O  8.34900 1.70300 43.76100
C  8.24000 3.13600 43.94300
H  0.79200 2.23200 41.90800
H  -1.97300 -2.99200 44.73600
H  3.84100 -5.04000 46.36100
H  5.48500 2.37300 42.79900
H  3.10400 2.51000 40.96200
H  3.29700 4.74100 41.93000
H  4.24400 4.12700 43.32300
H  2.57000 3.99900 43.33600
H  4.84600 1.10600 40.11600
H  5.76700 0.14200 41.20300
H  7.57100 1.13800 40.52700
H  7.00400 2.67700 41.18900
H  -1.52300 2.47000 41.56500
H  -2.71700 2.43000 42.83800
H  -2.74200 1.30000 41.51800
H  -5.19300 -1.53200 44.31500
H  -3.85300 -1.85600 45.34200
H  -3.95900 -2.76600 43.85600
H  -0.69300 -5.41200 44.83000
H  1.28700 -5.48200 47.01400
H  -1.60500 -3.72100 47.26400
H  -1.03900 -5.31500 47.72100
H  -2.18200 -5.29500 46.51300
H  1.79100 -6.43400 44.27800
H  0.53700 -7.22200 44.99900
H  3.18600 -7.97800 45.57700
H  1.71200 -8.48700 46.48900
H  2.75500 -7.18300 47.05200
H  6.55800 -4.47200 47.41300
H  7.54100 -4.62200 46.00700
H  6.01300 -5.56300 46.15400
H  7.33600 -0.17900 42.70400
H  7.65900 3.39800 44.82700
H  7.69700 3.54800 43.09200
H  9.20200 3.64800 43.92200
Mg 16.70800 53.12600 26.70800
C  18.36100 51.64400 29.22800
C  13.97600 53.82700 28.89600
C  14.98800 54.49900 24.18600
C  18.90300 51.69200 24.38500
N  16.21300 52.71300 28.79300
C  17.15800 52.30600 29.63100
C  16.75800 52.52000 31.11400
C  15.27500 52.97300 31.04100
C  15.10900 53.20600 29.51100
C  14.13900 51.99200 31.53900
C  17.72400 53.47200 31.91200
C  18.20000 53.11300 33.33400
H  17.24400 52.49700 34.34700
N  14.83900 54.06700 26.62600
C  13.88400 54.29000 27.61500
C  12.82500 55.12400 27.10400
C  13.20200 55.46900 25.78300
C  14.42800 54.67000 25.52700
C  11.51200 55.34800 27.78000
C  12.49300 56.38300 24.74300
O  12.93800 56.67700 23.58400
C  11.15400 56.99600 25.05200
N  16.76100 52.88000 24.50600
C  15.99700 53.68200 23.75000
C  16.26200 53.42300 22.26100
C  17.59900 52.56700 22.30600
C  17.85000 52.43800 23.80600
C  15.11800 52.63100 21.62400
C  18.83800 53.17700 21.56100
C  19.37800 54.42500 22.27000
N  18.27400 51.84200 26.67800
C  19.17300 51.46400 25.68600
C  20.23000 50.71100 26.36100
C  19.97600 50.76900 27.76700
C  18.81700 51.46700 27.89900
C  21.34700 50.17300 25.54700
C  20.44400 50.35500 29.04500
O  21.53200 49.82700 29.35200
C  19.40400 50.94800 30.04600
C  18.83900 49.78300 30.75200
O  18.23000 48.87400 30.27100
O  19.20400 49.81600 32.07100
C  18.78700 48.69000 32.96300
H  13.18600 54.13900 29.58200
H  14.56600 55.04300 23.33800
H  19.54900 51.17400 23.67200
H  16.82400 51.52600 31.55700
H  15.20600 53.93600 31.54700
H  13.68900 52.33700 32.47000
H  14.55000 51.01400 31.79000
H  13.43700 51.89600 30.71000
H  17.15600 54.40000 31.98100
H  18.55000 53.61400 31.21500
H  18.64900 54.02200 33.73300
H  19.01500 52.39000 33.35500
H  10.71300 55.17800 27.05900
H  11.39500 56.36500 28.15400
H  11.42200 54.68200 28.63900
H  10.98300 57.40500 26.04800
H  10.42500 56.22300 24.81000
H  11.00600 57.79300 24.32300
H  16.52700 54.32300 21.70700
H  17.30200 51.58500 21.93800
H  14.32800 52.33700 22.31400
H  15.41800 51.78300 21.00900
H  14.63900 53.32000 20.92900
H  18.51800 53.38100 20.54000
H  19.58200 52.38300 21.48500
H  19.57600 55.09600 21.43400
H  20.13700 54.24300 23.03100
H  18.56000 54.86400 22.84000
H  22.09000 49.75800 26.22800
H  21.89100 50.88600 24.92700
H  21.01700 49.42400 24.82800
H  19.83900 51.55000 30.84400
H  19.00500 49.11400 33.94300
H  19.36300 47.78500 32.77100
H  17.71900 48.46900 32.94100

