158

Mg 35.55500 49.65700 25.65200
C  35.41100 47.95700 28.80500
C  34.31400 52.52700 27.34900
C  35.20700 51.04500 22.72500
C  36.27000 46.56200 24.20200
N  34.94600 50.16100 27.85800
C  34.99100 49.32700 28.94700
C  34.85900 50.12500 30.25600
C  34.34000 51.61000 29.81900
C  34.48500 51.45500 28.27800
C  32.88600 52.05500 30.28000
C  36.24400 50.19800 31.02300
C  36.21800 49.66600 32.48600
H  35.78600 50.68400 33.53900
N  34.82100 51.49300 25.06900
C  34.38100 52.54000 25.88500
C  34.07500 53.64100 24.99800
C  34.39300 53.27100 23.68600
C  34.87100 51.87200 23.81300
C  33.51700 55.01500 25.45500
C  34.30700 54.06000 22.34000
O  34.56300 53.54000 21.23400
C  34.10800 55.45400 22.49400
N  35.57900 48.81500 23.70400
C  35.51500 49.67200 22.66100
C  35.94300 48.96100 21.35600
C  36.27800 47.57500 21.94800
C  36.07800 47.67400 23.37500
C  34.81300 49.12600 20.29600
C  37.49300 46.85400 21.43800
C  38.81800 46.99700 22.18700
N  36.00600 47.75400 26.39500
C  36.17600 46.60900 25.64400
C  36.33200 45.50800 26.53600
C  36.09500 46.02400 27.84100
C  35.81200 47.34400 27.62200
C  36.58100 44.15300 26.16500
C  35.83500 45.56500 29.13100
O  35.80700 44.42000 29.59100
C  35.38400 46.92400 29.89400
C  34.15500 46.84600 30.64800
O  32.99000 46.99900 30.17300
O  34.43900 46.57800 32.00500
C  33.28200 46.51100 32.91600
H  34.03800 53.46300 27.83900
H  35.34000 51.60100 21.79500
H  36.37100 45.65400 23.60300
H  34.06100 49.81200 30.92800
H  35.06300 52.36800 30.12100
H  32.27200 52.29100 29.41100
H  32.85600 52.96600 30.87700
H  32.39500 51.28900 30.87900
H  36.73400 51.17200 31.04000
H  37.05800 49.64900 30.55000
H  37.16200 49.24300 32.82800
H  35.45900 48.88800 32.56800
H  32.54900 55.35000 25.08200
H  34.29100 55.77700 25.37100
H  33.43800 55.02600 26.54200
H  33.10000 55.68500 22.84000
H  34.14900 55.93500 21.51700
H  34.93800 55.85000 23.07900
H  36.77700 49.55700 20.98500
H  35.44400 46.92800 21.67800
H  33.80800 49.34000 20.65900
H  34.77500 48.22600 19.68200
H  35.04300 49.92900 19.59700
H  37.73300 47.29300 20.47000
H  37.15400 45.85600 21.16200
H  38.58800 47.55700 23.09300
H  39.50600 47.57300 21.56800
H  39.21600 46.01900 22.45600
H  35.83800 43.84500 25.43000
H  36.64000 43.48500 27.02500
H  37.50200 44.19600 25.58400
H  36.29500 47.09100 30.47000
H  32.23900 46.54100 32.60200
H  33.34600 47.34200 33.61900
H  33.46600 45.56700 33.42900
Mg 26.01000 51.43000 26.26100
C  23.76500 52.55400 28.57100
C  28.09000 50.41300 28.97100
C  28.43100 50.86700 24.10900
C  24.04100 52.83300 23.72600
N  26.03800 51.74300 28.54600
C  24.91200 52.10500 29.26400
C  25.18900 52.01500 30.81300
C  26.63200 51.57000 30.80000
C  27.01100 51.21600 29.35100
C  27.59700 52.67700 31.34500
C  24.18400 50.97700 31.55300
C  23.47300 51.51500 32.75600
H  24.27300 51.94300 34.04300
N  27.93200 50.64100 26.48000
C  28.52700 50.23800 27.60100
C  29.90500 49.91300 27.30800
C  30.10300 50.08500 25.89800
C  28.76300 50.58200 25.41700
C  30.87600 49.31300 28.44100
C  31.24200 49.83100 24.94600
O  31.22900 50.04100 23.72500
C  32.47400 49.36200 25.56900
N  26.23100 51.94800 24.17800
C  27.30300 51.44800 23.48700
C  27.14400 51.79700 22.03200
C  25.64200 52.25100 21.85500
C  25.28000 52.36300 23.32500
C  28.28700 52.61300 21.32600
C  24.83600 51.13700 21.12400
C  23.61400 51.60600 20.41200
N  24.16200 52.38100 26.15200
C  23.46900 52.78700 25.04000
C  22.09600 53.24700 25.49100
C  22.20900 53.12400 26.88000
C  23.45900 52.58300 27.19700
C  20.95600 53.83300 24.63100
C  21.47600 53.41800 28.14600
O  20.36400 53.86300 28.40100
C  22.51600 53.07000 29.29000
C  22.73800 54.29700 30.13100
O  23.83200 54.93900 30.16400
O  21.77900 54.37200 31.13700
C  22.11800 55.27900 32.23600
H  28.68300 50.12300 29.84000
H  29.19600 50.66500 23.35700
H  23.49200 53.18700 22.85100
H  25.03900 53.01000 31.23000
H  26.77100 50.69300 31.43300
H  27.08400 53.28600 32.09000
H  27.92200 53.29500 30.50900
H  28.56600 52.27500 31.64100
H  24.86800 50.22900 31.95300
H  23.44200 50.57700 30.86200
H  22.77200 50.70200 32.94300
H  23.01800 52.43800 32.39700
H  30.29600 48.95500 29.29200
H  31.50300 50.11000 28.84100
H  31.48400 48.48400 28.07800
H  32.32100 48.33000 25.88300
H  32.70600 49.90100 26.48800
H  33.30000 49.52600 24.87800
H  27.35100 50.80600 21.62800
H  25.59300 53.24400 21.40800
H  29.05700 52.73900 22.08800
H  28.00500 53.57900 20.90900
H  28.77500 51.95500 20.60600
H  24.45900 50.44100 21.87300
H  25.44900 50.64700 20.36900
H  23.94000 51.99900 19.44800
H  23.06800 52.29900 21.05200
H  23.00900 50.73200 20.17100
H  20.85900 53.23700 23.72400
H  21.24300 54.80500 24.23000
H  20.00700 53.89800 25.16400
H  22.07400 52.24800 29.85300
H  23.12700 54.93100 32.45500
H  21.37800 55.41300 33.02500
H  22.26800 56.30600 31.90300

