158

Mg 9.45500 48.11500 24.56400
C  7.33900 49.14700 27.17600
C  12.16100 49.58100 26.31300
C  11.38400 47.79100 21.72500
C  6.67700 47.42300 22.64400
N  9.72700 49.27900 26.46500
C  8.69200 49.42200 27.42600
C  9.29100 49.78300 28.75200
C  10.67200 50.37000 28.28900
C  10.93200 49.65600 26.95000
C  10.57900 51.93100 28.09700
C  9.44200 48.53100 29.73000
C  8.76500 48.81500 31.06100
H  8.25100 47.59600 31.86400
N  11.47700 48.48900 24.23700
C  12.36500 49.02500 25.06000
C  13.66200 48.86200 24.46600
C  13.45200 48.38600 23.11500
C  12.01200 48.24600 22.96700
C  14.87400 49.19100 25.21200
C  14.51900 48.20700 22.03500
O  14.34800 47.91200 20.87100
C  15.94600 48.24100 22.49100
N  9.10500 47.63400 22.50800
C  10.01900 47.64100 21.55400
C  9.43900 46.96700 20.24100
C  7.96300 46.70200 20.62600
C  7.91700 47.25100 22.03500
C  9.64300 47.82400 19.00200
C  7.41900 45.23000 20.52000
C  8.27900 44.08300 21.05500
N  7.39600 48.16700 24.80600
C  6.36700 47.84000 23.95300
C  5.11800 48.11000 24.59400
C  5.51000 48.62000 25.82400
C  6.84500 48.65600 25.95200
C  3.69500 47.93100 24.07900
C  4.93500 49.18300 26.97900
O  3.72500 49.28500 27.23100
C  6.08600 49.25400 28.00100
C  5.82800 48.06500 28.92500
O  6.46000 46.98900 29.00900
O  4.86200 48.45700 29.77000
C  4.20600 47.50100 30.64600
H  13.05100 49.97900 26.80500
H  12.04000 47.52500 20.89300
H  5.82400 47.24400 21.98500
H  8.83900 50.63700 29.25600
H  11.49600 50.19800 28.98200
H  10.99500 52.36800 27.18900
H  11.12500 52.40600 28.91100
H  9.53500 52.21700 28.22600
H  10.48500 48.34000 29.98200
H  9.08300 47.57400 29.35300
H  8.08900 49.66900 31.11200
H  9.60600 49.08300 31.70000
H  15.50500 48.32200 25.02600
H  14.81800 49.30300 26.29400
H  15.30300 50.08500 24.76000
H  16.66800 47.96400 21.72200
H  15.95300 47.36200 23.13600
H  16.18100 49.15400 23.03900
H  9.94700 46.02500 20.03600
H  7.28800 47.29600 20.00900
H  9.30700 47.31500 18.09800
H  10.65400 48.20400 18.85700
H  9.02900 48.71900 19.09600
H  7.41900 45.05700 19.44300
H  6.42800 45.11100 20.95800
H  8.97000 44.42800 21.82400
H  9.01700 43.75500 20.32300
H  7.67900 43.29900 21.51800
H  3.61200 47.58500 23.04800
H  3.20900 48.90400 24.02400
H  3.31800 47.29300 24.87800
H  6.08300 50.20700 28.52900
H  3.45800 46.90700 30.12000
H  3.72000 48.08100 31.43100
H  4.88800 46.90900 31.25600
Mg -4.60400 25.72100 26.07400
C  -3.10400 27.07300 29.03000
C  -6.20200 23.45200 28.12400
C  -5.60800 24.28900 23.34200
C  -2.35800 27.83400 24.20900
N  -4.65300 25.34000 28.29400
C  -4.05500 26.06400 29.27500
C  -4.53800 25.62400 30.70600
C  -5.28300 24.26700 30.33100
C  -5.40900 24.33700 28.79800
C  -4.64100 22.90300 30.77200
C  -5.40300 26.69500 31.38100
C  -5.05200 27.21100 32.79200
H  -4.51700 26.22300 33.81200
N  -5.72800 24.19800 25.77700
C  -6.30300 23.41200 26.71400
C  -7.14900 22.33900 26.04800
C  -7.06600 22.55100 24.68700
C  -6.07900 23.68400 24.58300
C  -8.00500 21.37700 26.92100
C  -7.73900 21.79100 23.49800
O  -7.60300 22.08100 22.32200
C  -8.58800 20.65400 23.78500
N  -4.01600 25.97300 24.08400
C  -4.69100 25.30600 23.12800
C  -4.28800 25.78500 21.71500
C  -3.15500 26.90100 22.02800
C  -3.16100 26.90200 23.52300
C  -3.58800 24.66200 20.87000
C  -3.42400 28.32200 21.31300
C  -2.54800 28.61100 20.09500
N  -3.05600 27.18700 26.49200
C  -2.35700 28.00500 25.61800
C  -1.64000 29.01600 26.33200
C  -1.92100 28.74900 27.68000
C  -2.82200 27.61900 27.73300
C  -0.88700 30.25900 25.76900
C  -1.68600 29.15800 29.01400
O  -0.96500 30.07600 29.43600
C  -2.45600 28.13800 29.92100
C  -1.44600 27.49500 30.78000
O  -0.43300 26.93500 30.39200
O  -1.73800 27.69100 32.11800
C  -0.63900 27.37400 33.09900
H  -6.81400 22.79100 28.74000
H  -5.90500 23.70300 22.46900
H  -1.75700 28.46100 23.54800
H  -3.58600 25.49700 31.22300
H  -6.31000 24.21800 30.69300
H  -4.05200 22.63100 29.89600
H  -5.39500 22.14600 30.98900
H  -3.91600 23.02300 31.57700
H  -6.45900 26.42900 31.42800
H  -5.37900 27.59200 30.76300
H  -5.99500 27.60800 33.16800
H  -4.39300 28.07600 32.71600
H  -7.44900 20.95400 27.75800
H  -8.15600 20.46700 26.34100
H  -9.01000 21.78500 27.02600
H  -9.05700 20.39600 22.83500
H  -9.34400 21.15000 24.39400
H  -8.05100 19.84400 24.27800
H  -5.11000 26.13400 21.09000
H  -2.16700 26.50600 21.79600
H  -4.22300 24.56600 19.98900
H  -3.55700 23.69700 21.37500
H  -2.53200 24.85000 20.67700
H  -3.18100 29.07900 22.05800
H  -4.47800 28.49800 21.09700
H  -2.03500 29.57000 20.16500
H  -3.19700 28.73600 19.22800
H  -1.76600 27.92000 19.77800
H  -1.48800 31.13000 25.50700
H  -0.24900 30.14000 24.89300
H  -0.30000 30.55500 26.63800
H  -3.18100 28.53800 30.63000
H  -0.84100 26.30700 33.18400
H  -0.72200 27.82600 34.08700
H  0.37800 27.56800 32.75900

