158

Mg 26.16800 50.32700 26.94600
C  24.04600 51.78900 29.56200
C  28.08500 49.14100 29.46800
C  28.26800 49.26300 24.68900
C  24.50200 52.25300 24.65100
N  25.99200 50.32200 29.26500
C  25.00000 50.91900 30.03500
C  25.19100 50.50900 31.48900
C  26.64400 50.03100 31.51200
C  27.03000 49.88700 29.98000
C  27.66500 51.01900 32.17500
C  24.04900 49.52300 31.98800
C  23.62500 49.62200 33.53100
H  24.44200 50.25200 34.67400
N  27.95500 49.30000 27.01200
C  28.57000 48.90700 28.17200
C  29.76400 48.15500 27.78100
C  29.88900 48.16200 26.38700
C  28.69100 48.86700 25.96200
C  30.60900 47.45000 28.77400
C  30.91100 47.62500 25.45400
O  30.71000 47.63900 24.19400
C  32.19900 47.03700 26.02600
N  26.34400 50.70200 25.00200
C  27.22200 50.03400 24.21600
C  26.96300 50.17200 22.71500
C  25.69200 51.02200 22.74100
C  25.51500 51.39300 24.21900
C  27.99600 50.57500 21.66300
C  24.46600 50.44500 22.08100
C  23.41500 51.40700 21.37000
N  24.56500 51.68000 27.02200
C  23.97500 52.47500 25.98300
C  22.82400 53.18200 26.44600
C  22.90500 53.00700 27.86700
C  23.96100 52.08700 28.20100
C  21.93300 53.98100 25.59700
C  22.19200 53.35200 29.12800
O  21.17200 53.98400 29.28300
C  23.01800 52.63600 30.29100
C  23.71100 53.59100 31.28400
O  24.65300 54.32500 30.99600
O  23.00100 53.68400 32.48300
C  23.65400 54.45700 33.48700
H  28.65900 48.71400 30.29300
H  28.77600 48.84200 23.81900
H  23.88000 52.65900 23.85000
H  25.17900 51.46300 32.01600
H  26.67900 49.03400 31.95100
H  27.10400 51.52800 32.95900
H  28.05800 51.82500 31.55600
H  28.42400 50.45700 32.71900
H  24.26200 48.45700 31.91500
H  23.15500 49.66300 31.38100
H  23.21500 48.63500 33.74900
H  22.83100 50.36400 33.44700
H  31.62600 47.81000 28.62200
H  30.59000 46.37900 28.57100
H  30.29000 47.59100 29.80700
H  32.69100 47.77200 26.66300
H  32.76800 46.59300 25.21000
H  31.81900 46.26400 26.69400
H  26.65300 49.14600 22.51600
H  25.74200 51.99900 22.26000
H  27.79700 51.56700 21.25800
H  27.79900 49.83400 20.88900
H  29.02100 50.49900 22.02700
H  23.90500 49.80400 22.76100
H  24.74300 49.69800 21.33700
H  23.28800 51.11700 20.32700
H  23.80700 52.42400 21.36700
H  22.45500 51.31300 21.87700
H  22.02200 53.77900 24.53000
H  22.01800 55.01600 25.92800
H  20.93600 53.69700 25.93300
H  22.35100 51.91300 30.75900
H  23.95100 55.43400 33.10500
H  24.62900 53.98400 33.61000
H  23.02100 54.48700 34.37400
Mg 0.65500 43.73600 26.02200
C  2.89200 43.25400 28.53200
C  -1.92800 43.41300 28.29400
C  -1.45700 43.66900 23.39400
C  3.36300 43.69400 23.74100
N  0.49500 43.65000 28.19200
C  1.61000 43.48800 28.94900
C  1.16800 43.51900 30.49000
C  -0.40900 43.31800 30.33600
C  -0.66700 43.57700 28.86500
C  -1.12700 41.95800 30.81400
C  1.71900 44.79900 31.32200
C  1.33600 44.90300 32.82100
H  0.95400 43.61500 33.59400
N  -1.47000 43.45700 25.89100
C  -2.37500 43.38700 26.94000
C  -3.69400 43.41700 26.36800
C  -3.55100 43.48800 24.92300
C  -2.10600 43.60400 24.68000
C  -4.95000 43.56700 27.20300
C  -4.55600 43.34700 23.83000
O  -4.29300 43.31000 22.59900
C  -6.00900 43.10500 24.23000
N  0.90000 43.67000 23.89800
C  -0.12600 43.64400 23.05300
C  0.33900 43.68700 21.60100
C  1.87800 43.83500 21.68500
C  2.09700 43.66800 23.17800
C  -0.29400 42.65200 20.64100
C  2.48000 45.11700 21.07700
C  2.04500 45.47400 19.66000
N  2.71200 43.67400 26.06500
C  3.70500 43.59400 25.06800
C  4.92300 43.48700 25.70900
C  4.67200 43.24400 26.99600
C  3.32500 43.39200 27.20400
C  6.24800 43.74900 25.02500
C  5.37100 43.01700 28.25700
O  6.54100 42.99300 28.57900
C  4.20800 43.05700 29.26600
C  4.30600 41.86100 30.13200
O  3.74500 40.80700 29.94300
O  5.00600 42.18500 31.29800
C  5.14800 41.15600 32.40500
H  -2.75200 43.17900 28.97100
H  -2.13200 43.81800 22.54900
H  4.13700 43.66400 22.97200
H  1.51800 42.61100 30.98000
H  -0.92700 44.13300 30.84100
H  -0.36400 41.25500 31.14600
H  -1.69600 41.44400 30.03900
H  -1.88800 42.21200 31.55100
H  1.32400 45.63200 30.74000
H  2.79900 44.93400 31.26900
H  0.53600 45.61600 33.02000
H  2.11000 45.29800 33.47800
H  -5.74900 44.07700 26.66500
H  -4.74200 44.16100 28.09400
H  -5.39000 42.61700 27.50700
H  -6.48200 44.05400 24.48100
H  -5.85700 42.42400 25.06800
H  -6.50200 42.75200 23.32500
H  0.02800 44.68300 21.28500
H  2.28600 43.01700 21.09100
H  -0.81200 41.80000 21.08200
H  0.40600 42.21800 19.92700
H  -1.07100 43.16200 20.07300
H  3.56900 45.10600 21.13300
H  2.20100 45.92900 21.74800
H  1.42600 44.66000 19.28300
H  2.97200 45.44300 19.08800
H  1.56000 46.43500 19.49000
H  6.41500 44.81300 24.85700
H  6.40100 43.16300 24.11900
H  7.01000 43.26100 25.63300
H  4.47000 43.89700 29.91000
H  4.73300 41.60200 33.30800
H  6.19000 40.97800 32.67000
H  4.70200 40.17300 32.25300

