158

Mg 35.00400 48.04700 26.54100
C  35.40000 46.25200 29.47600
C  33.99900 50.78100 28.41400
C  34.22200 49.51000 23.53600
C  35.78600 45.04600 24.71100
N  34.69000 48.41400 28.63700
C  35.05300 47.56500 29.68500
C  34.79700 48.21600 31.04500
C  33.99400 49.47200 30.62700
C  34.24400 49.58400 29.16600
C  32.41200 49.22200 30.90200
C  36.18800 48.57700 31.67600
C  36.35700 48.24600 33.17100
H  36.22200 49.39400 34.11900
N  34.28100 49.92600 26.03700
C  33.98800 50.91400 26.96500
C  33.86200 52.10900 26.11500
C  33.78200 51.78000 24.70800
C  34.07800 50.33800 24.68000
C  33.67500 53.47400 26.71600
C  33.58900 52.67900 23.48500
O  33.62000 52.21700 22.34200
C  33.32200 54.26000 23.72000
N  34.91100 47.33100 24.41600
C  34.56000 48.19600 23.39800
C  34.82200 47.57200 22.00200
C  35.41800 46.12800 22.35700
C  35.34100 46.14200 23.90900
C  33.56500 47.48700 21.04400
C  36.80300 45.91000 21.76600
C  36.74000 45.07600 20.38900
N  35.45400 46.03700 26.93300
C  35.71300 44.92200 26.11500
C  36.04800 43.77700 26.95600
C  35.92300 44.25100 28.26000
C  35.53500 45.60300 28.22500
C  36.45200 42.43300 26.61500
C  35.93200 43.88700 29.64200
O  36.07900 42.86600 30.22900
C  35.71900 45.18400 30.44400
C  34.56500 44.95300 31.37200
O  33.38300 44.96600 31.13600
O  35.12300 44.90700 32.63800
C  34.19200 44.85700 33.75800
H  33.62000 51.65100 28.95500
H  34.12400 49.86900 22.50900
H  36.07800 44.20700 24.07600
H  34.23900 47.46600 31.60600
H  34.26000 50.41200 31.11000
H  31.75600 49.30100 30.03500
H  32.38100 50.06200 31.59600
H  32.21200 48.32200 31.48200
H  36.41700 49.63500 31.55200
H  36.97400 48.06100 31.12500
H  37.36300 47.89000 33.39500
H  35.73700 47.43700 33.55600
H  32.72000 53.93500 26.46400
H  34.43900 54.18200 26.39500
H  33.80100 53.46200 27.79900
H  33.22700 54.74400 22.74800
H  34.23200 54.68900 24.13800
H  32.44000 54.40200 24.34500
H  35.55600 48.17900 21.47100
H  34.69800 45.35600 22.08700
H  33.77300 47.84900 20.03700
H  32.77200 48.01600 21.57300
H  33.28100 46.43700 20.96400
H  37.51000 45.33600 22.36500
H  37.29300 46.87500 21.63600
H  37.41300 45.44500 19.61500
H  35.72800 45.22200 20.01200
H  37.00100 44.05000 20.64900
H  37.48100 42.32400 26.95900
H  36.49400 42.36800 25.52800
H  35.79600 41.71200 27.10300
H  36.65900 45.34000 30.97200
H  34.62400 44.22500 34.53400
H  33.25600 44.40900 33.42600
H  33.95400 45.84600 34.15000
Mg -11.15200 38.83200 40.47600
C  -9.59500 35.45000 40.21700
C  -8.33800 40.10900 39.26200
C  -12.91700 41.69000 40.34000
C  -14.09200 37.08900 41.47100
N  -9.26100 37.83200 39.67500
C  -8.81400 36.57200 39.83200
C  -7.36000 36.51700 39.27700
C  -6.87600 38.00800 39.38400
C  -8.26800 38.70400 39.43300
C  -6.01100 38.55100 40.53200
C  -7.34000 36.01700 37.84900
C  -6.05100 35.29400 37.30000
H  -5.36100 36.08200 36.20000
N  -10.68900 40.66200 39.79600
C  -9.42700 41.00500 39.41200
C  -9.38400 42.47700 39.31300
C  -10.65400 42.96400 39.68100
C  -11.55000 41.74300 39.89100
C  -8.19000 43.14400 38.76000
C  -11.02100 44.52500 39.69500
O  -10.14400 45.40500 39.73800
C  -12.47000 44.94400 39.71200
N  -13.31500 39.32700 40.73800
C  -13.77900 40.57100 40.64900
C  -15.30000 40.59200 40.76000
C  -15.53500 39.14900 41.29500
C  -14.29200 38.48500 41.12000
C  -16.13300 41.66200 41.58200
C  -16.75400 38.42400 40.49300
C  -16.43700 37.95600 39.07700
N  -11.77900 36.69200 40.87600
C  -12.96500 36.22300 41.32900
C  -12.82600 34.79700 41.55700
C  -11.53700 34.41200 41.13800
C  -10.96000 35.58600 40.65300
C  -14.01100 33.88400 41.90300
C  -10.58500 33.31300 40.90000
O  -10.61300 32.09000 41.12600
C  -9.35700 33.94700 40.22000
C  -8.02200 33.37700 40.62200
O  -7.13800 33.18700 39.81400
O  -7.91700 33.24400 41.97800
C  -6.63500 32.69900 42.39800
H  -7.48600 40.78300 39.15000
H  -13.40000 42.63700 40.09000
H  -14.88800 36.49400 41.92400
H  -6.76900 35.88400 39.93800
H  -6.39400 38.36400 38.47400
H  -5.57900 37.68400 41.03300
H  -6.58600 39.17000 41.22100
H  -5.30000 39.21500 40.04100
H  -7.54700 36.87200 37.20600
H  -8.14200 35.30600 37.65000
H  -6.28900 34.28300 36.97100
H  -5.29600 35.16000 38.07400
H  -7.84100 42.64300 37.85700
H  -7.45600 43.18500 39.56600
H  -8.43900 44.19300 38.59800
H  -13.10200 44.47100 38.96000
H  -12.41900 46.01400 39.51100
H  -12.83600 44.86800 40.73600
H  -15.68600 40.72600 39.74900
H  -15.68300 39.16600 42.37500
H  -16.87400 42.03300 40.87400
H  -15.53900 42.51800 41.90500
H  -16.84900 41.30700 42.32300
H  -17.62200 39.05500 40.29900
H  -17.13500 37.60700 41.10500
H  -16.29500 36.87600 39.08600
H  -15.52800 38.48900 38.79800
H  -17.13600 38.15500 38.26400
H  -14.27100 33.94800 42.95900
H  -13.80700 32.87600 41.54100
H  -14.79400 34.23300 41.22900
H  -9.41000 33.62200 39.18100
H  -5.82500 33.36600 42.10300
H  -6.41100 31.66300 42.14500
H  -6.74000 32.83700 43.47400

