158

Mg 1.22800 7.48500 25.22000
C  1.94600 9.54000 27.88100
C  1.29400 4.72600 27.26200
C  0.68600 5.60700 22.43400
C  1.57600 10.33500 23.08800
N  1.52600 7.23900 27.31100
C  1.79200 8.20100 28.25700
C  1.69900 7.63900 29.68900
C  1.97900 6.09100 29.39800
C  1.54000 5.95700 27.92100
C  3.51600 5.70100 29.76700
C  0.37200 7.89300 30.32600
C  0.45600 8.31700 31.78700
H  1.59600 7.76500 32.67400
N  0.84900 5.45500 24.92100
C  0.95500 4.50400 25.87000
C  0.63900 3.19600 25.31700
C  0.56900 3.41500 23.89200
C  0.70800 4.88400 23.69100
C  0.33200 2.12400 26.24000
C  0.37000 2.38300 22.81500
O  0.17000 2.70400 21.65200
C  0.43700 0.93900 23.11300
N  0.96300 7.95900 23.05500
C  0.77200 6.96000 22.15600
C  0.81200 7.51600 20.76600
C  1.15800 9.07200 20.94400
C  1.30200 9.14500 22.46000
C  1.78400 6.79600 19.83300
C  0.07200 10.07900 20.35200
C  -1.26500 10.12800 21.06400
N  1.75400 9.47600 25.38400
C  1.69900 10.49600 24.48500
C  1.94500 11.77800 25.16100
C  2.07100 11.40400 26.45700
C  1.94600 10.00300 26.52800
C  2.05100 13.19600 24.54900
C  2.32200 11.94800 27.77600
O  2.64200 13.06200 28.12500
C  2.15500 10.80000 28.71900
C  3.22900 10.81100 29.68300
O  4.22800 10.08100 29.62400
O  2.77800 11.40900 30.81100
C  3.31200 11.34900 32.11300
H  1.32500 3.95000 28.03000
H  0.59400 4.98900 21.53800
H  1.53500 11.19900 22.42100
H  2.51800 8.15300 30.19200
H  1.28000 5.48800 29.97800
H  3.87000 6.51000 30.40600
H  4.20700 5.75200 28.92500
H  3.64000 4.79700 30.36400
H  -0.29700 7.03200 30.30400
H  -0.13600 8.74400 29.87100
H  -0.47800 8.10000 32.30500
H  0.57900 9.39800 31.85400
H  -0.68800 2.16700 26.62100
H  1.03100 2.14300 27.07600
H  0.59500 1.16500 25.79400
H  -0.34500 0.66500 23.82200
H  1.35300 0.81100 23.68900
H  0.42900 0.25200 22.26700
H  -0.19300 7.47300 20.34600
H  2.12600 9.32100 20.50700
H  2.67400 7.41200 19.70200
H  1.34700 6.75900 18.83500
H  2.08000 5.82000 20.21500
H  -0.17000 9.85800 19.31300
H  0.50900 11.07400 20.43600
H  -1.35400 9.16000 21.55600
H  -2.03800 10.27000 20.30900
H  -1.31200 10.96700 21.75900
H  1.63900 13.18800 23.54000
H  3.03000 13.67200 24.59400
H  1.35600 13.67900 25.23700
H  1.26700 11.01300 29.31500
H  4.15900 10.66400 32.15300
H  2.63300 10.95600 32.87000
H  3.61800 12.36200 32.37500
Mg 17.06600 51.51200 26.78800
C  18.67600 50.14400 29.51900
C  14.64800 52.59900 28.99200
C  15.16000 52.23900 24.27400
C  19.40900 49.94000 24.66000
N  16.77100 51.45200 29.00100
C  17.58500 50.88200 29.96300
C  17.21300 51.22900 31.38100
C  15.81700 51.97300 31.14900
C  15.76400 52.15000 29.61600
C  14.66400 51.06600 31.71600
C  18.11000 52.16000 32.16700
C  17.60900 52.76400 33.55700
H  16.79600 51.86700 34.46700
N  15.17800 52.34300 26.62600
C  14.27200 52.68700 27.61500
C  13.05800 53.22900 27.05300
C  13.33400 53.30000 25.61700
C  14.65400 52.70400 25.43600
C  11.84400 53.75100 27.91400
C  12.45700 53.85000 24.48800
O  12.80900 53.78500 23.30500
C  11.11700 54.50700 24.75200
N  17.28500 51.19000 24.81400
C  16.33900 51.55100 23.95300
C  16.68700 51.22600 22.49800
C  18.09500 50.61400 22.70500
C  18.31200 50.61700 24.16400
C  15.63200 50.36900 21.66300
C  19.12800 51.35500 21.79000
C  19.75800 52.60000 22.20100
N  18.88600 50.41700 27.03600
C  19.71500 49.85900 26.12700
C  20.83100 49.16200 26.78600
C  20.42300 49.24300 28.13500
C  19.23200 49.98500 28.23700
C  21.88300 48.35800 26.08800
C  20.71900 48.79200 29.43600
O  21.68200 48.10600 29.85000
C  19.77900 49.50600 30.43900
C  19.21900 48.54300 31.37100
O  18.34100 47.73000 31.10100
O  19.87200 48.63200 32.59400
C  19.24200 47.79900 33.64500
H  13.98600 53.22300 29.59600
H  14.55000 52.39000 23.38000
H  20.13100 49.33700 24.10600
H  17.10100 50.29800 31.93800
H  15.82400 52.96700 31.59600
H  15.14100 50.33000 32.36300
H  14.12400 50.50700 30.95100
H  14.05400 51.72200 32.33700
H  18.47800 52.87900 31.43500
H  18.99400 51.58400 32.44100
H  17.05000 53.67100 33.32600
H  18.49000 53.07500 34.11800
H  10.88500 53.58500 27.42200
H  11.91600 54.83400 28.00400
H  11.86100 53.23100 28.87200
H  10.43400 53.65700 24.76300
H  10.84400 55.11000 23.88600
H  11.07800 55.11700 25.65400
H  16.79200 52.22700 22.08000
H  18.03600 49.57200 22.39300
H  15.36600 50.91900 20.76000
H  14.74800 50.17200 22.27000
H  16.05200 49.37300 21.52600
H  18.73900 51.46700 20.77800
H  19.90000 50.58600 21.77800
H  20.75400 52.32600 22.54900
H  19.27900 53.05600 23.06700
H  19.88500 53.29200 21.36900
H  21.53100 47.84900 25.19000
H  22.36100 47.56800 26.66700
H  22.61700 49.08600 25.74300
H  20.46100 50.21200 30.91200
H  18.80400 46.84000 33.36800
H  18.46100 48.49500 33.95200
H  20.00100 47.71400 34.42300

