158

Mg 47.69000 25.71100 28.77800
C  48.46800 27.92300 31.35700
C  46.34700 23.49500 31.29800
C  47.32100 23.26200 26.47500
C  49.55200 27.62200 26.48100
N  47.45100 25.72600 31.09300
C  47.78500 26.82900 31.85400
C  47.33400 26.60500 33.27900
C  46.79600 25.16500 33.27200
C  46.89900 24.74500 31.79600
C  47.50800 24.15900 34.22600
C  46.39900 27.55800 34.03900
C  46.80000 27.85100 35.48800
H  45.79000 28.04600 36.54900
N  46.80000 23.78600 28.82300
C  46.31200 23.09600 29.95400
C  45.71300 21.88400 29.41200
C  45.95800 21.82100 27.99700
C  46.69000 23.02100 27.70600
C  44.99200 20.96500 30.32800
C  45.45000 20.82100 27.02000
O  45.67100 20.88300 25.81800
C  44.51700 19.70400 27.46200
N  48.37500 25.46700 26.89700
C  48.03400 24.42600 26.12600
C  48.53400 24.56400 24.66200
C  48.67100 26.12000 24.65200
C  48.86900 26.43200 26.10300
C  49.86800 23.79700 24.57500
C  47.41900 27.00400 24.18100
C  47.75600 28.13700 23.20600
N  48.75900 27.40500 28.79300
C  49.50400 28.09100 27.82600
C  50.04700 29.28000 28.47900
C  49.62400 29.27900 29.80800
C  48.86300 28.13200 29.94900
C  50.86300 30.30900 27.75200
C  49.74600 29.95300 31.10700
O  50.36300 30.96500 31.39900
C  48.83400 29.13700 32.06700
C  49.65300 28.89700 33.29800
O  50.59700 28.11100 33.33900
O  49.44300 29.75500 34.32800
C  50.32300 29.48800 35.54000
H  45.82300 22.90900 32.05500
H  47.19100 22.40700 25.80800
H  50.06300 28.29000 25.78400
H  48.29700 26.58300 33.79000
H  45.72800 25.16600 33.49100
H  48.21100 23.44800 33.79300
H  46.77700 23.58400 34.79500
H  48.10100 24.68600 34.97500
H  45.36300 27.21700 34.03400
H  46.46400 28.44400 33.40700
H  47.37100 28.77900 35.46800
H  47.35700 26.96000 35.77700
H  45.56900 20.04100 30.32100
H  43.94800 20.68700 30.18300
H  44.89700 21.17800 31.39300
H  45.01000 18.96800 28.09600
H  44.31100 19.15300 26.54400
H  43.60000 20.12300 27.87600
H  47.77400 24.11300 24.02500
H  49.51900 26.33200 24.00100
H  50.75900 24.42400 24.53900
H  49.92200 23.20100 23.66400
H  50.00800 23.24300 25.50400
H  46.91100 27.51100 25.00100
H  46.64900 26.37100 23.74100
H  46.96100 28.19700 22.46300
H  48.74700 28.01400 22.76900
H  47.61600 29.04300 23.79500
H  50.45100 30.59600 26.78400
H  51.88300 29.92800 27.79700
H  50.77900 31.26500 28.26900
H  47.95800 29.75000 32.28200
H  50.48200 30.41900 36.08500
H  51.33700 29.29200 35.19000
H  49.90600 28.67700 36.13700
Mg 36.15400 49.40400 25.30800
C  36.58600 47.91500 28.52900
C  34.72600 52.18500 26.96600
C  35.56900 50.86200 22.23000
C  37.39300 46.62100 23.80300
N  35.68900 49.97600 27.47800
C  36.08900 49.24700 28.58300
C  35.74800 50.01500 29.84600
C  35.20100 51.32900 29.39800
C  35.08500 51.15200 27.80900
C  33.94700 51.81100 30.17000
C  36.87300 50.08100 30.96900
C  36.52000 49.79700 32.39500
H  35.09400 49.48500 32.87100
N  35.30200 51.31500 24.68900
C  34.80200 52.29600 25.55000
C  34.31700 53.43000 24.74400
C  34.58100 53.04500 23.38500
C  35.19900 51.69100 23.41700
C  33.74100 54.60100 25.38700
C  34.25400 53.81600 22.18900
O  34.41300 53.30100 21.08900
C  33.83100 55.22700 22.27800
N  36.30400 48.79000 23.35500
C  36.13900 49.55200 22.22000
C  36.41000 48.78200 20.91100
C  37.07100 47.48500 21.44800
C  36.91000 47.66400 22.99200
C  35.18500 48.55700 20.04100
C  38.57800 47.43500 21.04100
C  39.69900 48.17100 21.86300
N  36.81100 47.63800 25.95400
C  37.35200 46.58200 25.18500
C  37.71300 45.53700 26.09500
C  37.41400 45.94900 27.41100
C  36.88300 47.28400 27.24900
C  38.32200 44.20400 25.66400
C  37.47500 45.58900 28.77900
O  37.88300 44.57200 29.25100
C  36.85100 46.81400 29.55900
C  35.64800 46.23500 30.24200
O  34.52800 46.16300 29.78600
O  35.90200 45.64300 31.52400
C  34.80800 45.19200 32.41300
H  34.31900 53.00500 27.56000
H  35.35300 51.22700 21.22300
H  37.92700 45.82700 23.27700
H  34.92000 49.39700 30.19600
H  35.91700 52.13100 29.57100
H  33.37200 51.05600 30.70500
H  33.24500 52.30700 29.50000
H  34.14700 52.52100 30.97400
H  37.41700 51.01400 30.82000
H  37.50200 49.21800 30.75000
H  36.86500 50.71200 32.87500
H  37.18500 49.08300 32.88100
H  32.74400 54.71300 24.96100
H  34.25400 55.44700 24.92800
H  33.74900 54.68200 26.47400
H  34.66000 55.76600 22.73600
H  32.92600 55.33300 22.87500
H  33.77900 55.54400 21.23600
H  37.13800 49.40000 20.38600
H  36.62200 46.54400 21.13000
H  34.24100 48.88900 20.47300
H  35.04900 47.47900 19.96300
H  35.33600 49.02600 19.06800
H  38.54600 47.71100 19.98700
H  38.93900 46.40800 20.97800
H  40.18400 48.77800 21.09800
H  40.36100 47.45000 22.34200
H  39.33100 48.77300 22.69400
H  38.56600 44.13700 24.60400
H  37.63800 43.36800 25.81500
H  39.21900 44.04700 26.26400
H  37.60500 47.12700 30.28000
H  34.75700 44.10300 32.42200
H  33.82800 45.61400 32.18900
H  35.04400 45.44700 33.44600

