158

Mg 1.85600 -1.12800 44.22500
C  5.28100 -0.46100 43.40000
C  1.08700 1.75200 42.41300
C  -1.24100 -2.07600 44.25100
C  2.92700 -4.28900 45.44900
N  3.05100 0.32400 42.84600
C  4.42700 0.45200 42.77400
C  4.88100 1.76700 42.07700
C  3.49800 2.55100 41.93900
C  2.42800 1.47000 42.37400
C  3.39700 3.82200 42.81400
C  5.57600 1.55200 40.70400
C  6.51900 2.70600 40.36900
H  7.01600 2.75800 38.86200
N  0.19700 -0.29500 43.45200
C  0.04500 0.90700 42.86600
C  -1.38700 1.21300 42.56200
C  -2.16000 0.14800 43.12100
C  -1.08200 -0.82300 43.64100
C  -1.97800 2.51700 41.89600
C  -3.67100 0.03800 43.19600
O  -4.36300 0.83700 42.58700
C  -4.32300 -1.02200 43.92100
N  1.01900 -2.92700 44.72100
C  -0.38800 -3.05700 44.71900
C  -0.86900 -4.36800 45.33200
C  0.45700 -5.01700 45.78000
C  1.58300 -4.05300 45.25000
C  -1.97700 -4.35100 46.49600
C  0.53900 -6.54800 45.38100
C  1.23000 -7.57800 46.24600
N  3.70900 -2.18900 44.56900
C  4.01000 -3.40800 45.17500
C  5.45400 -3.61500 45.32600
C  5.94000 -2.53100 44.65400
C  4.87600 -1.64500 44.17000
C  6.14300 -4.80500 45.93600
C  7.23800 -1.79200 44.34100
O  8.41700 -2.21900 44.53500
C  6.84100 -0.47100 43.55000
C  7.47700 0.61800 44.32800
O  7.60000 0.79800 45.52700
O  8.02100 1.53900 43.42600
C  8.89800 2.51300 44.02300
H  0.67800 2.66400 41.97300
H  -2.24500 -2.44800 44.46600
H  3.25900 -5.21700 45.91800
H  5.56400 2.27600 42.75700
H  3.36400 2.81800 40.89000
H  2.55200 4.35600 42.37900
H  4.33900 4.34800 42.96700
H  3.13000 3.41500 43.78900
H  4.84400 1.48600 39.89900
H  5.87400 0.50400 40.67000
H  7.35900 2.50900 41.03600
H  5.98200 3.63300 40.56800
H  -2.78700 2.10600 41.29200
H  -1.21200 2.97800 41.27200
H  -2.49000 3.13200 42.63600
H  -3.80400 -1.01900 44.88000
H  -4.10800 -1.95400 43.39900
H  -5.37900 -0.81000 44.08900
H  -1.24100 -4.94600 44.48600
H  0.49000 -4.93600 46.86700
H  -1.64100 -4.95200 47.34100
H  -2.92200 -4.63900 46.03500
H  -2.10400 -3.31400 46.80600
H  1.08800 -6.60100 44.44000
H  -0.43300 -7.03600 45.30700
H  0.71600 -7.70200 47.20000
H  2.20000 -7.12800 46.45400
H  1.37100 -8.45300 45.61100
H  6.00600 -5.55300 45.15600
H  5.59200 -5.13600 46.81600
H  7.17800 -4.59300 46.20500
H  7.42500 -0.43100 42.63100
H  9.18700 3.25400 43.27800
H  9.84900 2.01000 44.19900
H  8.49200 3.10800 44.84100
Mg 48.35900 34.47500 27.46400
C  46.60000 32.89800 30.07800
C  48.67200 37.18800 29.54500
C  49.53900 36.16300 24.70600
C  47.70200 31.73500 25.46300
N  47.66600 34.99300 29.61800
C  47.18100 34.09400 30.48900
C  47.19800 34.78600 31.90700
C  47.31800 36.30000 31.52200
C  48.00800 36.10100 30.21300
C  46.00300 37.12000 31.46600
C  48.44300 34.28700 32.65100
C  48.36500 34.02200 34.15200
H  47.47500 34.84100 34.97200
N  49.17000 36.39700 27.19600
C  49.20800 37.34300 28.20800
C  49.68500 38.62600 27.59100
C  50.03600 38.30800 26.19300
C  49.53100 36.90000 25.90500
C  49.68900 39.88700 28.42700
C  50.71600 39.26400 25.20400
O  50.70700 38.99200 23.99800
C  51.10400 40.61300 25.58400
N  48.62900 33.93900 25.46000
C  49.16100 34.80000 24.52500
C  49.46300 34.05700 23.17700
C  49.06500 32.60600 23.48900
C  48.42600 32.72800 24.86300
C  48.77000 34.77600 21.96700
C  50.24200 31.61000 23.47500
C  50.33700 31.04000 22.09200
N  47.25500 32.70200 27.59400
C  47.15600 31.63500 26.74000
C  46.44600 30.53900 27.41000
C  46.19100 31.06400 28.67600
C  46.74000 32.33500 28.82800
C  45.98900 29.28200 26.70900
C  45.46700 30.75500 29.92700
O  44.82100 29.75700 30.27300
C  45.47400 32.06600 30.80800
C  45.72900 31.79800 32.18600
O  46.75900 31.37700 32.66400
O  44.55900 32.07200 32.87200
C  44.59600 31.69200 34.27800
H  48.83600 38.04200 30.20500
H  49.92200 36.58500 23.77500
H  47.57700 30.83800 24.85300
H  46.34200 34.61600 32.56000
H  48.03300 36.79900 32.17800
H  46.12100 37.95600 30.77600
H  45.85100 37.54300 32.45900
H  45.13100 36.52200 31.20100
H  49.28400 34.91000 32.34700
H  48.59200 33.28300 32.25500
H  49.38100 34.27600 34.45400
H  48.26500 32.97600 34.43800
H  49.14700 40.67700 27.90600
H  50.70500 40.27500 28.49800
H  49.26300 39.74000 29.42000
H  51.50800 41.25600 24.80200
H  51.90400 40.64400 26.32400
H  50.25400 41.07600 26.08600
H  50.53000 34.06900 22.95800
H  48.29500 32.30800 22.77700
H  49.30200 35.69600 21.72200
H  47.74900 34.98500 22.28800
H  48.76900 34.04300 21.16000
H  50.02600 30.78500 24.15300
H  51.20300 32.10600 23.61600
H  50.14500 29.97900 22.25600
H  51.31000 31.25000 21.64700
H  49.61800 31.41900 21.36700
H  46.91200 28.81300 26.36800
H  45.28200 29.34800 25.88200
H  45.52400 28.72700 27.52500
H  44.48900 32.51800 30.68800
H  43.64200 31.23600 34.54300
H  44.73000 32.63100 34.81500
H  45.29100 30.94500 34.66300

