158

Mg 24.66400 1.83000 29.61900
C  26.86500 1.56700 32.22800
C  22.09300 2.04900 31.62000
C  22.59300 1.87700 26.82500
C  27.32900 1.46100 27.34600
N  24.52900 1.49600 31.72800
C  25.51500 1.64400 32.66700
C  24.91900 1.87700 34.03800
C  23.35200 1.86500 33.74900
C  23.29600 1.87800 32.27100
C  22.52300 0.62700 34.16700
C  25.50000 3.23200 34.54100
C  25.50000 3.22200 36.11400
H  25.03700 4.36900 36.99700
N  22.62200 1.91800 29.28300
C  21.71900 2.03100 30.29200
C  20.37100 2.00200 29.67300
C  20.48500 1.74200 28.28400
C  21.96900 1.91200 28.06400
C  19.11500 2.07200 30.57700
C  19.38000 1.40800 27.19400
O  19.55200 1.28300 25.99400
C  17.95200 1.03800 27.64800
N  24.95300 1.67400 27.36300
C  23.95900 1.79200 26.53100
C  24.45700 1.87700 25.02800
C  26.00300 1.88900 25.17600
C  26.11700 1.71600 26.73300
C  23.82400 0.95000 23.87700
C  26.75600 3.04300 24.55700
C  27.14000 4.32700 25.33700
N  26.70000 1.43200 29.66300
C  27.68600 1.32600 28.72600
C  28.93300 1.05700 29.37800
C  28.71000 1.18200 30.74200
C  27.33200 1.37700 30.85500
C  30.10700 0.59700 28.68800
C  29.27600 1.14400 32.08700
O  30.38500 0.82600 32.41700
C  28.15700 1.50000 33.17700
C  28.13700 0.51200 34.26400
O  27.71800 -0.63200 34.22800
O  28.61800 1.05100 35.42800
C  28.70800 0.12200 36.60200
H  21.35900 2.25700 32.40200
H  22.00000 1.84200 25.90900
H  28.24300 1.42400 26.75000
H  25.31000 1.07900 34.66800
H  22.92600 2.78700 34.14400
H  23.15700 0.01300 34.80600
H  22.15800 0.06600 33.30700
H  21.65600 0.88000 34.77700
H  24.97900 4.12100 34.18500
H  26.54300 3.39800 34.27100
H  26.52000 3.02500 36.44400
H  24.86800 2.40200 36.45500
H  18.60700 2.96100 30.20300
H  19.41600 2.17100 31.62000
H  18.55300 1.15700 30.39100
H  18.18700 0.03000 27.98900
H  17.33200 1.02500 26.75200
H  17.47600 1.71100 28.36100
H  24.13500 2.91200 24.91300
H  26.43100 1.02500 24.66800
H  22.98200 1.46700 23.41700
H  23.29200 0.06900 24.23600
H  24.63300 0.67400 23.20000
H  26.24000 3.32700 23.63900
H  27.69100 2.70100 24.11300
H  28.22500 4.41300 25.29100
H  26.72200 4.26700 26.34100
H  26.51700 5.12700 24.93800
H  30.81600 1.41700 28.80100
H  29.99300 0.39800 27.62300
H  30.54700 -0.32100 29.07700
H  28.35100 2.49400 33.57900
H  28.88000 -0.91600 36.31700
H  27.85100 0.16600 37.27400
H  29.54800 0.46900 37.20400
Mg -12.90900 16.57200 42.81300
C  -9.78400 14.77300 42.63600
C  -11.31700 19.20800 41.48000
C  -15.96700 17.97700 42.70600
C  -14.42700 13.36200 43.59100
N  -10.77500 16.81800 42.06500
C  -9.70900 16.02100 42.02600
C  -8.52300 16.64900 41.36400
C  -9.01500 18.08200 41.11700
C  -10.50200 18.05000 41.54400
C  -8.06700 19.15600 41.79300
C  -8.06100 15.83000 40.06300
C  -6.46600 15.54100 39.97900
H  -6.04100 14.18800 39.31600
N  -13.60400 18.43100 42.15800
C  -12.78100 19.40300 41.66600
C  -13.61000 20.58100 41.38000
C  -14.91900 20.29400 41.76900
C  -14.91100 18.89000 42.27800
C  -13.10300 21.87400 40.87100
C  -16.06400 21.27000 41.64700
O  -15.85800 22.46800 41.37400
C  -17.47300 20.81400 42.04400
N  -14.99400 15.74200 42.99000
C  -15.98200 16.59000 43.07300
C  -17.28000 15.80200 43.46200
C  -16.87800 14.34500 43.58900
C  -15.29600 14.43500 43.37800
C  -18.22300 16.32300 44.64300
C  -17.50300 13.47100 42.54200
C  -18.67900 12.59100 42.98100
N  -12.30000 14.44000 43.24000
C  -13.03100 13.31900 43.44200
C  -12.02400 12.17700 43.47200
C  -10.74100 12.71900 43.33100
C  -10.95000 14.14000 43.10300
C  -12.30000 10.71500 43.69700
C  -9.29600 12.36400 43.31100
O  -8.66000 11.35400 43.55400
C  -8.62500 13.77600 42.87200
C  -7.67500 14.15800 43.99000
O  -7.95800 14.51000 45.12600
O  -6.39500 14.16200 43.53300
C  -5.35600 14.56500 44.47100
H  -10.70400 20.00100 41.04600
H  -17.03800 18.19300 42.70800
H  -14.92000 12.45000 43.93400
H  -7.67400 16.70100 42.04500
H  -8.93900 18.29600 40.05100
H  -7.66700 19.74400 40.96700
H  -7.35500 18.67800 42.46500
H  -8.78300 19.77300 42.33500
H  -8.20500 16.44800 39.17700
H  -8.68200 14.93500 40.08700
H  -6.02800 15.45100 40.97300
H  -6.07800 16.38600 39.41000
H  -13.73400 22.08200 40.00700
H  -12.04800 21.96100 40.60800
H  -13.22800 22.74400 41.51600
H  -17.89800 20.18700 41.26100
H  -18.02400 21.74000 42.20800
H  -17.49600 20.26700 42.98600
H  -17.89900 15.91900 42.57200
H  -17.06500 14.05100 44.62100
H  -19.10000 16.84900 44.26800
H  -17.61100 16.87000 45.36100
H  -18.59300 15.51200 45.27000
H  -16.82000 12.71000 42.16400
H  -17.75500 14.00000 41.62300
H  -18.34400 11.55400 42.97000
H  -19.49300 12.74000 42.27200
H  -19.11500 12.91800 43.92500
H  -13.32400 10.41000 43.91300
H  -11.66900 10.32400 44.49500
H  -11.94200 10.27100 42.76900
H  -8.03200 13.72400 41.95900
H  -5.73500 14.69300 45.48500
H  -4.78700 15.41500 44.09600
H  -4.52500 13.86600 44.56700

