158

Mg 25.78800 0.46700 30.08600
C  27.57600 0.03100 32.97700
C  22.87800 0.62300 31.90400
C  24.16100 0.69500 27.07100
C  28.78900 -0.32300 28.18600
N  25.35400 0.31000 32.16500
C  26.19700 0.30100 33.19500
C  25.45600 0.61500 34.52300
C  23.91400 0.31100 34.16600
C  24.03400 0.36100 32.64300
C  23.35600 -1.03300 34.76900
C  25.72900 2.00700 35.05500
C  26.66500 2.09900 36.24300
H  26.21700 2.94700 37.42700
N  23.79900 0.78800 29.53500
C  22.75100 0.88800 30.45200
C  21.50400 1.16500 29.67800
C  21.85500 1.07900 28.29600
C  23.31700 0.85400 28.24300
C  20.27000 1.46300 30.55000
C  20.93900 1.30600 27.12100
O  21.29800 1.49800 25.94200
C  19.46300 1.42700 27.26800
N  26.37600 0.06500 27.84600
C  25.50700 0.37600 26.91300
C  26.20400 0.37200 25.55000
C  27.68600 0.05900 25.84400
C  27.67400 -0.05600 27.34800
C  25.64200 -0.68600 24.54800
C  28.63000 1.16300 25.39500
C  28.31900 2.62800 25.78100
N  27.77900 -0.15500 30.45000
C  28.88700 -0.31700 29.61500
C  30.04100 -0.63000 30.48700
C  29.60600 -0.47900 31.80600
C  28.18800 -0.20100 31.71300
C  31.41400 -0.97900 30.07500
C  30.02300 -0.42300 33.19900
O  31.13400 -0.52500 33.63900
C  28.66300 -0.27000 34.02600
C  28.45100 -1.53300 34.70300
O  27.47500 -2.25700 34.56200
O  29.52200 -1.77900 35.62000
C  29.12700 -2.70200 36.65400
H  21.96400 0.69000 32.49900
H  23.52000 0.67000 26.18700
H  29.68500 -0.55900 27.60900
H  25.89600 -0.12300 35.19400
H  23.40600 1.17000 34.60400
H  24.19100 -1.51200 35.28100
H  22.92700 -1.56200 33.91800
H  22.67300 -0.79300 35.58400
H  24.90000 2.64700 35.35800
H  26.21100 2.57500 34.25900
H  27.62500 2.50200 35.92100
H  26.97900 1.10200 36.55100
H  20.28400 1.75800 31.59900
H  19.53000 0.68900 30.34400
H  19.90800 2.39000 30.10500
H  19.32200 2.34100 27.84400
H  19.04500 0.54200 27.74800
H  19.03500 1.56700 26.27500
H  26.00800 1.37500 25.17100
H  27.96900 -0.81800 25.26100
H  24.89000 -0.16500 23.95500
H  25.22900 -1.52100 25.11500
H  26.37800 -1.13300 23.87900
H  28.62200 0.99900 24.31700
H  29.61200 0.88000 25.77200
H  27.63200 2.68400 26.62500
H  27.94000 3.17900 24.92000
H  29.25600 3.01800 26.17700
H  31.74400 -0.62100 29.09900
H  31.53400 -2.06100 30.02400
H  32.04500 -0.66700 30.90700
H  28.71800 0.50500 34.78900
H  29.95400 -2.92400 37.32800
H  28.95700 -3.68200 36.20700
H  28.18300 -2.51200 37.16500
Mg -5.46100 24.81600 26.06400
C  -3.79900 26.20500 28.81000
C  -6.64300 22.38200 28.22100
C  -7.24300 23.62500 23.46800
C  -3.75400 26.93800 23.94000
N  -5.22100 24.44900 28.27700
C  -4.70300 25.23700 29.20700
C  -5.08800 24.83900 30.60700
C  -5.54500 23.39100 30.42000
C  -5.82400 23.33700 28.85200
C  -4.56400 22.30900 30.91400
C  -6.13700 25.67100 31.23700
C  -6.22100 25.94200 32.73100
H  -5.53500 25.00600 33.70600
N  -6.75500 23.29300 25.88200
C  -7.04500 22.34100 26.82300
C  -7.81900 21.24000 26.22600
C  -8.14200 21.71900 24.92000
C  -7.41700 22.98400 24.68300
C  -8.34600 20.08000 27.08300
C  -9.17600 21.12000 23.94800
O  -9.35900 21.55900 22.83800
C  -10.00000 19.91800 24.32300
N  -5.49300 25.32800 23.95200
C  -6.44800 24.74800 23.13900
C  -6.42900 25.31800 21.73200
C  -5.21000 26.31300 21.82300
C  -4.76800 26.24100 23.32500
C  -6.33400 24.31000 20.49300
C  -5.50400 27.76800 21.34900
C  -4.25800 28.48400 20.85100
N  -4.03500 26.21100 26.22800
C  -3.33200 26.96700 25.30000
C  -2.46000 27.89700 26.00400
C  -2.50700 27.53000 27.35000
C  -3.50200 26.59800 27.48200
C  -1.58500 28.94200 25.43200
C  -1.94200 27.76700 28.64200
O  -0.97200 28.43700 29.05100
C  -2.85100 27.08500 29.66800
C  -2.00900 26.26500 30.53600
O  -1.40900 25.24500 30.17300
O  -1.99500 26.79700 31.81900
C  -1.19800 26.17300 32.86300
H  -6.90700 21.52200 28.84000
H  -7.91900 23.32700 22.66400
H  -3.24700 27.64500 23.28100
H  -4.10500 24.88600 31.07600
H  -6.53200 23.31500 30.87600
H  -4.50500 22.44000 31.99400
H  -3.63500 22.46900 30.36500
H  -4.94200 21.31200 30.68700
H  -7.13700 25.48800 30.84400
H  -5.80600 26.61000 30.79300
H  -7.25600 26.04600 33.05800
H  -5.72700 26.90800 32.83400
H  -9.42700 19.98400 27.18400
H  -7.94700 19.95700 28.09000
H  -8.11400 19.16000 26.54700
H  -9.16800 19.21900 24.40700
H  -10.61500 19.47900 23.53700
H  -10.60500 19.96900 25.22900
H  -7.33300 25.92400 21.67800
H  -4.40800 25.84800 21.25000
H  -6.01200 23.35100 20.89800
H  -5.58900 24.63800 19.76700
H  -7.31600 24.24500 20.02500
H  -5.77600 28.25700 22.28400
H  -6.40400 27.81500 20.73500
H  -3.38500 27.84400 20.72500
H  -3.92100 29.12800 21.66400
H  -4.46000 28.96000 19.89100
H  -1.54400 28.93500 24.34300
H  -0.57900 28.85000 25.84000
H  -2.00900 29.93400 25.58700
H  -3.41500 27.76000 30.31200
H  -1.27900 25.08700 32.83800
H  -1.52600 26.67400 33.77400
H  -0.14400 26.43500 32.76500

