158

Mg 24.37000 -4.95900 45.86400
C  26.58700 -2.50800 44.51400
C  22.00600 -3.74300 43.67500
C  22.62500 -7.81200 46.33800
C  27.24500 -6.44200 47.41900
N  24.34200 -3.31100 44.23400
C  25.34500 -2.46800 43.85500
C  24.93200 -1.60800 42.61200
C  23.37000 -1.76600 42.69200
C  23.20600 -2.99200 43.58800
C  22.56000 -0.57400 43.32500
C  25.46000 -2.18700 41.27500
C  26.17700 -1.18400 40.38600
H  25.66000 -1.05500 38.95200
N  22.51200 -5.62600 45.27600
C  21.63800 -4.92300 44.41600
C  20.36700 -5.64700 44.48300
C  20.59800 -6.82400 45.11100
C  21.99800 -6.85400 45.57300
C  19.13900 -5.12000 43.84800
C  19.43400 -7.88300 45.35700
O  18.26000 -7.65300 45.14600
C  19.73900 -9.29800 45.87200
N  24.92400 -6.84200 46.70700
C  23.91000 -7.80000 46.86700
C  24.53100 -9.05900 47.55400
C  25.90200 -8.46100 48.06000
C  26.08700 -7.19500 47.34900
C  23.71900 -9.78200 48.66000
C  27.15300 -9.41700 47.76100
C  28.28300 -9.63400 48.75700
N  26.53700 -4.53600 46.04800
C  27.52300 -5.21200 46.69500
C  28.74600 -4.45100 46.64800
C  28.43400 -3.38600 45.75900
C  27.08100 -3.50200 45.40100
C  29.99900 -4.78300 47.31000
C  28.92100 -2.26700 45.08300
O  30.05400 -1.81600 45.05300
C  27.83400 -1.63700 44.31500
C  27.57700 -0.17200 44.61200
O  26.98900 0.24900 45.57100
O  28.26000 0.63200 43.67500
C  28.13400 2.09600 43.74100
H  21.20400 -3.38200 43.02900
H  22.21800 -8.82200 46.41800
H  28.08000 -6.80500 48.02300
H  25.29000 -0.60200 42.83300
H  22.86300 -2.04800 41.77000
H  23.26600 0.17300 43.69000
H  22.05500 -0.88600 44.23900
H  21.80400 -0.23700 42.61600
H  24.65900 -2.67800 40.72200
H  26.06400 -3.04500 41.57100
H  27.25500 -1.34100 40.40200
H  26.03900 -0.16500 40.74800
H  18.52400 -5.93100 43.45800
H  19.37700 -4.43400 43.03500
H  18.59200 -4.55600 44.60300
H  20.01000 -9.25900 46.92700
H  20.67700 -9.65300 45.44600
H  18.99400 -10.07900 45.72400
H  24.76100 -9.66000 46.67500
H  25.87500 -8.34300 49.14300
H  22.82300 -10.30900 48.33300
H  23.31000 -9.03300 49.33900
H  24.30000 -10.42600 49.32000
H  27.65100 -9.20300 46.81600
H  26.65000 -10.37400 47.62200
H  29.21000 -9.46200 48.20900
H  28.13800 -10.59700 49.24600
H  28.18600 -8.81100 49.46500
H  30.27300 -5.80200 47.03400
H  29.80800 -4.68100 48.37900
H  30.82200 -4.12400 47.03200
H  28.00800 -1.66200 43.23900
H  28.17600 2.33900 42.67900
H  28.82700 2.62400 44.39600
H  27.17100 2.34000 44.19200
Mg 35.39600 47.86500 24.88200
C  35.58900 46.15000 27.95600
C  33.74600 50.54000 26.52100
C  34.77000 49.38800 21.85400
C  36.64400 45.09800 23.36800
N  34.68900 48.22800 26.98800
C  35.00200 47.42300 28.10300
C  34.70100 48.24300 29.36400
C  33.94600 49.48300 28.86500
C  34.15200 49.47900 27.35500
C  32.48000 49.61700 29.38600
C  36.01400 48.50600 30.11900
C  36.10300 47.89200 31.50700
H  35.79700 48.80300 32.76400
N  34.52000 49.82400 24.28500
C  33.94700 50.75800 25.12600
C  33.50700 51.91600 24.33300
C  33.83700 51.62100 22.92300
C  34.40300 50.22700 22.93700
C  32.83600 53.15800 24.95500
C  33.56200 52.42200 21.61200
O  33.80100 52.06800 20.44200
C  33.00200 53.79900 21.72000
N  35.55700 47.24400 22.85800
C  35.31300 48.05900 21.83100
C  35.66800 47.37700 20.52500
C  36.36000 46.06000 21.02700
C  36.16600 46.08900 22.49600
C  34.41600 47.15800 19.66800
C  37.86800 45.95000 20.67600
C  38.80000 46.95400 21.28000
N  36.13000 46.01600 25.49600
C  36.61900 45.03200 24.74300
C  37.19100 43.94600 25.60600
C  36.75500 44.33300 26.87200
C  36.05800 45.56800 26.75500
C  37.80400 42.57600 25.08600
C  36.66600 43.88900 28.25300
O  37.15100 43.00000 28.93400
C  36.06000 45.20700 29.06000
C  34.95900 44.61300 29.79400
O  33.85100 44.31100 29.41300
O  35.37400 44.36200 31.05700
C  34.52200 43.48400 31.86200
H  33.16300 51.33500 26.99000
H  34.57800 49.90000 20.90800
H  37.28600 44.33800 22.91900
H  34.03400 47.59500 29.93100
H  34.38300 50.40100 29.25900
H  31.77200 49.26400 28.63600
H  32.26700 50.66400 29.60500
H  32.32300 49.10900 30.33800
H  36.02900 49.59500 30.12700
H  36.94500 48.16800 29.66500
H  37.00500 47.30300 31.67300
H  35.39100 47.06600 31.50500
H  31.82200 53.25000 24.56500
H  33.35600 54.11300 24.88700
H  32.81700 53.17400 26.04500
H  32.95000 54.31900 20.76400
H  33.69100 54.43000 22.28100
H  32.08900 53.78500 22.31500
H  36.30600 48.02200 19.92100
H  35.88400 45.14500 20.67500
H  34.49000 46.15200 19.25400
H  34.43400 47.80700 18.79300
H  33.49100 47.31800 20.22000
H  37.91300 46.11300 19.59900
H  38.27500 44.96000 20.87700
H  39.67800 47.15700 20.66700
H  39.15300 46.44100 22.17500
H  38.29400 47.89100 21.51000
H  38.70300 42.35400 25.66200
H  37.86900 42.56500 23.99800
H  36.94900 41.96000 25.36400
H  36.83600 45.59800 29.71700
H  33.80600 44.04400 32.46200
H  35.09400 43.02000 32.66500
H  34.05500 42.68800 31.28200

