158

Mg 24.39700 -5.08700 45.73500
C  26.92100 -2.92600 44.70200
C  22.24700 -3.57500 43.53700
C  22.18100 -7.65400 46.23800
C  26.85100 -6.97900 47.34100
N  24.63200 -3.65100 44.04900
C  25.76300 -2.86400 43.91700
C  25.50000 -1.85000 42.79300
C  23.99900 -1.72600 42.76200
C  23.54500 -3.03000 43.42900
C  23.55900 -0.47200 43.52300
C  26.04700 -2.32200 41.44200
C  26.21800 -1.30200 40.45600
H  25.50400 -1.50100 39.07200
N  22.41200 -5.50300 45.10800
C  21.73100 -4.72700 44.22200
C  20.39100 -5.21900 44.01800
C  20.38300 -6.49000 44.72100
C  21.65600 -6.60900 45.48800
C  19.34100 -4.45000 43.30200
C  19.24200 -7.39400 44.56200
O  18.21000 -7.13100 44.04100
C  19.30500 -8.76900 45.19700
N  24.54800 -7.09400 46.62400
C  23.48900 -7.90500 46.78800
C  23.85200 -9.25800 47.40700
C  25.32500 -9.07900 47.82800
C  25.60300 -7.61100 47.20700
C  22.87700 -9.72000 48.60300
C  26.27900 -10.14300 47.14800
C  27.51900 -10.49300 47.95700
N  26.39300 -4.87100 46.20200
C  27.26800 -5.67500 46.96700
C  28.48200 -4.95500 47.15000
C  28.41000 -3.91300 46.21600
C  27.12300 -3.88700 45.68200
C  29.51700 -5.53600 48.05300
C  29.11900 -2.74200 45.59500
O  30.24800 -2.32500 45.82400
C  28.17800 -2.12700 44.52600
C  27.90300 -0.68300 44.84700
O  27.46400 -0.22400 45.88500
O  28.34700 0.11700 43.84200
C  28.06800 1.53700 43.93600
H  21.67100 -2.83600 42.97600
H  21.47200 -8.45700 46.45000
H  27.62200 -7.57400 47.83500
H  26.03400 -0.93300 43.03900
H  23.68400 -1.60300 41.72600
H  22.81100 0.15700 43.04000
H  24.39300 0.20200 43.71900
H  23.04800 -0.75400 44.44300
H  25.36700 -3.06400 41.02400
H  26.96000 -2.85800 41.70200
H  27.26400 -1.32100 40.15300
H  26.08900 -0.28100 40.81800
H  18.84700 -5.06000 42.54600
H  19.89000 -3.76100 42.66000
H  18.64300 -3.85000 43.88700
H  19.27100 -8.66900 46.28200
H  20.25700 -9.22600 44.92700
H  18.59200 -9.51400 44.84500
H  23.70700 -10.03900 46.66100
H  25.53600 -8.94700 48.89000
H  21.98700 -9.09300 48.54200
H  23.41900 -9.66500 49.54700
H  22.75400 -10.80200 48.65600
H  26.59800 -9.76600 46.17600
H  25.80300 -11.10100 46.94000
H  28.17200 -11.10700 47.33700
H  27.17900 -11.17000 48.74100
H  27.95600 -9.70700 48.57300
H  30.32900 -4.85400 48.30700
H  29.98400 -6.41200 47.60200
H  29.10000 -5.76700 49.03300
H  28.70400 -2.18900 43.57400
H  28.94900 2.01000 44.37100
H  27.29500 1.79900 44.65700
H  27.70800 1.78800 42.93800
Mg 8.92100 48.36000 25.59500
C  6.37200 48.75900 28.10600
C  11.14300 49.36000 28.04900
C  11.07900 48.14500 23.31500
C  6.19400 48.08800 23.37900
N  8.77800 48.84700 27.84700
C  7.66800 48.96400 28.65000
C  8.04700 49.11500 30.15000
C  9.53000 49.66600 30.04500
C  9.85800 49.26500 28.54000
C  9.63800 51.13800 30.41700
C  7.83100 47.84400 31.07200
C  7.60800 48.07500 32.63200
H  8.54300 47.49000 33.74400
N  10.90300 48.57700 25.72200
C  11.66600 49.06300 26.70400
C  13.04000 49.14700 26.20400
C  13.07100 48.70200 24.87400
C  11.69200 48.40500 24.58000
C  14.27700 49.72300 27.04900
C  14.15100 48.66700 23.83600
O  13.95100 48.39700 22.59300
C  15.59100 48.99000 24.30000
N  8.66900 48.32700 23.62600
C  9.74500 48.07100 22.89200
C  9.49300 47.57500 21.43900
C  7.89000 47.55700 21.44900
C  7.49400 47.98200 22.91300
C  10.16100 48.39000 20.31200
C  7.11500 46.32500 20.86100
C  6.25300 46.58800 19.60500
N  6.69300 48.27600 25.61700
C  5.77400 48.13200 24.68900
C  4.44100 47.91700 25.26600
C  4.59200 48.31200 26.56000
C  5.97000 48.42100 26.76600
C  3.17800 47.78000 24.47300
C  3.88600 48.70800 27.68600
O  2.67200 48.90100 27.89700
C  5.03300 49.10300 28.78300
C  4.71600 48.71600 30.11700
O  4.66200 47.57900 30.57000
O  4.54400 49.86500 30.86900
C  3.93100 49.81600 32.20600
H  11.88000 49.74200 28.75900
H  11.67200 47.78800 22.47100
H  5.44800 47.80000 22.63500
H  7.26800 49.76700 30.54600
H  10.10500 49.07600 30.75900
H  8.74800 51.48600 30.94200
H  9.84500 51.69900 29.50500
H  10.51000 51.23600 31.06300
H  8.71300 47.20300 31.08300
H  7.03400 47.28100 30.58700
H  6.58900 47.74400 32.83200
H  7.69500 49.15600 32.74400
H  14.47200 50.75400 26.75500
H  15.20100 49.16600 26.89400
H  14.04100 49.66600 28.11200
H  15.91300 48.15300 24.91900
H  15.73900 49.92700 24.83700
H  16.30600 48.98200 23.47700
H  9.59000 46.49000 21.43500
H  7.66300 48.42800 20.83500
H  10.24100 47.94800 19.31900
H  11.20000 48.62300 20.54800
H  9.63300 49.34300 20.26000
H  6.47300 45.76500 21.54100
H  7.86900 45.54800 20.73300
H  6.21700 47.66000 19.40900
H  5.26400 46.13900 19.70000
H  6.77100 46.06400 18.80200
H  2.46300 48.57700 24.67400
H  2.81500 46.78100 24.71300
H  3.36000 47.84400 23.40000
H  4.97700 50.19100 28.78400
H  3.07200 50.48600 32.21200
H  4.65600 50.24100 32.90000
H  3.54800 48.83300 32.47700

