158

Mg 10.36600 47.29800 25.92000
C  8.36700 47.64300 28.80400
C  12.95900 48.48900 27.66400
C  12.17400 47.07900 23.10300
C  7.38200 46.61900 24.02900
N  10.47600 48.20900 27.87700
C  9.60400 48.18200 28.93300
C  10.23700 48.73400 30.15300
C  11.56200 49.30700 29.68800
C  11.72100 48.65100 28.30500
C  11.60700 50.85600 29.64300
C  10.58400 47.68500 31.31000
C  10.19700 48.00700 32.76400
H  10.01200 46.92000 33.81800
N  12.34700 47.55800 25.46900
C  13.26600 47.97500 26.43900
C  14.56500 47.84900 25.94300
C  14.39400 47.41600 24.56500
C  12.95900 47.26200 24.31100
C  15.84900 48.14800 26.67300
C  15.50600 47.18200 23.48200
O  15.23400 46.70000 22.38800
C  16.91800 47.53000 23.90800
N  9.81600 47.14700 23.79800
C  10.82900 47.08500 22.85500
C  10.20200 46.77300 21.52300
C  8.67600 46.52100 21.84400
C  8.57900 46.76400 23.34000
C  10.50100 47.88400 20.41000
C  8.19600 45.08500 21.57400
C  8.76000 43.99600 22.52000
N  8.22900 47.17300 26.30100
C  7.22400 46.77100 25.44200
C  6.05500 46.52400 26.30200
C  6.43700 46.86800 27.65900
C  7.81200 47.19700 27.56800
C  4.68200 46.19100 25.88100
C  6.01700 46.99200 28.98900
O  4.94800 46.71300 29.44900
C  7.32900 47.35300 29.81200
C  7.62600 46.27100 30.83100
O  8.09500 45.20000 30.58100
O  7.15200 46.59800 32.08200
C  7.08900 45.43200 32.97400
H  13.77000 48.80800 28.32200
H  12.74800 46.92800 22.18600
H  6.53400 46.25500 23.44400
H  9.63600 49.52200 30.60500
H  12.38700 49.07200 30.36000
H  10.58900 51.24500 29.66200
H  12.13200 51.29300 28.79300
H  12.09700 51.19700 30.55400
H  11.63400 47.41600 31.42400
H  10.19200 46.70100 31.05600
H  9.23800 48.52000 32.70200
H  11.03000 48.64900 33.05100
H  16.64900 47.41000 26.61800
H  15.69600 48.18100 27.75200
H  16.22100 49.10500 26.30800
H  17.19200 48.53200 24.24000
H  17.51500 47.39900 23.00600
H  17.33700 46.83100 24.63200
H  10.65400 45.83700 21.19300
H  8.00300 47.19800 21.31800
H  11.14800 48.71200 20.70000
H  9.57400 48.38300 20.13000
H  10.87600 47.40400 19.50600
H  8.51600 44.77700 20.57800
H  7.10700 45.05900 21.61700
H  7.94100 43.56400 23.09600
H  9.60600 44.43100 23.05100
H  9.13900 43.19200 21.88800
H  4.18000 47.12300 25.62300
H  4.16300 45.54300 26.58800
H  4.68000 45.67500 24.92000
H  7.11200 48.31500 30.27700
H  6.18500 44.83400 32.86000
H  7.14100 45.78300 34.00500
H  7.91400 44.75400 32.75600
Mg 1.35800 42.50400 26.30800
C  3.45500 42.47100 29.04000
C  -1.34100 41.66700 28.42800
C  -0.60600 41.99800 23.52200
C  4.17000 42.91400 24.14600
N  1.07000 42.09600 28.44900
C  2.11300 42.23500 29.38500
C  1.51900 42.36600 30.78700
C  0.15100 41.71900 30.59200
C  -0.06400 41.89900 29.09700
C  -0.01000 40.27900 31.11000
C  1.64200 43.83200 31.31800
C  2.04100 43.99600 32.81900
H  1.78200 42.82100 33.87100
N  -0.70800 42.00400 26.01300
C  -1.58600 41.80400 27.05500
C  -2.90800 41.58500 26.39400
C  -2.73700 41.58500 24.97200
C  -1.28200 41.91300 24.76500
C  -4.01800 41.12300 27.21900
C  -3.63100 41.12600 23.84500
O  -3.31500 41.20300 22.67000
C  -4.89800 40.26600 24.12300
N  1.74200 42.44500 24.14900
C  0.77700 42.32000 23.22700
C  1.34400 42.09600 21.78900
C  2.75800 42.67000 21.93100
C  2.93800 42.70100 23.47600
C  1.25200 40.70600 21.09000
C  2.87600 44.05900 21.18200
C  4.28500 44.34500 20.68600
N  3.31400 42.74300 26.47400
C  4.30300 42.95400 25.57800
C  5.63000 42.97100 26.27600
C  5.33200 42.87200 27.64800
C  3.91000 42.66900 27.72700
C  7.03200 42.98600 25.63000
C  5.83400 42.92100 29.00900
O  6.98500 43.04700 29.45100
C  4.57400 42.72700 29.93900
C  4.86400 41.53200 30.70800
O  5.11600 40.34600 30.30500
O  4.73000 41.89700 32.06900
C  5.18600 40.83400 33.03400
H  -2.18300 41.37300 29.05700
H  -1.21700 41.80800 22.63700
H  5.00600 43.24100 23.52500
H  2.17100 41.67400 31.32000
H  -0.59100 42.39200 31.02200
H  -0.83500 40.34300 31.82000
H  0.92600 40.10000 31.63800
H  -0.17400 39.58600 30.28500
H  0.67900 44.31600 31.15500
H  2.36400 44.39900 30.73100
H  1.64300 44.94900 33.16900
H  3.12400 44.10700 32.86500
H  -3.93000 40.05500 27.41700
H  -4.98100 41.19400 26.71300
H  -4.16300 41.61200 28.18300
H  -4.81300 39.67100 25.03300
H  -5.07500 39.65000 23.24100
H  -5.75000 40.91300 24.33200
H  0.76200 42.82500 21.22500
H  3.47900 41.99600 21.46900
H  0.72100 40.04200 21.77100
H  2.16100 40.15300 20.85100
H  0.61000 40.86400 20.22400
H  2.58000 44.78900 21.93600
H  2.27700 44.10500 20.27200
H  4.36900 44.43800 19.60300
H  4.97200 43.54600 20.96300
H  4.62200 45.30800 21.07000
H  7.22600 42.15300 24.95300
H  7.75400 42.80400 26.42600
H  7.22800 43.94600 25.15300
H  4.49000 43.67900 30.46300
H  4.44900 40.09200 33.34100
H  5.45200 41.32100 33.97200
H  6.12800 40.38000 32.72600

