158

Mg 16.62600 -2.15100 27.83400
C  15.53700 -0.05600 30.52800
C  18.60600 -3.87500 29.89000
C  18.04100 -3.70500 25.10400
C  14.86200 -0.08200 25.65200
N  16.87200 -1.97700 30.01100
C  16.32500 -1.14400 30.87600
C  17.02700 -1.34500 32.30000
C  17.96500 -2.52000 32.03600
C  17.85400 -2.84200 30.52600
C  19.45900 -2.25500 32.58300
C  15.93900 -1.54900 33.36300
C  16.03300 -0.70500 34.64200
H  17.35400 0.07700 34.88500
N  18.02000 -3.70500 27.52000
C  18.73900 -4.26800 28.54000
C  19.49500 -5.42000 27.99900
C  19.29500 -5.38300 26.60000
C  18.37700 -4.19300 26.33600
C  20.27400 -6.35900 28.88000
C  19.96600 -6.31000 25.53300
O  19.80600 -6.09300 24.33300
C  21.02600 -7.38800 26.01500
N  16.73300 -1.70600 25.60200
C  17.28200 -2.60800 24.69700
C  16.96300 -2.14300 23.28800
C  15.70400 -1.23200 23.51400
C  15.74900 -1.00200 24.99600
C  18.11300 -1.20300 22.79100
C  14.40000 -1.91400 23.05200
C  13.93600 -1.45700 21.63800
N  15.37500 -0.51100 28.01100
C  14.77900 0.29400 26.99900
C  13.93400 1.31600 27.56500
C  14.25800 1.23200 28.94100
C  15.09300 0.08000 29.20000
C  13.07200 2.27100 26.81000
C  14.05300 1.87400 30.19900
O  13.38200 2.92100 30.39700
C  14.89600 1.11100 31.30000
C  15.72700 2.09300 32.05900
O  16.77900 2.49000 31.66800
O  15.10700 2.50500 33.23400
C  15.59400 3.78500 33.75000
H  19.23800 -4.43000 30.58700
H  18.23900 -4.43900 24.32000
H  14.18400 0.38700 24.93500
H  17.59600 -0.44100 32.51900
H  17.55100 -3.37900 32.56500
H  19.93700 -1.48400 31.97800
H  19.84100 -3.26900 32.70400
H  19.29900 -1.71000 33.51300
H  15.89400 -2.62100 33.55500
H  14.93900 -1.31700 32.99800
H  15.72500 -1.36900 35.45000
H  15.28100 0.07900 34.55200
H  21.32200 -6.07100 28.95300
H  20.14800 -7.37600 28.50700
H  19.80800 -6.37200 29.86500
H  21.42300 -7.79500 25.08500
H  20.44200 -8.12000 26.57400
H  21.71700 -6.83600 26.65100
H  16.78700 -3.02300 22.66900
H  15.91200 -0.25900 23.06800
H  19.07300 -1.33300 23.29300
H  17.97300 -0.15200 23.04300
H  18.42900 -1.16400 21.74900
H  13.59500 -1.64200 23.73500
H  14.45200 -2.99700 23.16900
H  14.47700 -0.53700 21.41700
H  12.84900 -1.38800 21.61600
H  14.17400 -2.22700 20.90300
H  13.40900 3.18100 27.30700
H  12.03000 2.07600 27.06200
H  13.21400 2.37600 25.73500
H  14.08100 0.90100 31.99300
H  15.91400 4.42800 32.93100
H  16.34700 3.54900 34.50200
H  14.71600 4.24400 34.20600
Mg -12.60500 16.91600 42.24000
C  -9.48400 15.73600 41.51000
C  -11.54900 20.09500 41.17100
C  -15.84700 18.11300 42.36700
C  -13.79500 13.79800 42.44500
N  -10.73300 17.80300 41.51700
C  -9.55900 17.12200 41.22900
C  -8.40600 18.03100 40.94300
C  -9.05300 19.51100 41.05900
C  -10.55400 19.16500 41.23300
C  -8.48400 20.42700 42.20500
C  -7.58900 17.85500 39.65400
C  -6.19400 17.27600 39.60700
H  -5.23400 17.79600 38.53500
N  -13.52900 18.97200 41.96400
C  -12.90700 20.00800 41.42200
C  -13.92000 21.01800 41.23600
C  -15.15900 20.53800 41.75100
C  -14.89500 19.13900 42.02600
C  -13.55400 22.42200 40.88900
C  -16.39700 21.34900 41.93300
O  -16.36300 22.48000 41.50100
C  -17.72500 20.87800 42.65300
N  -14.54800 16.12100 42.54800
C  -15.70100 16.75900 42.63500
C  -16.86600 15.81800 42.76200
C  -16.21300 14.41000 42.73500
C  -14.75800 14.77500 42.59400
C  -17.66800 16.08400 44.04700
C  -16.79900 13.46300 41.72700
C  -18.10700 12.69000 42.06100
N  -11.79300 15.08900 42.23300
C  -12.41400 13.91400 42.35200
C  -11.43400 12.84300 42.32500
C  -10.22400 13.50300 42.00800
C  -10.49200 14.90200 41.98500
C  -11.68300 11.38500 42.53800
C  -8.82000 13.32500 41.67700
O  -8.20800 12.27600 41.50200
C  -8.25000 14.77900 41.57000
C  -7.33800 15.24500 42.68800
O  -7.61800 15.67600 43.80400
O  -6.05500 15.11900 42.22000
C  -4.88800 15.41200 43.14800
H  -11.12500 21.07700 40.94800
H  -16.87800 18.46400 42.27900
H  -14.04700 12.74500 42.58800
H  -7.64600 17.93400 41.71900
H  -8.96000 20.15400 40.18400
H  -7.90000 21.26400 41.82200
H  -7.70700 19.87500 42.73400
H  -9.10900 20.71500 43.05100
H  -7.46200 18.86000 39.25000
H  -8.14600 17.23200 38.95400
H  -6.25200 16.20000 39.44500
H  -5.72500 17.39800 40.58400
H  -14.26600 22.75700 40.13600
H  -12.57900 22.38600 40.40300
H  -13.38800 23.04300 41.77000
H  -18.26600 20.21600 41.97600
H  -18.38500 21.68000 42.98300
H  -17.37000 20.30800 43.51200
H  -17.40800 16.00800 41.83500
H  -16.38700 13.91300 43.68900
H  -18.03800 15.16000 44.49200
H  -18.49500 16.76700 43.85700
H  -16.99800 16.49000 44.80500
H  -15.98800 12.77100 41.49600
H  -16.95300 14.12200 40.87300
H  -18.05200 11.64200 41.76600
H  -19.06300 13.02400 41.65700
H  -18.23900 12.70100 43.14300
H  -12.35800 11.13400 41.72000
H  -12.09100 11.23000 43.53700
H  -10.82000 10.75200 42.32900
H  -7.62900 14.81200 40.67400
H  -3.93100 15.08100 42.74500
H  -5.09000 14.85000 44.06000
H  -4.90500 16.42700 43.54500

