158

Mg 24.39900 -5.01600 45.19600
C  26.71600 -2.57000 43.89900
C  21.96600 -3.50200 43.29800
C  22.38700 -7.78000 45.68700
C  27.00000 -6.66600 46.69000
N  24.40500 -3.31500 43.62300
C  25.39000 -2.44300 43.35200
C  24.96700 -1.53000 42.23000
C  23.42900 -1.60900 42.37600
C  23.22600 -2.84400 43.18000
C  22.94500 -0.31700 43.14100
C  25.42100 -1.94500 40.75500
C  26.39800 -0.94200 40.07700
H  26.28700 -0.95700 38.49300
N  22.40500 -5.52400 44.62100
C  21.57300 -4.68900 43.94200
C  20.30100 -5.24600 43.87300
C  20.37600 -6.55100 44.46800
C  21.78000 -6.65700 44.99300
C  19.11400 -4.62400 43.18200
C  19.32900 -7.65400 44.49300
O  18.23000 -7.37000 44.03100
C  19.58100 -9.07400 44.85300
N  24.66100 -6.97200 46.05500
C  23.64700 -7.89600 46.16900
C  24.06200 -9.17100 46.95700
C  25.50300 -8.76600 47.40600
C  25.73300 -7.35700 46.76500
C  23.11200 -9.41600 48.19700
C  26.62900 -9.77300 47.03200
C  27.60400 -10.14900 48.18300
N  26.41500 -4.67400 45.30100
C  27.33500 -5.47100 45.91200
C  28.66300 -4.93100 45.71100
C  28.48000 -3.74300 44.97600
C  27.08400 -3.64600 44.73500
C  29.88100 -5.39900 46.30100
C  29.10400 -2.62500 44.27400
O  30.26700 -2.24000 44.32100
C  27.99300 -1.90300 43.49900
C  28.04100 -0.38700 43.89200
O  27.80700 0.01900 44.99100
O  28.51000 0.35000 42.86900
C  28.68700 1.78400 43.06500
H  21.13400 -2.96100 42.84200
H  21.75200 -8.62900 45.95200
H  27.90200 -7.06500 47.15900
H  25.34800 -0.53300 42.45300
H  22.85600 -1.64300 41.45000
H  23.75900 0.11000 43.72700
H  22.17400 -0.53200 43.88100
H  22.61800 0.48600 42.48000
H  24.53500 -1.93200 40.11900
H  25.83800 -2.95200 40.77900
H  27.36900 -1.36900 40.32900
H  26.33800 0.06100 40.50200
H  19.20600 -3.53800 43.16400
H  18.16800 -4.87800 43.66200
H  19.06800 -5.10800 42.20700
H  20.43300 -9.53200 44.35000
H  18.70800 -9.68600 44.62700
H  19.73400 -9.25600 45.91700
H  24.06500 -9.98700 46.23400
H  25.57200 -8.60600 48.48200
H  22.15100 -8.94900 47.98000
H  23.60700 -9.01200 49.08000
H  22.94800 -10.45200 48.49400
H  27.28000 -9.29500 46.30000
H  26.17600 -10.70300 46.68800
H  27.51200 -9.60000 49.12000
H  28.66100 -10.19400 47.92100
H  27.34800 -11.16500 48.48300
H  29.91900 -5.27300 47.38300
H  30.77100 -4.84900 45.99700
H  30.10700 -6.44200 46.08000
H  28.07300 -2.01400 42.41700
H  29.76600 1.85400 42.92500
H  28.36100 2.08400 44.06100
H  28.09700 2.38900 42.37600
Mg -11.45100 38.75600 42.48100
C  -10.14200 35.63400 41.65900
C  -8.95500 40.13900 40.71900
C  -13.19200 41.65000 42.56000
C  -14.52900 36.96200 43.24700
N  -9.76700 37.93800 41.33600
C  -9.39000 36.66700 41.17700
C  -8.13000 36.59600 40.33100
C  -7.53700 37.99000 40.37500
C  -8.87700 38.75200 40.81000
C  -6.29700 38.19300 41.17800
C  -8.41300 35.97300 38.94100
C  -7.60600 34.82000 38.57200
H  -6.61400 35.00200 37.39500
N  -11.00600 40.69000 41.84700
C  -9.88500 41.06400 41.20800
C  -9.95800 42.48900 41.00300
C  -11.17200 42.96800 41.55200
C  -11.87300 41.75900 42.03900
C  -8.88500 43.22600 40.16700
C  -11.67100 44.49300 41.56800
O  -10.90900 45.33800 41.06100
C  -12.93800 44.92600 42.14500
N  -13.51500 39.17200 42.86300
C  -13.89600 40.45800 42.96500
C  -15.32100 40.54500 43.51700
C  -15.77600 39.09400 43.62800
C  -14.55400 38.31800 43.21400
C  -15.44900 41.49200 44.74700
C  -16.92600 38.54800 42.75300
C  -18.13200 37.90200 43.40300
N  -12.20800 36.70800 42.70700
C  -13.38100 36.15100 43.08900
C  -13.21700 34.67900 43.09700
C  -11.95700 34.45400 42.52100
C  -11.42300 35.69800 42.22500
C  -14.14100 33.58900 43.59300
C  -11.15200 33.45300 42.00200
O  -11.33000 32.23700 42.02300
C  -9.78400 34.18700 41.48600
C  -8.61000 33.78400 42.37700
O  -7.63300 33.13100 42.01800
O  -8.76200 34.45600 43.60500
C  -7.49100 34.32300 44.45600
H  -8.06100 40.52700 40.22600
H  -13.84500 42.51500 42.68600
H  -15.39700 36.45400 43.67200
H  -7.39200 35.97100 40.83500
H  -7.28200 38.31900 39.36800
H  -5.68400 38.94500 40.68100
H  -5.87900 37.20800 41.38300
H  -6.66900 38.61300 42.11200
H  -8.15500 36.71900 38.18900
H  -9.47600 35.75700 38.83900
H  -8.34700 34.07200 38.29100
H  -7.13300 34.36100 39.44000
H  -9.04800 43.00500 39.11200
H  -7.94600 42.72900 40.40900
H  -8.80700 44.29400 40.37000
H  -13.78100 44.58600 41.54300
H  -13.01400 46.00400 42.29000
H  -13.03200 44.56300 43.16900
H  -15.87000 41.08700 42.74600
H  -15.88800 38.90100 44.69500
H  -14.54600 42.09300 44.85400
H  -15.77100 41.11000 45.71600
H  -16.24900 42.13800 44.38500
H  -16.43500 37.93000 42.00100
H  -17.30600 39.37500 42.15400
H  -18.16100 37.85400 44.49200
H  -18.26900 36.88900 43.02700
H  -19.04400 38.45000 43.16600
H  -14.52700 33.12800 42.68400
H  -14.91700 34.08600 44.17600
H  -13.63300 32.83300 44.19100
H  -9.54100 34.03800 40.43400
H  -7.63100 33.40500 45.02600
H  -7.36800 35.06100 45.24900
H  -6.57100 34.28400 43.87200

