158

Mg 7.92800 2.29700 27.87000
C  9.30200 1.15700 30.80900
C  5.88500 4.42000 29.80500
C  6.34200 3.28500 24.99700
C  9.64400 -0.15400 26.16300
N  7.63500 2.61600 30.11100
C  8.39700 2.13900 31.10700
C  8.16000 2.80900 32.41500
C  6.81700 3.65500 32.10900
C  6.69700 3.54200 30.56900
C  5.45800 3.13300 32.64900
C  9.29400 3.47500 33.13800
C  9.77800 2.98500 34.53000
H  8.73900 2.87200 35.60600
N  6.36700 3.69400 27.48900
C  5.70700 4.48100 28.39400
C  4.88900 5.36400 27.66600
C  5.08400 5.18000 26.25100
C  5.93300 4.00800 26.18600
C  4.16300 6.55300 28.35600
C  4.65300 6.03900 25.06400
O  4.84000 5.73200 23.88300
C  3.95300 7.37500 25.24600
N  7.80600 1.49800 25.97400
C  7.09600 2.11400 24.92300
C  7.41400 1.49900 23.60300
C  8.68000 0.57700 23.89000
C  8.74500 0.63600 25.45000
C  6.39500 0.88800 22.72500
C  9.94300 1.14100 23.14800
C  10.85500 2.03200 23.97900
N  9.24100 0.78100 28.34300
C  9.87200 -0.14700 27.56700
C  10.76600 -0.88800 28.32900
C  10.57100 -0.44300 29.60200
C  9.57400 0.51800 29.61600
C  11.59900 -2.03500 27.83500
C  11.02600 -0.57400 30.97300
O  11.88800 -1.26400 31.44700
C  10.15100 0.39000 31.84200
C  9.39400 -0.44100 32.79000
O  8.24800 -0.84500 32.67100
O  10.09200 -0.55000 33.97900
C  9.34800 -1.10900 35.19700
H  5.34800 5.07600 30.49400
H  5.79400 3.59500 24.10500
H  10.21300 -0.81100 25.50200
H  7.93400 1.93500 33.02600
H  6.79200 4.66000 32.53000
H  5.04900 2.60400 31.78800
H  4.82800 3.97900 32.92400
H  5.69700 2.48200 33.49000
H  9.00400 4.48900 33.41700
H  10.15400 3.55400 32.47400
H  10.59900 3.59000 34.91500
H  10.19200 1.99700 34.32800
H  4.54800 6.73400 29.36000
H  3.10200 6.30200 28.34100
H  4.38500 7.43900 27.76100
H  3.08300 7.27700 25.89600
H  3.57900 7.66400 24.26400
H  4.71900 8.05400 25.62000
H  7.60500 2.36800 22.97400
H  8.46300 -0.46500 23.65200
H  5.35600 1.02300 23.02500
H  6.65400 -0.16000 22.57400
H  6.50300 1.37400 21.75600
H  9.58900 1.53900 22.19700
H  10.52500 0.23900 22.95600
H  11.46000 2.73500 23.40700
H  11.51300 1.32900 24.49000
H  10.29900 2.63700 24.69500
H  11.98000 -2.03000 26.81400
H  11.06300 -2.97000 28.00100
H  12.48400 -2.07700 28.46900
H  10.79000 1.04200 32.43600
H  8.55800 -1.80200 34.91000
H  8.95200 -0.39500 35.91900
H  10.06200 -1.78100 35.67400
Mg -1.30300 34.26600 27.24200
C  -3.02200 32.56400 29.89600
C  -0.02100 36.38700 29.75900
C  0.16400 35.95800 24.90700
C  -3.03700 32.28100 24.92200
N  -1.58500 34.41200 29.69300
C  -2.31500 33.65100 30.50100
C  -2.00600 34.05500 31.89900
C  -1.12900 35.41300 31.82600
C  -0.89600 35.42600 30.30400
C  -1.83700 36.65100 32.38500
C  -1.31800 32.92700 32.74300
C  -1.97100 32.60000 34.08200
H  -0.93400 32.49300 35.22800
N  -0.17000 35.96500 27.28700
C  0.39500 36.59400 28.40900
C  1.36800 37.59300 27.95800
C  1.42800 37.52000 26.56400
C  0.37100 36.51500 26.17500
C  2.17200 38.53900 28.89600
C  2.28900 38.32200 25.57300
O  2.33300 38.13600 24.33300
C  3.13100 39.42500 26.05500
N  -1.46700 34.24900 25.22600
C  -0.75000 35.08700 24.41100
C  -0.93900 34.65700 22.92200
C  -1.95700 33.46000 22.93600
C  -2.11400 33.30800 24.49600
C  -1.27200 35.85400 21.91200
C  -1.56600 32.26700 22.14900
C  -0.86100 31.08600 22.88600
N  -2.64900 32.68600 27.32100
C  -3.33100 32.08300 26.27700
C  -4.15700 31.03000 26.86000
C  -3.98500 31.13800 28.25100
C  -3.09300 32.17200 28.49000
C  -5.09900 30.10800 26.07500
C  -4.41200 30.54800 29.50200
O  -5.12300 29.58300 29.71400
C  -3.92000 31.50300 30.62900
C  -5.09800 32.21100 31.30400
O  -5.84600 33.07300 30.82300
O  -5.28200 31.64600 32.52500
C  -6.38300 32.22200 33.29600
H  0.36200 37.05300 30.53500
H  0.70100 36.46400 24.10300
H  -3.50600 31.55500 24.25500
H  -2.94200 34.43900 32.30600
H  -0.21800 35.26100 32.40500
H  -2.71300 36.48400 33.01200
H  -1.96500 37.40200 31.60500
H  -1.04900 37.07900 33.00600
H  -0.24000 33.03200 32.86600
H  -1.53200 31.99400 32.22200
H  -2.26600 31.55100 34.10100
H  -2.78100 33.22900 34.45300
H  2.08500 39.57500 28.56900
H  3.21900 38.23900 28.94700
H  1.90100 38.43500 29.94600
H  3.69800 39.80000 25.20300
H  3.73200 38.97000 26.84300
H  2.52000 40.22300 26.47800
H  0.10200 34.38500 22.74800
H  -2.97800 33.75700 22.69800
H  -0.49200 36.11900 21.19800
H  -1.33000 36.76900 22.50100
H  -2.21800 35.76700 21.37700
H  -0.88300 32.40600 21.31100
H  -2.54500 31.91500 21.82600
H  -1.68100 30.36900 22.93300
H  -0.63400 31.47400 23.87800
H  -0.11200 30.55100 22.30200
H  -5.26700 30.59800 25.11600
H  -6.11500 30.10700 26.47000
H  -4.81300 29.06300 25.95500
H  -3.36100 30.95400 31.38700
H  -7.11100 32.79200 32.72000
H  -5.92100 32.91100 34.00300
H  -6.89800 31.47100 33.89600

