158

Mg -2.19700 17.00400 26.35500
C  -2.44300 14.87500 28.96300
C  -3.40100 19.61300 28.43900
C  -2.13100 19.15700 23.75400
C  -1.98000 14.38200 24.15500
N  -2.69700 17.27100 28.53700
C  -2.73600 16.21900 29.39200
C  -3.07600 16.71100 30.76100
C  -3.62000 18.20500 30.56300
C  -3.29200 18.39700 29.08900
C  -5.13300 18.52700 30.77500
C  -1.86000 16.71300 31.71800
C  -2.08600 15.91000 33.03100
H  -2.71600 16.71000 34.18500
N  -2.53400 19.13200 26.13400
C  -2.92000 20.01900 27.10500
C  -2.73400 21.40200 26.61400
C  -2.25000 21.23800 25.30700
C  -2.34200 19.76800 24.98900
C  -3.01900 22.57500 27.45100
C  -1.76500 22.32900 24.42300
O  -1.52900 22.14300 23.20600
C  -1.49200 23.63900 25.01800
N  -2.16300 16.80500 24.22100
C  -2.05500 17.80900 23.41900
C  -1.96200 17.30900 21.97300
C  -2.02000 15.77700 22.07100
C  -1.95400 15.67200 23.56400
C  -3.14900 17.84100 21.06400
C  -0.89300 15.11100 21.31000
C  0.48200 15.31900 21.89300
N  -2.17800 15.01600 26.49000
C  -2.12900 14.06900 25.54300
C  -2.17900 12.72100 26.13400
C  -2.23700 12.98600 27.49800
C  -2.27100 14.38100 27.67100
C  -2.33300 11.47600 25.38200
C  -2.25900 12.35600 28.78400
O  -2.17000 11.18800 29.06700
C  -2.43900 13.54900 29.80400
C  -1.35200 13.36100 30.84800
O  -0.24500 13.80700 30.78800
O  -1.95800 12.59000 31.82700
C  -1.03200 11.96700 32.80300
H  -3.79600 20.45300 29.01300
H  -1.93900 19.77900 22.87700
H  -1.73200 13.51100 23.54400
H  -3.91800 16.11500 31.11300
H  -3.15200 18.97800 31.17300
H  -5.65500 17.70800 31.27000
H  -5.69300 18.76200 29.87000
H  -5.30700 19.37500 31.43600
H  -1.65700 17.73900 32.02600
H  -0.95000 16.46200 31.17200
H  -1.16900 15.59900 33.53100
H  -2.87900 15.22100 32.73800
H  -2.96800 22.29700 28.50400
H  -3.93600 23.15300 27.32800
H  -2.22000 23.31200 27.53500
H  -1.14000 24.31000 24.23500
H  -0.69200 23.58500 25.75600
H  -2.49400 23.97700 25.28400
H  -1.03500 17.66600 21.52400
H  -2.97000 15.40500 21.68900
H  -3.85300 18.47300 21.60500
H  -3.74800 17.04700 20.61800
H  -2.83700 18.48300 20.24100
H  -0.88100 15.59400 20.33300
H  -1.01700 14.03700 21.17500
H  1.18000 15.92000 21.31000
H  0.88600 14.31000 21.81000
H  0.44000 15.68700 22.91800
H  -2.05500 10.57300 25.92600
H  -2.02200 11.59100 24.34300
H  -3.42100 11.40300 25.37800
H  -3.38700 13.28600 30.27400
H  -0.34800 11.39200 32.17900
H  -1.60900 11.23600 33.36800
H  -0.47700 12.67700 33.41700
Mg -5.43500 24.49100 27.39300
C  -3.68300 26.14900 30.05700
C  -6.31500 22.19800 29.68900
C  -6.33800 22.49400 24.86500
C  -3.86200 26.63400 25.24600
N  -5.00800 24.25300 29.68200
C  -4.42000 25.06200 30.51000
C  -4.59700 24.63200 31.93100
C  -5.34100 23.28900 31.76900
C  -5.60600 23.24000 30.27700
C  -4.56200 22.01900 32.15800
C  -5.39800 25.70000 32.74900
C  -4.95800 25.93700 34.17600
H  -5.59100 25.00700 35.18500
N  -6.39700 22.64800 27.28000
C  -6.73300 21.88400 28.37000
C  -7.44200 20.74200 27.86600
C  -7.42800 20.81100 26.47700
C  -6.59900 21.94400 26.11000
C  -7.88300 19.63400 28.68900
C  -8.03100 19.86200 25.41900
O  -7.66000 19.81300 24.24800
C  -9.06900 18.73300 25.95100
N  -5.15500 24.58300 25.30400
C  -5.64700 23.67400 24.43100
C  -5.49400 24.13000 22.98400
C  -4.64800 25.43600 23.15500
C  -4.57600 25.62900 24.61100
C  -4.91500 22.99300 22.06500
C  -5.10200 26.74100 22.43100
C  -3.93100 27.43100 21.58900
N  -4.20100 26.07600 27.58300
C  -3.62300 26.89000 26.59500
C  -2.80600 27.93600 27.21100
C  -2.75700 27.67000 28.53900
C  -3.66000 26.58600 28.73600
C  -2.19200 29.03700 26.38400
C  -2.23300 28.13200 29.79000
O  -1.40600 28.98600 30.07400
C  -2.90300 27.16700 30.84200
C  -1.73400 26.44700 31.46200
O  -1.15500 25.40000 31.03700
O  -1.41500 26.97400 32.72000
C  -0.44300 26.21000 33.51800
H  -6.64200 21.47800 30.44200
H  -6.90800 22.14200 24.00200
H  -3.43500 27.34800 24.53900
H  -3.62200 24.42200 32.37100
H  -6.32000 23.18200 32.23800
H  -3.77200 22.24700 32.87400
H  -4.01200 21.65400 31.29100
H  -5.13600 21.22100 32.63000
H  -6.45300 25.44000 32.65800
H  -5.31300 26.60400 32.14600
H  -5.12200 26.98200 34.44200
H  -3.89600 25.69500 34.15700
H  -8.91600 19.35600 28.47600
H  -7.72800 19.91700 29.73000
H  -7.37400 18.69800 28.45700
H  -8.41100 17.97100 26.36800
H  -9.33100 18.21900 25.02600
H  -9.97000 19.11800 26.42700
H  -6.42700 24.29800 22.44600
H  -3.62500 25.20500 22.85700
H  -4.19600 22.48600 22.70800
H  -4.48800 23.19700 21.08300
H  -5.70100 22.26200 21.87700
H  -5.48500 27.48900 23.12600
H  -5.91900 26.60600 21.72200
H  -3.59300 28.31300 22.13200
H  -4.40500 27.73100 20.65500
H  -3.10900 26.79900 21.25100
H  -2.94900 29.63800 25.88100
H  -1.59900 28.62800 25.56500
H  -1.61300 29.76100 26.95700
H  -3.41800 27.79200 31.57100
H  0.56900 26.56500 33.32100
H  -0.39600 25.13700 33.33500
H  -0.72900 26.34600 34.56100

