158

Mg 6.66600 53.91400 41.00100
C  5.77200 50.56400 40.43700
C  9.79600 53.10900 39.83700
C  7.46300 57.19300 41.22100
C  3.44500 54.55200 42.11800
N  7.66400 52.12900 40.13700
C  7.10500 50.84000 40.00200
C  8.02400 49.84300 39.39900
C  9.41200 50.59400 39.59500
C  8.96000 52.04000 39.91000
C  10.32100 50.02600 40.77300
C  7.77700 49.32700 37.92900
C  7.07900 50.41400 36.94200
H  6.68500 50.06900 35.50600
N  8.41900 55.06500 40.49800
C  9.58200 54.51900 40.10100
C  10.61700 55.56900 39.95900
C  9.91100 56.79600 40.39200
C  8.54900 56.39400 40.69800
C  11.92300 55.36300 39.41500
C  10.60400 58.22100 40.58100
O  11.78900 58.30900 40.30600
C  9.87800 59.50800 40.73800
N  5.42100 55.73500 41.35100
C  6.10000 56.85100 41.66600
C  5.08000 57.88300 42.22500
C  3.84400 56.99100 42.61000
C  4.24400 55.68700 41.98200
C  5.52700 58.89900 43.28800
C  2.40500 57.56300 42.25600
C  1.48800 58.00200 43.41800
N  4.89800 52.87700 41.20200
C  3.67000 53.19200 41.76900
C  2.88100 52.00700 42.01500
C  3.63800 50.96700 41.43600
C  4.87200 51.54700 41.01000
C  1.52200 51.97700 42.72200
C  3.61100 49.60300 41.03500
O  2.76200 48.74000 41.13500
C  4.96700 49.26900 40.48500
C  4.69900 48.68400 39.05900
O  4.28800 49.25200 38.06400
O  4.98500 47.38500 39.12400
C  4.56700 46.52500 38.05800
H  10.77800 52.85700 39.43100
H  7.74100 58.22400 41.45100
H  2.49300 54.56800 42.65200
H  8.06900 48.98100 40.06400
H  9.98600 50.60700 38.66800
H  9.90300 49.15200 41.27200
H  10.58500 50.77800 41.51600
H  11.25700 49.69100 40.32500
H  7.16900 48.42400 37.98100
H  8.73500 49.11400 37.45500
H  7.58600 51.37000 36.80900
H  6.22000 50.79000 37.49700
H  12.26400 54.33300 39.31100
H  12.65500 55.89200 40.02600
H  11.97600 55.69900 38.37900
H  10.44700 60.37300 40.39900
H  9.71100 59.61200 41.81000
H  8.91000 59.49700 40.23600
H  4.76700 58.43800 41.34100
H  3.93600 56.78500 43.67700
H  6.59700 59.00000 43.47100
H  5.11000 58.60000 44.25000
H  5.24700 59.92100 43.03300
H  1.84500 56.67900 41.95100
H  2.45200 58.27900 41.43600
H  1.30700 59.07500 43.48000
H  1.89400 57.68000 44.37700
H  0.49100 57.57600 43.30500
H  0.81800 52.75000 42.41600
H  1.61600 51.83500 43.79900
H  1.01200 51.05400 42.44700
H  5.52200 48.54600 41.08200
H  4.61400 45.48600 38.38300
H  5.26600 46.59300 37.22500
H  3.54100 46.65800 37.71400
Mg -12.34000 16.06500 41.72200
C  -9.19900 14.04500 41.56400
C  -10.58400 18.56600 40.13700
C  -15.08100 17.34200 41.11100
C  -13.89000 12.91600 42.59300
N  -10.11300 16.24800 40.82200
C  -9.08200 15.31100 40.95500
C  -7.72800 15.93900 40.45200
C  -8.14200 17.48100 40.30300
C  -9.68500 17.44900 40.32600
C  -7.64000 18.40800 41.45800
C  -7.17700 15.26500 39.16800
C  -5.63600 15.52800 39.00200
H  -5.34900 16.24400 37.64200
N  -12.71200 17.78700 40.91700
C  -11.94100 18.73100 40.30800
C  -12.69700 19.89700 39.93900
C  -14.05300 19.62800 40.32400
C  -13.97900 18.17700 40.76300
C  -12.11100 21.14800 39.32900
C  -15.22100 20.54000 40.14800
O  -15.06900 21.62600 39.65300
C  -16.71100 20.15900 40.50900
N  -14.27900 15.13400 41.58300
C  -15.26300 16.05700 41.41500
C  -16.67600 15.34900 41.57800
C  -16.20600 14.03200 42.34200
C  -14.74200 13.95600 42.11600
C  -17.77000 16.14700 42.39100
C  -16.98900 12.76100 41.82900
C  -17.78400 11.91300 42.90000
N  -11.71300 13.94900 42.12600
C  -12.48500 12.83000 42.48100
C  -11.55900 11.73800 42.67900
C  -10.25200 12.19100 42.34300
C  -10.37600 13.51700 42.00400
C  -11.91800 10.43300 43.39200
C  -8.87100 11.73200 42.23600
O  -8.33400 10.63700 42.50300
C  -8.09900 13.02000 41.71800
C  -7.05300 13.52700 42.68800
O  -7.16700 13.52300 43.90400
O  -5.89000 13.82700 42.02300
C  -4.69000 13.89800 42.85800
H  -10.06600 19.39500 39.65000
H  -16.05500 17.82600 41.01500
H  -14.44800 12.02700 42.89200
H  -6.94500 15.85400 41.20600
H  -7.74200 17.94100 39.40000
H  -6.55900 18.55000 41.47000
H  -7.90500 17.89300 42.38100
H  -8.16600 19.36200 41.41400
H  -7.84000 15.64300 38.39000
H  -7.37600 14.19900 39.27800
H  -5.11900 14.57500 39.11000
H  -5.24900 16.22400 39.74600
H  -12.38300 21.32400 38.28800
H  -11.03000 21.10700 39.45600
H  -12.40700 22.00500 39.93300
H  -16.75400 19.84200 41.55100
H  -17.13400 19.36200 39.89700
H  -17.41200 20.96900 40.30500
H  -17.08900 15.18200 40.58300
H  -16.35300 14.00900 43.42100
H  -18.65500 16.41700 41.81400
H  -17.22400 17.03900 42.69900
H  -18.14600 15.61000 43.26100
H  -16.32700 12.16600 41.19800
H  -17.73800 13.08100 41.10400
H  -18.86700 11.91100 42.78000
H  -17.46900 12.21900 43.89700
H  -17.54700 10.84900 42.88200
H  -10.99300 9.86200 43.31600
H  -12.70200 9.97100 42.79100
H  -12.41300 10.59900 44.34800
H  -7.54000 12.82100 40.80300
H  -4.60000 12.97700 43.43500
H  -4.75200 14.68700 43.60700
H  -3.87100 14.00900 42.14800

