158

Mg 25.66400 0.13000 29.18700
C  27.77700 -0.64700 31.95600
C  23.06800 0.59300 31.24800
C  23.90500 0.45000 26.49900
C  28.50400 -0.87600 27.17200
N  25.51500 0.02400 31.31800
C  26.48900 -0.22300 32.33100
C  25.96600 -0.07600 33.76900
C  24.47500 0.38000 33.43000
C  24.30600 0.30800 31.90100
C  23.39900 -0.27900 34.29000
C  26.77600 1.00700 34.65300
C  27.48100 0.56200 35.85000
H  27.36400 1.45900 37.06900
N  23.78700 0.51200 28.88700
C  22.83200 0.74200 29.84400
C  21.56300 1.05300 29.17900
C  21.88000 1.23200 27.81500
C  23.22800 0.67000 27.65300
C  20.26200 1.31200 30.04000
C  21.06000 1.75900 26.64300
O  21.48000 1.94000 25.50900
C  19.59900 1.94400 26.89800
N  26.19100 -0.06700 27.11200
C  25.22300 0.17300 26.18200
C  25.78000 0.02600 24.71500
C  27.30600 -0.09600 24.99100
C  27.37400 -0.32100 26.51600
C  25.02700 -1.09300 23.95400
C  28.17100 1.12700 24.50200
C  28.07100 2.45900 25.35200
N  27.65400 -0.92500 29.43900
C  28.68700 -1.18500 28.54600
C  29.87000 -1.72200 29.23800
C  29.53600 -1.54000 30.61200
C  28.21900 -0.96000 30.63500
C  31.14000 -2.27100 28.61000
C  30.04100 -1.66200 32.01500
O  31.14800 -1.98200 32.41900
C  28.82800 -1.09000 32.88700
C  28.48700 -2.12100 33.85600
O  27.61600 -2.93300 33.87400
O  29.37600 -1.98500 34.86000
C  29.13900 -2.74400 36.08800
H  22.19700 0.83400 31.86000
H  23.28300 0.73800 25.64800
H  29.32500 -1.19600 26.52700
H  25.82500 -1.01300 34.30600
H  24.33600 1.44400 33.61700
H  22.94100 -1.03000 33.64700
H  22.65200 0.50700 34.40400
H  23.70500 -0.69700 35.24900
H  26.05000 1.72500 35.03400
H  27.42000 1.58900 33.99400
H  28.51300 0.44700 35.51900
H  26.99600 -0.38900 36.06800
H  20.00700 2.37100 30.01100
H  20.33300 0.83500 31.01700
H  19.44000 0.82300 29.51800
H  19.15100 2.12300 25.92000
H  19.67500 2.90600 27.40600
H  19.15500 1.08200 27.39400
H  25.68600 0.95400 24.15100
H  27.60500 -1.05100 24.55900
H  24.09000 -1.12700 24.50900
H  25.54500 -2.05000 24.01200
H  24.66600 -0.92000 22.94000
H  27.93500 1.42700 23.48100
H  29.18400 0.75200 24.65100
H  27.35200 2.40500 26.16900
H  27.70600 3.22600 24.66900
H  29.02200 2.82900 25.73500
H  32.04900 -1.94700 29.11700
H  31.12800 -2.02200 27.54800
H  31.07300 -3.35100 28.47900
H  29.20600 -0.23600 33.45000
H  29.37000 -3.80300 35.97500
H  28.08400 -2.90600 36.30900
H  29.60000 -2.29500 36.96700
Mg -2.18200 34.86700 26.86800
C  -3.82800 33.12100 29.49600
C  -0.95700 36.98800 29.33100
C  -0.89500 36.70000 24.42500
C  -3.79700 32.87900 24.61900
N  -2.29300 34.95900 29.14900
C  -2.89100 34.07500 29.93800
C  -2.74900 34.37100 31.46600
C  -1.98900 35.72700 31.41100
C  -1.80600 35.98200 29.83800
C  -2.66300 36.98100 32.14800
C  -2.01200 33.17300 32.23500
C  -2.66200 32.56700 33.45600
H  -1.79200 32.41000 34.74900
N  -0.94200 36.52100 26.83800
C  -0.57100 37.27200 27.94000
C  0.38300 38.30600 27.46000
C  0.18700 38.33900 26.04300
C  -0.51300 37.14500 25.73500
C  1.26000 39.18200 28.32200
C  0.65500 39.42100 25.07000
O  0.51200 39.41900 23.85300
C  1.36900 40.57000 25.53900
N  -2.34200 34.77800 24.90100
C  -1.62400 35.57400 24.05200
C  -1.72200 35.22400 22.63700
C  -2.44800 33.88300 22.75700
C  -2.88000 33.77500 24.14800
C  -2.44100 36.21500 21.75300
C  -1.55100 32.60200 22.45400
C  -0.26400 32.26200 23.26700
N  -3.66000 33.34500 26.97100
C  -4.20200 32.60700 25.97000
C  -5.20700 31.80400 26.51300
C  -5.07100 31.89400 27.87300
C  -4.03000 32.79200 28.10400
C  -6.27100 31.09300 25.63400
C  -5.46000 31.33400 29.10100
O  -6.21700 30.41700 29.40800
C  -4.70900 32.11600 30.23900
C  -5.74700 32.71700 31.18900
O  -6.67600 33.41800 30.81100
O  -5.61700 32.18900 32.44000
C  -6.61000 32.42300 33.46000
H  -0.75200 37.66700 30.16100
H  -0.34400 37.18700 23.61800
H  -4.12600 32.11700 23.90900
H  -3.72800 34.50400 31.92500
H  -0.99700 35.64900 31.85700
H  -1.80100 37.51900 32.54400
H  -3.25200 36.74500 33.03400
H  -3.28300 37.65000 31.55200
H  -0.97200 33.45000 32.40800
H  -1.97200 32.31400 31.56500
H  -3.12100 31.62000 33.17000
H  -3.41500 33.28900 33.77200
H  0.96700 40.22600 28.20600
H  2.19500 38.84800 27.87200
H  1.22400 38.96400 29.38900
H  0.78700 41.00700 26.34900
H  1.37400 41.26900 24.70200
H  2.35900 40.33200 25.93000
H  -0.76700 35.09900 22.12800
H  -3.34700 33.93200 22.14200
H  -2.08200 37.21400 22.00100
H  -3.52500 36.15000 21.85100
H  -2.22500 35.96700 20.71400
H  -1.26000 32.72600 21.41200
H  -2.24800 31.76600 22.51200
H  -0.51400 31.86000 24.24900
H  0.27100 33.20500 23.38300
H  0.30400 31.48100 22.76200
H  -6.20300 31.26500 24.56000
H  -7.26900 31.10400 26.07200
H  -5.96500 30.05300 25.74000
H  -4.00600 31.53700 30.83800
H  -7.62100 32.51900 33.06300
H  -6.47500 33.32300 34.06100
H  -6.60800 31.53900 34.09700

