158

Mg 35.01700 3.44300 29.81000
C  32.97000 4.64400 32.28300
C  37.67200 3.21900 31.96800
C  37.11400 2.80800 27.13100
C  32.44200 4.09300 27.50600
N  35.21900 3.80200 31.92400
C  34.20600 4.27400 32.77300
C  34.72700 4.15100 34.19000
C  36.32400 3.99000 34.07200
C  36.44500 3.69200 32.54400
C  37.18800 5.17800 34.57600
C  34.05800 2.98600 34.94200
C  33.72700 3.14300 36.48000
H  34.53500 4.12400 37.29700
N  37.07900 2.96800 29.56700
C  38.00700 2.81100 30.63800
C  39.30600 2.39800 30.08600
C  39.12700 2.43300 28.70100
C  37.69500 2.75600 28.36500
C  40.49600 2.18900 31.00200
C  40.30000 2.16400 27.65500
O  40.14700 2.26000 26.49300
C  41.72100 1.86200 28.00700
N  34.85800 3.48300 27.74100
C  35.82400 3.14300 26.80400
C  35.40900 3.11900 25.36800
C  33.88000 3.13200 25.57000
C  33.67900 3.57100 27.01800
C  36.03400 4.25300 24.45600
C  33.17200 1.78400 25.32700
C  31.89200 1.75400 24.45200
N  33.06000 4.35900 29.81400
C  32.11900 4.42600 28.87200
C  30.86200 4.85100 29.43400
C  31.15000 4.85600 30.74100
C  32.49800 4.61900 30.98800
C  29.61000 5.14200 28.68700
C  30.56000 5.11600 32.05000
O  29.40400 5.42400 32.41900
C  31.65800 4.75000 33.08600
C  31.55800 5.92100 34.09400
O  31.84400 7.12500 33.91600
O  31.21100 5.32300 35.23700
C  30.79800 6.23400 36.30800
H  38.45700 3.26800 32.72400
H  37.73000 2.61900 26.24900
H  31.58300 3.93700 26.85000
H  34.37500 5.07300 34.65400
H  36.68300 3.08900 34.57100
H  37.78100 5.52000 33.72700
H  37.94800 4.81100 35.26600
H  36.56800 6.02000 34.88100
H  34.60800 2.04600 34.92200
H  33.15300 2.74300 34.38600
H  33.84400 2.11700 36.83000
H  32.69700 3.40800 36.71500
H  41.17900 3.01800 30.81700
H  40.94600 1.20900 30.84400
H  40.07200 2.18200 32.00600
H  42.28600 1.62800 27.10500
H  41.72400 0.92200 28.56000
H  42.14600 2.67700 28.59200
H  35.87100 2.20400 24.99600
H  33.38500 3.82800 24.89200
H  36.85200 4.76000 24.96800
H  35.27400 5.02100 24.31500
H  36.35000 3.70200 23.57000
H  32.88900 1.36500 26.29300
H  33.80100 1.00200 24.90200
H  31.48100 0.76000 24.62800
H  32.16500 1.93200 23.41200
H  31.18800 2.40000 24.97600
H  29.87100 5.57600 27.72200
H  29.14900 5.94900 29.25700
H  28.86000 4.35900 28.79300
H  31.47700 3.83400 33.64900
H  30.33400 5.62800 37.08600
H  30.04500 6.97800 36.04700
H  31.68500 6.62300 36.80700
Mg 6.03300 52.81100 40.79400
C  6.14000 49.32500 40.26600
C  9.15700 53.09100 39.53100
C  5.50500 56.24900 40.57700
C  2.63500 52.46400 41.86600
N  7.37900 51.35700 39.92800
C  7.30500 49.95600 39.81000
C  8.63300 49.28200 39.27100
C  9.59500 50.53400 39.36000
C  8.70200 51.73300 39.59300
C  10.69100 50.45300 40.39900
C  8.52800 48.78000 37.77500
C  7.87100 49.51900 36.62900
H  6.69400 48.80300 35.87000
N  7.16100 54.49500 40.09500
C  8.48900 54.33000 39.76600
C  9.01500 55.67200 39.56100
C  7.93200 56.55600 39.67100
C  6.73800 55.79000 40.06000
C  10.49700 55.99800 39.39200
C  8.10100 58.07900 39.41300
O  9.28200 58.48700 39.22900
C  6.92400 59.03200 39.32300
N  4.30700 54.17100 41.11600
C  4.45900 55.51200 41.05200
C  3.17100 56.18300 41.65100
C  2.26000 54.99800 41.94800
C  3.04700 53.79700 41.60500
C  3.34900 56.99000 42.99000
C  0.86000 55.09900 41.22100
C  -0.30500 55.45200 42.21200
N  4.69600 51.22500 41.08000
C  3.37600 51.22200 41.55300
C  2.93200 49.80700 41.70100
C  4.05800 49.05100 41.30400
C  5.06800 49.92800 40.89600
C  1.61500 49.27600 42.11700
C  4.44000 47.71300 41.07300
O  3.82100 46.68700 41.24500
C  5.83800 47.81100 40.44900
C  5.83700 47.04400 39.11800
O  5.20900 47.40200 38.13900
O  6.56100 45.81300 39.26700
C  6.28900 44.88800 38.11300
H  10.21200 53.14900 39.25900
H  5.48200 57.34000 40.60500
H  1.66700 52.29900 42.34400
H  8.92100 48.46800 39.93500
H  10.11000 50.70000 38.41400
H  10.85100 51.38700 40.93800
H  11.59600 50.25800 39.82500
H  10.60200 49.56800 41.02900
H  8.03300 47.81600 37.88600
H  9.59100 48.71100 37.54600
H  8.67400 49.84100 35.96600
H  7.53100 50.47600 37.02500
H  10.65000 56.57300 38.47900
H  10.95400 55.01100 39.32600
H  10.99400 56.41800 40.26700
H  7.19700 59.86800 38.68000
H  6.49500 59.20600 40.30900
H  6.28500 58.40600 38.69800
H  2.76200 56.81700 40.86400
H  2.12000 54.93000 43.02700
H  4.18800 56.58300 43.55500
H  2.48700 57.01500 43.65600
H  3.61000 58.01600 42.72900
H  0.55700 54.18500 40.71100
H  0.94600 55.91400 40.50200
H  -0.67400 54.43400 42.33800
H  -1.06700 56.10600 41.78800
H  0.05300 55.83100 43.16900
H  0.92300 50.09600 42.30900
H  1.63000 48.84100 43.11600
H  1.06600 48.59500 41.46700
H  6.53400 47.33200 41.13800
H  6.59700 45.41600 37.21000
H  5.21800 44.71800 38.00700
H  6.88500 44.02300 38.40300

