158

Mg 0.20600 7.40700 24.71900
C  0.92300 9.29900 27.58800
C  0.70800 4.56800 26.60700
C  0.03600 5.61500 21.84100
C  0.46200 10.42300 22.77700
N  0.80600 7.02700 26.79100
C  0.78000 7.89900 27.83800
C  0.68300 7.20700 29.17900
C  0.91900 5.76400 28.79600
C  0.73100 5.74800 27.29600
C  2.41600 5.18000 29.17600
C  -0.66600 7.51400 29.90900
C  -0.65500 7.58100 31.47200
H  0.63500 7.25500 32.38100
N  0.46200 5.36200 24.32700
C  0.60400 4.32600 25.21700
C  0.53100 3.07900 24.52500
C  0.30100 3.37500 23.12500
C  0.32200 4.82000 23.04100
C  0.59800 1.75500 25.28100
C  0.17100 2.40000 21.98600
O  -0.09000 2.71900 20.84300
C  0.12200 0.94100 22.24200
N  0.22500 7.98300 22.57300
C  0.08100 6.97800 21.61200
C  0.25300 7.73100 20.27400
C  0.05600 9.22400 20.57000
C  0.21400 9.26600 22.06500
C  1.55600 7.28400 19.49200
C  -1.18700 10.04800 20.11200
C  -2.38700 10.38500 21.03600
N  0.67600 9.41600 25.07000
C  0.66500 10.51500 24.22600
C  0.97600 11.72300 24.99900
C  1.01800 11.23600 26.32500
C  0.83200 9.86300 26.33000
C  1.00600 13.16200 24.47200
C  1.28500 11.63600 27.65100
O  1.63500 12.76500 28.03900
C  1.03200 10.34200 28.60700
C  2.19900 10.33200 29.53900
O  3.25200 9.71400 29.39900
O  1.87200 11.16300 30.63600
C  3.00100 11.28800 31.58100
H  0.50500 3.67900 27.20900
H  0.08800 5.04500 20.91100
H  0.41100 11.40400 22.30100
H  1.48900 7.61700 29.78800
H  0.17400 5.09500 29.22600
H  2.98100 5.93900 29.71700
H  3.00300 4.86900 28.31200
H  2.19500 4.35900 29.85700
H  -1.37600 6.71800 29.68400
H  -1.04700 8.44400 29.48500
H  -1.37100 6.79800 31.72100
H  -1.23500 8.45200 31.77700
H  -0.44500 1.54400 25.51400
H  1.09900 1.96900 26.22600
H  1.25600 0.98300 24.88300
H  1.12500 0.71000 22.60100
H  0.04800 0.28500 21.37500
H  -0.75000 0.70800 22.85400
H  -0.58900 7.37700 19.68000
H  0.87600 9.82900 20.18400
H  1.27800 6.81000 18.55000
H  2.18800 6.59500 20.05200
H  2.22500 8.14400 19.52700
H  -1.54200 9.56600 19.20100
H  -0.73700 10.99700 19.81800
H  -2.50000 11.45100 20.84200
H  -2.10900 10.25000 22.08100
H  -3.18000 9.74400 20.65100
H  0.07500 13.38600 23.95100
H  1.87600 13.17600 23.81500
H  1.16600 13.93400 25.22400
H  0.11900 10.60100 29.14500
H  2.84000 10.41200 32.20900
H  2.89800 12.15600 32.23300
H  3.95900 11.17300 31.07400
Mg 48.15100 16.09200 29.01900
C  46.39100 15.50000 31.81200
C  50.49400 17.68500 30.90100
C  49.97200 16.67000 26.26500
C  45.53000 14.60400 27.05700
N  48.47400 16.40100 31.12000
C  47.53900 16.12600 32.10600
C  47.89700 16.72500 33.49100
C  49.19900 17.50000 33.08800
C  49.40400 17.24900 31.61200
C  49.13200 19.04000 33.45900
C  48.22600 15.60400 34.53100
C  47.53600 15.91000 35.85700
H  47.40000 17.34400 36.38000
N  49.99800 16.97700 28.64400
C  50.83400 17.56600 29.54400
C  52.09800 17.98000 28.92300
C  51.94600 17.72700 27.54800
C  50.63800 17.00700 27.44300
C  53.24800 18.48600 29.76600
C  52.88000 18.13500 26.37800
O  52.69000 17.65200 25.23200
C  53.95500 19.20400 26.51300
N  47.74000 15.77400 26.95500
C  48.62400 16.24600 26.03300
C  48.13000 15.94200 24.61500
C  46.73300 15.25900 24.89300
C  46.66600 15.18200 26.33700
C  48.31500 17.23300 23.68900
C  46.53700 13.84400 24.13400
C  46.86400 12.59400 24.94500
N  46.28600 15.22200 29.31500
C  45.42900 14.54200 28.43200
C  44.35500 13.89300 29.21800
C  44.62500 14.27800 30.56500
C  45.84900 15.09800 30.53600
C  43.13900 13.15000 28.78500
C  44.21000 14.25800 31.99300
O  43.29500 13.70000 32.63000
C  45.32500 15.11300 32.78000
C  44.52300 16.25700 33.25800
O  44.26600 17.32000 32.66700
O  43.98400 15.97500 34.51400
C  43.06600 16.91900 35.13900
H  51.20400 18.19000 31.55900
H  50.45300 16.87900 25.30800
H  44.71100 14.14200 26.50100
H  47.11100 17.42400 33.77600
H  49.99100 16.98700 33.63200
H  49.29900 19.80300 32.69900
H  49.90700 19.15200 34.21700
H  48.26000 19.27700 34.06800
H  49.26800 15.45800 34.81500
H  47.75200 14.67700 34.20700
H  48.05200 15.30300 36.60100
H  46.51000 15.61600 35.63700
H  52.92100 18.96400 30.69000
H  53.75500 19.25300 29.18100
H  53.97100 17.69500 29.96300
H  53.42800 19.94700 27.11100
H  54.36200 19.62300 25.59200
H  54.73100 18.74700 27.12800
H  48.69200 15.17100 24.08900
H  45.97400 15.98300 24.59900
H  49.02900 17.06800 22.88200
H  48.71900 18.07400 24.25300
H  47.31700 17.39800 23.28400
H  47.16600 13.87300 23.24400
H  45.54000 13.76700 23.70000
H  45.97200 12.34300 25.51900
H  47.68600 12.89700 25.59400
H  47.14800 11.68300 24.41800
H  42.27500 13.70800 28.42400
H  42.91600 12.44900 29.59000
H  43.49800 12.50900 27.97900
H  45.67600 14.40400 33.53000
H  42.60700 17.64700 34.47100
H  43.49800 17.51300 35.94500
H  42.22900 16.48800 35.68700

