158

Mg 1.74200 -1.82200 44.28900
C  4.82900 -0.60700 43.48000
C  0.30800 0.67000 42.30500
C  -1.37200 -3.25700 44.55100
C  3.11500 -4.54900 45.82200
N  2.53400 -0.26600 42.81900
C  3.85800 0.10600 42.74900
C  3.97500 1.41800 42.02700
C  2.53000 1.78700 41.68300
C  1.70900 0.62800 42.31900
C  2.13700 3.21900 42.15100
C  4.96600 1.45400 40.82700
C  5.86500 2.72500 40.60600
H  6.39800 3.08700 39.21900
N  -0.24800 -1.36000 43.63900
C  -0.58800 -0.25300 42.87900
C  -2.09700 -0.24400 42.68600
C  -2.56000 -1.39800 43.29900
C  -1.39200 -2.10100 43.79400
C  -2.86400 0.79900 41.80000
C  -4.07500 -1.79200 43.34000
O  -4.92700 -1.01600 42.86800
C  -4.64300 -3.07900 43.98400
N  0.98700 -3.57300 45.00200
C  -0.31800 -3.93400 45.12500
C  -0.58000 -5.10400 46.10500
C  0.85100 -5.54000 46.47300
C  1.67200 -4.56000 45.63200
C  -1.49400 -4.78700 47.29200
C  1.21000 -6.97800 45.98100
C  2.06300 -7.76300 46.93300
N  3.60500 -2.42300 44.72100
C  4.06900 -3.57300 45.38900
C  5.48400 -3.49400 45.56700
C  5.87200 -2.32100 44.87800
C  4.67300 -1.80400 44.31400
C  6.40600 -4.43400 46.26600
C  6.97200 -1.47200 44.59300
O  8.14400 -1.57100 44.92400
C  6.32100 -0.34400 43.66200
C  6.48400 0.94800 44.38200
O  5.72300 1.26900 45.23900
O  7.48800 1.80100 43.82400
C  7.38200 3.15000 44.34600
H  -0.19300 1.42300 41.69300
H  -2.27800 -3.79900 44.82800
H  3.46500 -5.43700 46.35200
H  4.35400 2.16400 42.72600
H  2.45000 1.63000 40.60700
H  2.31300 3.96900 41.38000
H  2.73400 3.52700 43.00900
H  1.10300 3.38700 42.45300
H  4.45500 1.35700 39.87000
H  5.62300 0.59800 40.98100
H  6.71500 2.63600 41.28300
H  5.31200 3.63500 40.83800
H  -3.29900 0.33700 40.91300
H  -2.06800 1.50500 41.56600
H  -3.69000 1.31700 42.28800
H  -4.25900 -3.03900 45.00300
H  -4.33000 -3.96300 43.42900
H  -5.72900 -3.10600 44.08000
H  -1.12200 -5.88900 45.57800
H  1.01700 -5.32500 47.52800
H  -1.77800 -3.75900 47.06500
H  -1.12100 -4.90800 48.30900
H  -2.35800 -5.42400 47.10300
H  1.71600 -7.02800 45.01700
H  0.26700 -7.50500 45.83900
H  1.53000 -8.67600 47.19800
H  2.37800 -7.36000 47.89600
H  2.99300 -7.96200 46.40100
H  5.87900 -4.72400 47.17500
H  7.33700 -4.00600 46.63900
H  6.69200 -5.26400 45.62100
H  6.89800 -0.25600 42.74100
H  8.28000 3.64800 43.98100
H  7.42400 3.18700 45.43500
H  6.45600 3.59900 43.98700
Mg -11.58900 16.17500 41.48100
C  -8.45300 14.66400 41.18500
C  -10.09400 19.05600 40.45200
C  -14.65100 17.42200 40.87800
C  -13.02300 13.06700 42.16900
N  -9.55600 16.70400 40.60700
C  -8.38600 15.94600 40.71000
C  -7.14800 16.72300 40.32100
C  -7.63700 18.17200 40.46000
C  -9.18900 17.98900 40.50600
C  -7.09700 18.94000 41.74100
C  -6.58100 16.42400 38.88400
C  -5.05600 16.43400 38.76200
H  -4.64500 16.93500 37.40300
N  -12.33800 17.91600 40.86700
C  -11.54700 19.02200 40.58300
C  -12.41400 20.14400 40.25500
C  -13.78500 19.76500 40.33800
C  -13.60800 18.31100 40.71800
C  -11.89700 21.46900 39.94500
C  -15.02500 20.49600 39.91600
O  -14.89900 21.62600 39.49200
C  -16.43000 19.96700 40.06300
N  -13.63100 15.32100 41.46100
C  -14.67700 16.03700 41.26400
C  -15.97200 15.22800 41.48300
C  -15.44300 13.82300 41.94200
C  -13.93700 14.10900 41.96900
C  -16.94900 15.92800 42.51800
C  -15.72700 12.70800 40.96600
C  -16.18500 11.36200 41.63100
N  -10.90500 14.24500 41.82900
C  -11.55700 13.09400 42.19500
C  -10.57800 12.05600 42.48900
C  -9.33200 12.62800 42.13400
C  -9.60800 13.90900 41.63600
C  -10.90700 10.63000 42.96400
C  -7.87400 12.43800 42.10500
O  -7.08600 11.62400 42.60700
C  -7.29300 13.71600 41.40200
C  -6.29300 14.28300 42.39300
O  -6.57700 14.84200 43.45000
O  -5.02500 14.01300 41.98800
C  -3.98600 14.55800 42.82300
H  -9.66800 20.03900 40.24100
H  -15.63900 17.87400 40.77500
H  -13.51700 12.10600 42.32800
H  -6.32500 16.50800 41.00400
H  -7.49000 18.73500 39.53800
H  -7.95300 19.09200 42.39900
H  -6.87000 19.99100 41.56200
H  -6.35200 18.31700 42.23500
H  -6.87100 17.03800 38.03200
H  -6.80500 15.38300 38.65200
H  -4.66200 15.42200 38.85800
H  -4.56700 17.03400 39.53000
H  -12.14800 21.66000 38.90200
H  -10.84700 21.70200 40.11800
H  -12.33900 22.25200 40.56100
H  -17.24700 20.68100 39.96400
H  -16.47700 19.65600 41.10700
H  -16.59500 19.08400 39.44500
H  -16.42500 15.20100 40.49100
H  -15.86300 13.52200 42.90100
H  -17.89100 16.16200 42.02100
H  -16.45700 16.85400 42.81700
H  -17.16300 15.25200 43.34600
H  -14.99700 12.42200 40.20900
H  -16.63900 12.94700 40.41900
H  -16.21400 11.47000 42.71500
H  -15.47700 10.61600 41.27200
H  -17.22700 11.06700 41.50600
H  -11.84500 10.68300 43.51600
H  -10.10400 10.12800 43.50400
H  -11.07100 10.15500 41.99700
H  -6.83200 13.40800 40.46300
H  -4.17100 15.63200 42.83400
H  -3.00800 14.19500 42.50600
H  -4.18100 14.24200 43.84800

