158

Mg 35.48000 0.79500 29.29200
C  33.38500 1.95000 31.88300
C  37.96800 0.77800 31.51300
C  37.45000 0.06100 26.79900
C  32.73000 1.19400 26.98600
N  35.65900 1.42800 31.48300
C  34.59800 1.66600 32.37000
C  35.05100 1.75600 33.83400
C  36.55900 1.24900 33.69400
C  36.77500 1.16800 32.11300
C  37.66700 2.08000 34.41700
C  34.25800 0.82600 34.74800
C  33.67200 1.46800 36.00000
H  34.70300 2.30500 36.84100
N  37.45200 0.42300 29.16900
C  38.37000 0.46700 30.18700
C  39.63500 -0.10000 29.70600
C  39.54100 -0.16300 28.31800
C  38.13200 0.11100 28.05300
C  40.73400 -0.43000 30.65800
C  40.54100 -0.48700 27.25600
O  40.27200 -0.60400 26.06700
C  41.85100 -0.81200 27.82100
N  35.14700 0.70400 27.18600
C  36.19800 0.43800 26.34900
C  35.67500 0.48500 24.82900
C  34.09500 0.51900 24.97400
C  33.94800 0.79200 26.46300
C  36.35500 1.60700 24.00800
C  33.46700 -0.81000 24.50100
C  32.83000 -0.71800 23.12100
N  33.50100 1.37500 29.41500
C  32.52500 1.50400 28.41100
C  31.31500 2.03500 28.96700
C  31.59300 2.23700 30.39100
C  32.90900 1.84500 30.54300
C  30.04500 2.24500 28.22700
C  31.08800 2.67200 31.67600
O  29.99100 3.12100 31.98100
C  32.27400 2.60700 32.69000
C  32.53100 3.91900 33.08700
O  32.97400 4.85800 32.43400
O  32.18900 3.99200 34.42600
C  32.31500 5.28800 35.09700
H  38.79800 0.44100 32.13800
H  37.86000 -0.34000 25.87000
H  31.90000 1.05500 26.28900
H  35.13400 2.77900 34.20000
H  36.69200 0.22300 34.03700
H  38.29400 2.60000 33.69300
H  38.19500 1.61700 35.25100
H  37.20200 2.91200 34.94700
H  34.89400 0.02000 35.11200
H  33.46600 0.29300 34.22200
H  33.14200 0.71700 36.58600
H  32.80500 2.08000 35.75300
H  41.53500 0.29500 30.80200
H  41.04900 -1.40700 30.29200
H  40.28300 -0.72900 31.60400
H  42.11800 0.08800 28.37400
H  42.57500 -1.03900 27.03900
H  41.79400 -1.71600 28.42800
H  36.03000 -0.43000 24.35300
H  33.82900 1.39300 24.38000
H  36.96900 1.25200 23.18100
H  37.02300 2.09100 24.72100
H  35.62600 2.39000 23.79700
H  32.68800 -1.00600 25.23800
H  34.06200 -1.70600 24.67700
H  33.46900 -0.06100 22.53100
H  31.76200 -0.50200 23.08400
H  32.90400 -1.70900 22.67200
H  29.25300 2.58600 28.89300
H  29.84600 1.31400 27.69700
H  30.14100 2.99900 27.44500
H  31.94000 1.93400 33.48000
H  32.90000 6.05300 34.58700
H  32.64600 5.04100 36.10600
H  31.37100 5.78600 35.31600
Mg 47.31000 34.80600 28.51500
C  45.43600 33.28500 30.94500
C  47.56600 37.51100 30.73200
C  48.28600 36.80800 25.94500
C  46.36700 32.34400 26.23900
N  46.52500 35.31300 30.57700
C  45.94800 34.45100 31.41800
C  45.99400 34.98800 32.86000
C  46.18400 36.53200 32.65600
C  46.76200 36.47700 31.20700
C  44.83300 37.33000 32.66100
C  47.15700 34.39900 33.64600
C  47.13000 34.06000 35.13700
H  46.44600 35.04100 36.11300
N  47.92900 36.80800 28.38800
C  48.14600 37.70600 29.44400
C  48.98200 38.82200 29.01800
C  48.97000 38.68100 27.57600
C  48.39200 37.42300 27.22400
C  49.59000 39.86700 30.03700
C  49.70700 39.55700 26.61000
O  49.90500 39.27200 25.46000
C  50.27800 40.94600 27.08800
N  47.41800 34.44500 26.43200
C  47.88200 35.53900 25.62800
C  47.93500 34.98800 24.14600
C  47.46900 33.53900 24.17800
C  47.12000 33.37100 25.64700
C  47.27300 35.90500 23.11000
C  48.48700 32.51000 23.79500
C  48.14600 31.32700 22.90800
N  46.29800 33.06600 28.51500
C  46.01400 32.17500 27.55100
C  45.32900 30.98800 28.18200
C  45.06000 31.38800 29.52800
C  45.62400 32.70100 29.64600
C  44.79100 29.72300 27.42300
C  44.42200 31.06500 30.80400
O  43.90500 30.03800 31.15700
C  44.53100 32.35300 31.68900
C  44.73700 32.11200 33.14000
O  45.40100 31.24300 33.66200
O  43.73500 32.69900 33.77800
C  43.51500 32.57400 35.25200
H  47.85000 38.30100 31.43000
H  48.27200 37.45500 25.06500
H  46.03700 31.52900 25.59300
H  45.10500 34.78400 33.45600
H  46.91000 36.97400 33.33800
H  43.99700 36.64000 32.54900
H  44.90700 38.01300 31.81500
H  44.64500 37.92700 33.55400
H  47.94700 35.14700 33.71200
H  47.67300 33.56000 33.17900
H  48.04300 33.70700 35.61700
H  46.49200 33.17600 35.09900
H  49.98800 39.31000 30.88600
H  48.89800 40.63800 30.37500
H  50.46700 40.37200 29.63400
H  51.23600 40.87300 27.60300
H  49.50600 41.38600 27.71900
H  50.56800 41.55800 26.23400
H  49.02200 34.97600 24.06700
H  46.51200 33.44200 23.66500
H  46.62800 35.31200 22.46100
H  47.98800 36.47800 22.52000
H  46.66600 36.65700 23.61500
H  48.83200 31.96900 24.67600
H  49.34600 32.99600 23.33300
H  48.95700 31.00500 22.25600
H  47.21100 31.42100 22.35600
H  48.02600 30.47400 23.57600
H  44.51000 29.82000 26.37400
H  43.95100 29.48300 28.07400
H  45.45300 28.86800 27.55700
H  43.49600 32.68200 31.60300
H  42.72900 31.83400 35.40300
H  43.16500 33.53000 35.64200
H  44.43700 32.30800 35.76800

