158

Mg 2.27800 -1.47400 43.58100
C  5.73800 -0.90200 43.44300
C  1.75400 1.32400 41.62300
C  -0.97300 -2.44500 43.28700
C  3.01800 -4.60400 45.18200
N  3.61500 -0.06500 42.48000
C  4.99700 0.04500 42.64200
C  5.54700 1.14400 41.70300
C  4.29100 2.02700 41.50900
C  3.14100 1.03300 41.82200
C  4.22500 3.49800 41.95700
C  6.12600 0.56100 40.37000
C  7.46400 1.21800 39.96000
H  7.70200 1.47400 38.45600
N  0.66200 -0.56500 42.76300
C  0.62600 0.56100 42.01300
C  -0.72400 0.87900 41.73400
C  -1.55100 -0.09500 42.21200
C  -0.62600 -1.16600 42.72600
C  -1.27500 2.19900 41.03100
C  -3.07400 -0.18300 42.12700
O  -3.70000 0.83500 41.81100
C  -3.90800 -1.28100 42.49900
N  1.21300 -3.31300 44.02000
C  -0.15100 -3.44700 43.88700
C  -0.58300 -4.83300 44.22000
C  0.63600 -5.44200 44.97500
C  1.71900 -4.42200 44.58800
C  -1.95700 -4.93000 44.96900
C  1.08600 -6.86800 44.40800
C  1.49400 -7.77500 45.63300
N  4.02200 -2.63700 44.09000
C  4.12900 -3.82000 44.88300
C  5.50800 -4.01300 45.25500
C  6.15000 -2.84700 44.73600
C  5.22600 -2.10100 44.02600
C  6.11500 -5.12900 45.87300
C  7.40800 -2.12500 44.65500
O  8.48500 -2.44000 45.15100
C  7.22500 -0.87100 43.81000
C  7.55200 0.31400 44.65000
O  6.79500 0.87700 45.41400
O  8.79800 0.81000 44.25100
C  9.04100 2.21200 44.69600
H  1.38700 2.25800 41.19100
H  -2.02200 -2.70900 43.13300
H  3.23200 -5.35800 45.94200
H  6.26300 1.80300 42.19400
H  4.24300 2.26900 40.44700
H  4.27300 4.21900 41.14100
H  5.06200 3.74900 42.60900
H  3.27000 3.45600 42.48000
H  5.44500 0.70200 39.53000
H  6.18800 -0.52200 40.48400
H  8.26100 0.60000 40.37500
H  7.55300 2.14800 40.52200
H  -1.87900 1.83200 40.20200
H  -0.50500 2.91000 40.73100
H  -2.01300 2.67400 41.67700
H  -4.93900 -0.94500 42.39200
H  -3.64700 -1.68600 43.47700
H  -3.79500 -2.10600 41.79500
H  -0.62500 -5.39200 43.28500
H  0.44900 -5.31400 46.04200
H  -2.58600 -4.05600 44.80200
H  -1.71200 -4.91800 46.03100
H  -2.49000 -5.86400 44.78700
H  1.87600 -6.82300 43.65900
H  0.18200 -7.38900 44.09300
H  2.50800 -8.10200 45.40700
H  0.78600 -8.60400 45.60500
H  1.56500 -7.19500 46.55300
H  6.39600 -5.90300 45.15800
H  5.35700 -5.60900 46.49200
H  6.93200 -4.78000 46.50500
H  7.89300 -0.91100 42.95000
H  10.04600 2.45600 44.35100
H  8.99500 2.32100 45.78000
H  8.38700 2.98400 44.29000
Mg 35.51500 1.12300 29.59900
C  33.49500 2.60200 32.03500
C  38.07300 1.09900 31.95000
C  37.59800 0.52700 27.16200
C  32.93500 1.64200 27.42600
N  35.75200 1.77400 31.76800
C  34.75800 2.28200 32.52400
C  35.21100 2.39400 33.97300
C  36.74400 2.15100 33.84500
C  36.88000 1.62200 32.45800
C  37.62600 3.44600 33.98700
C  34.52500 1.35600 34.97700
C  33.82600 1.92800 36.25200
H  34.64900 2.80200 37.10600
N  37.62500 0.65900 29.53500
C  38.45900 0.72300 30.58500
C  39.80200 0.36800 30.17900
C  39.76000 0.28100 28.70600
C  38.25300 0.46000 28.41600
C  41.00500 0.30800 31.22700
C  40.79900 -0.10800 27.68300
O  40.66000 -0.11900 26.48800
C  42.22000 -0.43400 28.13300
N  35.27300 1.00400 27.68300
C  36.32500 0.71900 26.84200
C  35.81000 0.54900 25.37300
C  34.28700 0.75000 25.51400
C  34.11600 1.09600 27.01800
C  36.57700 1.45300 24.32400
C  33.40100 -0.53700 25.13200
C  31.95400 -0.15300 24.74200
N  33.42400 1.79800 29.68400
C  32.55000 1.99700 28.70900
C  31.34700 2.65900 29.23100
C  31.69600 2.92600 30.52900
C  32.94500 2.41200 30.75200
C  30.09300 2.89400 28.46500
C  31.21700 3.55400 31.67400
O  30.24700 4.22100 31.94200
C  32.30100 3.31400 32.73400
C  32.76500 4.52200 33.39300
O  33.66000 5.26400 32.93700
O  31.98500 4.76600 34.52100
C  32.43400 5.94800 35.32600
H  38.85400 1.00600 32.70700
H  38.24400 0.44000 26.28500
H  32.25300 1.84500 26.59700
H  34.94100 3.42100 34.22000
H  37.02500 1.43500 34.61700
H  36.90700 4.16600 34.37900
H  38.21100 3.62900 33.08600
H  38.31100 3.22900 34.80600
H  35.15700 0.56400 35.37700
H  33.68600 0.92200 34.43300
H  33.39000 1.09700 36.80700
H  32.92400 2.48000 35.98700
H  41.83900 -0.23100 30.77600
H  40.89200 -0.24100 32.16200
H  41.32500 1.30000 31.54500
H  42.78500 -0.15900 27.24200
H  42.34400 -1.46300 28.47000
H  42.47200 0.26600 28.92900
H  36.07100 -0.47800 25.11400
H  33.94700 1.60100 24.92300
H  37.29900 0.95900 23.67300
H  37.13100 2.24300 24.83100
H  36.00500 1.83600 23.47800
H  33.46400 -1.22900 25.97100
H  33.90300 -1.03300 24.30100
H  31.81100 -0.59000 23.75400
H  31.76600 0.92000 24.68700
H  31.19500 -0.52700 25.42900
H  30.31300 3.27900 27.46900
H  29.64800 3.74600 28.97900
H  29.43600 2.02900 28.55400
H  31.90400 2.67300 33.52100
H  31.74800 6.77200 35.12900
H  33.44000 6.35200 35.20500
H  32.44000 5.79400 36.40500

