158

Mg 42.76600 41.98100 26.34300
C  41.84000 43.99000 28.81600
C  44.10700 39.74000 28.52800
C  43.95600 40.16500 23.63700
C  41.66200 44.43300 23.93500
N  42.87500 41.85700 28.44900
C  42.26000 42.74600 29.30800
C  42.38600 42.21600 30.78900
C  43.19300 40.91700 30.65800
C  43.34700 40.76800 29.11200
C  44.51500 40.84200 31.42700
C  40.91900 42.22200 31.48800
C  40.76900 41.43600 32.77100
H  39.84300 41.99300 33.86500
N  43.81600 40.23100 26.09600
C  44.35700 39.50800 27.14600
C  44.95400 38.33900 26.56600
C  44.89300 38.34200 25.19100
C  44.21500 39.64400 24.94200
C  45.60000 37.34500 27.44300
C  45.40500 37.39200 24.15800
O  45.18600 37.56600 22.99900
C  46.11000 36.20900 24.62800
N  42.76200 42.23100 24.08600
C  43.32600 41.29600 23.20200
C  42.98100 41.60000 21.72500
C  42.01600 42.86500 21.88500
C  42.08700 43.20200 23.39000
C  44.24000 41.93000 20.88000
C  40.55900 42.68500 21.38400
C  39.51200 42.22700 22.45100
N  41.85700 43.81300 26.36000
C  41.65400 44.76400 25.38200
C  41.19600 45.97800 26.05300
C  41.22400 45.69200 27.44200
C  41.66100 44.37300 27.51800
C  40.70100 47.29400 25.45200
C  40.88800 46.22800 28.74600
O  40.39600 47.30300 29.08900
C  41.44500 45.13300 29.67500
C  42.67800 45.55900 30.48800
O  43.87200 45.51900 30.11300
O  42.29700 45.90000 31.73400
C  43.43100 46.28300 32.59800
H  44.58700 39.07900 29.25300
H  44.37200 39.70700 22.73700
H  41.26800 45.28800 23.38300
H  42.93200 42.95500 31.37600
H  42.53100 40.10200 30.95100
H  44.81000 41.79600 31.86500
H  45.29000 40.56300 30.71200
H  44.64000 40.06300 32.17900
H  40.13100 42.02000 30.76300
H  40.67500 43.22600 31.83500
H  41.74300 41.14700 33.16600
H  40.24400 40.52700 32.47800
H  46.61500 37.11900 27.11500
H  45.08200 36.40400 27.25900
H  45.75900 37.61400 28.48700
H  46.23500 35.55000 23.76900
H  45.46600 35.72300 25.36000
H  47.04600 36.48700 25.11200
H  42.39400 40.73800 21.40900
H  42.55800 43.62100 21.31800
H  45.17700 42.01400 21.43200
H  44.15600 42.77700 20.20000
H  44.23400 41.01400 20.28800
H  40.50700 42.06500 20.48900
H  40.18900 43.64100 21.01500
H  39.04000 43.03800 23.00600
H  39.97900 41.49900 23.11500
H  38.80800 41.50200 22.04400
H  40.65600 47.26300 24.36400
H  41.36300 48.10300 25.76200
H  39.69400 47.53100 25.79500
H  40.61500 44.94300 30.35500
H  43.64200 47.35200 32.61000
H  44.36600 45.74700 32.43300
H  43.23300 46.17900 33.66500
Mg -0.76500 34.06600 26.86900
C  -2.58100 32.35700 29.30500
C  0.78500 35.80600 29.25400
C  0.60100 35.86800 24.35600
C  -2.55100 32.22400 24.35000
N  -1.04800 34.23600 29.09200
C  -1.72100 33.31600 29.88800
C  -1.41600 33.63200 31.41500
C  -0.48800 34.83800 31.34300
C  -0.18200 34.99000 29.83600
C  -1.16900 36.10200 31.96300
C  -0.68400 32.38300 32.03400
C  -1.52200 31.65500 33.09600
H  -0.94200 31.42300 34.51900
N  0.49100 35.55100 26.79700
C  1.12500 36.07800 27.87800
C  2.00100 37.12100 27.48200
C  1.88900 37.24000 26.05000
C  0.93400 36.19600 25.66600
C  2.91500 37.85600 28.45900
C  2.68400 38.16100 25.09900
O  2.72900 38.15500 23.82700
C  3.62600 39.14500 25.73400
N  -1.06100 34.18700 24.55900
C  -0.32400 35.03300 23.80800
C  -0.74200 34.84400 22.29800
C  -1.65900 33.58600 22.39900
C  -1.78900 33.28500 23.86700
C  -1.43800 36.03400 21.69200
C  -0.97300 32.38200 21.67300
C  -0.11200 31.29500 22.36500
N  -2.15900 32.56300 26.76000
C  -2.78000 31.92300 25.65700
C  -3.69500 30.96800 26.18000
C  -3.64300 31.09400 27.58900
C  -2.69100 32.06800 27.89500
C  -4.46000 29.95000 25.44600
C  -4.13600 30.52000 28.78400
O  -4.88500 29.56900 28.93700
C  -3.43700 31.30000 30.00800
C  -4.55100 31.81100 30.86000
O  -5.43300 32.58200 30.51100
O  -4.61500 31.12000 32.04200
C  -5.61700 31.42800 33.02200
H  1.40400 36.21900 30.05300
H  1.04400 36.50300 23.58600
H  -2.98600 31.50300 23.65500
H  -2.44400 33.71100 31.76700
H  0.40100 34.74000 31.96600
H  -2.02300 35.70700 32.51400
H  -1.51300 36.79300 31.19400
H  -0.54500 36.62900 32.68400
H  0.31700 32.59700 32.40900
H  -0.54100 31.63300 31.25600
H  -1.63800 30.67900 32.62300
H  -2.50800 32.11400 33.17200
H  3.93200 37.64400 28.12900
H  2.92900 37.56800 29.51000
H  2.65600 38.91200 28.37700
H  2.98100 39.59900 26.48600
H  3.92600 39.83900 24.94900
H  4.58000 38.74400 26.07600
H  0.15100 34.79900 21.67600
H  -2.67000 33.81100 22.05900
H  -1.24600 35.95600 20.62100
H  -1.10600 37.01500 22.03200
H  -2.51200 35.95700 21.85900
H  -0.33700 32.78700 20.88600
H  -1.77800 31.76100 21.28000
H  0.15500 31.45600 23.40900
H  0.89600 31.43100 21.97300
H  -0.51200 30.29000 22.23000
H  -3.81900 29.59700 24.63800
H  -5.39300 30.39800 25.10500
H  -4.76300 29.10300 26.06100
H  -2.87700 30.52900 30.53900
H  -5.08800 31.59000 33.96100
H  -6.25400 30.54700 33.10600
H  -6.26500 32.28300 32.82900

