158

Mg 17.12200 -1.54900 28.04800
C  16.15500 0.48800 30.81500
C  19.31200 -3.19400 30.25000
C  18.61400 -3.01900 25.37200
C  15.45800 0.53300 25.89900
N  17.87300 -1.28200 30.27800
C  17.09400 -0.54000 31.22200
C  17.43600 -0.99000 32.65400
C  18.50100 -2.09000 32.43400
C  18.56200 -2.24200 30.90900
C  19.97600 -1.72000 32.89200
C  16.23100 -1.60400 33.42100
C  16.01300 -1.25000 34.92200
H  17.15300 -0.71500 35.76700
N  18.69900 -2.90000 27.86500
C  19.44100 -3.48200 28.89000
C  20.23000 -4.54300 28.35100
C  19.93900 -4.60100 26.94500
C  19.05700 -3.48300 26.66500
C  21.23800 -5.44700 29.13900
C  20.52700 -5.60500 25.87500
O  20.21500 -5.45600 24.67400
C  21.39900 -6.77500 26.19000
N  17.10000 -1.33100 25.85500
C  17.82900 -1.92700 25.01100
C  17.56100 -1.53100 23.50400
C  16.32800 -0.63100 23.75800
C  16.30300 -0.37700 25.26600
C  18.79500 -0.79600 22.81400
C  14.94800 -1.27100 23.28400
C  13.91700 -0.27100 22.93700
N  15.88700 0.02600 28.31000
C  15.31600 0.79800 27.26900
C  14.49900 1.81000 27.93100
C  14.77000 1.73100 29.26300
C  15.64000 0.66300 29.48800
C  13.66400 2.72700 27.17500
C  14.57500 2.32800 30.61000
O  13.87900 3.21200 30.97200
C  15.28300 1.43000 31.61800
C  16.00600 2.24500 32.55600
O  17.18300 2.63800 32.48300
O  15.17800 2.48000 33.68200
C  15.72400 3.31500 34.77400
H  19.78000 -3.85900 30.97900
H  19.10900 -3.27500 24.43300
H  14.77700 1.16400 25.32500
H  17.77000 -0.13600 33.24300
H  18.16700 -2.99000 32.95000
H  20.72600 -1.70000 32.10200
H  20.29300 -2.52400 33.55600
H  20.00100 -0.73000 33.34700
H  16.31000 -2.69100 33.41100
H  15.35800 -1.34200 32.82300
H  15.63500 -2.16900 35.37100
H  15.11700 -0.64600 35.06700
H  20.84900 -6.45600 29.27800
H  21.18700 -5.08400 30.16500
H  22.28200 -5.44300 28.82500
H  21.62000 -7.34800 25.29000
H  21.04300 -7.39900 27.00900
H  22.30800 -6.25800 26.49700
H  17.30700 -2.49100 23.05600
H  16.43500 0.37100 23.34200
H  19.42300 -1.39800 22.15800
H  19.45700 -0.57200 23.65000
H  18.40400 0.11400 22.35800
H  14.64300 -1.96600 24.06600
H  15.20600 -1.84800 22.39500
H  13.06000 -0.35700 23.60500
H  13.63500 -0.36900 21.88900
H  14.42200 0.69500 22.94300
H  13.29500 3.50800 27.83900
H  12.82600 2.28700 26.63400
H  14.28500 3.02600 26.33100
H  14.59800 0.79700 32.18200
H  14.93600 3.95800 35.16500
H  16.44100 4.04800 34.40300
H  16.31000 2.88100 35.58500
Mg 9.51300 48.05800 25.34600
C  7.68300 48.10800 28.18300
C  12.14400 49.62900 26.84800
C  11.19700 47.97100 22.31700
C  6.72300 46.73500 23.58300
N  9.74700 48.99700 27.17600
C  8.88800 48.81000 28.29900
C  9.42100 49.57200 29.56500
C  10.81600 50.02100 29.01500
C  10.94200 49.61700 27.52100
C  11.13200 51.58300 29.14000
C  9.42100 48.76100 30.86600
C  10.50400 49.09400 31.93800
H  10.08300 49.09600 33.38600
N  11.48800 48.51800 24.76400
C  12.42000 49.13200 25.55400
C  13.65700 49.21900 24.81200
C  13.40400 48.72300 23.51000
C  11.93000 48.41900 23.48700
C  14.89300 49.86400 25.33400
C  14.21900 48.55400 22.27900
O  13.94500 48.19700 21.14000
C  15.64000 48.87000 22.37800
N  9.10200 47.38900 23.29100
C  9.92700 47.48700 22.18900
C  9.30000 46.90600 20.84800
C  7.96200 46.32000 21.36400
C  7.91200 46.75200 22.84600
C  9.27000 47.90700 19.70700
C  7.87900 44.75600 21.24300
C  8.70000 43.86000 22.16400
N  7.55600 47.64300 25.73100
C  6.58700 47.16400 24.91800
C  5.38500 47.04900 25.76300
C  5.77100 47.32100 27.06900
C  7.11200 47.65200 26.98500
C  4.03700 46.43800 25.35600
C  5.44400 47.26200 28.53400
O  4.44300 46.90500 29.14300
C  6.68200 47.76500 29.29000
C  7.06800 46.69200 30.17600
O  7.80400 45.73400 29.92900
O  6.64600 46.92600 31.43700
C  7.00800 45.88600 32.38300
H  12.98300 50.10900 27.35600
H  11.80400 47.80500 21.42500
H  5.88000 46.33800 23.01300
H  8.73400 50.40700 29.70300
H  11.54600 49.42100 29.55800
H  11.36800 51.93800 28.13600
H  12.07700 51.76200 29.65300
H  10.37300 52.21400 29.60300
H  9.53000 47.73200 30.52500
H  8.41600 48.94300 31.24700
H  10.78400 50.12200 31.70600
H  11.43700 48.55500 31.77400
H  15.47500 50.46000 24.63200
H  15.56600 49.05900 25.62900
H  14.67900 50.36900 26.27600
H  16.13200 48.63700 21.43400
H  16.03000 48.17900 23.12600
H  15.85000 49.92800 22.53200
H  9.99800 46.13000 20.53200
H  7.18300 46.80400 20.77400
H  8.77300 48.85000 19.93300
H  8.61300 47.45100 18.96600
H  10.28400 48.02500 19.32400
H  8.27800 44.54000 20.25200
H  6.82000 44.51200 21.15600
H  9.12500 43.02600 21.60500
H  8.01300 43.41800 22.88500
H  9.44800 44.39500 22.74900
H  3.47600 47.05200 24.65200
H  3.47600 46.24600 26.27100
H  4.22300 45.48600 24.85800
H  6.55400 48.59200 29.98800
H  6.15200 45.21100 32.40300
H  7.13600 46.27700 33.39200
H  7.94900 45.42000 32.09100

