158

Mg 0.65500 43.73600 26.02200
C  2.89200 43.25400 28.53200
C  -1.92800 43.41300 28.29400
C  -1.45700 43.66900 23.39400
C  3.36300 43.69400 23.74100
N  0.49500 43.65000 28.19200
C  1.61000 43.48800 28.94900
C  1.16800 43.51900 30.49000
C  -0.40900 43.31800 30.33600
C  -0.66700 43.57700 28.86500
C  -1.12700 41.95800 30.81400
C  1.71900 44.79900 31.32200
C  1.33600 44.90300 32.82100
H  0.95400 43.61500 33.59400
N  -1.47000 43.45700 25.89100
C  -2.37500 43.38700 26.94000
C  -3.69400 43.41700 26.36800
C  -3.55100 43.48800 24.92300
C  -2.10600 43.60400 24.68000
C  -4.95000 43.56700 27.20300
C  -4.55600 43.34700 23.83000
O  -4.29300 43.31000 22.59900
C  -6.00900 43.10500 24.23000
N  0.90000 43.67000 23.89800
C  -0.12600 43.64400 23.05300
C  0.33900 43.68700 21.60100
C  1.87800 43.83500 21.68500
C  2.09700 43.66800 23.17800
C  -0.29400 42.65200 20.64100
C  2.48000 45.11700 21.07700
C  2.04500 45.47400 19.66000
N  2.71200 43.67400 26.06500
C  3.70500 43.59400 25.06800
C  4.92300 43.48700 25.70900
C  4.67200 43.24400 26.99600
C  3.32500 43.39200 27.20400
C  6.24800 43.74900 25.02500
C  5.37100 43.01700 28.25700
O  6.54100 42.99300 28.57900
C  4.20800 43.05700 29.26600
C  4.30600 41.86100 30.13200
O  3.74500 40.80700 29.94300
O  5.00600 42.18500 31.29800
C  5.14800 41.15600 32.40500
H  -2.75200 43.17900 28.97100
H  -2.13200 43.81800 22.54900
H  4.13700 43.66400 22.97200
H  1.51800 42.61100 30.98000
H  -0.92700 44.13300 30.84100
H  -0.36400 41.25500 31.14600
H  -1.69600 41.44400 30.03900
H  -1.88800 42.21200 31.55100
H  1.32400 45.63200 30.74000
H  2.79900 44.93400 31.26900
H  0.53600 45.61600 33.02000
H  2.11000 45.29800 33.47800
H  -5.74900 44.07700 26.66500
H  -4.74200 44.16100 28.09400
H  -5.39000 42.61700 27.50700
H  -6.48200 44.05400 24.48100
H  -5.85700 42.42400 25.06800
H  -6.50200 42.75200 23.32500
H  0.02800 44.68300 21.28500
H  2.28600 43.01700 21.09100
H  -0.81200 41.80000 21.08200
H  0.40600 42.21800 19.92700
H  -1.07100 43.16200 20.07300
H  3.56900 45.10600 21.13300
H  2.20100 45.92900 21.74800
H  1.42600 44.66000 19.28300
H  2.97200 45.44300 19.08800
H  1.56000 46.43500 19.49000
H  6.41500 44.81300 24.85700
H  6.40100 43.16300 24.11900
H  7.01000 43.26100 25.63300
H  4.47000 43.89700 29.91000
H  4.73300 41.60200 33.30800
H  6.19000 40.97800 32.67000
H  4.70200 40.17300 32.25300
Mg -5.23200 25.35500 26.00200
C  -4.21500 27.06400 28.86100
C  -7.06000 23.22500 28.00900
C  -5.83700 23.57500 23.22400
C  -3.26600 27.64700 24.01100
N  -5.49800 25.14400 28.18000
C  -5.00200 25.97800 29.16600
C  -5.52000 25.55800 30.53900
C  -6.38100 24.24800 30.29100
C  -6.32900 24.16900 28.71700
C  -5.79100 23.00100 31.00900
C  -6.44600 26.65900 31.20200
C  -6.28000 26.88600 32.64400
H  -5.83200 25.75500 33.47600
N  -6.22500 23.67100 25.68400
C  -7.01900 22.94300 26.58000
C  -7.56100 21.72900 25.92700
C  -7.35000 21.91700 24.52900
C  -6.38500 23.07600 24.46700
C  -8.45800 20.89300 26.65100
C  -7.77100 20.98400 23.41800
O  -7.40900 21.22900 22.28100
C  -8.66900 19.78500 23.63000
N  -4.37700 25.46500 23.89200
C  -5.01400 24.65100 22.96900
C  -4.61800 25.03900 21.56900
C  -3.78300 26.39500 21.82900
C  -3.88600 26.59200 23.33500
C  -3.85900 23.89800 20.91000
C  -4.16000 27.63600 20.95300
C  -3.01100 28.30700 20.21800
N  -3.92400 26.98100 26.30000
C  -3.28200 27.85000 25.39900
C  -2.62200 28.90100 26.17200
C  -2.95300 28.59500 27.49400
C  -3.70000 27.37800 27.55500
C  -1.89600 30.07800 25.55700
C  -2.81700 29.13700 28.83000
O  -2.35200 30.17900 29.26200
C  -3.58000 28.13300 29.77600
C  -2.49600 27.38200 30.59400
O  -1.36500 26.96500 30.17600
O  -2.92800 27.23400 31.87600
C  -2.00900 26.70700 32.90900
H  -7.77300 22.72000 28.66400
H  -6.13800 23.15100 22.26500
H  -2.75200 28.40200 23.41300
H  -4.61100 25.43200 31.12700
H  -7.43700 24.38800 30.52200
H  -4.82900 23.24100 31.46100
H  -5.60400 22.21600 30.27600
H  -6.47900 22.53000 31.71200
H  -7.46600 26.27500 31.18700
H  -6.33700 27.56900 30.61100
H  -7.14100 27.32300 33.14900
H  -5.61400 27.74700 32.70300
H  -8.91500 20.10700 26.05000
H  -9.31400 21.49500 26.95600
H  -7.93700 20.55300 27.54600
H  -9.69500 19.97600 23.94500
H  -8.18000 19.12900 24.35100
H  -8.78100 19.08600 22.80100
H  -5.44200 25.31700 20.91200
H  -2.72200 26.16600 21.73000
H  -3.33200 23.28800 21.64300
H  -3.18700 24.24900 20.12700
H  -4.65600 23.23700 20.57000
H  -4.78300 28.28300 21.57100
H  -4.85200 27.16900 20.25300
H  -3.13700 29.38200 20.34800
H  -3.15700 28.09300 19.15900
H  -2.05200 27.88400 20.51700
H  -2.25300 30.44600 24.59500
H  -0.86800 29.72100 25.50000
H  -2.01800 30.80600 26.35900
H  -4.18300 28.60400 30.55300
H  -0.95700 26.85600 32.66800
H  -2.10700 25.62500 33.00200
H  -2.24900 27.10200 33.89600

