158

Mg -2.44200 16.94100 25.73900
C  -2.68000 14.82200 28.63500
C  -3.30300 19.55500 27.80100
C  -2.51100 18.89300 22.98500
C  -1.85700 14.06400 23.72800
N  -3.20900 17.08600 27.94800
C  -3.07900 16.17400 28.94600
C  -3.33100 16.82400 30.37300
C  -3.60700 18.34100 30.00500
C  -3.34800 18.37500 28.48600
C  -5.11400 18.76100 30.23100
C  -2.39600 16.49300 31.49200
C  -2.51600 17.26900 32.77100
H  -2.19400 16.43500 34.02600
N  -2.83400 18.95900 25.48700
C  -3.07100 19.86300 26.43900
C  -3.17400 21.10500 25.87500
C  -3.00000 21.05400 24.43600
C  -2.79600 19.57900 24.26900
C  -3.45300 22.42700 26.73900
C  -2.98000 22.15300 23.34000
O  -2.83400 21.96200 22.11500
C  -3.20100 23.65500 23.68600
N  -2.29700 16.53600 23.61900
C  -2.34300 17.56100 22.68500
C  -2.05300 17.02600 21.26700
C  -1.79400 15.45800 21.50800
C  -1.91600 15.36800 23.06100
C  -3.14400 17.33300 20.19900
C  -0.46700 14.91800 21.03600
C  0.76900 15.24900 21.93700
N  -2.35800 14.93700 26.06600
C  -2.08900 13.86600 25.11300
C  -2.00500 12.65600 25.80700
C  -2.09200 13.05000 27.20900
C  -2.40000 14.38600 27.34500
C  -1.69200 11.33400 25.34200
C  -1.97600 12.45700 28.53500
O  -1.65400 11.34900 28.89900
C  -2.39600 13.62300 29.52300
C  -1.33500 13.72500 30.49600
O  -0.28000 14.29300 30.23400
O  -1.60800 13.01300 31.59500
C  -0.63600 13.10300 32.73500
H  -3.38000 20.47400 28.38600
H  -2.38500 19.57900 22.14500
H  -1.61400 13.15500 23.17500
H  -4.29100 16.38600 30.64400
H  -2.85800 18.96200 30.49600
H  -5.74100 19.10300 29.40700
H  -5.06500 19.53800 30.99400
H  -5.70800 17.97300 30.69500
H  -1.41900 16.61200 31.02400
H  -2.59000 15.44400 31.71500
H  -3.48300 17.71500 33.00600
H  -1.79700 18.08800 32.74300
H  -4.15400 23.03900 26.17200
H  -2.52500 22.97600 26.89800
H  -3.84200 22.25600 27.74300
H  -2.81200 24.36400 22.95500
H  -2.73700 23.91800 24.63600
H  -4.26800 23.87600 23.71200
H  -1.10000 17.45200 20.95200
H  -2.65100 14.84400 21.23200
H  -3.92700 18.05400 20.43400
H  -3.66900 16.45000 19.83600
H  -2.63900 17.79200 19.34800
H  -0.32200 15.28200 20.01900
H  -0.49300 13.82900 21.04500
H  1.23600 14.35300 22.34800
H  0.43800 15.82400 22.80200
H  1.55900 15.76900 21.39500
H  -1.22600 10.79900 26.16900
H  -1.07900 11.28900 24.44200
H  -2.63600 10.81100 25.18900
H  -3.33200 13.37400 30.02200
H  0.38500 12.89100 32.42000
H  -0.93200 12.41800 33.52900
H  -0.67900 14.15200 33.03000
Mg 35.48700 -0.26700 29.83700
C  33.48300 1.22600 32.24200
C  37.85600 -1.02800 32.30900
C  37.77500 -1.13600 27.42300
C  33.23800 0.81600 27.39000
N  35.59300 0.16400 32.07700
C  34.63500 0.79100 32.83500
C  34.89400 0.58500 34.33300
C  36.49300 0.08700 34.23200
C  36.62900 -0.32300 32.75200
C  37.59700 1.14100 34.61000
C  33.95500 -0.39100 35.02500
C  33.64700 -0.11200 36.46800
H  34.22800 1.09400 37.20800
N  37.50300 -1.05400 29.90800
C  38.27800 -1.36600 31.00400
C  39.48500 -2.10000 30.62500
C  39.47800 -2.08400 29.22100
C  38.18800 -1.41900 28.77900
C  40.43100 -2.78800 31.61800
C  40.47300 -2.63200 28.21900
O  40.27700 -2.76700 27.01800
C  41.81900 -3.07900 28.72000
N  35.49000 -0.21000 27.74600
C  36.54700 -0.60900 26.95600
C  36.29800 -0.23600 25.46100
C  34.74800 0.18800 25.43200
C  34.45900 0.25000 26.95800
C  37.33800 0.76100 24.94200
C  33.75500 -0.79100 24.66100
C  32.39600 -0.17700 24.19100
N  33.64400 0.70600 29.75000
C  32.84700 1.08300 28.70500
C  31.66300 1.69800 29.19000
C  31.83800 1.84500 30.59600
C  33.13200 1.27700 30.84100
C  30.56100 2.13100 28.31400
C  31.29300 2.40500 31.84800
O  30.35800 3.16000 32.12800
C  32.27400 1.90100 32.93900
C  32.69000 3.11100 33.60100
O  33.61100 3.86400 33.34000
O  31.83500 3.22700 34.71700
C  32.01000 4.45000 35.53500
H  38.61700 -1.31000 33.04000
H  38.58300 -1.23100 26.69400
H  32.51500 1.23200 26.68600
H  34.88800 1.51200 34.90600
H  36.72800 -0.69500 34.95400
H  37.07700 2.02500 34.97800
H  38.16500 1.38400 33.71200
H  38.13700 0.77400 35.48300
H  34.57000 -1.28500 34.92100
H  33.05100 -0.49600 34.42400
H  33.95900 -0.97900 37.05000
H  32.56600 -0.00700 36.56200
H  40.32500 -3.85100 31.39900
H  40.09800 -2.51500 32.62000
H  41.45600 -2.42300 31.56600
H  42.32500 -3.42700 27.82000
H  41.79500 -3.85000 29.49100
H  42.27000 -2.18200 29.14300
H  36.43500 -1.11700 24.83500
H  34.71700 1.22700 25.10400
H  37.91400 1.14500 25.78400
H  36.75400 1.56800 24.50100
H  37.90100 0.40800 24.07700
H  33.47100 -1.68900 25.20900
H  34.31700 -1.16800 23.80700
H  32.34700 -0.63900 23.20400
H  32.57800 0.89200 24.29700
H  31.69600 -0.57400 24.92600
H  29.96000 1.24900 28.09600
H  30.97800 2.47500 27.36800
H  30.10100 3.01800 28.75000
H  31.83200 1.23200 33.67800
H  31.02200 4.85400 35.75400
H  32.46800 5.26000 34.96600
H  32.49000 4.29900 36.50200

