158

Mg 49.66100 35.20800 28.01000
C  47.68100 33.65500 30.53600
C  49.86800 37.98900 30.01700
C  51.41900 36.70600 25.50400
C  48.98900 32.46800 25.90500
N  48.89200 35.64700 30.13100
C  48.27700 34.86500 31.00600
C  48.37200 35.41300 32.42400
C  48.78300 36.91900 32.13900
C  49.24800 36.87300 30.67300
C  47.75900 38.05900 32.63000
C  49.51500 34.58400 33.10700
C  49.48800 34.36800 34.61600
H  48.56800 35.21600 35.48700
N  50.57000 37.06600 27.86600
C  50.44700 38.08900 28.75100
C  51.12300 39.32200 28.19400
C  51.71400 38.92800 26.95100
C  51.20700 37.50000 26.67500
C  51.23500 40.66100 29.06500
C  52.73900 39.62700 26.03800
O  53.33800 39.08700 25.14100
C  53.28200 41.00200 26.43300
N  49.89000 34.75700 25.87000
C  50.90000 35.42700 25.17700
C  51.50100 34.57700 24.01100
C  50.68200 33.26700 24.04700
C  49.78900 33.45900 25.32000
C  51.45200 35.40500 22.66600
C  51.57400 31.98500 24.07900
C  50.98000 30.78900 23.36700
N  48.57500 33.44000 28.11000
C  48.35800 32.46900 27.16400
C  47.37200 31.59900 27.68000
C  47.08800 32.03300 29.02600
C  47.86100 33.15400 29.18100
C  46.91900 30.29600 26.95300
C  46.30400 31.71800 30.13400
O  45.50000 30.81100 30.30300
C  46.72800 32.73700 31.24300
C  47.48000 32.04600 32.34100
O  48.38600 31.25800 32.05700
O  47.02600 32.26400 33.57500
C  47.37500 31.21200 34.58000
H  49.93600 38.86600 30.66500
H  51.97700 37.13000 24.66600
H  48.78800 31.59200 25.28500
H  47.43300 35.25100 32.95400
H  49.66800 37.15500 32.73100
H  48.08700 38.43000 33.60100
H  46.74800 37.66200 32.73200
H  47.80800 38.88500 31.92100
H  50.40800 35.20600 33.04700
H  49.60600 33.63900 32.57200
H  50.49400 34.51100 35.01200
H  49.17500 33.34200 34.81200
H  50.65300 40.72200 29.98400
H  50.81100 41.41400 28.40000
H  52.26700 40.84600 29.36300
H  52.50700 41.71100 26.72400
H  53.78700 41.39600 25.55100
H  53.80300 40.70300 27.34200
H  52.54300 34.49400 24.32000
H  50.02800 33.21100 23.17600
H  50.88300 34.78800 21.97000
H  52.48500 35.60500 22.38100
H  50.98000 36.38200 22.76600
H  51.68200 31.75900 25.14000
H  52.58300 32.10400 23.68400
H  51.75700 30.24700 22.82900
H  50.11700 31.09200 22.77300
H  50.60100 30.16400 24.17500
H  47.72100 29.93200 26.31100
H  45.97000 30.53000 26.46900
H  46.74800 29.56700 27.74400
H  45.85000 33.28700 31.58300
H  47.08100 30.21100 34.26500
H  46.99200 31.47200 35.56800
H  48.45400 31.14200 34.71300
Mg 27.37500 49.01200 26.57800
C  25.27000 50.06300 29.17700
C  29.74200 48.16900 29.04700
C  29.47400 48.19800 24.08700
C  24.86700 50.13400 24.33600
N  27.44100 49.16700 28.83600
C  26.48400 49.51200 29.69500
C  26.80000 49.29500 31.16100
C  28.39200 48.98900 31.09100
C  28.57000 48.80400 29.57500
C  29.24100 50.07800 31.82700
C  25.82300 48.27500 31.69200
C  25.33200 48.21200 33.12800
H  26.13900 48.73800 34.31600
N  29.33200 48.26300 26.63200
C  30.09800 47.92000 27.71100
C  31.33300 47.44000 27.20000
C  31.33400 47.60500 25.77700
C  30.02400 48.07000 25.41400
C  32.39000 47.01100 28.14300
C  32.42400 47.26200 24.77700
O  32.24700 47.42300 23.57100
C  33.69100 46.55700 25.13900
N  27.21600 49.21600 24.57400
C  28.12000 48.66800 23.76000
C  27.62800 48.69400 22.30800
C  26.17400 49.27200 22.41200
C  26.08500 49.60300 23.87400
C  28.58700 49.47900 21.37900
C  25.12900 48.25100 21.80600
C  24.16500 48.95400 20.83500
N  25.47300 50.05100 26.68400
C  24.54800 50.37200 25.69400
C  23.36100 51.02300 26.30100
C  23.55600 50.84700 27.69800
C  24.87500 50.28100 27.83700
C  22.20500 51.66800 25.55900
C  23.00500 50.97700 28.98700
O  21.87200 51.34800 29.39400
C  24.03700 50.45700 30.01400
C  24.26800 51.56400 31.01200
O  25.06500 52.46600 30.77100
O  23.49900 51.37600 32.13800
C  23.65500 52.41700 33.18700
H  30.52400 47.96600 29.78300
H  30.07600 48.06300 23.18600
H  24.07400 50.25200 23.59500
H  26.58300 50.19800 31.73100
H  28.50900 47.98500 31.49800
H  29.39300 49.98800 32.90300
H  28.73700 51.01900 31.61100
H  30.24300 50.03200 31.40000
H  26.43100 47.37200 31.63500
H  25.01100 48.04700 31.00200
H  25.02100 47.20100 33.39300
H  24.38600 48.75000 33.18100
H  32.69300 45.97200 28.01600
H  32.18100 47.20600 29.19500
H  33.36500 47.46800 27.97400
H  34.26500 46.59600 24.21300
H  33.54000 45.50400 25.37900
H  34.30900 47.04900 25.89000
H  27.56500 47.71800 21.82600
H  26.02100 50.20800 21.87400
H  27.97900 50.18800 20.81800
H  29.13100 48.90900 20.62600
H  29.28800 50.01900 22.01600
H  24.43200 47.99500 22.60400
H  25.52100 47.36900 21.30000
H  23.19100 48.58100 21.15300
H  24.46400 48.78500 19.80000
H  23.99400 50.02300 20.96600
H  21.37400 51.59000 26.25900
H  22.11100 51.11000 24.62700
H  22.45900 52.71700 25.40800
H  23.57100 49.59500 30.49200
H  24.54100 52.10900 33.74100
H  22.75000 52.40500 33.79400
H  23.70100 53.35100 32.62600

