158

Mg 2.37500 -1.83800 44.54700
C  5.71100 -1.19500 43.96300
C  1.57600 0.80200 42.40500
C  -0.82600 -2.87400 44.48100
C  3.32800 -4.65800 46.36900
N  3.56800 -0.43200 43.17600
C  4.92000 -0.33600 43.19500
C  5.30900 0.82100 42.31600
C  4.00900 1.65300 42.07500
C  3.00300 0.55800 42.48100
C  3.88300 3.00000 42.84900
C  5.96000 0.29600 41.08500
C  6.88000 1.17300 40.30000
H  6.39500 1.52000 38.81400
N  0.60900 -1.11100 43.59500
C  0.49800 0.02100 42.85600
C  -0.82700 0.18200 42.34600
C  -1.56100 -0.93200 42.94600
C  -0.60800 -1.71100 43.71000
C  -1.29600 1.34700 41.49800
C  -3.14400 -1.16400 42.88400
O  -3.88700 -0.32100 42.36000
C  -3.74300 -2.53200 43.24900
N  1.34400 -3.50600 45.38600
C  0.01900 -3.77800 45.16300
C  -0.33400 -5.18000 45.84200
C  1.01500 -5.58600 46.58400
C  1.95600 -4.46900 46.19600
C  -1.64500 -5.18100 46.72500
C  1.59300 -7.01100 46.28200
C  1.70300 -7.83600 47.54200
N  4.14700 -2.79100 45.16000
C  4.42200 -3.86100 45.93400
C  5.87900 -3.99800 46.16900
C  6.33300 -2.88800 45.34900
C  5.32100 -2.24800 44.78100
C  6.60700 -5.04300 47.01300
C  7.56700 -2.32300 44.96600
O  8.72600 -2.61400 45.20500
C  7.22300 -1.12200 44.07300
C  7.61400 0.15000 44.60100
O  7.17300 0.78000 45.48600
O  8.62000 0.64000 43.79900
C  8.95400 2.02000 44.07000
H  1.36000 1.72800 41.86800
H  -1.86400 -3.12800 44.70900
H  3.67000 -5.44900 47.04000
H  5.97200 1.39500 42.96400
H  4.06200 1.88300 41.01000
H  2.87900 2.94900 43.27000
H  3.90300 3.80600 42.11600
H  4.65200 3.16700 43.60300
H  5.15500 0.07400 40.38500
H  6.47800 -0.65000 41.24000
H  7.80100 0.63700 40.07500
H  6.95200 2.08700 40.89000
H  -0.50200 1.61300 40.80000
H  -1.54700 2.19300 42.13700
H  -2.19000 1.11000 40.92100
H  -3.15500 -3.39600 42.94100
H  -4.73900 -2.49300 42.80800
H  -3.90200 -2.60300 44.32500
H  -0.57800 -5.90800 45.06800
H  0.97200 -5.45700 47.66600
H  -2.35500 -5.74900 46.12300
H  -2.17700 -4.25300 46.93200
H  -1.50000 -5.80400 47.60800
H  2.56800 -6.83700 45.82600
H  1.09600 -7.56400 45.48400
H  0.68600 -8.17000 47.75100
H  2.05400 -7.24300 48.38600
H  2.40900 -8.64300 47.34100
H  7.56800 -4.64900 47.34600
H  6.85300 -5.93600 46.43900
H  6.16200 -5.36500 47.95400
H  7.70400 -1.39900 43.13400
H  9.82400 2.30300 43.47800
H  9.11300 2.16200 45.13900
H  8.12600 2.70700 43.89400
Mg -0.33600 7.99100 26.53800
C  0.46500 9.80100 29.35700
C  -0.33000 5.19700 28.51600
C  -0.80100 6.13700 23.72100
C  0.22000 10.80100 24.54600
N  0.33200 7.55500 28.69300
C  0.30600 8.47000 29.69400
C  0.17400 7.88100 31.08500
C  0.33600 6.38500 30.72600
C  0.12700 6.33200 29.20800
C  1.70200 5.70000 31.14600
C  -1.15000 8.34900 31.73800
C  -1.25900 8.80700 33.19600
H  0.04400 8.71200 34.01900
N  -0.51900 5.96600 26.17100
C  -0.63000 4.95300 27.12900
C  -1.07100 3.78500 26.58300
C  -1.25500 3.96900 25.19100
C  -0.83000 5.40400 24.95300
C  -1.21900 2.48600 27.45900
C  -1.77400 2.87900 24.12500
O  -1.81500 3.11800 22.95200
C  -2.20600 1.52200 24.62600
N  -0.16600 8.39600 24.36900
C  -0.50200 7.50000 23.42200
C  -0.42700 8.16200 21.99600
C  -0.28200 9.65100 22.30200
C  -0.04900 9.66700 23.85200
C  0.73700 7.59400 21.21800
C  -1.39200 10.44100 21.73800
C  -2.67600 10.69300 22.50500
N  0.28200 9.92300 26.82400
C  0.48200 10.95300 25.93900
C  0.85400 12.13200 26.68100
C  0.77700 11.75000 27.99200
C  0.48300 10.35200 28.10700
C  1.19300 13.45000 26.08000
C  1.02400 12.27300 29.26700
O  1.45900 13.36000 29.57200
C  0.76800 11.07400 30.23700
C  1.95100 10.90900 31.24500
O  2.80200 10.00100 31.32200
O  1.89700 11.92500 32.18700
C  3.08600 11.97200 33.08600
H  -0.27100 4.33500 29.18400
H  -0.96400 5.71200 22.72900
H  0.25500 11.60700 23.81100
H  1.01300 8.11500 31.74000
H  -0.42100 5.71500 31.13300
H  2.47400 6.36300 31.53600
H  2.11700 5.22700 30.25600
H  1.59200 4.93400 31.91400
H  -1.84500 7.52000 31.61000
H  -1.44900 9.20200 31.12800
H  -2.00600 8.10500 33.56600
H  -1.59500 9.83700 33.31000
H  -0.55400 2.49800 28.32300
H  -0.89800 1.63200 26.86200
H  -2.25000 2.31600 27.76700
H  -2.99900 1.50100 25.37300
H  -1.37000 0.91800 24.97900
H  -2.67500 1.07300 23.75000
H  -1.34900 7.90000 21.47800
H  0.57600 10.17400 21.88100
H  0.70600 6.56300 21.57000
H  1.67500 8.10400 21.43700
H  0.39900 7.74900 20.19300
H  -1.65700 10.10600 20.73500
H  -0.99100 11.44800 21.62600
H  -3.58300 10.59700 21.90900
H  -2.70500 11.69700 22.92800
H  -2.71500 9.98600 23.33300
H  1.62000 13.96700 26.94000
H  0.25700 13.93700 25.80800
H  1.92300 13.34600 25.27700
H  -0.01500 11.27300 30.97000
H  4.00300 12.00400 32.49700
H  3.12500 11.11800 33.76200
H  3.08700 12.92200 33.62100

