158

Mg 49.09600 34.87900 26.76800
C  47.25300 33.52900 29.53300
C  49.27800 37.84900 28.56200
C  50.35800 36.46800 23.96400
C  48.07800 32.25800 24.86300
N  48.63400 35.46100 28.96600
C  47.82400 34.75100 29.81500
C  47.78900 35.52300 31.12600
C  48.14800 37.00600 30.70900
C  48.76400 36.72900 29.33600
C  46.92900 38.00700 30.68000
C  48.66700 34.90500 32.29500
C  47.82800 34.84400 33.65300
H  47.26200 36.10500 34.26700
N  49.92000 36.79000 26.44000
C  49.88600 37.83000 27.31400
C  50.62300 38.94100 26.73500
C  51.00000 38.53000 25.42000
C  50.36300 37.18000 25.20800
C  51.13200 40.12100 27.59500
C  51.87400 39.20800 24.40000
O  52.17900 38.62700 23.35700
C  52.39500 40.61300 24.65700
N  49.17700 34.42600 24.71500
C  49.83300 35.18300 23.73800
C  49.85400 34.42600 22.36400
C  49.26100 32.98900 22.74700
C  48.81300 33.21800 24.16400
C  48.99500 35.24700 21.33700
C  50.26000 31.82900 22.76800
C  49.93900 30.58000 21.89900
N  47.93100 33.17700 27.07300
C  47.62300 32.18900 26.22700
C  46.79400 31.17500 26.79200
C  46.63400 31.65400 28.11900
C  47.30600 32.90000 28.22000
C  46.17600 29.91900 26.12100
C  46.01100 31.42800 29.45300
O  45.28700 30.50400 29.85900
C  46.36800 32.64300 30.35600
C  47.09100 32.05700 31.53800
O  48.27700 31.72900 31.60400
O  46.04200 31.66900 32.48400
C  46.44600 30.69100 33.47700
H  49.24500 38.86700 28.95500
H  50.77700 37.08300 23.16500
H  47.90500 31.32700 24.32000
H  46.77500 35.34200 31.48500
H  48.87200 37.40100 31.42200
H  46.05200 37.58900 31.17300
H  46.75000 38.28700 29.64200
H  47.12200 38.86600 31.32200
H  49.47000 35.62800 32.44200
H  49.13700 33.98400 31.95200
H  48.51800 34.42600 34.38500
H  47.00200 34.15100 33.49100
H  51.39600 39.79200 28.60000
H  50.47800 40.98000 27.44600
H  52.14400 40.34500 27.25700
H  52.61700 40.88700 23.62600
H  53.38200 40.49600 25.10500
H  51.71400 41.33300 25.11000
H  50.86500 34.37400 21.96000
H  48.34200 32.69400 22.24000
H  48.03100 34.81900 21.06300
H  49.65100 35.30000 20.46800
H  48.86500 36.25700 21.72700
H  50.46300 31.40500 23.75100
H  51.26900 32.10700 22.46200
H  49.43400 29.79600 22.46300
H  50.85700 30.13100 21.51900
H  49.40600 30.84000 20.98400
H  45.29700 29.65400 26.70900
H  46.89100 29.09800 26.07900
H  45.80600 30.06600 25.10600
H  45.49400 33.21300 30.67300
H  46.34300 29.72100 32.99000
H  45.68600 30.74600 34.25600
H  47.48300 30.87500 33.75500
Mg 0.78400 43.95400 24.46100
C  2.65100 43.82600 27.32100
C  -2.19000 43.95500 26.22600
C  -0.84100 43.33900 21.49500
C  3.81200 43.96100 22.50700
N  0.23600 43.64400 26.51000
C  1.21200 43.80800 27.54600
C  0.54600 43.92900 28.93400
C  -1.01900 44.00100 28.54800
C  -1.01700 43.84300 27.01600
C  -1.97000 43.02700 29.20800
C  0.96300 45.11100 29.86700
C  1.38700 44.82200 31.28400
H  0.93900 43.49700 31.95200
N  -1.20800 43.89200 23.93600
C  -2.29300 43.92200 24.78600
C  -3.47900 43.97300 23.98800
C  -3.07900 43.87800 22.61500
C  -1.62300 43.69700 22.64800
C  -4.80700 44.11400 24.66900
C  -3.95700 43.98500 21.36600
O  -3.41000 43.93300 20.22500
C  -5.46500 44.35500 21.55900
N  1.35900 43.83000 22.32200
C  0.51900 43.53600 21.31000
C  1.26800 43.00200 20.07800
C  2.59900 43.77700 20.33200
C  2.63100 43.88700 21.80300
C  1.39900 41.48400 20.05700
C  2.66000 45.24700 19.77000
C  4.03500 45.73700 19.25700
N  2.84300 43.90400 24.75000
C  3.96900 43.92400 23.97000
C  5.09300 43.80200 24.80500
C  4.66300 43.84900 26.12700
C  3.28000 43.86200 26.04100
C  6.56000 43.84100 24.25800
C  5.11800 43.75700 27.45100
O  6.28400 43.55600 27.86800
C  3.84300 43.89100 28.33300
C  3.80100 42.87500 29.34200
O  3.35900 41.73400 29.17400
O  4.42800 43.27200 30.48700
C  4.71300 42.24000 31.62200
H  -3.05500 43.99400 26.89100
H  -1.36200 42.94700 20.61900
H  4.77500 43.78800 22.02200
H  0.70300 42.96100 29.41000
H  -1.34500 45.02300 28.74000
H  -1.47200 42.49800 30.02100
H  -2.26500 42.31600 28.43600
H  -2.89200 43.44700 29.61000
H  0.16500 45.84400 29.98800
H  1.81500 45.59200 29.38700
H  0.86600 45.49900 31.96100
H  2.42400 45.05600 31.52600
H  -5.31700 45.06400 24.50800
H  -4.74000 44.00500 25.75200
H  -5.46800 43.28400 24.42100
H  -6.01200 43.60600 22.13200
H  -5.88100 44.47800 20.56000
H  -5.53900 45.30000 22.09800
H  0.76700 43.47200 19.23200
H  3.46700 43.22300 19.97600
H  2.40200 41.06400 19.98200
H  0.82200 41.06800 19.23100
H  0.90800 41.02600 20.91600
H  2.39200 46.07100 20.43100
H  1.91300 45.28500 18.97700
H  4.01300 45.95300 18.18900
H  4.76600 44.95100 19.44800
H  4.35800 46.62800 19.79500
H  6.66500 43.08400 23.48100
H  7.26600 43.60800 25.05500
H  6.86600 44.83700 23.93900
H  3.93300 44.90200 28.73200
H  5.79900 42.20600 31.54300
H  4.33900 41.21900 31.54100
H  4.46200 42.56500 32.63100

