158

Mg -1.46000 18.13900 27.34900
C  -2.17800 15.86800 29.94600
C  -1.86300 20.68600 29.51400
C  -1.07200 20.12400 24.75700
C  -1.10700 15.31200 25.23400
N  -1.93100 18.20700 29.54400
C  -2.09500 17.21800 30.42100
C  -2.22800 17.80600 31.85800
C  -2.40800 19.32700 31.58500
C  -1.97100 19.41200 30.11800
C  -3.85000 19.72000 31.91100
C  -1.11500 17.38800 32.81800
C  -1.63600 16.87100 34.18900
H  -0.54800 16.53900 35.23200
N  -1.42800 20.10200 27.25000
C  -1.61800 20.98300 28.23500
C  -1.55600 22.36300 27.64500
C  -1.22400 22.19100 26.20500
C  -1.18600 20.72700 26.01200
C  -1.94900 23.57700 28.43200
C  -1.10900 23.32100 25.11700
O  -0.75200 23.10900 23.96700
C  -1.66500 24.67000 25.47800
N  -1.16700 17.75400 25.25900
C  -1.00100 18.77100 24.38200
C  -0.66500 18.22300 23.01100
C  -0.44600 16.70800 23.26200
C  -0.92400 16.57800 24.66400
C  -1.84000 18.49600 22.05800
C  1.03100 16.22600 23.10500
C  2.15400 16.83800 23.97600
N  -1.61000 16.06200 27.47900
C  -1.54800 15.04600 26.53600
C  -1.84100 13.73800 27.05000
C  -2.13800 14.04400 28.42500
C  -1.91900 15.46100 28.63500
C  -1.75800 12.45100 26.43700
C  -2.46400 13.42200 29.63300
O  -2.60000 12.22400 29.90700
C  -2.55900 14.57200 30.70400
C  -1.69400 14.10700 31.81900
O  -0.45000 14.15400 31.84900
O  -2.42600 13.55600 32.83700
C  -1.70500 12.90500 33.97900
H  -1.64300 21.53200 30.16800
H  -0.98100 20.79700 23.90200
H  -1.03600 14.47700 24.53400
H  -3.09300 17.37400 32.36000
H  -1.72200 19.89500 32.21300
H  -4.14700 20.60100 31.34100
H  -4.10800 20.06300 32.91300
H  -4.49800 18.92800 31.53400
H  -0.44700 18.21200 33.06700
H  -0.52300 16.60800 32.33800
H  -2.20500 15.96100 34.00100
H  -2.16800 17.69600 34.66400
H  -2.44600 23.28800 29.35800
H  -2.57000 24.25500 27.84600
H  -1.16800 24.16000 28.92100
H  -2.69000 24.42300 25.75700
H  -1.66000 25.45400 24.72100
H  -1.21900 25.06600 26.39000
H  0.26700 18.66700 22.66100
H  -1.13800 16.18900 22.59900
H  -1.58000 18.41000 21.00300
H  -2.23000 19.47400 22.33900
H  -2.56700 17.71400 22.27800
H  1.47900 16.49600 22.14900
H  1.00500 15.15600 23.31100
H  1.73600 17.51000 24.72600
H  2.69000 17.54300 23.34000
H  2.75800 16.01200 24.35200
H  -1.30100 11.75000 27.13700
H  -1.17800 12.52100 25.51700
H  -2.79600 12.20700 26.20900
H  -3.55300 14.74900 31.11400
H  -2.35200 13.09400 34.83600
H  -0.77100 13.40100 34.24100
H  -1.55100 11.83500 33.84100
Mg -11.25800 17.37100 41.47800
C  -7.92400 16.51100 41.90800
C  -10.29900 20.62800 40.98400
C  -14.48000 18.13600 40.68900
C  -12.07300 13.84800 41.42200
N  -9.32000 18.33800 41.31200
C  -8.06600 17.82200 41.57800
C  -7.02700 18.86800 41.27200
C  -7.81300 20.24100 41.47400
C  -9.22500 19.71200 41.19700
C  -7.75400 20.98400 42.85100
C  -6.37000 18.72700 39.84100
C  -4.84800 18.42800 39.70800
H  -4.51500 17.09000 38.96600
N  -12.30400 19.13900 40.93400
C  -11.67900 20.33900 40.81400
C  -12.64400 21.24800 40.42900
C  -13.92400 20.60000 40.43800
C  -13.66700 19.22800 40.74100
C  -12.32600 22.71000 40.16500
C  -15.26400 21.22600 40.05300
O  -15.39100 22.42800 39.68900
C  -16.61900 20.44600 40.11600
N  -12.94300 16.18500 41.04400
C  -14.18200 16.76600 40.78800
C  -15.21100 15.62500 40.54900
C  -14.36400 14.31900 40.56500
C  -13.07400 14.79900 41.10500
C  -16.29400 15.46900 41.64600
C  -14.08900 13.66900 39.12800
C  -14.58000 12.15400 38.94800
N  -10.28500 15.48000 41.78100
C  -10.70800 14.14800 41.73700
C  -9.59200 13.31500 42.01100
C  -8.43100 14.15100 42.13200
C  -8.93900 15.47400 41.92800
C  -9.65500 11.84600 42.24700
C  -6.97700 14.24700 42.39700
O  -6.21000 13.29500 42.70400
C  -6.58800 15.74900 42.25600
C  -5.99400 16.13400 43.58500
O  -6.63600 16.06900 44.65400
O  -4.61100 16.17600 43.57400
C  -3.85100 16.09600 44.76800
H  -10.02700 21.68500 40.98200
H  -15.48300 18.33500 40.30600
H  -12.36100 12.79500 41.39500
H  -6.25200 18.74500 42.02800
H  -7.28400 20.96200 40.85000
H  -7.11800 20.53700 43.61500
H  -8.73900 21.04800 43.31500
H  -7.45800 22.03100 42.78200
H  -6.52100 19.65500 39.28900
H  -6.88200 17.89900 39.35200
H  -4.41900 18.44600 40.71000
H  -4.32800 19.25200 39.22000
H  -11.77300 22.88000 39.24100
H  -11.72600 23.17800 40.94500
H  -13.26600 23.26000 40.11100
H  -17.33900 21.26200 40.18500
H  -16.62000 19.89800 41.05800
H  -17.04300 19.88700 39.28100
H  -15.66100 15.85100 39.58200
H  -14.73400 13.53400 41.22500
H  -16.94700 16.33700 41.73100
H  -15.90600 15.24800 42.64000
H  -16.86400 14.59000 41.34400
H  -13.03600 13.73500 38.85400
H  -14.75500 14.11800 38.39200
H  -14.95700 11.84000 37.97500
H  -15.30800 11.89000 39.71500
H  -13.69900 11.53300 39.11700
H  -8.96800 11.62200 43.06300
H  -9.25200 11.28000 41.40600
H  -10.66800 11.50500 42.45800
H  -5.70800 15.84500 41.61800
H  -2.81100 16.05900 44.44300
H  -4.09900 15.25900 45.42100
H  -4.01200 16.91900 45.46400

