158

Mg 41.64800 8.43600 28.84300
C  43.01100 9.91400 31.62400
C  39.26200 6.95300 31.00900
C  40.20400 6.92000 26.26100
C  44.20100 9.62000 26.79400
N  41.13800 8.46700 30.99500
C  41.86200 9.11500 31.92600
C  41.27200 8.84900 33.35100
C  40.33700 7.65300 33.14300
C  40.23100 7.68200 31.67400
C  40.77800 6.21400 33.70000
C  40.63700 10.11500 34.00600
C  40.84700 10.17600 35.49400
H  40.68900 11.52500 36.27200
N  39.94700 7.13000 28.62800
C  39.11900 6.63600 29.61500
C  38.10800 5.74300 28.98000
C  38.32200 5.72500 27.54500
C  39.50200 6.63900 27.39900
C  36.96400 4.97900 29.91400
C  37.50700 5.05600 26.43500
O  37.73000 5.25900 25.22100
C  36.32900 4.17300 26.86500
N  42.23900 8.13500 26.83800
C  41.42000 7.58500 25.92800
C  42.01800 7.54500 24.54400
C  43.13400 8.62700 24.69100
C  43.25200 8.82600 26.16500
C  42.40700 6.12600 24.02100
C  42.86100 10.02900 24.01600
C  42.10100 11.14800 24.77000
N  43.21100 9.62900 29.16000
C  44.20200 9.98000 28.21100
C  45.17000 10.80100 28.95300
C  44.63500 10.90900 30.26500
C  43.58100 9.98700 30.36000
C  46.32700 11.54000 28.35200
C  44.85800 11.42500 31.60300
O  45.72400 12.12900 32.10500
C  43.83100 10.67800 32.55400
C  44.42700 9.86400 33.65300
O  44.95400 8.79600 33.47200
O  44.26800 10.51100 34.89100
C  44.75500 9.80400 36.11700
H  38.52000 6.44900 31.63100
H  39.71600 6.47600 25.39100
H  44.95900 10.07400 26.15200
H  42.04500 8.50800 34.03900
H  39.40100 7.93300 33.62700
H  41.30700 5.56300 33.00500
H  39.98500 5.66200 34.20500
H  41.53300 6.47700 34.44100
H  39.55600 10.11900 33.86600
H  41.15000 11.01600 33.66900
H  41.82900 9.80300 35.78700
H  40.12600 9.43000 35.82800
H  36.06900 5.60000 29.91700
H  37.19900 4.82300 30.96700
H  36.71100 4.01500 29.47400
H  36.75300 3.46900 27.58100
H  35.94800 3.73600 25.94200
H  35.62300 4.88300 27.29600
H  41.25700 7.90900 23.85300
H  44.00600 8.10600 24.29600
H  41.75700 5.42800 24.54800
H  43.42800 5.90400 24.33300
H  42.27900 6.08000 22.93900
H  42.37500 9.74800 23.08100
H  43.81100 10.39800 23.62700
H  41.72800 10.84400 25.74800
H  41.20600 11.30900 24.17000
H  42.64700 12.09000 24.82200
H  47.24400 11.04500 28.67000
H  46.12300 12.54100 28.73100
H  46.28400 11.55400 27.26300
H  43.42200 11.58600 32.99900
H  44.18000 10.10200 36.99400
H  45.82700 9.85200 36.30900
H  44.43200 8.76700 36.02300
Mg -10.17700 18.42500 42.75500
C  -6.77000 17.47600 42.92900
C  -9.11200 21.60400 42.18000
C  -13.29200 19.31800 42.69700
C  -11.05000 14.93500 43.06700
N  -8.11500 19.35600 42.56500
C  -6.88700 18.83300 42.73600
C  -5.78700 19.86200 42.45900
C  -6.53400 21.23000 42.53400
C  -8.04500 20.70600 42.45600
C  -6.36800 22.09400 43.85200
C  -4.80000 19.56500 41.21300
C  -5.34600 18.62600 40.08900
H  -5.23800 19.10900 38.62000
N  -11.09100 20.26500 42.38500
C  -10.47600 21.44400 42.16100
C  -11.51400 22.48300 42.05700
C  -12.80400 21.77300 42.11400
C  -12.47400 20.42600 42.43600
C  -11.10700 23.99000 41.68300
C  -14.17800 22.40600 41.74700
O  -14.36400 23.61900 41.55400
C  -15.40300 21.58500 41.60700
N  -11.94500 17.22800 42.55400
C  -13.14700 17.91000 42.76500
C  -14.28700 16.87700 42.90100
C  -13.56500 15.53000 42.73100
C  -12.09100 15.81900 42.68800
C  -15.16700 17.06200 44.25900
C  -14.08000 14.75900 41.54100
C  -15.20900 13.78500 41.86700
N  -9.17600 16.53800 42.90500
C  -9.65600 15.20800 43.06300
C  -8.52800 14.30500 43.11200
C  -7.39100 15.13300 43.03900
C  -7.79300 16.45600 42.96900
C  -8.72200 12.76300 43.31200
C  -5.94600 15.20400 43.05800
O  -5.13400 14.28100 42.93500
C  -5.49800 16.68500 43.21200
C  -5.11300 16.80300 44.61100
O  -5.94000 16.83700 45.51600
O  -3.75900 16.66500 44.79200
C  -3.18200 16.38000 46.06900
H  -8.90300 22.66800 42.04700
H  -14.36000 19.48500 42.85500
H  -11.29600 13.88500 43.23500
H  -5.16100 19.84600 43.35200
H  -6.39700 21.87100 41.66300
H  -7.07900 21.70800 44.58200
H  -6.63300 23.11900 43.59200
H  -5.37000 22.01100 44.28200
H  -3.94100 19.06300 41.65800
H  -4.37300 20.50600 40.86500
H  -6.35300 18.27900 40.32400
H  -4.65100 17.78700 40.11300
H  -11.94000 24.68100 41.81000
H  -10.46900 24.09300 40.80500
H  -10.50300 24.32300 42.52700
H  -15.93400 21.59100 42.55900
H  -15.22000 20.53900 41.35900
H  -16.09700 21.98800 40.87000
H  -14.99500 17.07000 42.09600
H  -13.81400 14.88300 43.57200
H  -14.98900 18.02200 44.74400
H  -14.96400 16.34000 45.04900
H  -16.20700 17.15600 43.94500
H  -13.29900 14.16100 41.07200
H  -14.53500 15.29600 40.70900
H  -15.95100 13.97900 41.09300
H  -15.60600 13.82100 42.88200
H  -14.86700 12.77100 41.65900
H  -9.12000 12.54400 44.30200
H  -7.73100 12.31100 43.36600
H  -9.20200 12.38300 42.41000
H  -4.68500 16.95000 42.53600
H  -2.45900 15.57100 45.96100
H  -3.95200 16.12400 46.79700
H  -2.68300 17.24800 46.49900

