158

Mg 34.32000 3.02400 29.67500
C  31.93900 4.09100 32.05500
C  36.68600 3.43700 32.09400
C  36.36600 1.92400 27.38900
C  31.72800 2.88600 27.24200
N  34.32800 3.70900 31.78300
C  33.27200 3.96600 32.53000
C  33.63000 4.15300 33.98700
C  35.23600 4.11000 34.00000
C  35.45200 3.65500 32.57100
C  36.02700 5.42100 34.32800
C  32.90300 3.16600 34.86700
C  32.35300 3.68900 36.21700
H  33.21600 4.71400 37.00000
N  36.33600 2.81600 29.66000
C  37.14300 2.95200 30.80100
C  38.48600 2.55500 30.32500
C  38.41300 2.13500 28.92600
C  37.04400 2.33700 28.59300
C  39.65100 2.85100 31.31600
C  39.55100 1.71600 27.95500
O  39.37300 1.23300 26.82500
C  40.93400 1.65800 28.55100
N  34.13200 2.49100 27.62500
C  35.17900 2.13600 26.82400
C  34.75300 1.87800 25.34000
C  33.22000 1.78400 25.49000
C  33.03100 2.44600 26.88500
C  35.30700 2.94600 24.36900
C  32.55800 0.37300 25.47200
C  31.98400 -0.07000 24.10600
N  32.29400 3.38500 29.59200
C  31.35700 3.29600 28.55300
C  30.09000 3.71500 29.01300
C  30.25700 4.05900 30.41100
C  31.58100 3.80200 30.72100
C  28.86700 3.77400 28.16500
C  29.58500 4.48600 31.59500
O  28.40100 4.72800 31.80800
C  30.62500 4.50700 32.78400
C  30.67100 5.90200 33.37500
O  31.27400 6.84700 32.85600
O  30.04100 5.91900 34.56700
C  30.02900 7.21700 35.21400
H  37.47000 3.63800 32.82700
H  37.09200 1.37200 26.78800
H  30.98500 3.00200 26.44900
H  33.36400 5.15400 34.32600
H  35.56600 3.22000 34.53600
H  35.38900 6.18300 34.77800
H  36.58200 5.71300 33.43600
H  36.71900 5.29500 35.16100
H  33.50900 2.27400 35.03000
H  32.08400 2.59800 34.42500
H  32.23000 2.86700 36.92200
H  31.36900 4.14900 36.12900
H  40.37800 2.04900 31.18300
H  39.29800 2.74500 32.34200
H  40.19800 3.77800 31.14600
H  41.69700 1.48400 27.79200
H  40.92800 0.85500 29.28800
H  41.22200 2.53100 29.13600
H  35.15700 0.91000 25.04400
H  32.73600 2.46700 24.79300
H  34.50400 3.56400 23.96600
H  35.84500 2.51800 23.52300
H  35.96200 3.53400 25.01100
H  31.80800 0.25200 26.25300
H  33.32800 -0.37600 25.65800
H  32.54500 -0.92900 23.73700
H  31.92600 0.69500 23.33200
H  30.97500 -0.46800 24.22100
H  28.00100 3.61500 28.80700
H  28.81300 3.04000 27.36100
H  28.80800 4.77200 27.73100
H  30.47300 3.88700 33.66800
H  29.01100 7.60600 35.19100
H  30.68400 7.98700 34.80600
H  30.18400 6.95300 36.26000
Mg 54.16300 24.41400 44.46000
C  51.45300 26.33800 43.29600
C  52.50200 21.65000 43.42800
C  57.03500 22.76600 44.52600
C  55.93500 27.42200 45.09600
N  52.16800 24.11900 43.41400
C  51.24800 24.97600 43.00200
C  50.01200 24.24000 42.44800
C  50.22800 22.75600 42.99400
C  51.72600 22.81300 43.37500
C  49.30200 22.26300 44.14700
C  49.87800 24.36400 40.86300
C  48.82100 23.43900 40.22800
H  48.33400 23.69200 38.77200
N  54.67000 22.43800 44.20900
C  53.82700 21.48600 43.80600
C  54.58000 20.19300 43.83800
C  55.93700 20.51800 43.97700
C  55.91000 21.94700 44.26300
C  53.83700 18.87500 43.67100
C  57.12300 19.52700 43.70300
O  56.83000 18.36900 43.42300
C  58.57200 19.89600 43.80500
N  56.24400 25.06400 44.62400
C  57.21700 24.13700 44.75500
C  58.61000 24.84100 44.81300
C  58.22500 26.32300 45.10400
C  56.73200 26.29700 44.89600
C  59.60700 24.17600 45.93200
C  58.93400 27.33000 44.15400
C  58.31500 27.74100 42.75000
N  53.73600 26.47100 44.36500
C  54.46300 27.59600 44.78400
C  53.65800 28.84900 44.69200
C  52.48800 28.36600 43.99500
C  52.59000 26.96000 43.87000
C  54.11000 30.14400 45.01000
C  51.27200 28.82100 43.32300
O  50.95000 29.96700 43.04900
C  50.56900 27.52000 42.86800
C  50.37600 27.67800 41.42700
O  51.18800 27.80100 40.55500
O  49.03400 27.70800 41.24000
C  48.64100 27.90500 39.80900
H  51.92700 20.82100 43.01000
H  57.94400 22.16100 44.55600
H  56.59200 28.27200 45.29300
H  49.16500 24.75500 42.90300
H  50.14200 21.99000 42.22300
H  48.81300 21.30800 43.95200
H  48.49700 22.99200 44.05400
H  49.77500 22.33000 45.12600
H  50.88400 24.15300 40.50000
H  49.63600 25.41400 40.70200
H  48.00800 23.42400 40.95400
H  49.26800 22.46000 40.05200
H  53.58100 18.80700 42.61300
H  52.97700 19.01500 44.32600
H  54.36200 18.02800 44.11200
H  58.92300 20.55500 43.01100
H  59.20600 19.01800 43.68400
H  58.75700 20.23700 44.82400
H  59.06700 24.64200 43.84300
H  58.48900 26.57300 46.13100
H  60.29100 24.96700 46.24200
H  60.19900 23.34800 45.54300
H  59.11900 23.99100 46.88800
H  59.97000 27.07900 43.92700
H  59.18500 28.22200 44.72800
H  58.03700 28.79400 42.69500
H  57.46100 27.12200 42.47400
H  59.06300 27.62100 41.96600
H  55.14800 30.10300 44.67900
H  54.06200 30.38000 46.07300
H  53.56400 30.99000 44.59200
H  49.64400 27.62900 43.43400
H  48.65500 26.94500 39.29200
H  49.36100 28.57800 39.34400
H  47.70800 28.42800 39.60100

