158

Mg 41.79500 41.27300 26.68100
C  40.80600 43.50200 29.22800
C  42.85000 39.14200 29.24100
C  42.31600 39.03200 24.35800
C  41.24000 43.88300 24.22300
N  41.83300 41.38900 29.01100
C  41.29300 42.33900 29.80700
C  41.35800 41.96100 31.26200
C  42.22400 40.64800 31.28200
C  42.42000 40.37600 29.72900
C  43.58700 40.66500 32.14000
C  39.92200 41.76600 31.88600
C  39.72200 42.72100 33.07500
H  39.56400 42.11400 34.42800
N  42.69100 39.47600 26.77900
C  42.96100 38.63900 27.85500
C  43.38400 37.31200 27.43600
C  43.29600 37.25600 26.00100
C  42.74100 38.63900 25.64700
C  43.74300 36.19700 28.43300
C  43.70600 36.10700 24.98200
O  43.74200 36.31100 23.76800
C  44.06700 34.70400 25.50800
N  41.86000 41.49200 24.54600
C  42.06300 40.35100 23.86900
C  41.91600 40.68000 22.35700
C  41.73300 42.21600 22.24800
C  41.65500 42.59600 23.75800
C  43.20000 40.18400 21.59300
C  40.54100 42.76400 21.38800
C  41.02500 43.80200 20.36300
N  41.09300 43.21700 26.70100
C  40.84700 44.11200 25.60200
C  40.27600 45.32100 26.14900
C  40.28300 45.13700 27.54000
C  40.73500 43.82500 27.84600
C  39.94300 46.48400 25.28700
C  39.91400 45.81700 28.76700
O  39.49800 46.91900 28.90500
C  40.25200 44.78400 29.87500
C  41.28600 45.49600 30.69200
O  42.46900 45.58300 30.40400
O  40.72800 45.99900 31.88200
C  41.74100 46.37300 32.86100
H  42.87300 38.43900 30.07600
H  42.42000 38.23500 23.61900
H  41.40800 44.58900 23.40700
H  42.01700 42.70100 31.71600
H  41.65600 39.83700 31.73700
H  44.50600 40.39900 31.61800
H  43.47300 39.95000 32.95500
H  43.65200 41.70100 32.47000
H  39.77500 40.76200 32.28600
H  39.18600 41.97200 31.10900
H  38.81200 43.26700 32.82500
H  40.49500 43.48900 33.06800
H  43.54500 36.59400 29.42800
H  44.77300 35.87700 28.26900
H  43.03700 35.36700 28.47700
H  44.06900 33.97800 24.69500
H  43.33500 34.38700 26.25100
H  45.00300 34.69700 26.06600
H  41.03900 40.12300 22.02600
H  42.64700 42.72100 21.93600
H  43.96000 40.05600 22.36400
H  43.37600 40.92200 20.81100
H  42.99100 39.27900 21.02400
H  39.77100 43.24500 21.99100
H  40.07600 41.88700 20.93900
H  40.43100 44.71100 20.46400
H  40.93000 43.50500 19.31900
H  42.04100 44.12600 20.58500
H  39.50900 46.24900 24.31600
H  40.83600 47.03700 24.99600
H  39.28200 47.02300 25.96600
H  39.32400 44.50400 30.37500
H  41.76800 45.59900 33.62700
H  41.28500 47.18800 33.42400
H  42.75600 46.56200 32.51000
Mg 26.15900 49.97500 26.34800
C  24.11600 51.17900 28.87500
C  28.48700 49.26900 28.71800
C  28.10700 48.73000 23.78700
C  23.78100 50.98200 23.94700
N  26.30500 50.32200 28.53400
C  25.29300 50.62700 29.38900
C  25.67500 50.41700 30.87700
C  27.16300 50.03500 30.72900
C  27.34400 49.89200 29.21600
C  28.08400 51.05600 31.44500
C  24.81800 49.19200 31.58200
C  24.17500 49.61800 32.93500
H  25.05900 50.52900 33.82300
N  28.06400 49.19200 26.24900
C  28.84500 49.00600 27.37700
C  30.10500 48.46700 26.89300
C  29.98800 48.24500 25.52000
C  28.71200 48.78600 25.08800
C  31.35800 48.33400 27.75000
C  31.06600 47.59800 24.55300
O  30.91000 47.60200 23.34200
C  32.36100 46.92400 25.09600
N  26.02800 50.01400 24.14600
C  26.94900 49.36500 23.36400
C  26.42200 49.23200 21.91500
C  25.01700 49.85100 21.97700
C  24.88900 50.28100 23.47400
C  27.42700 49.89500 20.93500
C  23.86300 48.78800 21.61000
C  23.84300 47.48700 22.44600
N  24.32400 50.96200 26.36200
C  23.47700 51.26400 25.31600
C  22.33200 51.91600 25.89200
C  22.46400 51.79700 27.31600
C  23.74600 51.29400 27.49300
C  21.10900 52.47900 25.21900
C  21.87400 52.13300 28.59900
O  20.81500 52.71500 28.91800
C  22.89000 51.68000 29.70700
C  23.31900 52.84700 30.53000
O  24.25500 53.62400 30.28800
O  22.42700 53.11600 31.55700
C  22.91600 54.11900 32.49200
H  29.33700 49.05400 29.36800
H  28.67300 48.27800 22.97000
H  23.00900 51.24400 23.22100
H  25.44500 51.40900 31.26500
H  27.38000 49.05700 31.15800
H  28.87900 51.46100 30.81800
H  28.50000 50.52600 32.30200
H  27.46100 51.91000 31.71100
H  25.50400 48.36300 31.75400
H  24.05400 48.86300 30.87800
H  23.96400 48.65000 33.38900
H  23.29700 50.18600 32.62400
H  31.41200 47.26200 27.94000
H  31.18200 48.90100 28.66400
H  32.27000 48.71300 27.28900
H  32.79300 46.25100 24.35400
H  32.20900 46.45100 26.06600
H  33.17200 47.61600 25.32300
H  26.40000 48.19600 21.57500
H  24.95700 50.76500 21.38600
H  28.28500 50.16600 21.55000
H  26.95400 50.84000 20.67000
H  27.71300 49.19600 20.14800
H  23.77700 48.48200 20.56700
H  22.96900 49.35500 21.87000
H  22.95700 47.37100 23.07000
H  24.75400 47.23800 22.98900
H  23.77200 46.68500 21.71000
H  20.18100 52.14500 25.68200
H  21.12500 52.10300 24.19600
H  21.23100 53.56200 25.20800
H  22.45800 50.89200 30.32400
H  23.36500 54.98000 31.99800
H  23.59800 53.66600 33.21200
H  22.10800 54.54500 33.08700

