158

Mg 8.89000 3.76100 26.57100
C  10.22300 2.08600 29.42900
C  6.98300 5.60700 28.63800
C  7.81400 5.37100 23.92700
C  10.45600 1.35000 24.56800
N  8.46100 3.63400 28.81700
C  9.30100 3.04700 29.70800
C  8.96700 3.51600 31.15400
C  7.79200 4.58900 30.88700
C  7.71500 4.61700 29.35300
C  6.46900 4.31700 31.72100
C  10.16400 4.14400 31.91500
C  9.82700 5.04300 33.10600
H  10.73000 4.97800 34.31400
N  7.53200 5.33100 26.36800
C  6.90400 6.05500 27.28900
C  6.13100 7.12800 26.58200
C  6.28600 6.99400 25.17300
C  7.25400 5.91400 25.08700
C  5.22500 8.03200 27.41400
C  5.70600 7.79100 23.95700
O  5.94500 7.45700 22.75900
C  4.66600 8.86600 24.26100
N  9.04300 3.26700 24.56000
C  8.47600 4.15200 23.66200
C  8.86300 3.79000 22.22700
C  9.78200 2.55100 22.41400
C  9.75100 2.35900 23.92100
C  7.67300 3.66000 21.27200
C  11.20900 2.82500 21.87700
C  11.74100 1.67400 20.97800
N  10.14000 2.07000 26.85500
C  10.72300 1.16000 25.90300
C  11.54800 0.22900 26.61100
C  11.40400 0.59000 27.98900
C  10.45600 1.56000 28.09800
C  12.46500 -0.74500 25.99500
C  11.83100 0.25000 29.31300
O  12.61500 -0.66200 29.66200
C  11.12900 1.28700 30.31900
C  10.50500 0.52800 31.45600
O  9.54700 -0.20800 31.38400
O  11.16900 0.90800 32.57000
C  10.52400 0.55300 33.86600
H  6.28600 6.14800 29.28200
H  7.67800 5.99500 23.04100
H  10.94500 0.66500 23.87200
H  8.58700 2.67400 31.73300
H  7.94100 5.65000 31.08700
H  5.54400 4.21500 31.15300
H  6.39400 5.13800 32.43400
H  6.61800 3.36500 32.23000
H  10.85000 4.64300 31.23000
H  10.72200 3.24400 32.17400
H  8.83800 4.80800 33.49900
H  9.77300 6.10300 32.85500
H  5.38400 7.99600 28.49200
H  4.22300 7.75000 27.09100
H  5.51200 9.03900 27.11000
H  4.15700 9.35400 23.42900
H  5.27400 9.63600 24.73700
H  3.90100 8.58600 24.98500
H  9.48400 4.59100 21.82700
H  9.32200 1.74700 21.84000
H  7.67200 4.14800 20.29700
H  6.88300 4.20600 21.78800
H  7.28000 2.64700 21.19400
H  11.85500 2.88400 22.75300
H  11.35100 3.78400 21.37900
H  12.56800 1.16300 21.47100
H  12.23600 2.13400 20.12300
H  11.02800 0.91300 20.66000
H  12.91500 -1.31500 26.80800
H  13.25500 -0.25400 25.42800
H  11.92800 -1.30600 25.23000
H  12.02500 1.83200 30.61500
H  9.95600 -0.37700 33.89900
H  9.89000 1.39100 34.15900
H  11.24300 0.54400 34.68500
Mg 49.73400 44.86100 42.00300
C  46.28400 44.54200 41.12200
C  49.91400 41.36800 41.51200
C  53.03700 45.11400 42.03100
C  49.31600 48.20900 42.44000
N  48.27000 43.21700 41.31800
C  46.93400 43.32200 41.10300
C  46.35800 41.94200 40.72100
C  47.38800 40.93400 41.22800
C  48.62100 41.89500 41.40700
C  47.06900 40.12600 42.57400
C  46.00800 41.83200 39.24000
C  44.60500 41.36900 38.91700
H  44.22300 41.53300 37.46700
N  51.28500 43.43100 41.88500
C  51.12900 42.06600 41.65100
C  52.46400 41.45500 41.77900
C  53.40100 42.51300 41.93300
C  52.58000 43.76100 41.92600
C  52.77600 39.94900 41.57300
C  54.92600 42.41500 41.85600
O  55.55300 41.30900 41.75500
C  55.87300 43.59400 41.90100
N  50.97800 46.44200 42.06500
C  52.32200 46.29300 42.17800
C  52.94800 47.70200 42.51800
C  51.74300 48.65700 42.70300
C  50.61600 47.71100 42.45200
C  53.97400 47.86100 43.68800
C  51.79500 49.89700 41.67800
C  52.30700 51.15700 42.31700
N  48.17900 46.15700 41.78100
C  48.15400 47.49200 42.10000
C  46.70900 48.02300 41.95600
C  46.00700 46.86600 41.54100
C  46.92700 45.77100 41.40600
C  46.17600 49.36300 42.22100
C  44.69100 46.44100 40.95700
O  43.67100 47.09800 40.72200
C  44.84800 44.84100 40.77700
C  43.79400 44.21200 41.61400
O  42.60600 43.97400 41.27300
O  44.27000 43.96500 42.83300
C  43.48100 43.12400 43.74600
H  49.91200 40.27600 41.48400
H  54.08300 45.36800 42.21900
H  49.21600 49.25000 42.75200
H  45.45500 41.83800 41.32300
H  47.60200 40.17400 40.47600
H  48.03000 40.21400 43.08100
H  46.91800 39.05000 42.49400
H  46.37400 40.59800 43.26900
H  46.53600 41.04800 38.69700
H  46.19000 42.82800 38.83600
H  43.95100 41.91600 39.59600
H  44.46600 40.30000 39.08400
H  53.49100 39.84800 40.75600
H  51.85300 39.39800 41.39200
H  53.43900 39.64700 42.38300
H  55.62200 44.17700 41.01500
H  56.87000 43.15300 41.89600
H  55.53700 44.03900 42.83800
H  53.49100 47.95900 41.60900
H  51.69300 49.08100 43.70600
H  54.84400 48.45300 43.40400
H  54.32500 46.84000 43.84200
H  53.59900 48.28300 44.62000
H  50.80200 50.06300 41.26100
H  52.37900 49.69600 40.77900
H  53.12200 51.54300 41.70400
H  52.77100 50.72800 43.20500
H  51.40700 51.75100 42.47400
H  45.36900 49.49200 41.50100
H  46.96300 50.06600 41.94900
H  45.78700 49.76100 43.15800
H  44.59400 44.73300 39.72300
H  42.88200 42.38900 43.20800
H  42.82600 43.75000 44.35100
H  44.20100 42.65000 44.41300

