158

Mg 1.80500 -1.24900 44.09300
C  5.17500 -0.54700 43.36400
C  0.99100 1.59800 42.31100
C  -1.33400 -2.13800 44.49100
C  2.80400 -4.52700 45.35100
N  3.00200 0.22100 42.85800
C  4.29700 0.45500 42.91900
C  4.71100 1.77100 42.16100
C  3.35800 2.46000 41.96900
C  2.34100 1.36500 42.41800
C  3.19300 3.88400 42.60400
C  5.48600 1.51800 40.90200
C  6.41300 2.66500 40.39500
H  6.05700 3.47000 39.16500
N  0.03600 -0.46400 43.42300
C  -0.10000 0.71400 42.75900
C  -1.54300 0.97100 42.58500
C  -2.29700 -0.01100 43.28700
C  -1.21300 -0.91000 43.80200
C  -2.10600 2.27800 41.86600
C  -3.85200 -0.20100 43.32700
O  -4.63200 0.63700 42.85200
C  -4.49700 -1.37200 44.08000
N  0.89500 -3.10100 44.80400
C  -0.40600 -3.21600 44.85500
C  -0.88200 -4.56600 45.32300
C  0.40000 -5.20800 45.74000
C  1.46900 -4.25600 45.27300
C  -2.01600 -4.35600 46.44400
C  0.45100 -6.69500 45.13300
C  0.93000 -7.74600 46.06200
N  3.59400 -2.32300 44.47100
C  3.84300 -3.56800 45.03100
C  5.29000 -3.74800 45.15400
C  5.84700 -2.62200 44.55100
C  4.77000 -1.75400 44.07500
C  6.04100 -4.85500 45.88900
C  7.02600 -1.93000 44.21300
O  8.20500 -2.20000 44.31700
C  6.64900 -0.64900 43.43300
C  7.22200 0.66400 43.94100
O  6.87700 1.11400 45.01700
O  8.09500 1.22700 43.00700
C  8.75600 2.44100 43.56100
H  0.67900 2.48600 41.75600
H  -2.34900 -2.48900 44.68800
H  3.16400 -5.51000 45.66500
H  5.27100 2.41200 42.84100
H  3.14300 2.62800 40.91400
H  4.14500 4.20800 43.02300
H  2.35500 3.86300 43.30100
H  3.04800 4.67400 41.86700
H  4.79800 1.31100 40.08200
H  6.07000 0.59900 40.95600
H  7.43100 2.28900 40.29000
H  6.58800 3.37600 41.20200
H  -2.36300 2.07200 40.82700
H  -1.36500 3.07700 41.83300
H  -3.00700 2.66500 42.34200
H  -5.57700 -1.24300 44.01900
H  -4.10200 -1.38700 45.09600
H  -4.15200 -2.15800 43.40800
H  -1.41300 -5.10000 44.53500
H  0.45900 -5.21800 46.82800
H  -1.82900 -4.87700 47.38300
H  -2.87200 -4.98100 46.19000
H  -2.38500 -3.34000 46.58500
H  1.17100 -6.65900 44.31500
H  -0.52300 -6.95500 44.72100
H  0.25900 -8.59900 46.17500
H  1.01600 -7.35600 47.07600
H  1.90200 -8.17800 45.82400
H  5.43100 -5.54100 46.47700
H  6.72800 -4.30500 46.53200
H  6.40100 -5.39400 45.01300
H  7.06500 -0.86500 42.44900
H  9.14100 2.98900 42.70100
H  9.42000 2.22600 44.39900
H  8.02800 3.02700 44.12200
Mg 26.72700 50.31600 26.42400
C  24.85200 51.69100 29.06800
C  29.19800 49.41500 28.79000
C  28.53300 49.01800 23.96700
C  24.43000 51.69300 24.29500
N  26.99400 50.57000 28.64600
C  26.04700 51.04500 29.51400
C  26.54700 50.90300 31.02500
C  27.97600 50.29500 30.86400
C  28.07700 50.07900 29.33100
C  29.14600 50.97900 31.54100
C  25.51900 50.19100 31.78800
C  25.62100 50.09700 33.28600
H  26.47100 51.06700 34.12600
N  28.63100 49.42700 26.37400
C  29.39700 49.13100 27.41000
C  30.57500 48.34600 26.99600
C  30.44400 48.16900 25.56300
C  29.15900 48.81400 25.25400
C  31.83900 48.01600 27.87000
C  31.31900 47.54300 24.53100
O  31.10700 47.57800 23.35900
C  32.53600 46.85900 24.92700
N  26.55200 50.39200 24.44200
C  27.36000 49.68100 23.59100
C  26.77700 49.76200 22.13700
C  25.32100 50.32100 22.28600
C  25.42700 50.86500 23.74600
C  27.73400 50.61000 21.24100
C  24.22300 49.31200 22.21200
C  22.90200 49.75200 21.78900
N  24.92100 51.46700 26.56500
C  24.15200 52.01400 25.62200
C  23.10600 52.82200 26.15800
C  23.35000 52.77300 27.56300
C  24.46400 51.88300 27.73100
C  22.21500 53.68600 25.37000
C  22.83200 53.18500 28.83700
O  21.87800 53.93100 29.04500
C  23.80100 52.48900 29.90000
C  24.42600 53.55600 30.72500
O  25.51900 54.05100 30.49700
O  23.63400 53.78600 31.82800
C  24.30100 54.52100 32.92000
H  29.88800 49.10000 29.57600
H  29.03700 48.47900 23.16300
H  23.64700 51.98300 23.59000
H  26.59200 51.92500 31.40200
H  27.90400 49.28900 31.27700
H  28.76400 51.84500 32.08300
H  29.79500 51.26200 30.71200
H  29.55700 50.16700 32.14100
H  25.45400 49.22600 31.28600
H  24.66500 50.85300 31.64500
H  26.08200 49.18400 33.66400
H  24.61200 50.15900 33.69500
H  31.92200 46.97500 28.18100
H  31.91400 48.65900 28.74700
H  32.66700 48.33800 27.23900
H  32.48700 46.30300 25.86400
H  33.27800 47.64700 24.80800
H  32.60200 46.15600 24.09700
H  26.72900 48.73800 21.76800
H  25.22200 51.17100 21.61100
H  28.07300 50.09900 20.34000
H  28.70000 50.80800 21.70500
H  27.22400 51.53000 20.95600
H  24.00300 48.85200 23.17500
H  24.55300 48.46500 21.61200
H  22.69900 50.81500 21.66000
H  22.25800 49.43800 22.61000
H  22.54300 49.42200 20.81400
H  22.65400 54.09100 24.45900
H  21.88900 54.43200 26.09500
H  21.35000 53.06600 25.13600
H  23.18100 51.96200 30.62600
H  23.56500 55.05900 33.51700
H  25.11600 55.20300 32.68000
H  24.64200 53.68400 33.52900

