158

Mg 48.08200 44.81600 41.66100
C  44.65600 44.13000 41.59600
C  48.63100 41.30500 41.30400
C  51.37900 45.23300 41.32500
C  47.41000 48.11200 41.43500
N  46.80100 42.95400 41.30000
C  45.37400 42.95500 41.40800
C  44.84200 41.54400 41.45600
C  46.10600 40.72800 41.36100
C  47.29400 41.68700 41.39800
C  46.19400 39.65600 42.44600
C  43.80900 41.17800 40.32300
C  43.89200 41.84800 38.95700
H  43.64500 41.15600 37.66100
N  49.78100 43.44400 41.30000
C  49.79100 42.12000 41.19600
C  51.15000 41.64900 41.09900
C  52.00200 42.73700 41.33100
C  51.06900 43.87000 41.34800
C  51.46800 40.15700 41.19300
C  53.44500 42.66500 41.75100
O  54.05700 41.60000 41.66800
C  54.28700 43.90600 42.08400
N  49.24100 46.43600 41.26200
C  50.59200 46.41600 41.31500
C  51.13600 47.87800 41.17500
C  49.89000 48.76300 41.29900
C  48.78100 47.71400 41.30900
C  52.34800 48.32300 42.08500
C  49.77600 49.93800 40.23100
C  49.30700 51.28800 40.85700
N  46.39800 45.97800 41.67500
C  46.28500 47.30300 41.62200
C  44.92300 47.74500 41.79500
C  44.19700 46.50800 41.82500
C  45.14200 45.48700 41.68700
C  44.43800 49.16300 41.87200
C  42.86000 45.87000 41.87500
O  41.74000 46.31000 42.13500
C  43.14000 44.26800 41.77400
C  42.51700 43.48700 42.84900
O  41.39900 42.85500 42.73200
O  43.35300 43.38500 43.92600
C  42.93500 42.38600 44.93100
H  48.88000 40.24900 41.42700
H  52.45700 45.39200 41.24700
H  47.04200 49.13200 41.30800
H  44.43300 41.37900 42.45300
H  46.09500 40.16800 40.42600
H  45.22100 39.31900 42.80300
H  46.77600 39.81300 43.35400
H  46.51400 38.69400 42.04600
H  42.80100 41.25700 40.73000
H  43.91900 40.13300 40.03200
H  44.80500 42.44400 38.93400
H  43.08700 42.58400 38.96000
H  51.72800 39.99000 42.23900
H  52.30800 39.72600 40.64900
H  50.68900 39.54400 40.74000
H  54.28900 44.50700 41.17500
H  55.36000 43.73100 42.16400
H  53.71800 44.40000 42.87100
H  51.60000 47.88300 40.18900
H  50.00600 49.10200 42.32800
H  53.29100 48.49700 41.56700
H  52.54100 47.51700 42.79300
H  52.18500 49.19900 42.71300
H  49.17000 49.69000 39.35900
H  50.80200 50.08200 39.89300
H  48.26600 51.36400 40.54400
H  49.96200 52.10400 40.55200
H  49.21200 51.31400 41.94300
H  43.41700 49.24900 42.24300
H  44.41100 49.48500 40.83100
H  45.02600 49.76300 42.56700
H  42.65600 43.87700 40.88000
H  43.76700 42.17500 45.60400
H  42.70100 41.41800 44.48800
H  42.17400 42.78900 45.59700
Mg -1.71700 34.83100 26.81300
C  -3.21600 32.93500 29.38500
C  -0.67600 37.08300 29.13200
C  -0.57000 36.69500 24.25900
C  -3.25000 32.65800 24.46400
N  -1.91800 34.99200 28.98700
C  -2.52300 34.07100 29.83300
C  -2.37000 34.52100 31.34900
C  -1.67300 35.88700 31.16700
C  -1.42900 36.00400 29.65400
C  -2.45900 37.04600 31.75000
C  -1.41900 33.51300 32.07000
C  -1.90200 32.88200 33.37300
H  -0.85800 32.79500 34.48900
N  -0.66500 36.61600 26.66500
C  -0.29500 37.39100 27.77100
C  0.44800 38.51900 27.32800
C  0.46500 38.41200 25.87900
C  -0.28800 37.22600 25.49600
C  0.99400 39.59500 28.18000
C  1.13300 39.45400 24.87200
O  1.19000 39.18300 23.64800
C  1.92300 40.61100 25.38000
N  -1.94000 34.78300 24.60400
C  -1.31100 35.63900 23.80100
C  -1.53400 35.24000 22.34900
C  -2.33200 33.88000 22.41600
C  -2.52500 33.75200 23.94700
C  -2.31200 36.38300 21.53200
C  -1.81100 32.54600 21.73600
C  -0.50800 32.08600 22.29400
N  -3.03300 33.21300 26.81400
C  -3.58800 32.44500 25.81600
C  -4.38600 31.37500 26.40600
C  -4.27900 31.52700 27.78600
C  -3.42400 32.58200 28.06100
C  -5.18900 30.32600 25.60000
C  -4.68900 30.92500 29.11400
O  -5.38200 29.99400 29.37300
C  -3.87200 31.81400 30.18800
C  -4.96500 32.23900 31.12900
O  -5.52700 33.35300 31.08000
O  -5.10800 31.31700 32.17300
C  -6.08700 31.59400 33.20000
H  -0.50600 37.88400 29.85400
H  -0.05200 37.13400 23.40300
H  -3.73500 31.97400 23.76500
H  -3.39600 34.57600 31.71100
H  -0.65200 35.96500 31.54200
H  -3.31900 36.60400 32.25300
H  -2.88400 37.58300 30.90200
H  -1.80700 37.60500 32.42000
H  -0.42000 33.89900 32.27300
H  -1.25100 32.69200 31.37300
H  -2.05200 31.82300 33.16600
H  -2.83500 33.30200 33.75200
H  2.06000 39.65500 27.95900
H  0.88400 39.34500 29.23500
H  0.53700 40.54900 27.91900
H  1.14300 41.27200 25.75800
H  2.48000 40.96100 24.51100
H  2.61000 40.28600 26.16100
H  -0.56500 34.90600 21.97900
H  -3.31700 34.14600 22.03300
H  -2.73900 37.01800 22.30800
H  -3.07100 35.87000 20.94100
H  -1.55600 36.93300 20.97200
H  -1.67000 32.65300 20.66100
H  -2.57700 31.78700 21.89700
H  0.26200 32.08000 21.52200
H  -0.54100 31.06300 22.66900
H  -0.15800 32.73600 23.09600
H  -6.04300 30.70500 25.04000
H  -5.55300 29.51200 26.22700
H  -4.47500 29.87400 24.91100
H  -3.13300 31.23700 30.74400
H  -5.76200 32.43400 33.81500
H  -6.13600 30.73600 33.87100
H  -7.05300 31.90700 32.80300

