158

Mg 24.51300 0.98200 29.78500
C  26.40500 0.87100 32.72300
C  21.75700 0.88800 31.77200
C  22.69400 0.77400 26.91300
C  27.50400 0.66500 27.88300
N  24.13900 1.09000 32.07400
C  25.03800 0.99800 33.02700
C  24.42000 1.14900 34.35500
C  22.89000 0.86900 34.05900
C  22.90800 1.00100 32.54500
C  22.27400 -0.50200 34.45400
C  24.81400 2.50600 35.16200
C  25.37200 2.40900 36.52700
H  25.00700 3.45100 37.63700
N  22.51000 0.91100 29.42900
C  21.56800 0.81700 30.37600
C  20.28100 0.77200 29.72600
C  20.52000 0.64100 28.29800
C  21.97200 0.76700 28.17300
C  18.98400 0.71100 30.49500
C  19.55500 0.37100 27.23000
O  19.83200 0.31000 26.03900
C  18.06800 0.29700 27.51100
N  25.03900 0.58600 27.76200
C  24.05900 0.74500 26.74500
C  24.68700 0.91100 25.35700
C  26.22300 0.87700 25.54600
C  26.28800 0.76100 27.15400
C  24.11500 -0.18200 24.40300
C  26.86100 2.12900 24.87900
C  26.74000 3.48800 25.63700
N  26.48600 0.70600 30.11700
C  27.55100 0.57100 29.27700
C  28.79000 0.50400 30.09400
C  28.35900 0.63200 31.38200
C  26.95400 0.73700 31.38400
C  30.19100 0.30600 29.57500
C  28.81600 0.78200 32.82300
O  29.93900 0.73300 33.22400
C  27.53200 0.81000 33.75200
C  27.57800 -0.32800 34.66400
O  26.95500 -1.37300 34.54700
O  28.36700 0.07100 35.77900
C  28.32600 -0.84000 36.93400
H  20.90600 1.03000 32.44200
H  22.09000 0.78000 26.00300
H  28.48400 0.70800 27.40200
H  24.72800 0.36200 35.04300
H  22.30700 1.70200 34.45200
H  23.00600 -1.24600 34.76700
H  21.77800 -0.95600 33.59600
H  21.56800 -0.42800 35.28200
H  23.85000 3.01300 35.20000
H  25.40100 3.19700 34.55700
H  26.44600 2.30400 36.37600
H  25.20800 1.43000 36.97800
H  18.99200 0.97900 31.55200
H  18.50800 -0.27000 30.48300
H  18.25000 1.34000 29.99200
H  17.79600 -0.50700 28.19400
H  17.66800 0.00500 26.54000
H  17.76100 1.27800 27.87300
H  24.40800 1.90300 25.00300
H  26.51600 -0.03100 25.01900
H  23.84600 0.45900 23.56300
H  23.23200 -0.64000 24.84900
H  24.81600 -0.97400 24.14200
H  26.20700 2.24900 24.01500
H  27.86000 1.81800 24.57300
H  27.59300 4.05700 25.26800
H  26.87600 3.28900 26.70000
H  25.81500 4.00700 25.38700
H  30.33500 0.46500 28.50600
H  30.45600 -0.72400 29.81000
H  30.80000 1.07400 30.05400
H  27.53800 1.75400 34.29700
H  28.25300 -1.83800 36.50400
H  27.46200 -0.57600 37.54500
H  29.19100 -0.84400 37.59800
Mg 48.73700 34.92500 27.06200
C  46.62600 33.87100 29.77400
C  49.15700 37.92500 28.85400
C  50.05600 36.27100 24.33600
C  47.79100 32.09600 25.22300
N  48.02400 35.72800 29.12600
C  47.36300 35.05400 30.06600
C  47.55700 35.72200 31.47200
C  47.90600 37.17500 31.02300
C  48.41800 36.98400 29.59000
C  46.78400 38.25900 31.25500
C  48.76700 35.03600 32.18800
C  48.63400 34.92100 33.73000
H  47.72100 35.93000 34.52200
N  49.37600 36.85600 26.62600
C  49.63700 37.90000 27.49700
C  50.19800 39.05700 26.79500
C  50.40500 38.61000 25.47300
C  49.95600 37.18400 25.47100
C  50.44200 40.41000 27.45500
C  51.00000 39.24800 24.23200
O  50.88600 38.79000 23.10000
C  51.70300 40.64900 24.34400
N  48.75900 34.27400 25.10300
C  49.46800 34.96700 24.16800
C  49.66300 34.22600 22.87900
C  49.22400 32.75500 23.22600
C  48.60300 33.03000 24.62100
C  48.93600 34.83800 21.59900
C  50.41500 31.69400 23.14700
C  51.53500 31.76000 22.06800
N  47.60800 33.32100 27.41200
C  47.24800 32.25900 26.56700
C  46.43700 31.29600 27.30400
C  46.17700 31.94400 28.48900
C  46.83000 33.16100 28.53300
C  45.89900 29.94500 26.86100
C  45.45400 31.79200 29.72800
O  44.87100 30.79900 30.14400
C  45.62200 33.08300 30.62900
C  45.98000 32.69100 31.96300
O  46.83000 31.86100 32.30900
O  45.07400 33.20600 32.87900
C  45.05900 32.82800 34.31300
H  49.38800 38.88000 29.33100
H  50.59800 36.50700 23.41800
H  47.63600 31.14700 24.70400
H  46.65600 35.64300 32.08100
H  48.65300 37.43600 31.77300
H  46.89200 38.97400 32.07100
H  45.78600 37.84100 31.38900
H  46.71700 38.89400 30.37200
H  49.76500 35.40900 31.96000
H  48.96900 34.01500 31.86500
H  49.62300 35.01200 34.18100
H  48.31500 33.91500 34.00000
H  51.38000 40.53000 27.99700
H  49.57000 40.64500 28.06400
H  50.35600 41.17800 26.68600
H  51.04000 41.51400 24.35500
H  52.40400 40.81100 23.52600
H  52.25100 40.66100 25.28600
H  50.72500 34.23000 22.63200
H  48.40500 32.38500 22.61000
H  49.02300 35.91300 21.75800
H  47.89700 34.51000 21.59200
H  49.45600 34.41500 20.73900
H  50.09400 30.66700 22.97100
H  50.93700 31.87100 24.08700
H  51.16200 32.39500 21.26500
H  51.68400 30.74000 21.71200
H  52.54000 32.03500 22.38800
H  45.73500 29.90000 25.78400
H  44.94700 29.83400 27.38000
H  46.55900 29.15900 27.22700
H  44.72300 33.69700 30.57600
H  44.43400 33.56100 34.82300
H  46.04000 32.70300 34.77300
H  44.59800 31.85100 34.45700

