158

Mg 53.02300 24.29100 44.98000
C  50.39200 26.39300 43.83300
C  51.47700 21.71500 43.60100
C  55.98500 22.75500 45.14400
C  54.57300 27.34900 45.83900
N  51.25900 24.15200 43.62200
C  50.25000 25.06200 43.36600
C  49.18400 24.44500 42.46300
C  49.26500 22.93100 42.83300
C  50.76000 22.90900 43.39200
C  48.30300 22.38700 43.95200
C  49.52500 24.84600 40.96200
C  48.29600 25.09400 40.10100
H  48.02700 24.15600 38.86800
N  53.64800 22.40800 44.62700
C  52.83600 21.47600 44.03100
C  53.54300 20.23900 44.05700
C  54.89300 20.44700 44.52100
C  54.90700 21.92500 44.79900
C  52.83200 18.93700 43.57100
C  55.96700 19.34500 44.68500
O  55.77400 18.18700 44.35100
C  57.21000 19.64100 45.46900
N  55.04400 25.00200 45.38200
C  56.02300 24.12200 45.57800
C  57.35000 24.80000 46.08800
C  56.85400 26.28000 46.19700
C  55.39600 26.23300 45.79900
C  58.24500 24.15900 47.25900
C  57.62700 27.28100 45.39500
C  58.33500 28.52500 46.04400
N  52.53500 26.38500 45.03900
C  53.22900 27.42100 45.51000
C  52.34200 28.57100 45.68800
C  51.20000 28.26000 44.95800
C  51.39800 26.90000 44.61100
C  52.77100 29.85800 46.31400
C  50.00300 28.71300 44.39700
O  49.51800 29.79400 44.41600
C  49.38500 27.55000 43.65600
C  49.32300 27.97300 42.17700
O  50.20400 28.60500 41.61700
O  48.05200 27.83400 41.72400
C  47.77000 28.55800 40.46800
H  50.91200 20.87000 43.20300
H  56.94200 22.25200 45.29600
H  55.03000 28.29200 46.14900
H  48.19200 24.84000 42.68200
H  49.38800 22.31700 41.94100
H  48.71200 21.82100 44.78900
H  47.69500 21.63300 43.45200
H  47.63000 23.18200 44.27500
H  50.09400 24.04100 40.49700
H  50.23500 25.66800 40.87000
H  48.39200 26.00200 39.50600
H  47.38400 25.19600 40.68800
H  52.75200 19.05800 42.49100
H  51.86300 18.86800 44.06600
H  53.43900 18.07600 43.84700
H  57.89600 20.39200 45.07800
H  57.61000 18.64700 45.66900
H  56.84900 19.91500 46.46000
H  58.04700 24.79300 45.24900
H  56.86600 26.48700 47.26700
H  57.76200 23.23900 47.58700
H  58.41400 24.85300 48.08200
H  59.25700 23.91900 46.93400
H  56.89100 27.71200 44.71500
H  58.35800 26.84500 44.71400
H  58.54700 28.38100 47.10400
H  57.73400 29.42100 45.89100
H  59.28100 28.56200 45.50300
H  53.34700 29.88500 47.23900
H  51.84600 30.38800 46.53800
H  53.36000 30.50900 45.66800
H  48.39100 27.30200 44.02800
H  48.59400 28.95400 39.87400
H  47.13500 29.41500 40.69300
H  47.18300 27.86600 39.86300
Mg -2.19000 34.18100 27.67100
C  -3.50400 32.48500 30.47500
C  -0.72800 36.43200 29.77900
C  -1.62400 36.13400 25.06700
C  -3.83700 31.94500 25.63700
N  -2.09200 34.43600 29.84300
C  -2.70000 33.57300 30.78600
C  -2.35900 34.01300 32.18200
C  -1.44100 35.24100 31.96600
C  -1.39400 35.40600 30.46000
C  -1.75900 36.58900 32.70200
C  -1.80500 32.97100 33.19900
C  -2.46900 32.74600 34.56500
H  -1.52900 32.66500 35.72100
N  -1.29800 36.08800 27.43500
C  -0.65900 36.79700 28.38800
C  -0.12000 38.02900 27.86500
C  -0.52000 38.01800 26.48700
C  -1.11500 36.67400 26.25300
C  0.66800 38.95000 28.69100
C  -0.35300 39.16900 25.49800
O  -0.81200 38.98400 24.36600
C  0.30000 40.53200 25.78000
N  -2.84300 34.10900 25.54100
C  -2.32700 34.95800 24.72000
C  -2.43200 34.49800 23.30000
C  -3.06500 33.05800 23.42200
C  -3.28300 33.01100 24.95000
C  -3.30500 35.39700 22.38200
C  -2.12000 31.85000 22.80500
C  -0.82200 31.57100 23.53800
N  -3.39300 32.50800 27.93800
C  -3.97400 31.67500 27.01400
C  -4.65200 30.61300 27.65800
C  -4.44600 30.86100 29.00200
C  -3.78400 32.08000 29.15600
C  -5.47400 29.56600 27.07900
C  -4.88100 30.46000 30.34400
O  -5.68200 29.57300 30.74100
C  -4.26200 31.50700 31.31100
C  -5.45500 32.14500 31.99800
O  -6.46600 32.52400 31.46700
O  -5.27700 32.10100 33.34100
C  -6.43100 32.54500 34.16400
H  -0.23900 37.15300 30.43800
H  -1.36100 36.73700 24.19500
H  -4.23800 31.16800 24.98300
H  -3.24800 34.33900 32.72200
H  -0.39800 35.04500 32.21600
H  -0.84600 36.84400 33.24000
H  -2.49200 36.33400 33.46800
H  -1.94800 37.48400 32.10900
H  -0.73100 33.12300 33.30500
H  -1.84900 32.00500 32.69600
H  -3.03400 31.81900 34.47700
H  -3.06200 33.62400 34.82100
H  1.60000 38.97000 28.12700
H  0.95700 38.67800 29.70600
H  0.23700 39.94700 28.78000
H  1.33800 40.43800 26.10100
H  -0.28100 40.96400 26.59400
H  0.29800 41.24800 24.95700
H  -1.47000 34.30400 22.82700
H  -4.08600 33.00600 23.04500
H  -3.92800 34.82600 21.69400
H  -2.72100 36.07200 21.75500
H  -3.86600 36.16600 22.91400
H  -1.87600 32.10500 21.77400
H  -2.70400 30.93300 22.73300
H  -0.60300 32.29700 24.32100
H  0.05600 31.64400 22.89700
H  -0.85600 30.56800 23.96400
H  -5.60700 28.78000 27.82200
H  -4.99400 29.21200 26.16700
H  -6.46800 29.97100 26.88600
H  -3.61900 31.00800 32.03600
H  -7.19800 31.77900 34.27100
H  -6.85700 33.47300 33.78200
H  -6.11300 32.78600 35.17900

