158

Mg 0.15100 8.53600 27.00800
C  0.68100 10.47900 29.88500
C  -0.09000 5.81900 29.03000
C  0.28300 6.55000 24.29000
C  0.59400 11.22400 25.06300
N  0.44000 8.14100 29.26700
C  0.46400 9.16100 30.24200
C  0.16200 8.48000 31.64700
C  0.11100 6.99300 31.25600
C  0.15500 6.96200 29.74000
C  1.22100 6.08900 31.90600
C  -1.08900 9.19700 32.32600
C  -0.92400 9.33300 33.85600
H  0.21900 8.62900 34.53300
N  0.13600 6.41800 26.65900
C  -0.10700 5.47500 27.64500
C  -0.28500 4.12900 27.08900
C  -0.18200 4.32000 25.68400
C  0.05700 5.82400 25.47400
C  -0.75300 3.00900 27.92300
C  -0.41000 3.37800 24.56300
O  -0.45300 3.76600 23.36800
C  -0.61100 1.91300 24.86300
N  0.57900 8.80100 24.87800
C  0.52000 7.90100 23.98600
C  0.63300 8.45500 22.57200
C  0.33100 9.95800 22.91700
C  0.55700 10.04800 24.38400
C  2.06600 8.14300 22.02500
C  -1.12700 10.47900 22.54500
C  -1.28700 11.08500 21.21400
N  0.55300 10.44500 27.35400
C  0.68000 11.46400 26.42600
C  1.10500 12.70800 27.18500
C  1.09300 12.31300 28.52000
C  0.78300 10.93700 28.57200
C  1.39900 14.12200 26.62100
C  1.34600 12.77000 29.81600
O  1.75600 13.86000 30.21000
C  0.91800 11.63200 30.77500
C  2.01300 11.47100 31.80200
O  3.14200 10.95000 31.64500
O  1.62300 12.03800 32.98200
C  2.64500 12.13900 34.00600
H  -0.24600 4.95000 29.67200
H  0.49000 5.97900 23.38200
H  0.65000 12.11300 24.43200
H  1.08500 8.60100 32.21400
H  -0.85300 6.51800 31.44200
H  2.00000 5.95500 31.15600
H  0.87100 5.07000 32.07400
H  1.55300 6.54900 32.83700
H  -1.97800 8.61400 32.08500
H  -1.27700 10.19800 31.93700
H  -1.88600 8.95900 34.20600
H  -1.02100 10.37000 34.17600
H  -1.71700 2.68100 27.53500
H  -0.92500 3.25600 28.97100
H  0.00100 2.22400 27.86200
H  -1.62000 1.63000 25.16300
H  0.09000 1.63500 25.65000
H  -0.35900 1.33900 23.97100
H  -0.18200 8.06000 21.96600
H  1.07100 10.55600 22.38600
H  2.60000 9.08600 22.14200
H  2.07300 7.91700 20.95900
H  2.62300 7.41200 22.61200
H  -1.55300 11.09400 23.33800
H  -1.79000 9.61500 22.48800
H  -1.80700 12.04200 21.26000
H  -1.89500 10.46900 20.55100
H  -0.35600 11.21600 20.66400
H  2.31100 14.26600 26.04200
H  1.52600 14.85000 27.42200
H  0.51100 14.39900 26.05400
H  0.04400 11.97600 31.33000
H  2.75000 13.10900 34.49100
H  3.65500 11.83600 33.73200
H  2.35400 11.50000 34.84000
Mg 35.57200 48.59500 25.36800
C  35.99900 46.69700 28.29600
C  34.37400 51.13700 27.32700
C  34.61100 50.14400 22.53300
C  36.30400 45.69300 23.52700
N  35.06100 48.80500 27.58400
C  35.33000 47.88100 28.62500
C  35.01900 48.49700 29.93500
C  34.30000 49.86900 29.59000
C  34.64200 49.98200 28.08200
C  32.74300 49.93500 29.81900
C  36.26700 48.74600 30.94300
C  36.09200 48.73900 32.43000
H  34.67000 48.58500 32.99900
N  34.63600 50.41300 25.03200
C  34.29100 51.34400 25.91300
C  33.93300 52.58200 25.26100
C  33.87500 52.26200 23.91600
C  34.39700 50.88700 23.75000
C  33.77200 53.91200 25.92500
C  33.41800 53.19400 22.74600
O  33.28600 52.80300 21.57200
C  33.10100 54.64400 22.96000
N  35.29100 47.93400 23.37500
C  35.00000 48.83000 22.39300
C  35.13400 48.17700 21.03900
C  35.72500 46.77200 21.33300
C  35.75800 46.77300 22.85300
C  33.80900 48.09700 20.24100
C  37.19000 46.51500 20.68300
C  38.36300 47.09300 21.48300
N  36.08900 46.63600 25.76200
C  36.55100 45.70500 24.91500
C  37.07800 44.58400 25.71800
C  36.81400 44.91800 27.04900
C  36.22100 46.21000 26.96800
C  37.77800 43.35700 25.21800
C  36.91600 44.46600 28.36400
O  37.33800 43.38500 28.78200
C  36.45400 45.64700 29.25600
C  35.38100 45.13900 30.13500
O  34.20000 44.96500 29.76800
O  35.96100 44.86200 31.32200
C  34.93900 44.63100 32.30400
H  34.02000 51.90800 28.01400
H  34.51500 50.71300 21.60600
H  36.54600 44.77900 22.98000
H  34.24000 47.91000 30.42100
H  34.72800 50.71800 30.12400
H  32.31800 50.03400 28.82000
H  32.37500 50.83600 30.31000
H  32.27200 49.07300 30.29100
H  36.73900 49.71000 30.75500
H  36.99500 47.95000 30.79000
H  36.40800 49.73300 32.74600
H  36.66200 48.00300 32.99700
H  32.92400 54.52100 25.61200
H  34.60200 54.56600 25.66000
H  33.65000 53.78100 27.00000
H  33.88600 55.13300 23.53700
H  32.11600 54.62200 23.42700
H  33.08400 55.00000 21.93000
H  35.81900 48.70300 20.37400
H  34.96500 46.05300 21.02700
H  33.00700 48.61600 20.76600
H  33.59900 47.06400 19.96500
H  34.02600 48.68500 19.34900
H  37.31000 47.02500 19.72700
H  37.51900 45.48700 20.53000
H  37.99500 47.44400 22.44700
H  38.74300 48.02100 21.05500
H  39.07900 46.28200 21.61700
H  38.40100 43.12100 26.08000
H  38.29500 43.51700 24.27100
H  36.96900 42.63000 25.14700
H  37.29200 45.95100 29.88300
H  34.60100 43.61400 32.10300
H  34.05600 45.27000 32.26800
H  35.49800 44.67000 33.23900

