158

Mg 2.36700 -0.61900 43.00800
C  5.79900 0.31500 42.70000
C  1.60600 2.58700 41.98400
C  -0.69800 -1.70000 42.79500
C  3.53100 -3.92800 43.78200
N  3.62800 1.21900 42.40400
C  5.00000 1.43400 42.48400
C  5.38700 2.84700 41.98000
C  3.99700 3.58800 42.07300
C  2.97800 2.39700 42.16900
C  3.72200 4.67600 43.20600
C  6.03800 2.77500 40.65900
C  5.73900 1.68000 39.59700
H  5.83000 2.02000 38.05100
N  0.64900 0.33700 42.42500
C  0.50500 1.68000 42.06500
C  -0.93200 1.97900 41.94300
C  -1.59900 0.74200 42.13300
C  -0.57300 -0.28200 42.45100
C  -1.54500 3.28200 41.71800
C  -3.11100 0.48100 42.00100
O  -3.78400 1.43000 41.62600
C  -3.78200 -0.90300 42.22900
N  1.51100 -2.59800 43.16100
C  0.15700 -2.69300 43.15500
C  -0.35400 -4.11300 43.50500
C  1.04800 -4.83400 43.84100
C  2.10700 -3.73400 43.58900
C  -1.42100 -4.22800 44.59100
C  1.34700 -6.19300 42.93400
C  0.60400 -7.41800 43.42100
N  4.24900 -1.67500 43.31000
C  4.53900 -2.98100 43.58900
C  5.93900 -3.14300 43.65100
C  6.40200 -1.90200 43.29100
C  5.39200 -1.02600 43.17300
C  6.81100 -4.31900 43.99700
C  7.63000 -1.23000 43.11500
O  8.78400 -1.65300 43.21900
C  7.27000 0.19800 42.70500
C  7.95600 1.20500 43.56200
O  8.78100 2.04400 43.22000
O  7.39900 1.26200 44.79600
C  8.07000 2.12300 45.82100
H  1.43000 3.64600 41.78700
H  -1.66300 -2.19300 42.65700
H  3.93900 -4.91600 44.00500
H  6.09800 3.31900 42.65800
H  3.84400 4.16500 41.16100
H  2.79400 4.56500 43.76700
H  3.72300 5.70700 42.85300
H  4.50000 4.63600 43.96900
H  7.11800 2.86800 40.76400
H  5.67800 3.56900 40.00500
H  4.67700 1.47100 39.72500
H  6.35600 0.82000 39.86000
H  -1.76600 3.45700 40.66500
H  -0.67500 3.86000 42.03000
H  -2.36100 3.42600 42.42600
H  -3.31100 -1.38000 43.08800
H  -3.53400 -1.32300 41.25400
H  -4.82800 -0.64300 42.39100
H  -0.76000 -4.42700 42.54400
H  1.10900 -5.14200 44.88500
H  -0.93800 -4.27800 45.56700
H  -2.10600 -5.05700 44.41100
H  -1.96700 -3.29500 44.45200
H  2.42500 -6.35400 42.91000
H  0.98900 -5.94400 41.93500
H  0.30500 -7.30400 44.46300
H  1.11300 -8.37800 43.34300
H  -0.31700 -7.62000 42.87400
H  6.56000 -5.24700 43.48300
H  6.92500 -4.50700 45.06400
H  7.81800 -4.22200 43.59100
H  7.73000 0.27800 41.72100
H  9.04000 2.46700 45.46200
H  8.18900 1.60200 46.77100
H  7.40800 2.97900 45.95500
Mg 47.17300 15.64700 28.44700
C  45.22800 15.53400 31.40900
C  49.36400 17.55000 29.90000
C  48.78500 15.88800 25.43800
C  44.64400 13.86800 26.87000
N  47.18800 16.50700 30.44000
C  46.38900 16.33400 31.51100
C  46.96000 17.05700 32.78600
C  48.08500 17.95300 32.14400
C  48.22900 17.37100 30.72500
C  47.68500 19.51200 32.15000
C  47.40300 16.07800 33.86700
C  47.29500 16.48900 35.36100
H  48.59500 16.28000 36.10700
N  48.95700 16.42600 27.83700
C  49.72700 17.20300 28.60800
C  50.97100 17.55300 27.86600
C  50.79800 17.01700 26.55600
C  49.48800 16.43500 26.58500
C  52.04900 18.39400 28.45400
C  51.80400 16.99100 25.49100
O  51.62100 16.52900 24.38400
C  53.29000 17.55600 25.66900
N  46.61700 15.25100 26.26700
C  47.53800 15.32600 25.23100
C  47.19900 14.43500 24.01800
C  45.72800 13.96000 24.45200
C  45.66200 14.34600 25.98900
C  47.39600 15.11000 22.75900
C  45.30000 12.48800 24.14300
C  45.78500 11.37700 25.03600
N  45.29500 14.97400 28.98100
C  44.40300 14.22500 28.22600
C  43.22600 13.82900 28.94800
C  43.55200 14.28100 30.24200
C  44.79500 14.93200 30.22500
C  42.08700 13.03500 28.45800
C  43.04200 14.36100 31.60100
O  42.09800 13.85200 32.13200
C  44.11500 15.25500 32.42700
C  43.42100 16.49100 32.91500
O  42.95800 17.38800 32.15300
O  43.24200 16.39000 34.23600
C  43.11900 17.70600 34.85800
H  50.01700 18.18600 30.50100
H  49.41400 15.94300 24.54700
H  43.93900 13.24800 26.31400
H  46.17900 17.75300 33.08900
H  49.04100 17.79100 32.64200
H  47.63400 19.81700 31.10500
H  48.52200 19.99600 32.65400
H  46.68900 19.74700 32.52300
H  48.45300 16.00600 33.58300
H  47.03300 15.05700 33.77400
H  46.52700 15.88900 35.84900
H  47.09100 17.55400 35.47100
H  51.85900 18.71400 29.47800
H  52.08500 19.31100 27.86600
H  52.95700 17.79100 28.49700
H  53.79900 17.06900 26.50000
H  53.13200 18.62600 25.80200
H  53.88500 17.40600 24.76700
H  47.84400 13.57500 24.19700
H  44.95900 14.62200 24.05400
H  46.48400 15.08100 22.16300
H  48.22800 14.63500 22.23900
H  47.79400 16.12000 22.85800
H  45.67100 12.36000 23.12600
H  44.21000 12.51400 24.13000
H  46.48400 11.74100 25.78900
H  46.34100 10.67800 24.41200
H  44.95600 10.93800 25.59000
H  41.56600 12.44200 29.20900
H  42.44900 12.35700 27.68500
H  41.29400 13.62900 28.00400
H  44.67500 14.73600 33.20600
H  43.38400 18.54700 34.21600
H  43.75100 17.78200 35.74200
H  42.12000 17.96800 35.20700

