158

Mg 8.20300 2.56100 28.32400
C  9.54900 1.05300 31.22400
C  6.31500 4.61100 30.37800
C  7.19500 4.03400 25.60900
C  9.76200 -0.04700 26.45300
N  7.89900 2.64800 30.52800
C  8.65200 2.13800 31.51300
C  8.36800 2.72400 32.87800
C  7.23400 3.72100 32.63800
C  7.11000 3.66200 31.06100
C  5.89800 3.39500 33.37200
C  9.63500 3.41400 33.50200
C  10.12600 3.01600 34.85500
H  9.09000 2.75800 36.03500
N  7.07100 4.21600 27.99400
C  6.29600 4.87200 29.00300
C  5.54600 5.95700 28.29200
C  5.79500 5.85000 26.94600
C  6.69700 4.67100 26.75200
C  4.61900 6.83500 29.02900
C  5.27700 6.72400 25.79000
O  5.69200 6.60100 24.60000
C  4.42000 7.86700 26.03200
N  8.43600 2.10100 26.37200
C  7.96000 2.86600 25.43500
C  8.22000 2.32400 23.96700
C  9.25000 1.14400 24.24200
C  9.15100 1.05200 25.79900
C  6.94300 1.87100 23.14700
C  10.75900 1.37900 23.82200
C  11.33400 2.64000 24.40900
N  9.33400 0.76300 28.72600
C  9.87500 -0.18900 27.87100
C  10.57300 -1.23600 28.62300
C  10.50300 -0.77300 29.92900
C  9.72000 0.44700 29.95200
C  11.28000 -2.47700 28.14100
C  10.92800 -1.01100 31.27200
O  11.58200 -1.95500 31.75300
C  10.32900 0.13100 32.21100
C  9.43600 -0.49800 33.17600
O  8.30600 -0.81900 32.94200
O  9.94500 -0.59900 34.41700
C  9.40800 -1.59200 35.36300
H  5.83200 5.28600 31.08700
H  6.84900 4.43800 24.65600
H  10.24600 -0.77700 25.80000
H  8.16000 1.92000 33.58400
H  7.43200 4.78600 32.75600
H  5.86400 2.42900 33.87500
H  5.10600 3.38200 32.62400
H  5.67200 4.21800 34.05100
H  9.36800 4.44800 33.72200
H  10.48900 3.33700 32.82900
H  10.83400 3.80100 35.12300
H  10.72100 2.11600 34.69900
H  4.84800 7.87100 28.77800
H  4.65300 6.75900 30.11600
H  3.56100 6.66700 28.83200
H  3.54200 7.37000 26.44300
H  4.10700 8.37000 25.11700
H  4.90400 8.66500 26.59500
H  8.63800 3.15000 23.39100
H  8.96300 0.20300 23.77200
H  6.92900 0.82900 22.82900
H  6.95800 2.55400 22.29700
H  6.09900 2.18600 23.76000
H  10.82800 1.53900 22.74600
H  11.38500 0.50500 24.00300
H  12.39400 2.61600 24.66300
H  11.01300 2.86800 25.42500
H  11.19700 3.46500 23.70900
H  11.76000 -2.34500 27.17100
H  10.57400 -3.30000 28.02500
H  12.15900 -2.66400 28.75800
H  11.16300 0.58100 32.75000
H  10.21100 -2.09200 35.90500
H  8.65200 -2.29600 35.01600
H  8.95400 -1.07000 36.20600
Mg -1.48900 34.84800 26.73800
C  -3.37300 33.16500 29.39800
C  0.02100 36.69200 29.04300
C  -0.37500 36.65200 24.17000
C  -3.30300 32.80800 24.45500
N  -1.70000 34.86800 28.96900
C  -2.43500 34.13700 29.81300
C  -2.17200 34.47100 31.32400
C  -1.11000 35.69700 31.13100
C  -0.86500 35.70900 29.58500
C  -1.39600 37.04800 31.84600
C  -1.52900 33.25100 32.15400
C  -2.41900 32.82300 33.35400
H  -1.64400 32.37900 34.57200
N  -0.37000 36.37200 26.62500
C  0.23000 37.02100 27.69400
C  1.05400 38.12000 27.18300
C  0.88500 38.17300 25.77500
C  -0.00900 37.06400 25.48000
C  1.78300 39.10700 28.08500
C  1.44400 39.19600 24.77800
O  1.02000 39.20300 23.62500
C  2.61700 39.94500 25.12400
N  -1.88200 34.77300 24.53500
C  -1.22600 35.60600 23.74000
C  -1.39600 35.15600 22.29200
C  -2.22300 33.81900 22.32500
C  -2.43000 33.72200 23.85400
C  -1.93600 36.23900 21.27800
C  -1.48000 32.57300 21.67400
C  -0.37800 31.94500 22.41600
N  -3.03800 33.37600 26.82600
C  -3.59600 32.63000 25.81500
C  -4.41500 31.53800 26.42200
C  -4.27900 31.79100 27.77900
C  -3.48500 32.88700 27.98700
C  -4.95300 30.40600 25.57400
C  -4.71800 31.16500 29.00100
O  -5.35800 30.12900 29.13800
C  -4.18900 32.06900 30.16900
C  -5.36300 32.60400 30.88800
O  -6.23800 33.27500 30.42200
O  -5.33800 32.24800 32.19700
C  -6.49500 32.47300 33.08300
H  0.42400 37.18800 29.92900
H  0.02000 37.20000 23.31200
H  -3.71000 32.13600 23.69600
H  -3.09200 34.90800 31.71100
H  -0.17200 35.38200 31.58800
H  -0.50400 37.42300 32.34800
H  -2.20700 36.94900 32.56900
H  -1.69900 37.71600 31.04000
H  -0.51400 33.51100 32.45500
H  -1.39900 32.39400 31.49300
H  -2.88700 31.84900 33.20500
H  -3.13500 33.61400 33.57700
H  1.35800 40.08000 27.83700
H  2.85600 38.98900 27.93900
H  1.53400 38.89400 29.12500
H  2.33700 40.68800 25.87100
H  3.04700 40.41100 24.23800
H  3.32900 39.22000 25.51700
H  -0.32800 35.04200 22.10800
H  -3.21800 33.98700 21.91200
H  -1.38400 36.25000 20.33800
H  -1.90100 37.20300 21.78400
H  -2.98400 35.98700 21.11600
H  -1.19100 32.90600 20.67700
H  -2.26000 31.83000 21.50600
H  -0.13900 32.56300 23.28100
H  0.36500 31.71900 21.65100
H  -0.70000 30.99600 22.84300
H  -4.35700 30.18400 24.68900
H  -5.84900 30.70800 25.03100
H  -4.95100 29.54900 26.24700
H  -3.57700 31.39400 30.76700
H  -7.24900 33.16800 32.71300
H  -6.07200 32.66300 34.06900
H  -7.00800 31.52200 33.22400

