158

Mg 0.52100 43.04100 25.71100
C  2.40800 43.02400 28.61700
C  -2.28700 42.42200 27.69200
C  -1.16800 42.43900 22.90800
C  3.52800 42.89400 23.81800
N  0.07400 42.67200 27.94000
C  1.01200 42.90800 28.93400
C  0.35400 42.81800 30.33000
C  -1.19400 42.56500 29.98300
C  -1.18100 42.53900 28.47900
C  -2.05900 41.42400 30.58500
C  0.67400 44.10800 31.17500
C  1.46000 43.83600 32.52500
H  1.01200 42.63800 33.33300
N  -1.46900 42.57800 25.34700
C  -2.50300 42.42500 26.27000
C  -3.76000 42.30200 25.53100
C  -3.42800 42.19100 24.16100
C  -1.98100 42.41200 24.12300
C  -5.15300 42.18900 26.21900
C  -4.38800 42.14100 22.97800
O  -4.06100 41.90900 21.83300
C  -5.85900 42.44100 23.29700
N  1.11600 42.79400 23.68000
C  0.21400 42.60800 22.66800
C  0.82200 42.60100 21.24200
C  2.31500 42.95100 21.67400
C  2.34000 42.86500 23.15600
C  0.60700 41.27800 20.49100
C  2.86000 44.24100 21.13700
C  2.47800 45.64500 21.77800
N  2.53500 42.97700 26.04300
C  3.68600 42.99900 25.19500
C  4.88100 43.00900 26.00400
C  4.38600 43.02600 27.31700
C  3.00200 42.96600 27.26600
C  6.31500 43.02100 25.44600
C  4.89800 43.04300 28.64700
O  6.04600 43.11100 29.02400
C  3.61500 43.03700 29.50300
C  3.70300 41.79700 30.32800
O  3.14200 40.69100 30.12500
O  4.51300 42.05600 31.43900
C  4.61700 40.98900 32.38600
H  -3.21300 42.19300 28.22200
H  -1.65800 42.13200 21.98100
H  4.40900 42.91300 23.17300
H  0.76000 41.92500 30.80600
H  -1.76600 43.45100 30.25900
H  -2.93700 41.67100 31.18100
H  -1.42400 40.82900 31.24000
H  -2.40800 40.71200 29.83700
H  -0.22900 44.68500 31.37900
H  1.33700 44.77500 30.62400
H  1.21700 44.74700 33.07200
H  2.53100 43.92600 32.34600
H  -5.17600 42.17400 27.30900
H  -5.49000 41.25400 25.77300
H  -5.77100 42.97300 25.78100
H  -6.28500 41.62000 23.87400
H  -6.39200 42.59200 22.35900
H  -5.98600 43.38500 23.82600
H  0.35800 43.39000 20.65000
H  2.99600 42.13200 21.44400
H  0.21000 40.53600 21.18400
H  1.59100 40.90300 20.21100
H  -0.05200 41.40000 19.63100
H  2.46700 44.35800 20.12700
H  3.94000 44.14900 21.02300
H  2.14900 45.42800 22.79400
H  1.61500 46.01400 21.22400
H  3.38100 46.25500 21.79300
H  6.46000 42.78600 24.39200
H  6.78700 42.25500 26.06100
H  6.82400 43.95700 25.67800
H  3.69200 43.80200 30.27500
H  5.00500 40.13000 31.84000
H  3.67400 40.66200 32.82400
H  5.31700 41.33700 33.14600
Mg -11.37200 16.60700 41.59200
C  -8.39100 14.99200 40.94100
C  -10.27000 19.35000 39.75400
C  -14.52400 17.83900 41.63600
C  -12.69200 13.48200 42.42000
N  -9.49200 17.14600 40.55300
C  -8.42800 16.26800 40.32400
C  -7.26600 16.91800 39.52800
C  -7.91700 18.24900 39.02400
C  -9.27700 18.29400 39.81600
C  -6.95500 19.50600 39.09600
C  -6.79000 15.97800 38.37300
C  -5.28600 15.94800 38.19100
H  -4.71800 15.83500 36.80800
N  -12.27600 18.38900 40.89100
C  -11.65100 19.40600 40.21400
C  -12.53700 20.56100 39.96400
C  -13.79300 20.15500 40.52700
C  -13.59100 18.72800 41.01600
C  -12.15300 21.83800 39.18200
C  -15.06800 20.98400 40.56000
O  -15.16500 22.03300 39.95300
C  -16.23600 20.58500 41.34500
N  -13.33800 15.72300 41.77600
C  -14.41200 16.53700 42.05600
C  -15.58200 15.75400 42.62600
C  -15.16900 14.33900 42.32600
C  -13.65300 14.46900 42.20100
C  -15.79300 15.96600 44.13300
C  -15.87800 13.67600 41.03300
C  -16.37100 12.19300 41.30600
N  -10.66200 14.77700 41.86800
C  -11.33100 13.59000 42.24400
C  -10.38500 12.57000 42.49500
C  -9.21400 13.12400 42.03400
C  -9.46400 14.43300 41.62800
C  -10.52700 11.17000 42.93300
C  -7.81600 12.84500 41.84400
O  -7.19000 11.84400 42.08900
C  -7.23200 14.03000 41.06800
C  -6.16700 14.61900 41.95600
O  -6.31500 15.11000 43.07600
O  -4.89500 14.55400 41.33900
C  -3.80100 15.38100 41.89700
H  -9.88100 20.12600 39.09000
H  -15.55900 18.13300 41.82100
H  -13.23300 12.58700 42.73300
H  -6.48100 17.14800 40.24900
H  -8.24800 18.14500 37.99100
H  -6.02200 19.12400 39.51100
H  -7.37400 20.33600 39.66500
H  -6.81100 19.89100 38.08700
H  -7.19500 16.31000 37.41700
H  -7.22100 14.97900 38.43300
H  -4.79500 15.20000 38.81400
H  -4.95900 16.95500 38.45200
H  -12.96700 22.56100 39.23800
H  -11.81100 21.57200 38.18200
H  -11.27100 22.22800 39.69200
H  -16.99600 21.36500 41.39900
H  -15.96900 20.20400 42.33100
H  -16.68100 19.81700 40.71200
H  -16.45500 15.92800 41.99800
H  -15.30900 13.67700 43.18100
H  -16.55600 16.73900 44.22200
H  -14.85800 16.16400 44.65700
H  -16.25000 15.03900 44.48000
H  -15.21500 13.74700 40.17100
H  -16.74100 14.29800 40.79500
H  -15.79400 11.57400 41.99300
H  -16.46400 11.70200 40.33800
H  -17.36400 12.11700 41.75000
H  -9.64000 10.73400 43.39400
H  -10.66300 10.47000 42.10900
H  -11.33600 11.16800 43.66400
H  -6.76900 13.58500 40.18700
H  -2.82800 15.24500 41.42600
H  -3.72300 15.25900 42.97700
H  -4.01300 16.45000 41.87800

