158

Mg 40.15200 8.90300 29.04600
C  42.05900 9.90500 31.79100
C  38.29900 6.89700 31.20400
C  38.18200 8.00600 26.40200
C  42.49800 10.30900 26.89500
N  40.23600 8.37800 31.33300
C  40.91700 9.14400 32.22900
C  40.47200 8.85400 33.66000
C  39.42100 7.61400 33.41400
C  39.27200 7.59900 31.89100
C  39.92600 6.19700 34.06500
C  39.83200 10.03800 34.37800
C  39.31000 9.80900 35.82100
H  39.79300 10.82400 36.81000
N  38.36400 7.76600 28.84100
C  37.82500 7.01700 29.83800
C  36.60800 6.33600 29.30700
C  36.65700 6.64500 27.88100
C  37.73700 7.56300 27.65300
C  35.67000 5.48700 30.11600
C  35.80200 5.99000 26.79300
O  35.93600 6.18600 25.58800
C  34.93600 4.86600 27.20000
N  40.28000 9.00600 26.97000
C  39.36900 8.67100 26.10000
C  39.68600 9.14000 24.68300
C  40.95900 10.04700 24.83200
C  41.25900 9.80800 26.29700
C  39.67600 7.94600 23.57600
C  40.85400 11.58200 24.48200
C  39.59400 12.32700 24.83600
N  41.99700 9.70300 29.22500
C  42.83700 10.20100 28.22200
C  43.98900 10.79100 28.85800
C  43.64800 10.79600 30.23400
C  42.49300 10.10400 30.44400
C  45.23300 11.40500 28.26900
C  44.15400 11.23800 31.51500
O  45.15700 11.83900 31.81500
C  43.08500 10.70700 32.54300
C  43.72700 9.92200 33.60400
O  44.18700 8.81000 33.42800
O  43.62100 10.51000 34.84600
C  44.14700 9.77100 36.01500
H  37.57600 6.32300 31.78800
H  37.60700 7.72900 25.51500
H  43.15100 10.96800 26.31800
H  41.35300 8.50900 34.20200
H  38.42300 7.86700 33.77100
H  40.76900 6.30700 34.74700
H  40.06700 5.45100 33.28300
H  39.11500 5.87100 34.71600
H  38.93900 10.28900 33.80600
H  40.57600 10.83400 34.36300
H  39.66500 8.82500 36.12900
H  38.22700 9.73700 35.72200
H  34.63200 5.80600 30.02900
H  35.89100 5.71400 31.15900
H  35.97000 4.46200 29.89900
H  35.65300 4.15500 27.61100
H  34.54800 4.40000 26.29400
H  34.12700 5.11400 27.88600
H  38.92600 9.88100 24.43600
H  41.74300 9.74100 24.14000
H  38.82000 8.00100 22.90300
H  39.74000 6.92200 23.94500
H  40.52700 8.23200 22.95800
H  41.13600 11.69500 23.43500
H  41.59500 12.22900 24.95000
H  39.04000 12.67300 23.96200
H  39.81300 13.27900 25.32000
H  38.94900 11.69200 25.44400
H  46.08100 11.46300 28.95100
H  44.96500 12.38500 27.87400
H  45.48600 10.88100 27.34800
H  42.68900 11.58100 33.05900
H  44.92900 10.42700 36.39800
H  44.55000 8.77700 35.81900
H  43.50600 9.77400 36.89600
Mg -2.17500 35.35400 26.69500
C  -3.53000 33.73200 29.64000
C  -1.08600 37.80500 28.84500
C  -1.24000 36.89000 24.08100
C  -3.90400 32.94600 24.88800
N  -2.42200 35.72300 28.99200
C  -2.81600 34.89600 30.00600
C  -2.44900 35.35600 31.35500
C  -1.63100 36.68400 31.07600
C  -1.70200 36.81500 29.54200
C  -2.18200 37.92800 31.76600
C  -1.60800 34.23700 32.05200
C  -2.09000 33.72900 33.36900
H  -1.14300 33.57400 34.59200
N  -1.10700 37.03400 26.45700
C  -0.71000 37.90100 27.49700
C  0.10300 38.96900 26.86500
C  0.19800 38.61000 25.46700
C  -0.76200 37.51500 25.26800
C  0.83300 40.02600 27.67100
C  0.99200 39.16800 24.34100
O  1.20000 38.57300 23.31000
C  1.77200 40.34200 24.56000
N  -2.71700 35.04700 24.77000
C  -2.10800 35.87400 23.80900
C  -2.56400 35.44300 22.37800
C  -3.33600 34.08400 22.63700
C  -3.30700 33.95600 24.14400
C  -3.48500 36.43000 21.62900
C  -2.63500 32.74300 21.96900
C  -1.16000 32.43000 22.31700
N  -3.39000 33.66100 27.10200
C  -3.99600 32.84100 26.29300
C  -4.69200 31.71500 26.94000
C  -4.47600 32.01500 28.22000
C  -3.71000 33.20000 28.26500
C  -5.47900 30.52900 26.39600
C  -4.77800 31.56500 29.56100
O  -5.41500 30.59700 29.94500
C  -4.15700 32.63000 30.52200
C  -5.37000 33.17900 31.22600
O  -6.20200 33.95100 30.72600
O  -5.52700 32.61600 32.44700
C  -6.69100 32.99100 33.23200
H  -0.54100 38.46900 29.51900
H  -1.06700 37.50000 23.19200
H  -4.43700 32.22900 24.26000
H  -3.44300 35.52600 31.76800
H  -0.57900 36.59700 31.35000
H  -2.77900 38.48600 31.04500
H  -1.30800 38.54500 31.97500
H  -2.74800 37.54900 32.61700
H  -0.58200 34.59200 32.15500
H  -1.47700 33.48800 31.27000
H  -2.49000 32.72600 33.21900
H  -2.84100 34.42300 33.74800
H  0.72700 39.91100 28.75000
H  0.43400 40.98400 27.33800
H  1.90200 39.95300 27.47100
H  2.04000 40.80600 23.61100
H  2.69700 39.98500 25.01300
H  1.20700 41.02800 25.19200
H  -1.76500 35.21600 21.67200
H  -4.41000 34.24100 22.53800
H  -3.80700 37.27500 22.23700
H  -4.39400 35.90900 21.32600
H  -3.02100 36.78300 20.70900
H  -2.68800 32.91100 20.89400
H  -3.15100 31.78600 22.05100
H  -1.15100 31.37200 22.57900
H  -0.88700 33.07700 23.15100
H  -0.45400 32.47200 21.48700
H  -6.48000 30.96100 26.43200
H  -5.37500 29.66800 27.05600
H  -5.28000 30.21900 25.37000
H  -3.51000 32.12800 31.24100
H  -7.61500 32.78800 32.69000
H  -6.54200 34.04200 33.48000
H  -6.71600 32.48600 34.19700

