158

Mg 25.64600 1.28100 29.33100
C  27.53900 1.04700 32.23800
C  22.77700 1.84700 31.25700
C  23.86200 1.07500 26.44400
C  28.56400 0.62700 27.41000
N  25.19600 1.27600 31.42400
C  26.12200 1.36000 32.46200
C  25.54200 1.77000 33.78400
C  23.99900 1.67100 33.42600
C  23.99800 1.65300 31.92300
C  23.12200 0.60900 34.16600
C  26.09000 3.05600 34.43100
C  26.56700 2.82700 35.91900
H  26.20500 3.95500 36.95800
N  23.60700 1.44700 28.88100
C  22.56500 1.71800 29.83500
C  21.36700 1.84000 29.12500
C  21.63600 1.62100 27.78700
C  23.11800 1.38100 27.64800
C  20.11000 2.07800 29.77500
C  20.64400 1.65600 26.66300
O  21.01500 1.36700 25.50400
C  19.15300 1.90100 26.87600
N  26.13300 0.87000 27.23100
C  25.20800 0.84300 26.24300
C  25.85700 0.63900 24.83300
C  27.41000 0.51700 25.16700
C  27.37600 0.64000 26.67700
C  25.25400 -0.46000 23.90400
C  28.23100 1.73900 24.51300
C  27.89600 3.19700 24.90300
N  27.63500 1.00600 29.68400
C  28.67200 0.75600 28.85000
C  29.81300 0.40000 29.58900
C  29.45100 0.58800 30.92100
C  28.09900 0.87200 30.94000
C  31.14500 -0.05100 29.10900
C  29.92000 0.58200 32.33200
O  30.99000 0.36500 32.90400
C  28.67100 1.07300 33.18000
C  28.55400 0.16600 34.37000
O  27.88700 -0.87100 34.43000
O  29.48800 0.53300 35.28600
C  29.44600 -0.23600 36.53700
H  21.95400 1.88400 31.97400
H  23.39800 1.03300 25.45700
H  29.51300 0.45600 26.89800
H  25.74400 0.98000 34.50600
H  23.48400 2.61700 33.59500
H  22.10500 0.98600 34.27500
H  23.55300 0.28400 35.11300
H  23.17500 -0.22800 33.46900
H  25.28500 3.79000 34.42000
H  26.88400 3.44200 33.79200
H  27.63800 2.63700 35.83900
H  26.19400 1.90400 36.36300
H  19.52300 1.17600 29.60500
H  19.63100 2.98400 29.40400
H  20.31600 2.25200 30.83100
H  18.89200 2.95400 26.98300
H  18.77000 1.30200 27.70300
H  18.66900 1.67500 25.92600
H  25.75000 1.56900 24.27600
H  27.81800 -0.48600 25.03700
H  24.42600 -1.02300 24.33500
H  26.05500 -1.17700 23.72200
H  24.81300 -0.09500 22.97600
H  28.08000 1.65700 23.43600
H  29.28300 1.48000 24.63000
H  27.09200 3.13800 25.63600
H  27.60100 3.74600 24.00900
H  28.71100 3.75900 25.36100
H  31.30900 0.29500 28.08800
H  31.33600 -1.11300 28.95300
H  31.89100 0.36800 29.78500
H  28.88500 2.09000 33.51000
H  28.52800 -0.13400 37.11500
H  30.20100 -0.01500 37.29200
H  29.52400 -1.29700 36.30200
Mg 34.87400 1.95100 29.30000
C  33.00500 3.21400 31.94700
C  37.66500 2.03300 31.50700
C  36.90500 1.41800 26.75300
C  32.30900 2.80700 27.09100
N  35.19800 2.40300 31.52500
C  34.29000 2.89200 32.42100
C  34.90800 3.09100 33.85200
C  36.40600 2.73900 33.61200
C  36.46000 2.36000 32.11300
C  37.40800 3.84500 34.07500
C  34.18800 2.19800 34.92300
C  33.71500 2.78900 36.18600
H  34.59300 3.81900 36.91000
N  36.95300 1.46600 29.20600
C  37.88700 1.58900 30.18400
C  39.06500 1.10400 29.68100
C  38.94400 0.84100 28.31400
C  37.53600 1.26000 28.00900
C  40.27500 1.10900 30.54300
C  39.91300 0.35200 27.32700
O  39.68700 0.20200 26.13900
C  41.37700 0.11400 27.75900
N  34.66500 2.05800 27.20800
C  35.64100 1.77000 26.35100
C  35.19700 2.13300 24.92700
C  33.65900 2.19600 25.03800
C  33.48200 2.33800 26.52100
C  36.01500 3.27300 24.21400
C  32.84900 1.02800 24.36000
C  32.75900 -0.26000 25.24900
N  33.06600 2.93600 29.39300
C  32.12400 3.19400 28.45600
C  30.98600 3.84800 29.04200
C  31.27100 3.85100 30.41300
C  32.60500 3.33800 30.58400
C  29.75500 4.22800 28.36100
C  30.74600 4.13400 31.67900
O  29.67500 4.65400 32.05500
C  31.94300 3.87200 32.70300
C  32.32900 5.14200 33.41900
O  33.10000 5.94900 32.92100
O  31.72200 5.30900 34.63700
C  31.89300 6.69400 35.12200
H  38.48100 2.11800 32.22800
H  37.47300 1.37300 25.82100
H  31.48600 2.96200 26.39100
H  34.88200 4.14500 34.12900
H  36.78500 1.88500 34.17300
H  37.99100 4.18400 33.21800
H  38.01700 3.33300 34.82000
H  36.83000 4.71100 34.39700
H  34.68300 1.26400 35.19100
H  33.22500 1.98100 34.46200
H  33.53600 2.02800 36.94600
H  32.75100 3.26800 36.01400
H  40.42500 2.04300 31.08400
H  41.25400 0.86000 30.13200
H  40.22700 0.30300 31.27500
H  41.29900 -0.76100 28.40400
H  41.70600 1.07700 28.15000
H  41.97900 -0.13300 26.88500
H  35.42400 1.21000 24.39400
H  33.16900 3.07900 24.62700
H  36.53800 2.90000 23.33300
H  36.78200 3.65100 24.89000
H  35.27100 3.98200 23.85200
H  33.32100 0.61300 23.47000
H  31.83300 1.32300 24.09700
H  33.05200 -1.15000 24.69200
H  31.75200 -0.45900 25.61600
H  33.45600 -0.15300 26.08100
H  29.17000 3.32700 28.17800
H  29.94500 4.78400 27.44400
H  29.20900 4.88200 29.04100
H  31.60400 3.13100 33.42700
H  32.05900 7.46100 34.36600
H  32.68300 6.60800 35.86800
H  31.06600 6.92400 35.79400

