158

Mg 41.36700 9.45700 29.76700
C  43.18100 10.61900 32.43500
C  39.17800 7.81400 32.08300
C  39.56500 8.27500 27.30900
C  43.86300 10.32000 27.62500
N  41.27600 9.15900 32.04500
C  42.03100 9.89000 32.88000
C  41.50000 9.90900 34.29500
C  40.56000 8.64000 34.14500
C  40.30100 8.50300 32.63500
C  40.85300 7.23800 34.78000
C  40.82600 11.32000 34.70400
C  40.37300 11.41600 36.20800
H  41.10900 12.41200 37.18700
N  39.57100 8.33400 29.65400
C  38.81800 7.80600 30.69100
C  37.59300 7.24800 30.10600
C  37.58700 7.52200 28.72000
C  38.95700 8.03600 28.51600
C  36.52900 6.59300 30.89100
C  36.52400 7.28000 27.68100
O  36.79700 7.29200 26.47600
C  35.04400 7.10600 28.01900
N  41.72100 9.38000 27.71800
C  40.73200 8.91400 26.89900
C  41.15500 9.00000 25.44200
C  42.58400 9.70500 25.59300
C  42.75900 9.79900 27.03800
C  41.30500 7.50900 24.83800
C  42.62400 10.97900 24.70800
C  43.07400 10.73000 23.29600
N  43.22400 10.28400 29.96000
C  44.13400 10.61700 29.01600
C  45.30400 11.30200 29.65700
C  45.01200 11.35200 31.03500
C  43.72000 10.78700 31.13000
C  46.46600 11.86300 28.90200
C  45.40200 11.77600 32.30000
O  46.42900 12.37000 32.60000
C  44.23600 11.29600 33.31900
C  44.79300 10.34900 34.39900
O  44.97000 9.17000 34.23700
O  45.01600 10.96700 35.60500
C  45.22700 10.08400 36.76600
H  38.31300 7.55400 32.69600
H  38.98900 7.91300 26.45500
H  44.68700 10.64300 26.98500
H  42.27200 9.72400 35.04200
H  39.67000 8.96900 34.68200
H  41.82900 7.27700 35.26300
H  40.94200 6.46600 34.01600
H  40.03500 7.04600 35.47600
H  39.94000 11.32500 34.07000
H  41.52400 12.10600 34.41300
H  40.37200 10.44200 36.69700
H  39.34100 11.76800 36.20300
H  36.80200 6.35800 31.91900
H  36.26000 5.62300 30.47200
H  35.58500 7.13300 30.96300
H  34.91500 6.44500 28.87600
H  34.57000 6.62300 27.16500
H  34.56400 8.07100 28.17900
H  40.46000 9.58200 24.83700
H  43.39500 9.07000 25.23800
H  40.53200 7.21300 24.13000
H  41.25500 6.70400 25.57100
H  42.25200 7.39900 24.30900
H  43.29900 11.78000 25.00800
H  41.61700 11.34200 24.50400
H  42.38700 9.98800 22.88800
H  44.07700 10.30300 23.28100
H  43.03500 11.60500 22.64800
H  46.23600 11.75000 27.84300
H  47.37000 11.35700 29.24200
H  46.57500 12.93900 29.04000
H  43.65800 12.07100 33.82200
H  45.63000 9.09600 36.54600
H  44.24500 9.93800 37.21700
H  46.00200 10.60000 37.33300
Mg -5.34600 25.82200 25.47800
C  -4.43300 27.14000 28.54400
C  -7.14500 23.34900 27.16000
C  -6.09000 24.34600 22.55300
C  -3.16700 28.11900 23.84000
N  -5.70000 25.33300 27.61300
C  -5.41800 26.14700 28.75300
C  -5.92900 25.56000 30.06800
C  -6.73100 24.35400 29.53400
C  -6.52700 24.35500 27.99700
C  -6.19700 22.97400 29.99100
C  -6.78200 26.50500 30.96900
C  -6.76400 26.42200 32.52700
H  -6.39800 25.17300 33.35400
N  -6.48600 24.06300 24.95500
C  -7.15500 23.16700 25.78200
C  -7.87400 22.22100 24.98200
C  -7.45100 22.44200 23.65800
C  -6.64700 23.69000 23.64400
C  -8.70200 21.12600 25.59800
C  -7.66100 21.63400 22.32100
O  -6.98900 21.85100 21.31800
C  -8.69300 20.49200 22.14000
N  -4.75100 26.24500 23.48300
C  -5.17400 25.44900 22.42300
C  -4.39800 25.82400 21.17000
C  -3.58100 27.11400 21.57000
C  -3.92200 27.26700 23.05300
C  -3.50600 24.61300 20.69700
C  -3.78000 28.45400 20.78100
C  -2.47900 28.89600 19.97800
N  -4.19000 27.41900 26.02900
C  -3.31000 28.22700 25.21800
C  -2.50800 29.02100 26.17700
C  -2.92700 28.65300 27.51900
C  -3.89700 27.66800 27.33300
C  -1.54400 30.05800 25.73400
C  -2.75500 28.96500 28.88400
O  -1.96800 29.75800 29.44200
C  -3.81600 27.99400 29.65500
C  -2.99700 27.19500 30.56400
O  -2.33500 26.20400 30.22100
O  -3.09000 27.60800 31.93000
C  -2.36500 26.85100 32.94000
H  -7.81600 22.70100 27.72800
H  -6.09700 23.95700 21.53300
H  -2.46800 28.76100 23.30000
H  -5.16400 25.32000 30.80700
H  -7.76900 24.37400 29.86700
H  -5.49700 23.23700 30.78400
H  -5.72200 22.35000 29.23400
H  -7.06500 22.55100 30.49800
H  -7.78600 26.47700 30.54600
H  -6.44800 27.51700 30.74000
H  -7.74100 26.81800 32.80600
H  -6.11000 27.25500 32.78300
H  -8.47900 20.12800 25.22000
H  -9.73100 21.37800 25.34100
H  -8.62800 21.16400 26.68500
H  -9.25200 20.18600 23.02400
H  -8.15700 19.64100 21.72100
H  -9.40300 20.76700 21.35900
H  -5.05500 26.14900 20.36300
H  -2.51700 26.87700 21.55700
H  -3.77700 24.48400 19.65000
H  -3.55000 23.69800 21.28800
H  -2.46700 24.88800 20.88100
H  -4.00100 29.27600 21.46200
H  -4.68100 28.31800 20.18300
H  -1.92000 29.78900 20.26000
H  -2.82400 28.98800 18.94900
H  -1.78300 28.07500 20.15200
H  -1.15200 29.88100 24.73300
H  -0.81000 30.27500 26.51100
H  -2.19400 30.91900 25.57600
H  -4.53200 28.49000 30.31000
H  -1.69600 26.09700 32.52700
H  -3.16100 26.55600 33.62300
H  -1.76000 27.53700 33.53300

