158

Mg 1.23400 7.62600 25.40600
C  1.73000 9.50300 28.29400
C  1.78500 4.78300 27.40900
C  0.89300 5.88400 22.60000
C  1.50700 10.61500 23.60600
N  1.82300 7.21900 27.56700
C  1.74300 8.15700 28.53400
C  1.76000 7.47100 29.92100
C  2.14800 5.94300 29.63300
C  1.94200 5.96900 28.11200
C  3.53300 5.54400 30.04300
C  0.33700 7.66800 30.62900
C  0.38900 7.87500 32.21500
H  1.67700 7.58400 32.96200
N  1.31400 5.61100 25.03700
C  1.42700 4.56200 26.07200
C  1.25900 3.29100 25.35800
C  1.01700 3.60900 23.96800
C  0.98800 5.08800 23.79600
C  1.29300 1.92300 26.03600
C  0.77300 2.58400 22.83700
O  0.33800 2.96300 21.74600
C  1.17600 1.13100 23.01000
N  1.15700 8.20600 23.39800
C  0.95400 7.25400 22.43200
C  1.01400 7.90800 21.02400
C  0.81900 9.46900 21.30000
C  1.26800 9.45700 22.82700
C  2.32000 7.71400 20.15700
C  -0.65900 9.96000 21.02800
C  -0.77800 11.14300 20.02800
N  1.53100 9.66500 25.82200
C  1.59800 10.74100 24.96400
C  1.79800 11.96600 25.75500
C  1.81700 11.47700 27.08000
C  1.57900 10.10700 27.05300
C  2.09300 13.35600 25.22200
C  2.11900 11.94300 28.41500
O  2.51700 13.05600 28.75300
C  1.91900 10.68800 29.27600
C  3.07900 10.56900 30.14600
O  4.13200 9.97300 29.98600
O  2.76200 11.22500 31.34000
C  3.69300 11.16500 32.45300
H  1.97100 3.89100 28.01000
H  0.72200 5.27100 21.71300
H  1.39400 11.59000 23.12700
H  2.51900 7.88400 30.58500
H  1.43800 5.24000 30.06800
H  4.10600 6.17800 30.71900
H  4.12100 5.28600 29.16200
H  3.32800 4.57700 30.50200
H  -0.24500 6.75500 30.50400
H  -0.23600 8.51700 30.25600
H  -0.45700 7.35400 32.66500
H  0.29200 8.94700 32.38300
H  1.99700 1.17400 25.67300
H  0.32600 1.44600 25.87500
H  1.39700 2.05900 27.11300
H  1.10800 0.48000 22.13800
H  0.45000 0.70100 23.70100
H  2.16400 0.99400 23.44900
H  0.20500 7.56300 20.38000
H  1.50300 10.11100 20.74400
H  2.77000 8.64200 19.80300
H  2.27100 6.90900 19.42300
H  3.01700 7.22400 20.83700
H  -1.18400 10.30000 21.92000
H  -1.29400 9.19600 20.58000
H  -1.61000 11.00200 19.33800
H  0.07900 11.27900 19.36800
H  -0.93500 12.05300 20.60800
H  1.73400 13.46900 24.19900
H  3.16100 13.57200 25.26900
H  1.61800 14.05600 25.90900
H  1.04100 10.89800 29.88700
H  3.25300 11.37300 33.42800
H  4.52700 11.84400 32.27400
H  4.06800 10.14200 32.41600
Mg 43.98900 2.77400 47.07600
C  43.40200 6.02700 46.18300
C  40.64200 1.90200 46.18300
C  44.66700 -0.53700 47.46400
C  47.43900 3.51600 47.14100
N  42.36400 3.83100 46.25300
C  42.28700 5.18200 45.92200
C  40.88600 5.53800 45.39600
C  40.01300 4.36000 45.93300
C  41.07600 3.27900 46.13900
C  39.22900 4.77400 47.21100
C  40.82100 5.71100 43.86500
C  40.15500 7.05700 43.45100
H  39.10100 6.95000 42.36400
N  42.78300 0.88400 46.83600
C  41.46600 0.77400 46.46500
C  41.11600 -0.59700 46.31600
C  42.29000 -1.34400 46.83200
C  43.27000 -0.33500 47.07700
C  39.79200 -1.20500 45.76900
C  42.39700 -2.85600 46.92500
O  41.50500 -3.53900 46.48300
C  43.58300 -3.51300 47.43900
N  45.78500 1.68400 47.31400
C  45.75800 0.32800 47.55300
C  47.24900 -0.21200 47.62000
C  48.07900 1.08900 47.49900
C  47.04700 2.21900 47.28800
C  47.46300 -0.98300 48.87600
C  49.12200 1.01300 46.29800
C  50.53800 1.53900 46.52800
N  45.25300 4.46000 46.86500
C  46.57300 4.58400 46.99700
C  46.89600 6.05000 47.04800
C  45.66100 6.64400 46.69800
C  44.74800 5.64700 46.57100
C  48.23300 6.56700 47.34200
C  44.91400 7.90800 46.48600
O  45.40900 9.03500 46.64500
C  43.44200 7.52300 46.03000
C  42.53000 8.39700 46.87300
O  42.27800 8.08100 47.97600
O  42.11000 9.55600 46.29500
C  41.03300 10.20000 47.05000
H  39.63300 1.69400 45.81900
H  45.01900 -1.54400 47.69400
H  48.51700 3.67800 47.06500
H  40.52900 6.43200 45.90800
H  39.34700 4.00500 45.14700
H  39.51700 5.74400 47.61800
H  39.41000 4.09600 48.04500
H  38.16200 4.84100 47.00100
H  40.29300 4.86000 43.43500
H  41.86400 5.69500 43.55000
H  40.94300 7.72700 43.10600
H  39.68500 7.54300 44.30600
H  39.17400 -1.35500 46.65400
H  39.94800 -2.15600 45.26000
H  39.50900 -0.45800 45.02800
H  43.75600 -3.11100 48.43700
H  44.36100 -3.31000 46.70200
H  43.40300 -4.57300 47.61700
H  47.37600 -0.88700 46.77400
H  48.49900 1.24200 48.49300
H  47.11100 -2.00500 48.73500
H  47.07100 -0.41100 49.71700
H  48.53100 -1.10600 49.05500
H  48.78000 1.55200 45.41400
H  49.19500 -0.01900 45.95400
H  50.61900 2.04300 47.49100
H  50.79000 2.17800 45.68200
H  51.17600 0.65500 46.52500
H  48.36700 7.24200 46.49800
H  49.06700 5.86600 47.35900
H  48.11400 7.16400 48.24600
H  43.32500 7.93900 45.03000
H  41.49500 10.87300 47.77300
H  40.41200 9.54300 47.65800
H  40.38000 10.78700 46.40500

