158

Mg 16.43500 -2.11900 28.26200
C  15.45900 0.06000 30.73900
C  18.21900 -4.01100 30.59800
C  17.74000 -4.00000 25.73100
C  15.02400 0.01600 25.84900
N  16.86200 -2.00100 30.34300
C  16.29300 -1.01400 31.13100
C  16.82300 -1.13500 32.57900
C  17.84200 -2.32300 32.47200
C  17.62800 -2.82000 31.00600
C  19.32300 -1.97300 32.65000
C  15.67800 -1.42700 33.57100
C  15.88800 -0.76900 34.96300
H  17.31500 -0.20900 35.34000
N  17.72100 -3.83800 28.22900
C  18.27800 -4.54500 29.26700
C  18.97600 -5.76700 28.82200
C  18.86900 -5.64500 27.36600
C  18.10100 -4.44500 27.01400
C  19.45500 -6.82000 29.77600
C  19.40500 -6.66100 26.37200
O  19.31900 -6.52300 25.14900
C  20.27800 -7.78900 26.83500
N  16.44600 -1.93700 26.08500
C  17.03800 -2.83600 25.35500
C  16.71100 -2.58300 23.83500
C  15.82300 -1.31000 23.85300
C  15.71500 -1.05000 25.32200
C  18.11700 -2.40400 23.13200
C  14.42100 -1.58000 23.11800
C  14.60900 -2.00600 21.66900
N  15.23500 -0.38100 28.24800
C  14.74100 0.38700 27.21600
C  14.11500 1.54700 27.83200
C  14.30600 1.41200 29.15900
C  15.05500 0.25800 29.37600
C  13.55400 2.70700 27.09200
C  14.04600 1.99600 30.50600
O  13.27000 2.91400 30.88500
C  14.84100 1.15400 31.60100
C  15.82500 2.07100 32.40400
O  16.86500 2.58800 32.00200
O  15.25800 2.44100 33.55600
C  15.93900 3.50200 34.27900
H  18.83700 -4.60400 31.27500
H  18.04400 -4.51300 24.81700
H  14.50700 0.53100 25.03600
H  17.36800 -0.24700 32.89700
H  17.55400 -3.14900 33.12300
H  19.92600 -2.22200 31.77700
H  19.71000 -2.45000 33.55000
H  19.48400 -0.92900 32.91900
H  15.53600 -2.50600 33.62500
H  14.77400 -1.00200 33.13600
H  15.53600 -1.47700 35.71300
H  15.25200 0.08500 35.19700
H  19.97200 -7.68800 29.36500
H  18.60100 -7.08000 30.40100
H  20.06800 -6.35600 30.54900
H  20.75400 -8.31000 26.00400
H  19.61000 -8.50900 27.30700
H  21.12400 -7.48500 27.45200
H  16.28900 -3.48900 23.40000
H  16.35000 -0.56000 23.26400
H  18.23800 -3.19000 22.38700
H  18.89100 -2.31400 23.89500
H  18.14400 -1.41600 22.67200
H  13.87200 -0.63900 23.16300
H  13.82100 -2.31400 23.65700
H  13.88500 -1.44100 21.08100
H  14.58000 -3.08400 21.51000
H  15.64600 -1.73600 21.47000
H  13.90500 3.64000 27.53200
H  12.47400 2.83100 27.00500
H  14.04000 2.85700 26.12800
H  14.02700 0.77800 32.22100
H  16.02700 4.30300 33.54500
H  16.88700 3.21200 34.73400
H  15.24900 3.78200 35.07500
Mg 46.51100 25.44900 28.14200
C  47.38100 27.88100 30.76700
C  45.11300 23.53600 30.66700
C  46.25100 23.08200 25.84800
C  48.21400 27.56700 25.84600
N  46.35100 25.74000 30.40700
C  46.70600 26.75500 31.26600
C  46.13800 26.56700 32.70800
C  45.65400 25.10900 32.69700
C  45.65600 24.74300 31.15700
C  46.49000 24.07700 33.56900
C  45.00900 27.56900 33.10200
C  45.29400 28.54400 34.23400
H  44.14000 28.83000 35.16100
N  45.65100 23.60000 28.23100
C  45.14300 22.95400 29.34300
C  44.60400 21.68600 28.95400
C  44.99400 21.51400 27.57900
C  45.70400 22.75900 27.13800
C  43.90300 20.74300 29.91600
C  44.73100 20.38200 26.67700
O  45.09100 20.47300 25.51000
C  44.11200 19.12100 27.11700
N  47.01800 25.40900 26.11200
C  46.81500 24.29600 25.32600
C  47.32200 24.47600 23.92200
C  47.81500 25.95200 23.91400
C  47.71700 26.29600 25.34900
C  48.40100 23.52100 23.36400
C  47.13800 26.91000 22.92400
C  45.82300 27.65200 23.42900
N  47.52200 27.40900 28.20500
C  48.15500 28.08300 27.15100
C  48.77400 29.24900 27.76200
C  48.39100 29.25000 29.13100
C  47.75800 28.05200 29.38700
C  49.60200 30.18800 26.98900
C  48.53300 30.00100 30.32500
O  48.95600 31.11200 30.57800
C  47.89500 29.06900 31.47400
C  48.86800 28.75200 32.54300
O  49.62500 27.74500 32.61200
O  48.82900 29.76500 33.46800
C  49.16500 29.30000 34.80600
H  44.65600 22.92400 31.44700
H  46.17800 22.44600 24.96400
H  48.88500 28.11600 25.18200
H  46.99300 26.60700 33.38200
H  44.59900 25.02500 32.95500
H  46.83700 23.29100 32.89800
H  45.79800 23.60200 34.26500
H  47.26700 24.36500 34.27800
H  44.16500 26.97300 33.44900
H  44.62700 28.05600 32.20400
H  45.45600 29.49500 33.72800
H  46.21400 28.35000 34.78500
H  43.15300 20.21200 29.33000
H  43.47600 21.22100 30.79700
H  44.78500 20.19000 30.24100
H  44.66400 18.78900 27.99700
H  44.25700 18.37900 26.33200
H  43.07600 19.24600 27.43000
H  46.42600 24.38600 23.30800
H  48.87100 25.95600 23.64400
H  48.77500 22.94600 24.21200
H  49.21600 23.94900 22.78000
H  47.94200 22.88800 22.60400
H  46.83300 26.56100 21.93700
H  47.85300 27.70100 22.69600
H  45.92400 28.72900 23.55900
H  45.60700 27.22400 24.40800
H  45.00700 27.46400 22.73100
H  49.59500 31.13900 27.52100
H  48.97800 30.36300 26.11300
H  50.63400 29.86300 26.85000
H  47.09500 29.68100 31.89000
H  50.17100 28.88200 34.78900
H  48.46400 28.52800 35.12600
H  49.11100 30.21300 35.39900

