158

Mg 30.12700 58.90300 38.56300
C  27.24100 57.05100 37.76800
C  32.05000 56.28700 37.64800
C  32.88700 60.95100 38.52100
C  28.01900 61.76600 38.85100
N  29.63100 57.04400 37.64500
C  28.41000 56.37000 37.47400
C  28.52400 54.96000 37.04300
C  30.09000 54.68300 37.36700
C  30.65700 56.11000 37.60100
C  30.39900 53.77000 38.56500
C  28.24200 54.78700 35.49800
C  26.87500 54.17900 35.05400
H  26.18100 55.06100 33.94200
N  32.21000 58.59900 38.30700
C  32.78000 57.46800 37.93400
C  34.24500 57.63300 37.88000
C  34.46000 58.97100 38.24700
C  33.16000 59.54700 38.39400
C  35.19900 56.55400 37.50000
C  35.81300 59.62100 38.50100
O  36.91900 59.08200 38.24400
C  35.92400 60.86800 39.22900
N  30.40600 61.01400 38.63800
C  31.63700 61.60900 38.56500
C  31.45700 63.11800 38.67300
C  29.93500 63.37900 38.87100
C  29.40600 61.95200 38.68800
C  32.44300 63.95500 39.59000
C  29.40200 64.42900 37.81600
C  28.45000 65.49400 38.32900
N  28.09000 59.39200 38.36900
C  27.38700 60.55600 38.66400
C  25.93700 60.35800 38.53700
C  25.83100 59.00600 38.18400
C  27.14200 58.46300 38.14300
C  24.86300 61.42700 38.75200
C  24.94200 57.90400 37.97500
O  23.69800 57.86300 38.06800
C  25.75000 56.64300 37.57700
C  25.30100 55.61000 38.44400
O  25.76100 55.44000 39.56900
O  24.33500 54.80300 37.87600
C  23.66300 53.85900 38.73500
H  32.66400 55.38500 37.60200
H  33.68800 61.65900 38.30000
H  27.35300 62.58100 39.14100
H  27.92700 54.35300 37.72400
H  30.55500 54.19600 36.51000
H  31.09400 52.94400 38.40900
H  29.52900 53.13800 38.74600
H  30.62800 54.17000 39.55200
H  29.02200 54.24700 34.96100
H  28.47000 55.79400 35.14700
H  26.34200 53.90600 35.96500
H  27.15200 53.20800 34.64200
H  35.97000 56.59400 38.27000
H  35.69000 56.90100 36.59000
H  34.75000 55.56600 37.40000
H  36.92700 61.13400 39.56400
H  35.17100 60.99300 40.00700
H  35.63400 61.60000 38.47500
H  31.78300 63.42700 37.67900
H  29.68000 63.69200 39.88400
H  31.83300 64.24500 40.44600
H  32.92400 64.82000 39.13300
H  33.19200 63.21800 39.87900
H  28.88300 64.05100 36.93600
H  30.30400 64.96800 37.52600
H  28.90600 66.42600 38.66300
H  27.85900 65.18400 39.19100
H  27.65700 65.83300 37.66300
H  23.95900 61.04900 38.27500
H  25.06800 62.44700 38.42700
H  24.80100 61.41400 39.84000
H  25.62400 56.37700 36.52800
H  23.27000 54.40000 39.59600
H  24.30700 53.08700 39.15600
H  22.96800 53.26500 38.14200
Mg 16.42700 51.85700 25.42300
C  18.24300 50.82900 28.34500
C  13.68100 52.37900 27.46800
C  14.64500 52.20700 22.71100
C  19.18900 50.72000 23.58800
N  16.05300 51.64900 27.66700
C  16.98800 51.32400 28.65100
C  16.34500 51.54900 30.00200
C  14.83600 51.84000 29.66100
C  14.82300 51.90900 28.17000
C  13.78100 50.76600 30.15300
C  16.99800 52.69200 30.77500
C  17.58000 52.48800 32.18500
H  16.88400 51.39800 33.04200
N  14.37800 52.29300 25.10000
C  13.43500 52.51000 26.09300
C  12.16800 52.76800 25.35100
C  12.39400 52.82300 23.93700
C  13.83900 52.36900 23.86400
C  10.91200 53.08900 26.18200
C  11.48000 53.21100 22.84800
O  11.73700 53.19300 21.61700
C  10.16000 53.68800 23.20500
N  16.91500 51.55400 23.50300
C  15.92200 51.68900 22.56400
C  16.45400 51.23800 21.18100
C  18.00400 51.12000 21.35500
C  18.05300 51.13100 22.88900
C  15.73800 49.91200 20.69900
C  18.80800 52.23500 20.59600
C  19.83000 51.86600 19.54000
N  18.32900 51.06300 25.84500
C  19.30700 50.66400 24.96000
C  20.43800 50.15800 25.69300
C  20.09200 50.24500 27.04700
C  18.79200 50.75200 27.04400
C  21.74800 49.78100 25.12300
C  20.50200 49.99800 28.39200
O  21.57000 49.51300 28.81100
C  19.29500 50.40400 29.33600
C  18.90000 49.27300 30.09800
O  17.98000 48.53000 29.75600
O  19.65300 49.22100 31.27000
C  19.48200 48.02100 32.13500
H  12.78400 52.48100 28.08300
H  13.99600 52.47600 21.87500
H  20.00300 50.44900 22.91200
H  16.39600 50.61400 30.56100
H  14.51800 52.77700 30.11800
H  13.34900 51.08900 31.10000
H  14.39000 49.90300 30.42100
H  12.90700 50.59000 29.52600
H  16.25100 53.48100 30.86600
H  17.89100 53.11600 30.31600
H  17.50900 53.39700 32.78300
H  18.63900 52.24400 32.25800
H  10.86800 54.02300 26.74300
H  10.88500 52.22200 26.84200
H  9.98800 52.94800 25.62100
H  10.16500 54.50300 23.92900
H  9.60100 52.82100 23.55600
H  9.70200 54.03400 22.27900
H  16.21000 52.10400 20.56600
H  18.25700 50.09500 21.08400
H  15.42900 49.32500 21.56400
H  16.38900 49.21500 20.17000
H  14.90800 50.29400 20.10400
H  19.39900 52.71900 21.37300
H  18.28200 53.06500 20.12500
H  19.82200 50.79400 19.34200
H  20.83400 52.22900 19.76000
H  19.58000 52.37700 18.61100
H  22.04000 48.75500 25.34600
H  22.61300 50.32800 25.50200
H  21.71300 49.92400 24.04300
H  19.70500 51.16300 30.00200
H  18.93000 47.29300 31.54000
H  18.87700 48.28300 33.00300
H  20.41700 47.62300 32.52800

