158

Mg 47.13900 43.97000 43.33600
C  43.74400 43.27400 43.61100
C  47.79100 40.52000 43.04600
C  50.34000 44.69300 42.51300
C  46.37100 47.44700 43.31800
N  45.89300 42.03100 43.30800
C  44.55900 42.02800 43.48300
C  43.94500 40.64100 43.45000
C  45.28000 39.80200 43.58000
C  46.39800 40.81600 43.24100
C  45.55100 39.03800 44.90400
C  43.08100 40.27100 42.21000
C  43.30100 41.03800 40.87400
H  44.28700 40.49800 39.84800
N  48.88600 42.73600 42.94300
C  48.93600 41.36400 42.94200
C  50.31400 40.99400 42.83100
C  51.04900 42.15100 42.62400
C  50.08900 43.28100 42.69700
C  50.82900 39.60400 42.88100
C  52.49400 42.14600 42.29700
O  53.14800 41.13100 42.29800
C  53.20500 43.38800 42.09800
N  48.17700 45.73300 43.10300
C  49.47500 45.76400 42.69200
C  49.96300 47.23500 42.32000
C  48.75000 48.17900 42.69000
C  47.70100 47.02200 42.98000
C  51.27300 47.65100 43.05800
C  48.18100 49.19700 41.67400
C  48.44600 50.63500 42.18600
N  45.46300 45.14800 43.34000
C  45.24800 46.53600 43.44800
C  43.80800 46.88500 43.55700
C  43.21300 45.61700 43.49900
C  44.23100 44.65100 43.52400
C  43.16500 48.22600 43.43700
C  41.88900 45.03800 43.56900
O  40.74900 45.48300 43.73000
C  42.17600 43.41400 43.71100
C  41.58600 42.92900 45.00100
O  40.43200 42.65900 45.27700
O  42.57100 42.91100 45.97900
C  42.13500 42.63400 47.34100
H  47.94100 39.44500 42.93200
H  51.31800 44.99800 42.13400
H  46.05800 48.48500 43.45000
H  43.29700 40.57700 44.32400
H  45.29200 38.93300 42.92200
H  46.38400 39.58400 45.34800
H  45.89100 38.01900 44.71700
H  44.63900 38.92700 45.48900
H  42.04600 40.41600 42.52100
H  43.13200 39.20200 42.00400
H  43.74300 42.02200 41.02800
H  42.37400 41.26600 40.34800
H  51.79900 39.64900 43.37800
H  50.98100 39.08300 41.93500
H  50.23300 38.92400 43.48900
H  52.99400 43.97600 41.20400
H  54.24500 43.20400 42.36700
H  52.88100 43.95800 42.96900
H  50.11700 47.31700 41.24400
H  48.98000 48.55400 43.68700
H  52.13400 47.63900 42.38900
H  51.65100 46.82700 43.66300
H  51.31600 48.60700 43.57900
H  47.11500 49.24600 41.45100
H  48.60900 48.94400 40.70400
H  48.99000 51.29600 41.51100
H  48.93500 50.76600 43.15200
H  47.51300 51.14900 42.42000
H  42.09400 48.20200 43.63800
H  43.31700 48.54600 42.40600
H  43.62900 49.00700 44.04000
H  41.57100 42.88300 42.97700
H  41.89400 41.57600 47.44000
H  41.36900 43.32400 47.69400
H  43.00000 42.71100 47.99900
Mg 48.17300 34.55600 28.02400
C  46.08800 33.26200 30.61600
C  48.39700 37.43400 29.95100
C  49.35100 36.25900 25.42000
C  47.07900 32.07000 25.89600
N  47.36500 35.22300 30.03500
C  46.72800 34.43900 30.99700
C  46.89100 34.99200 32.39500
C  47.33000 36.46100 32.11800
C  47.66200 36.45300 30.58900
C  46.24600 37.50300 32.31400
C  48.03500 34.29100 33.22000
C  47.87200 34.29700 34.73900
H  47.18900 35.60300 35.29300
N  48.89800 36.53900 27.74000
C  48.90100 37.58000 28.67100
C  49.61500 38.72100 28.09000
C  49.88000 38.41200 26.68900
C  49.35400 37.02500 26.56400
C  50.04900 39.87300 28.94000
C  50.59100 39.24300 25.60600
O  50.99500 38.75900 24.55100
C  50.84800 40.68300 25.98000
N  48.24500 34.16800 25.96900
C  48.87400 34.94400 25.13500
C  48.98800 34.28400 23.73100
C  48.62500 32.78600 24.05300
C  47.88800 32.98500 25.31800
C  48.03100 34.95700 22.75200
C  49.79900 31.76800 24.14800
C  51.26300 32.18400 23.76200
N  46.98600 32.90500 28.20300
C  46.68400 31.90500 27.25800
C  45.81800 30.92600 27.86500
C  45.48100 31.49500 29.15400
C  46.28800 32.65200 29.34600
C  45.17200 29.64700 27.29500
C  44.68400 31.30500 30.26700
O  43.97100 30.34900 30.61300
C  44.95900 32.52000 31.28100
C  45.18900 31.94700 32.60200
O  46.12200 31.25800 32.94600
O  44.13800 32.36400 33.33000
C  44.08300 31.92500 34.77000
H  48.57600 38.34400 30.52800
H  49.78400 36.87500 24.63000
H  46.71800 31.21000 25.32700
H  45.99100 34.92100 33.00700
H  48.27300 36.76800 32.57000
H  46.44300 38.27600 33.05700
H  45.42400 36.87300 32.65300
H  45.85000 37.94100 31.39800
H  48.96800 34.71200 32.84600
H  48.00300 33.24000 32.93500
H  48.77400 34.05200 35.30000
H  47.13000 33.50900 34.86500
H  51.10100 40.14900 28.86600
H  49.84600 39.83200 30.01000
H  49.51900 40.74000 28.54700
H  51.61000 40.70900 26.75900
H  49.95200 41.21900 26.29500
H  51.19100 41.30600 25.15400
H  50.04100 34.46100 23.51500
H  47.83800 32.41100 23.39800
H  48.50500 35.00900 21.77300
H  47.66900 35.94000 23.05700
H  47.20400 34.26900 22.57600
H  49.66600 31.08500 23.30900
H  49.85000 31.27700 25.12000
H  51.91600 31.34900 24.01600
H  51.49800 33.11500 24.27700
H  51.38000 32.26300 22.68100
H  45.72300 29.31300 26.41600
H  44.12000 29.84100 27.08900
H  45.32300 28.85700 28.03000
H  44.11900 33.21200 31.33300
H  44.28300 32.83700 35.33200
H  44.72200 31.05800 34.94000
H  43.02300 31.76400 34.97000

