158

Mg 1.82300 8.80700 25.26000
C  1.93200 10.30800 28.35600
C  2.26900 5.73100 26.85700
C  1.57700 7.25400 22.23100
C  1.82000 11.81700 23.69700
N  2.18900 8.11200 27.38800
C  1.96900 8.88600 28.51700
C  1.98100 8.02900 29.80300
C  2.37600 6.54500 29.40000
C  2.26500 6.77000 27.82600
C  3.75500 6.09500 29.73900
C  0.68300 8.26300 30.66200
C  0.93200 8.51900 32.19700
H  2.31400 8.24400 32.82800
N  1.95000 6.80700 24.64700
C  2.14600 5.67800 25.41800
C  2.12800 4.42900 24.58500
C  1.77000 4.88300 23.25800
C  1.75800 6.34600 23.33500
C  2.28400 2.96800 25.11700
C  1.54000 4.09800 21.93900
O  1.18900 4.62000 20.93300
C  1.63800 2.54400 21.93700
N  1.51900 9.41100 23.27700
C  1.60400 8.63100 22.17900
C  1.78000 9.41000 20.90200
C  1.40500 10.83200 21.38700
C  1.55400 10.72100 22.87700
C  3.18600 9.27100 20.31800
C  0.00400 11.21200 20.92000
C  -0.04800 12.19000 19.74700
N  1.82900 10.76700 25.82100
C  1.94800 11.91700 25.07200
C  2.04300 13.06400 26.02300
C  2.01000 12.47700 27.31200
C  1.90000 11.08400 27.13500
C  1.88400 14.48200 25.60300
C  2.00900 12.70200 28.64800
O  2.11500 13.76500 29.24000
C  1.87900 11.38700 29.41700
C  3.13700 11.27800 30.24000
O  4.16900 10.82600 29.89800
O  2.91900 11.77100 31.51700
C  4.20400 12.35200 32.07100
H  2.26100 4.79500 27.42000
H  1.61600 6.99200 21.17200
H  1.92000 12.71200 23.08000
H  2.79500 8.49900 30.35400
H  1.59100 5.85700 29.71400
H  4.23000 6.89700 30.30500
H  4.40200 5.90000 28.88300
H  3.71200 5.17900 30.32700
H  0.02200 7.40400 30.54100
H  0.21100 9.19000 30.33700
H  0.21100 7.91900 32.75100
H  0.73400 9.54800 32.49500
H  2.76100 2.99800 26.09600
H  2.95500 2.51700 24.38600
H  1.31900 2.47400 25.22300
H  2.40000 2.02300 22.51600
H  1.87000 2.32100 20.89500
H  0.67200 2.16000 22.26500
H  1.20200 9.05300 20.05000
H  2.01500 11.56500 20.85900
H  3.76300 10.19400 20.37100
H  3.19300 9.00000 19.26300
H  3.66400 8.40600 20.77800
H  -0.51600 11.65700 21.76800
H  -0.56700 10.33800 20.60400
H  -0.47700 11.74900 18.84700
H  0.88800 12.62200 19.39400
H  -0.68600 13.02700 20.03400
H  1.44600 14.51800 24.60600
H  2.84700 14.99400 25.61200
H  1.27000 14.92500 26.38700
H  0.95800 11.41300 29.99900
H  5.08000 12.57300 31.46100
H  4.61400 11.60900 32.75400
H  4.00400 13.24500 32.66400
Mg 8.78600 47.79600 26.65900
C  6.83300 47.44000 29.55200
C  11.51300 48.00700 28.82000
C  10.74600 47.98400 24.00600
C  5.91700 47.56000 24.74400
N  9.08000 47.81400 28.95600
C  8.14100 47.57600 29.95200
C  8.72100 47.64600 31.34000
C  10.22700 47.97100 31.07400
C  10.27600 47.92000 29.52900
C  10.78900 49.33700 31.74000
C  8.33900 46.48600 32.37400
C  9.40300 45.98800 33.40200
H  8.89200 45.49200 34.69500
N  10.84100 47.98100 26.46400
C  11.77300 48.02200 27.44700
C  13.11900 48.11100 26.86600
C  12.99200 48.17800 25.47000
C  11.49000 48.08400 25.25000
C  14.34500 48.12800 27.86100
C  13.99500 48.25200 24.33400
O  13.66700 48.56700 23.17100
C  15.46700 48.33700 24.77800
N  8.40900 47.86200 24.69900
C  9.36200 47.96400 23.76400
C  8.77600 48.15900 22.38500
C  7.27900 47.85500 22.59500
C  7.18300 47.73900 24.08400
C  9.16900 49.52300 21.55200
C  6.57200 46.72300 21.78400
C  5.70500 47.21000 20.59200
N  6.77700 47.68700 26.98900
C  5.73000 47.54500 26.10600
C  4.53900 47.43000 26.83700
C  4.90100 47.38600 28.19900
C  6.31400 47.54500 28.25100
C  3.09900 47.35600 26.28800
C  4.35500 47.20500 29.58800
O  3.19100 47.04700 29.96000
C  5.62400 47.24600 30.47600
C  5.55300 46.02000 31.30300
O  5.83800 44.89800 30.93600
O  5.14700 46.33500 32.53600
C  4.89000 45.23500 33.47900
H  12.33200 48.09800 29.53700
H  11.31400 48.14900 23.08800
H  4.95400 47.48600 24.23400
H  8.31800 48.54800 31.80200
H  10.96000 47.21200 31.34900
H  11.82700 49.14300 32.01100
H  10.22800 49.65200 32.62000
H  10.55300 50.04800 30.94800
H  8.13000 45.61300 31.75600
H  7.44300 46.81900 32.89800
H  10.16200 46.75100 33.56900
H  9.92300 45.15800 32.92300
H  15.14200 47.43000 27.60400
H  14.13800 47.78700 28.87500
H  14.76600 49.13000 27.77200
H  15.72000 47.38000 25.23500
H  15.49900 49.08400 25.57100
H  16.13000 48.48600 23.92600
H  9.22400 47.32700 21.84100
H  6.72400 48.78400 22.46400
H  9.13500 50.48600 22.06200
H  8.58600 49.56600 20.63200
H  10.21400 49.38700 21.27300
H  6.10200 46.05900 22.50900
H  7.35400 46.15300 21.28200
H  5.93300 48.24600 20.34400
H  4.63700 47.20900 20.81100
H  5.84900 46.53900 19.74500
H  2.54500 46.54700 26.76400
H  3.11700 47.18900 25.21100
H  2.51300 48.22200 26.59500
H  5.52000 47.99000 31.26600
H  3.82100 45.07700 33.62800
H  5.31100 45.29900 34.48200
H  5.49100 44.36400 33.21600

