158

Mg 26.19500 -7.90500 47.73200
C  27.81700 -5.15600 46.41900
C  23.41900 -7.17200 45.74900
C  24.77100 -10.91000 48.73100
C  29.18900 -8.96900 49.15500
N  25.79600 -6.46500 45.91300
C  26.54200 -5.32800 45.74700
C  25.80500 -4.28000 44.95000
C  24.28300 -4.78300 45.10700
C  24.47200 -6.25100 45.65300
C  23.42800 -3.95200 46.11600
C  26.41600 -4.14400 43.45300
C  26.85100 -2.71700 43.04500
H  26.81200 -2.26500 41.59400
N  24.34300 -8.83900 47.35500
C  23.33600 -8.39200 46.51800
C  22.14100 -9.23600 46.69900
C  22.47200 -10.28400 47.57700
C  23.94000 -10.09700 47.92200
C  20.84000 -9.01400 45.82300
C  21.57100 -11.40900 47.98600
O  20.38700 -11.46800 47.67200
C  22.00900 -12.47800 48.89900
N  26.90800 -9.75100 48.67700
C  26.10800 -10.78100 49.07800
C  26.84800 -11.89300 49.96800
C  28.31000 -11.33800 49.89500
C  28.11300 -9.92700 49.24200
C  26.15600 -12.05400 51.43800
C  29.33800 -12.22600 49.13000
C  30.76700 -12.34500 49.74300
N  28.06900 -7.19100 47.86600
C  29.18800 -7.76700 48.40600
C  30.24200 -6.72400 48.53200
C  29.70000 -5.66500 47.83800
C  28.41100 -6.06300 47.24600
C  31.64500 -6.91200 49.14200
C  29.92800 -4.30800 47.35800
O  30.88600 -3.56200 47.51200
C  28.79100 -4.00200 46.31900
C  28.16900 -2.78800 46.91300
O  27.54600 -2.61800 47.97200
O  28.64100 -1.68800 46.24700
C  28.00000 -0.40900 46.36200
H  22.45200 -6.79200 45.41200
H  24.36000 -11.86800 49.05600
H  30.01100 -9.24000 49.82100
H  25.88900 -3.34000 45.49600
H  23.75500 -4.69800 44.15800
H  23.60600 -4.24600 47.15000
H  22.38400 -4.15100 45.87500
H  23.70000 -2.90700 45.96100
H  25.58700 -4.35500 42.77700
H  27.23700 -4.82200 43.22000
H  27.78900 -2.42800 43.51900
H  26.13200 -2.01500 43.46600
H  21.00600 -9.43600 44.83200
H  20.67400 -7.93800 45.86200
H  20.06900 -9.66100 46.24100
H  22.81100 -13.14100 48.57700
H  21.18700 -13.11300 49.23100
H  22.19600 -11.94800 49.83300
H  26.79600 -12.88100 49.51100
H  28.69700 -11.12200 50.89100
H  25.12000 -11.73200 51.33600
H  26.67900 -11.34300 52.07800
H  26.28300 -13.07700 51.79100
H  29.59900 -11.82500 48.15000
H  28.98100 -13.25000 49.02100
H  30.93700 -11.66200 50.57500
H  31.44000 -12.14900 48.90900
H  30.78300 -13.41500 49.95200
H  31.48200 -7.38600 50.11000
H  32.07800 -5.91200 49.11200
H  32.13500 -7.68800 48.55400
H  29.01800 -3.71200 45.29300
H  28.60900 0.23100 47.00000
H  26.99000 -0.46400 46.76800
H  27.96900 0.23400 45.48200
Mg 8.77600 48.75400 26.23900
C  6.48800 48.32500 28.74000
C  11.04600 50.12000 28.53900
C  10.78800 49.46500 23.64600
C  6.12800 48.14900 23.92200
N  8.72300 49.14400 28.36500
C  7.76200 48.72400 29.17700
C  8.22000 49.04400 30.66200
C  9.49100 49.90400 30.60000
C  9.74100 49.82700 29.07500
C  9.39900 51.38400 31.01900
C  8.40600 47.75300 31.49100
C  9.18800 47.78800 32.83600
H  8.66600 47.08300 34.03800
N  10.72000 49.36800 26.21500
C  11.47000 49.95400 27.21600
C  12.70600 50.24400 26.68000
C  12.77700 49.91200 25.25200
C  11.34600 49.56000 25.01300
C  13.82400 50.87200 27.48200
C  14.00800 49.93500 24.23200
O  13.81800 49.52400 23.10600
C  15.34000 50.40300 24.57000
N  8.45500 48.97100 24.07400
C  9.53400 49.10900 23.23100
C  9.12700 48.79700 21.76900
C  7.72600 48.12900 21.95600
C  7.37600 48.46300 23.42100
C  9.17900 49.99800 20.78200
C  7.87400 46.54900 21.95000
C  8.20400 45.99000 20.52500
N  6.72700 48.29900 26.27500
C  5.73700 48.23300 25.30300
C  4.44900 47.95700 25.89500
C  4.71700 47.95900 27.27000
C  6.06400 48.21900 27.42800
C  3.28300 47.65900 25.08900
C  4.13900 47.76900 28.58400
O  3.04900 47.42000 28.92800
C  5.37000 47.85100 29.63100
C  5.49000 46.46000 29.99200
O  6.10300 45.64700 29.36600
O  4.76700 46.17800 31.16500
C  4.91400 44.82500 31.80300
H  11.79100 50.42400 29.27700
H  11.56600 49.76200 22.93900
H  5.42000 47.88500 23.13400
H  7.55800 49.62600 31.30400
H  10.32400 49.43700 31.12700
H  9.50600 52.08100 30.18800
H  10.18500 51.69600 31.70800
H  8.44000 51.51100 31.52100
H  8.83100 47.03300 30.79100
H  7.43200 47.27700 31.60100
H  9.23100 48.82900 33.15800
H  10.19500 47.51100 32.52500
H  14.80100 50.70600 27.02800
H  13.89700 50.59400 28.53300
H  13.63800 51.94600 27.48800
H  15.94100 49.77800 25.23200
H  15.28500 51.41500 24.97100
H  15.90700 50.34900 23.64100
H  9.93300 48.19100 21.35500
H  7.12800 48.56700 21.15700
H  9.49800 50.94700 21.21200
H  8.20600 50.20600 20.33800
H  9.91300 49.82100 19.99600
H  6.85300 46.23600 22.17100
H  8.59000 46.26900 22.72200
H  7.99800 46.77100 19.79300
H  7.62700 45.15600 20.12500
H  9.25100 45.77200 20.31600
H  3.05200 46.76300 24.51300
H  3.28900 48.44700 24.33500
H  2.44000 47.88600 25.74000
H  5.11900 48.56400 30.41600
H  4.02500 44.20400 31.69000
H  5.06100 44.92000 32.87900
H  5.71900 44.23800 31.36100

