158

Mg 53.35600 24.25700 43.94600
C  50.56400 26.45100 43.50700
C  51.23000 21.51000 43.06700
C  56.01000 22.34500 43.79600
C  55.24500 27.03400 44.82600
N  51.13500 24.06100 42.98500
C  50.24400 25.11600 43.09200
C  48.79600 24.51600 42.85800
C  49.01300 22.95100 43.05900
C  50.54600 22.82000 43.02100
C  48.26800 22.31900 44.30100
C  48.12200 24.81500 41.49400
C  49.01900 24.85000 40.16600
H  48.34300 24.16200 38.93800
N  53.60700 22.25400 43.51400
C  52.63600 21.26800 43.22400
C  53.21300 19.97200 43.24800
C  54.59800 20.14800 43.50400
C  54.80600 21.60400 43.56200
C  52.41800 18.68500 42.99900
C  55.70200 19.02700 43.61900
O  55.32400 17.80500 43.41900
C  57.12100 19.24700 43.90600
N  55.36400 24.60500 44.10400
C  56.32500 23.65500 43.95400
C  57.71200 24.30600 44.21400
C  57.45300 25.86900 44.31700
C  55.95200 25.89300 44.46800
C  58.41700 23.72900 45.47000
C  57.83200 26.80900 43.07100
C  58.59600 28.02300 43.44400
N  53.00800 26.28500 44.23100
C  53.88800 27.27100 44.61700
C  53.14500 28.48900 44.81200
C  51.84000 28.17500 44.49300
C  51.80900 26.84500 44.08200
C  53.84500 29.66600 45.16200
C  50.49200 28.74800 44.36500
O  50.17700 29.87000 44.62800
C  49.64200 27.61000 43.74500
C  49.07800 28.15300 42.45000
O  49.75700 28.49800 41.47900
O  47.72500 28.06500 42.56000
C  46.90200 28.45300 41.32300
H  50.57300 20.64200 43.15200
H  56.92100 21.74300 43.81500
H  55.88700 27.91300 44.91200
H  48.03300 24.88300 43.54400
H  48.64400 22.38800 42.20100
H  47.34700 21.86400 43.93500
H  48.06900 23.12300 45.01000
H  48.87500 21.52800 44.74300
H  47.55700 25.74700 41.49100
H  47.44400 23.99900 41.24100
H  49.98700 24.41400 40.41200
H  49.25100 25.88400 39.91400
H  52.86800 18.17200 42.14900
H  51.36900 18.82900 42.73900
H  52.40300 17.88300 43.73700
H  57.69600 19.72400 43.11300
H  57.52800 18.26100 44.12800
H  57.20700 19.78600 44.85000
H  58.39300 24.10300 43.38700
H  57.94800 26.19700 45.23200
H  59.43300 23.36400 45.32100
H  57.82700 22.88000 45.81700
H  58.30300 24.35000 46.35800
H  56.90300 27.07000 42.56300
H  58.37900 26.24200 42.31800
H  59.64500 27.95000 43.15500
H  58.59100 28.26000 44.50800
H  58.08200 28.85400 42.96200
H  54.39900 29.40400 46.06300
H  53.12200 30.42100 45.47300
H  54.65400 29.92200 44.47800
H  48.91300 27.27900 44.48500
H  46.89400 27.63700 40.60100
H  47.43400 29.29000 40.87300
H  45.85900 28.74900 41.43700
Mg 25.77600 51.21200 27.02300
C  23.67200 51.89400 29.84400
C  28.05000 49.89600 29.13800
C  27.86300 51.00200 24.39500
C  23.45500 52.68800 24.96100
N  25.78700 50.88300 29.25100
C  24.82700 51.24300 30.21500
C  25.21000 50.81000 31.60500
C  26.71800 50.34000 31.37900
C  26.86000 50.34000 29.81700
C  27.83000 51.11100 32.13000
C  24.31200 49.68400 32.23700
C  23.95600 49.63200 33.73600
H  24.88300 50.30400 34.83700
N  27.63700 50.48400 26.75900
C  28.40400 49.93700 27.75500
C  29.65600 49.42900 27.12600
C  29.57600 49.64100 25.70200
C  28.27600 50.32200 25.53700
C  30.75900 48.78200 27.99400
C  30.56800 49.28800 24.64500
O  30.41700 49.41100 23.44300
C  31.78100 48.55100 25.05600
N  25.72300 51.87100 25.01300
C  26.71700 51.70400 24.14900
C  26.41100 52.25600 22.72200
C  24.93900 52.72600 22.84700
C  24.68500 52.41800 24.35200
C  27.31600 53.47900 22.34300
C  23.85900 51.97400 21.97200
C  23.90400 52.46900 20.50000
N  23.92200 52.08000 27.31900
C  23.06800 52.52200 26.33300
C  21.85600 52.85600 26.98400
C  22.08600 52.70100 28.41600
C  23.35300 52.13700 28.49300
C  20.63200 53.24300 26.30100
C  21.55700 52.85400 29.69200
O  20.45100 53.19000 30.14600
C  22.53200 52.38000 30.66100
C  22.85900 53.55000 31.51200
O  23.30400 54.64100 31.15000
O  22.49500 53.26800 32.79200
C  22.54300 54.36000 33.70800
H  28.92600 49.50700 29.66200
H  28.64000 50.91100 23.63400
H  22.57300 53.10300 24.46800
H  25.27700 51.76200 32.13200
H  26.77400 49.27000 31.57600
H  27.45500 51.83600 32.85300
H  28.53600 51.64500 31.49400
H  28.48900 50.42300 32.65900
H  24.62300 48.68100 31.94500
H  23.38200 49.75200 31.67200
H  23.70200 48.61000 34.01800
H  23.00600 50.16100 33.80800
H  30.59200 47.70500 28.00300
H  30.80400 49.22600 28.98800
H  31.73300 49.05300 27.58700
H  31.44900 47.63900 25.55100
H  32.48600 49.10900 25.67200
H  32.31200 48.22500 24.16100
H  26.47000 51.42600 22.01700
H  24.75600 53.79800 22.78100
H  27.94400 53.93600 23.10800
H  26.69100 54.09500 21.69700
H  28.06100 53.03500 21.68200
H  22.85600 52.11500 22.37400
H  24.07900 50.90600 21.96300
H  24.58000 53.32000 20.41500
H  22.95700 52.74000 20.03300
H  24.42900 51.73200 19.89200
H  19.84400 53.52900 26.99700
H  20.14500 52.44600 25.73900
H  20.79400 54.17300 25.75600
H  21.97900 51.58500 31.16200
H  21.67200 54.99900 33.56200
H  23.45600 54.94700 33.59900
H  22.40500 53.91100 34.69100

