158

Mg 48.83200 35.85700 27.66000
C  46.82800 33.95000 29.92300
C  49.33500 38.12000 30.09900
C  50.13900 37.91700 25.29000
C  47.88800 33.48600 25.22600
N  48.18600 35.98500 29.76800
C  47.45700 35.07900 30.48700
C  47.57000 35.39200 31.97800
C  47.89600 36.95700 31.95600
C  48.53100 37.01500 30.55200
C  46.60200 37.80800 31.97900
C  48.58000 34.53000 32.94200
C  48.69700 34.80700 34.41800
H  47.79700 35.88400 35.07700
N  49.67900 37.79400 27.74400
C  49.83800 38.53000 28.83700
C  50.47800 39.71900 28.45100
C  50.72000 39.74700 27.02300
C  50.14400 38.47700 26.62300
C  50.56000 40.92900 29.53300
C  51.20600 40.84800 26.12600
O  51.35600 40.59300 24.93200
C  51.59200 42.18300 26.75900
N  48.97600 35.80600 25.61600
C  49.63100 36.73200 24.87400
C  49.85300 36.26700 23.37500
C  49.40400 34.78800 23.46800
C  48.76800 34.62400 24.88200
C  49.04400 37.02700 22.30300
C  50.59800 33.72700 23.34400
C  50.63800 33.08100 21.90700
N  47.63700 34.01900 27.59100
C  47.35900 33.23300 26.45900
C  46.41600 32.19100 26.89500
C  46.21000 32.40100 28.28100
C  46.91700 33.60900 28.58400
C  45.82500 31.13000 26.05100
C  45.48600 32.00800 29.44900
O  44.69600 31.09700 29.65900
C  45.88800 32.92900 30.54700
C  46.51900 32.12600 31.64200
O  47.59200 31.51300 31.62400
O  45.68500 32.23800 32.70800
C  46.11600 31.68300 34.00900
H  49.44200 38.77800 30.96500
H  50.62000 38.59400 24.58200
H  47.74900 32.80400 24.38500
H  46.60800 35.19100 32.44800
H  48.51000 37.31400 32.78300
H  46.30500 38.17800 32.96100
H  45.71800 37.40000 31.48900
H  46.73900 38.63400 31.28100
H  49.45500 34.80000 32.35100
H  48.53700 33.44100 32.94200
H  49.70900 35.14900 34.63400
H  48.53900 33.85000 34.91600
H  51.59700 41.20600 29.72100
H  50.01900 40.61800 30.42600
H  49.94200 41.78200 29.25200
H  52.20300 41.89200 27.61400
H  50.77300 42.70500 27.25500
H  52.07200 42.97900 26.19000
H  50.90200 36.35900 23.09400
H  48.60400 34.56400 22.76300
H  48.04400 37.27600 22.65800
H  48.78800 36.54900 21.35800
H  49.48100 37.96500 21.95900
H  50.54500 33.01800 24.17000
H  51.52100 34.28300 23.50900
H  50.66100 31.99700 22.02300
H  51.47700 33.35700 21.26800
H  49.83200 33.50300 21.30700
H  45.03500 31.57500 25.44500
H  45.36600 30.46800 26.78500
H  46.64300 30.62200 25.54000
H  45.03700 33.50900 30.90300
H  45.67500 32.30800 34.78500
H  47.20300 31.74700 34.06300
H  45.77900 30.64600 34.00600
Mg 42.53700 41.79100 26.26200
C  41.35200 43.94400 28.70200
C  43.66000 39.81000 28.71500
C  43.63100 39.58600 23.81700
C  41.72200 44.07900 23.79000
N  42.27500 41.77400 28.50200
C  41.83300 42.79800 29.22700
C  41.88800 42.39300 30.68600
C  42.67600 41.03800 30.74200
C  42.90900 40.87600 29.25700
C  44.01300 41.04700 31.62900
C  40.45000 42.30200 31.21800
C  40.24000 41.59200 32.53600
H  39.69900 42.48000 33.71800
N  43.48200 40.00200 26.27300
C  43.93400 39.40800 27.42300
C  44.59400 38.12400 27.00300
C  44.50200 38.02700 25.60200
C  43.88100 39.25400 25.15700
C  45.12900 37.17400 28.08200
C  44.80600 36.84900 24.67500
O  44.94800 36.91500 23.46900
C  45.10600 35.54200 25.32800
N  42.68200 41.85300 24.06600
C  43.19700 40.81300 23.32500
C  42.96700 41.11500 21.83700
C  42.16800 42.47600 21.81100
C  42.13600 42.84200 23.28800
C  44.25000 41.12300 20.95200
C  40.75400 42.31100 21.17400
C  39.83500 41.13300 21.71400
N  41.75600 43.65800 26.17400
C  41.47400 44.44600 25.11100
C  41.04800 45.81800 25.56600
C  40.94200 45.57800 26.96200
C  41.36600 44.27400 27.30400
C  40.62700 46.92300 24.78800
C  40.57900 46.20400 28.26100
O  40.26300 47.36800 28.47300
C  40.87500 45.17500 29.41100
C  41.86000 45.80200 30.37700
O  42.99700 46.18100 30.10200
O  41.27100 45.96600 31.64700
C  42.00700 46.75400 32.61700
H  44.01100 39.17600 29.53100
H  43.85500 38.97900 22.93700
H  41.27600 44.83000 23.13400
H  42.40900 43.12800 31.30000
H  42.01700 40.21800 31.02600
H  43.97900 41.96100 32.22300
H  44.91600 40.94500 31.02600
H  44.10600 40.21900 32.33100
H  39.73200 41.92200 30.49200
H  40.14800 43.31400 31.48700
H  41.20900 41.21600 32.86300
H  39.47600 40.84800 32.31100
H  46.11400 36.80700 27.79600
H  44.44300 36.35200 28.28900
H  45.21400 37.71700 29.02400
H  45.02300 34.83400 24.50400
H  44.21500 35.29500 25.90500
H  46.02800 35.54700 25.90900
H  42.34300 40.27600 21.52700
H  42.73000 43.24400 21.28000
H  44.49000 42.05900 20.44800
H  44.27800 40.36100 20.17300
H  45.11800 40.89600 21.57200
H  40.99800 42.08000 20.13800
H  40.23500 43.26800 21.12700
H  39.67900 40.35000 20.97300
H  38.88800 41.62400 21.93900
H  40.19900 40.63600 22.61300
H  39.54300 46.85300 24.69600
H  41.13100 46.84100 23.82500
H  40.95400 47.87500 25.20500
H  39.92600 45.17000 29.94700
H  41.31300 47.10100 33.38200
H  42.52100 47.66700 32.31600
H  42.74500 46.08900 33.06600

