158

Mg 15.94200 -2.22500 28.64200
C  15.02900 0.18000 31.05900
C  17.97900 -3.77900 31.00000
C  17.49000 -4.07800 26.23800
C  14.48100 -0.24100 26.23800
N  16.61400 -1.68600 30.80100
C  16.03500 -0.75700 31.54700
C  16.61100 -1.02400 32.94600
C  17.64400 -2.19200 32.86100
C  17.40600 -2.63100 31.46600
C  19.10400 -1.63500 33.22600
C  15.55600 -1.20100 34.01000
C  15.61500 -0.18400 35.15000
H  16.90300 0.52100 35.55500
N  17.33700 -3.83500 28.66800
C  17.88800 -4.46000 29.74900
C  18.63700 -5.63800 29.31800
C  18.55200 -5.67600 27.85700
C  17.76600 -4.50700 27.51200
C  19.57500 -6.40200 30.20500
C  19.14200 -6.66500 26.91400
O  19.03000 -6.56500 25.73200
C  19.93000 -7.84900 27.45200
N  16.19500 -2.04200 26.62000
C  16.80800 -2.94600 25.81700
C  16.58100 -2.61600 24.31300
C  15.44500 -1.61300 24.37600
C  15.36600 -1.28200 25.85900
C  17.88900 -2.00600 23.68200
C  14.04800 -2.09300 23.91600
C  13.23900 -1.17200 22.98000
N  14.87000 -0.50400 28.58800
C  14.36300 0.22800 27.53200
C  13.53300 1.26600 28.06400
C  13.80800 1.27000 29.43000
C  14.67600 0.27600 29.70800
C  12.64000 2.21900 27.32700
C  13.41500 1.98900 30.64600
O  12.67400 2.98200 30.78400
C  14.23600 1.31800 31.78900
C  15.05500 2.43900 32.30900
O  16.13700 2.77500 31.88700
O  14.30100 3.05500 33.32300
C  14.87200 4.22800 33.93100
H  18.58200 -4.30500 31.74300
H  17.97300 -4.52700 25.36700
H  13.82900 0.15800 25.45800
H  17.10800 -0.08400 33.18500
H  17.54500 -3.03600 33.54400
H  19.05400 -0.89300 34.02300
H  19.53700 -1.18100 32.33500
H  19.88800 -2.34100 33.50100
H  15.76200 -2.23400 34.29000
H  14.57300 -1.25900 33.54300
H  15.31900 -0.77600 36.01600
H  14.90500 0.62800 34.99000
H  20.61500 -6.15400 29.99300
H  19.36700 -7.46300 30.06600
H  19.33200 -6.32600 31.26500
H  19.35900 -8.38100 28.21300
H  20.90800 -7.54600 27.82600
H  20.14200 -8.60600 26.69700
H  16.24700 -3.45100 23.69800
H  15.63400 -0.74400 23.74500
H  18.10800 -1.03100 24.11900
H  17.57800 -1.89300 22.64400
H  18.82500 -2.56100 23.62000
H  13.40300 -2.37700 24.74700
H  14.18400 -3.01400 23.34900
H  12.20600 -1.50900 23.06100
H  13.74000 -1.22200 22.01300
H  13.36800 -0.11200 23.19800
H  12.61400 1.93100 26.27600
H  13.11800 3.18100 27.14700
H  11.68200 2.35200 27.83100
H  13.66800 0.84300 32.58900
H  14.25700 4.57400 34.76200
H  15.23000 5.08300 33.35700
H  15.73700 3.78200 34.42200
Mg -2.51600 33.85700 25.80900
C  -4.06500 32.54500 28.68900
C  -0.90600 36.08100 27.52300
C  -1.66900 35.20700 22.78700
C  -4.61500 31.63700 23.99000
N  -2.59700 34.26000 27.90200
C  -3.29500 33.64900 28.92600
C  -2.92600 34.20000 30.27900
C  -1.95000 35.40800 29.83700
C  -1.79400 35.25300 28.30600
C  -2.57100 36.80800 30.26900
C  -2.07500 33.26600 31.18300
C  -1.71500 33.67300 32.63300
H  -2.27200 32.85000 33.74100
N  -1.35100 35.31700 25.22900
C  -0.73100 36.20700 26.11000
C  0.17300 37.05000 25.42400
C  -0.04800 36.83500 24.02700
C  -1.04600 35.71500 23.90500
C  1.03500 38.02400 26.18600
C  0.58200 37.60100 22.86600
O  0.31700 37.37600 21.68700
C  1.68500 38.52900 23.12700
N  -3.07100 33.51000 23.57300
C  -2.61000 34.21600 22.57000
C  -3.21400 33.84600 21.24700
C  -3.70700 32.38600 21.65300
C  -3.87900 32.55200 23.17100
C  -4.33900 34.77900 20.76000
C  -2.60600 31.24600 21.48700
C  -3.14300 29.91900 21.01900
N  -3.95900 32.34800 26.17800
C  -4.56000 31.44800 25.37200
C  -5.28000 30.47600 26.16300
C  -5.08000 30.88800 27.48100
C  -4.30300 32.03000 27.39700
C  -6.20000 29.46400 25.64900
C  -5.49400 30.61800 28.85900
O  -6.25100 29.80700 29.33300
C  -4.82100 31.69300 29.68200
C  -5.92700 32.47900 30.30900
O  -6.94300 32.89100 29.82000
O  -5.76700 32.36500 31.67500
C  -6.99400 32.78000 32.37800
H  -0.30100 36.73200 28.15800
H  -1.27700 35.67000 21.87900
H  -5.16400 30.86200 23.45000
H  -3.76900 34.54900 30.87500
H  -0.94900 35.37200 30.26600
H  -2.85600 37.40000 29.39900
H  -1.83400 37.40700 30.80400
H  -3.49200 36.71500 30.84300
H  -1.17800 32.86900 30.70800
H  -2.69300 32.43400 31.52300
H  -2.10600 34.66100 32.87600
H  -0.63400 33.76900 32.73900
H  0.61000 38.20000 27.17400
H  1.11200 39.00300 25.71300
H  2.04300 37.61800 26.27900
H  2.18200 38.72400 22.17700
H  2.38100 38.05100 23.81600
H  1.34900 39.39900 23.69300
H  -2.49800 33.60200 20.46100
H  -4.61600 32.19900 21.08100
H  -4.53900 35.57300 21.48000
H  -5.25600 34.23600 20.53500
H  -4.11800 35.24200 19.79800
H  -2.11600 31.03300 22.43800
H  -1.87100 31.55300 20.74300
H  -2.97500 29.83500 19.94500
H  -4.21100 29.76000 21.16800
H  -2.59900 29.15700 21.57600
H  -5.73000 28.87200 24.86400
H  -6.91500 30.10800 25.13700
H  -6.70700 28.83700 26.38300
H  -4.28000 31.21200 30.49700
H  -7.89300 32.23800 32.08500
H  -7.18000 33.83300 32.16400
H  -6.90600 32.79800 33.46400

