158

Mg 2.06200 -2.26400 43.92300
C  5.41000 -1.57600 43.38500
C  1.14000 0.55200 42.26700
C  -1.25000 -3.29000 43.95400
C  3.04800 -5.39300 45.20800
N  3.22600 -0.75900 42.77400
C  4.58500 -0.59600 42.81000
C  5.05000 0.75700 42.15300
C  3.63800 1.45500 41.96100
C  2.57500 0.38500 42.34200
C  3.35400 2.81900 42.67900
C  5.94500 0.44800 40.89100
C  7.05300 1.51400 40.61900
H  6.79400 2.51200 39.54800
N  0.15000 -1.46600 43.27900
C  0.05500 -0.29400 42.59700
C  -1.32000 0.04400 42.40600
C  -2.06500 -0.90900 43.07500
C  -1.07400 -2.03800 43.33100
C  -1.79300 1.33900 41.75900
C  -3.58000 -0.98400 43.42500
O  -4.32900 -0.16700 42.93700
C  -4.11100 -1.98700 44.37400
N  1.01900 -4.20600 44.35600
C  -0.32000 -4.33100 44.28600
C  -0.76100 -5.70500 44.91800
C  0.63500 -6.33400 45.33400
C  1.65400 -5.26700 44.98700
C  -1.76500 -5.55300 46.18100
C  0.99100 -7.70300 44.83000
C  1.86000 -8.68900 45.66800
N  3.85100 -3.38300 44.22400
C  4.10100 -4.60900 44.77500
C  5.54300 -4.83500 44.78200
C  6.05600 -3.65800 44.30900
C  5.00700 -2.79700 43.94800
C  6.22100 -5.97500 45.37100
C  7.32900 -2.92300 44.10500
O  8.45900 -3.24500 44.35000
C  6.88800 -1.57700 43.46700
C  7.39800 -0.32400 44.22000
O  8.25600 0.41800 43.87000
O  6.72500 -0.02500 45.38000
C  6.96800 1.28800 46.08300
H  0.88500 1.41700 41.65200
H  -2.28800 -3.62500 44.01400
H  3.25300 -6.37800 45.63200
H  5.58700 1.30600 42.92700
H  3.49300 1.60400 40.89200
H  2.45000 2.84100 43.28700
H  3.23500 3.58000 41.90800
H  4.23500 2.97300 43.30200
H  5.25700 0.42500 40.04600
H  6.41200 -0.53200 40.99300
H  7.94200 1.00900 40.24100
H  7.29900 2.01400 41.55600
H  -0.99300 2.03100 41.49700
H  -2.57600 1.83400 42.33300
H  -2.14000 0.92200 40.81300
H  -3.29400 -2.20600 45.06200
H  -4.34700 -2.93100 43.88300
H  -5.06600 -1.66100 44.78700
H  -1.27300 -6.27600 44.14300
H  0.74700 -6.25200 46.41500
H  -1.40700 -5.91700 47.14400
H  -2.73900 -6.02000 46.03400
H  -1.93300 -4.49600 46.39100
H  1.42100 -7.44500 43.86200
H  0.01700 -8.18600 44.76100
H  2.61200 -9.11700 45.00400
H  1.32000 -9.59300 45.94600
H  2.44700 -8.13800 46.40300
H  6.36400 -6.79000 44.66200
H  5.63500 -6.26500 46.24300
H  7.21800 -5.70800 45.72200
H  7.51300 -1.39300 42.59300
H  6.52200 1.45600 47.06400
H  6.57900 2.03400 45.39000
H  8.01700 1.56300 46.18600
Mg 48.27600 35.37000 27.95500
C  46.15400 33.80200 30.41500
C  48.22600 38.20700 29.85700
C  49.43600 37.22400 25.29800
C  47.57800 32.74400 25.73400
N  47.43200 35.80800 30.03400
C  46.64000 35.07200 30.79200
C  46.56500 35.80600 32.16200
C  46.69100 37.27000 31.71700
C  47.45100 37.10000 30.41800
C  45.40800 37.98500 31.52200
C  47.63100 35.26900 33.16800
C  48.70100 36.11400 33.88700
H  48.39400 36.58000 35.33900
N  49.08500 37.31900 27.73000
C  49.04600 38.31800 28.70100
C  49.62200 39.51200 28.19100
C  50.13900 39.19300 26.87600
C  49.52100 37.84900 26.60600
C  49.79700 40.81700 28.92600
C  50.98800 40.04500 25.93600
O  51.25900 39.56400 24.86500
C  51.35800 41.49700 26.17900
N  48.59500 34.95900 25.87600
C  49.09700 35.88800 25.01300
C  49.07600 35.33700 23.57000
C  48.70700 33.78400 23.71700
C  48.21900 33.82700 25.20200
C  48.24300 36.14600 22.50000
C  49.81500 32.73400 23.37200
C  49.24300 31.39200 22.90500
N  47.19200 33.56100 28.04000
C  46.97100 32.60900 27.03300
C  46.13500 31.47600 27.60900
C  45.80200 31.95200 28.90300
C  46.45900 33.18500 29.15300
C  45.80100 30.12900 26.98600
C  45.11400 31.53800 30.14600
O  44.43300 30.51900 30.32400
C  45.24200 32.82700 31.11000
C  45.78700 32.40800 32.44700
O  46.89900 32.03900 32.67700
O  44.78100 32.46700 33.36800
C  45.13100 32.24400 34.78700
H  48.15300 39.12700 30.44100
H  49.69200 37.76400 24.38400
H  47.41100 31.89200 25.07200
H  45.60700 35.40200 32.49000
H  47.20800 37.85400 32.47800
H  45.12300 38.53600 32.41800
H  44.59600 37.28200 31.33800
H  45.49900 38.75200 30.75100
H  48.21700 34.56500 32.57700
H  47.12100 34.75400 33.98200
H  49.02300 36.95300 33.27100
H  49.60700 35.52500 34.02800
H  49.44900 41.70300 28.39400
H  50.84400 40.95600 29.19400
H  49.18500 40.78200 29.82700
H  50.49400 42.13900 26.35300
H  51.71200 41.81400 25.19800
H  52.14400 41.57900 26.92900
H  50.10800 35.38500 23.22400
H  47.82200 33.62600 23.10200
H  48.76800 36.42300 21.58600
H  47.69200 36.98700 22.92000
H  47.49100 35.57400 21.95600
H  50.35700 32.59700 24.30700
H  50.52500 33.12900 22.64600
H  48.15400 31.43300 22.90600
H  49.59300 30.52200 23.46100
H  49.54500 31.31700 21.86000
H  46.41800 29.35000 27.43300
H  45.83200 30.10800 25.89700
H  44.78500 29.81700 27.22800
H  44.19600 33.13100 31.08300
H  46.16100 32.54000 34.98900
H  45.01600 31.20100 35.08200
H  44.38800 32.79600 35.36300

