158

Mg 16.33600 -1.95200 28.42400
C  15.39700 -0.17600 31.31500
C  18.59200 -3.70300 30.48600
C  17.55100 -3.42300 25.80700
C  14.55200 0.34700 26.42200
N  16.92000 -1.98000 30.68600
C  16.46500 -1.08200 31.59500
C  17.25200 -1.25800 32.90500
C  18.26000 -2.44600 32.60600
C  17.91100 -2.73300 31.22800
C  19.76100 -2.13000 32.88600
C  16.21400 -1.61300 34.05000
C  16.43800 -0.83100 35.30700
H  17.87100 -0.29200 35.73700
N  17.74100 -3.40300 28.20800
C  18.51700 -3.98400 29.13200
C  19.19400 -5.10500 28.52400
C  18.84800 -5.13900 27.14500
C  17.98800 -3.96300 26.99200
C  19.99000 -6.07200 29.46500
C  19.33200 -6.08800 26.04600
O  19.06500 -5.92000 24.87500
C  20.22000 -7.11800 26.41500
N  16.15300 -1.56700 26.40000
C  16.72400 -2.35600 25.49000
C  16.63900 -1.68200 24.13600
C  15.69600 -0.47900 24.29800
C  15.36200 -0.57300 25.79700
C  18.08400 -1.34700 23.63000
C  14.49400 -0.53300 23.37000
C  14.87500 -0.61000 21.87900
N  15.16900 -0.28500 28.73300
C  14.38600 0.43300 27.80300
C  13.49800 1.26200 28.55200
C  13.91300 1.13600 29.92000
C  14.89000 0.12500 29.96800
C  12.52500 2.19600 27.91400
C  13.69000 1.63100 31.30800
O  13.00400 2.51700 31.73100
C  14.75300 0.88200 32.17400
C  15.68900 1.90200 32.69900
O  16.62500 2.42100 32.13800
O  15.33000 2.22600 34.00100
C  15.89400 3.49900 34.59000
H  19.16500 -4.35100 31.15400
H  17.94000 -3.97100 24.94700
H  13.98700 1.01900 25.77200
H  17.69300 -0.30900 33.21100
H  18.02100 -3.36800 33.13500
H  20.31100 -2.90000 33.42600
H  19.73300 -1.24200 33.51800
H  20.31700 -1.99200 31.95900
H  16.32000 -2.65300 34.36100
H  15.19700 -1.39900 33.72400
H  16.00800 -1.47200 36.07600
H  15.85700 0.08000 35.16200
H  20.63000 -6.78200 28.94100
H  19.25000 -6.69200 29.97100
H  20.66400 -5.48700 30.09000
H  19.71800 -7.91100 26.97000
H  20.98800 -6.60400 26.99300
H  20.73300 -7.53000 25.54600
H  16.22400 -2.33300 23.36600
H  16.26100 0.43100 24.09900
H  18.70000 -1.16300 24.51000
H  18.13000 -0.51000 22.93300
H  18.52200 -2.16500 23.05700
H  13.94000 0.39700 23.49400
H  13.96300 -1.42700 23.69700
H  15.92000 -0.34700 21.71500
H  14.32400 0.04500 21.20400
H  14.82000 -1.61300 21.45500
H  12.27900 1.80400 26.92800
H  13.04700 3.15300 27.88500
H  11.59700 2.28800 28.48000
H  14.26900 0.43000 33.04000
H  15.75000 4.26000 33.82300
H  16.95800 3.51400 34.82600
H  15.41200 3.64900 35.55600
Mg -11.53800 38.93900 41.77100
C  -9.57600 36.36600 41.05800
C  -9.17700 41.24600 40.43000
C  -13.84000 41.52000 41.81100
C  -14.05000 36.72600 42.87300
N  -9.50600 38.80700 41.06400
C  -8.99600 37.53300 40.61400
C  -7.72800 37.73500 39.80200
C  -7.58600 39.27800 39.62600
C  -8.75800 39.84300 40.49000
C  -6.15200 39.69300 40.06200
C  -7.69700 36.95000 38.43200
C  -6.51000 35.90200 38.36100
H  -5.55600 36.04800 37.15700
N  -11.47000 41.05900 41.25300
C  -10.37000 41.80400 40.87700
C  -10.74100 43.18400 40.64800
C  -12.10200 43.22700 40.74600
C  -12.55300 41.91200 41.27200
C  -9.84700 44.24100 40.15100
C  -12.91300 44.39700 40.41800
O  -12.45500 45.45500 40.00500
C  -14.44600 44.44900 40.54800
N  -13.63000 39.08200 42.10500
C  -14.27800 40.27200 42.26100
C  -15.65900 40.20700 42.96600
C  -15.72800 38.60500 43.15200
C  -14.36300 38.10500 42.76600
C  -15.85700 41.02000 44.27100
C  -16.80400 37.90600 42.19700
C  -18.03800 37.33200 42.94000
N  -11.77600 37.03100 41.93700
C  -12.78500 36.24000 42.53600
C  -12.39600 34.83800 42.63600
C  -11.13500 34.88400 42.04800
C  -10.80600 36.19900 41.67100
C  -13.19500 33.67000 43.12700
C  -9.99000 34.04000 41.61000
O  -9.82600 32.88800 41.70400
C  -8.97900 34.94200 40.87900
C  -7.63700 34.76600 41.43000
O  -6.85800 34.01400 40.96500
O  -7.50200 35.60300 42.49000
C  -6.15200 35.60500 43.11800
H  -8.51200 41.88200 39.84100
H  -14.52200 42.36000 41.95300
H  -14.73100 36.00600 43.33100
H  -6.94200 37.35600 40.45500
H  -7.71900 39.49800 38.56700
H  -5.94900 40.60300 39.49800
H  -5.39800 39.01800 39.65600
H  -5.95500 39.91100 41.11200
H  -7.46200 37.67900 37.65600
H  -8.68400 36.50200 38.32100
H  -6.96000 34.90900 38.36000
H  -5.88700 35.93000 39.25500
H  -8.79700 44.05900 40.38000
H  -9.94100 45.25300 40.54400
H  -9.95000 44.34300 39.07100
H  -14.93200 43.60500 40.05900
H  -14.75200 45.42900 40.18200
H  -14.78200 44.60100 41.57400
H  -16.32300 40.50000 42.15300
H  -16.09500 38.36800 44.15100
H  -16.44400 41.91500 44.06500
H  -14.86400 41.34800 44.57800
H  -16.42800 40.46300 45.01400
H  -16.31700 37.15400 41.57600
H  -17.27600 38.63300 41.53700
H  -17.81600 36.28300 43.13200
H  -18.91800 37.48000 42.31400
H  -18.14900 37.89500 43.86700
H  -14.22700 33.72000 42.78000
H  -13.23200 33.78200 44.21000
H  -12.59900 32.76900 42.97700
H  -9.01500 34.66300 39.82600
H  -5.83600 36.64400 43.20700
H  -5.31600 35.13100 42.60300
H  -6.16100 35.21700 44.13700

