158

Mg 47.32600 15.67800 29.17800
C  44.98500 14.84000 31.83700
C  48.74800 17.85900 31.39000
C  49.17800 16.59800 26.62900
C  45.01600 13.96400 26.97600
N  46.84800 16.30100 31.41700
C  46.03600 15.60100 32.24600
C  46.28800 16.09800 33.72300
C  47.20600 17.34700 33.53000
C  47.69100 17.15500 32.04200
C  46.53800 18.67900 33.78900
C  46.84800 14.93600 34.66200
C  46.34000 14.89500 36.09300
H  47.47900 14.90600 37.16200
N  48.86500 17.01800 29.05600
C  49.27700 17.86300 30.02200
C  50.39500 18.64100 29.45200
C  50.56000 18.32700 28.14700
C  49.56500 17.29000 27.86900
C  51.10900 19.67000 30.40800
C  51.54300 18.81900 27.12600
O  51.58500 18.38100 25.97200
C  52.51900 19.93000 27.51700
N  47.11600 15.33500 27.14400
C  48.06100 15.82100 26.23100
C  47.62800 15.51100 24.78900
C  46.46500 14.51200 24.98700
C  46.17500 14.58400 26.47700
C  47.33400 16.59200 23.81100
C  46.59100 13.12600 24.39300
C  47.56900 12.09900 25.08400
N  45.37600 14.58100 29.32000
C  44.64400 13.87600 28.33500
C  43.51100 13.28000 28.97400
C  43.61200 13.67500 30.31100
C  44.73400 14.45300 30.48400
C  42.58000 12.40200 28.23600
C  42.91900 13.59500 31.59900
O  41.90200 12.99300 31.94400
C  43.77000 14.34100 32.62900
C  42.91000 15.45500 33.14000
O  42.69700 16.51300 32.63200
O  42.48700 15.12900 34.42800
C  41.82400 16.07400 35.24600
H  49.15300 18.55800 32.12500
H  49.82500 16.85200 25.78700
H  44.29700 13.66800 26.20800
H  45.24700 16.33700 33.94200
H  48.10800 17.28800 34.13900
H  46.56400 18.81300 34.87100
H  45.51500 18.79100 33.42900
H  47.10000 19.47100 33.29500
H  47.93300 15.01800 34.72600
H  46.59800 13.99100 34.18100
H  45.75700 13.98600 36.24100
H  45.70600 15.77500 36.20300
H  50.61300 19.69200 31.37900
H  51.12000 20.63400 29.89900
H  52.11000 19.30900 30.64600
H  53.25800 20.15800 26.74800
H  52.99900 19.63300 28.44900
H  51.95300 20.85400 27.63400
H  48.47500 15.00000 24.32900
H  45.57600 14.92600 24.51000
H  47.67500 17.54500 24.21500
H  46.27100 16.74700 23.62500
H  47.84300 16.51700 22.85000
H  46.96800 13.19900 23.37200
H  45.59300 12.68900 24.37300
H  47.14600 11.17300 25.47400
H  48.09000 12.60100 25.89900
H  48.36800 11.76900 24.42100
H  41.84000 11.99800 28.92700
H  43.12800 11.55100 27.83100
H  42.13400 12.96200 27.41400
H  44.08500 13.77400 33.50500
H  41.81400 15.58400 36.22000
H  40.82200 16.28200 34.87000
H  42.53700 16.89500 35.30900
Mg -2.15400 34.85100 26.95100
C  -3.13100 33.36400 29.76300
C  -0.32000 37.25700 28.88300
C  -1.76100 36.64200 24.13700
C  -4.12800 32.63900 25.16800
N  -1.71600 35.19900 29.04100
C  -2.24100 34.38700 29.99500
C  -1.75100 34.85000 31.44200
C  -0.87900 36.14600 31.12500
C  -0.99900 36.22800 29.62600
C  -1.42100 37.34300 31.96000
C  -0.98300 33.67600 32.08400
C  -1.40300 33.26800 33.53200
H  -0.35100 33.20800 34.60500
N  -1.05300 36.67700 26.57100
C  -0.42000 37.52900 27.48800
C  -0.07800 38.73300 26.82200
C  -0.53500 38.62000 25.43200
C  -1.10500 37.31400 25.29900
C  0.58600 39.92700 27.47700
C  -0.41200 39.64500 24.29900
O  -0.59600 39.35800 23.11400
C  -0.08800 41.06900 24.58800
N  -2.83900 34.71600 24.92000
C  -2.58700 35.60100 23.99800
C  -3.27400 35.30500 22.59500
C  -3.87100 33.82900 22.82300
C  -3.60700 33.69100 24.40500
C  -4.41300 36.35700 22.45800
C  -3.12200 32.77700 21.87900
C  -1.72400 32.23500 22.41400
N  -3.35600 33.29400 27.32500
C  -4.09900 32.47100 26.53700
C  -4.72100 31.43700 27.33900
C  -4.44300 31.83700 28.63100
C  -3.59900 32.94700 28.55500
C  -5.61400 30.33600 27.00100
C  -4.63800 31.46300 30.00000
O  -5.27600 30.54000 30.51200
C  -3.85200 32.56000 30.82400
C  -4.96500 33.29500 31.52900
O  -5.73600 34.03900 31.02900
O  -4.84400 33.00700 32.90600
C  -5.93100 33.48100 33.75300
H  0.30100 37.99900 29.38900
H  -1.73600 37.22600 23.21400
H  -4.60100 31.92900 24.48700
H  -2.66400 35.12400 31.97000
H  0.17200 36.01900 31.38300
H  -2.45100 37.63700 31.75700
H  -0.81100 38.22900 31.78500
H  -1.36000 37.13800 33.02900
H  0.06500 33.97600 32.12000
H  -1.02300 32.78100 31.46300
H  -1.88100 32.28900 33.49500
H  -2.17600 33.95900 33.87000
H  1.29200 39.71100 28.27800
H  -0.12600 40.63400 27.90300
H  1.24900 40.33400 26.71400
H  -0.51700 41.54500 23.70700
H  0.97400 41.31400 24.62400
H  -0.67300 41.38600 25.45100
H  -2.60500 35.36100 21.73700
H  -4.92500 33.69900 22.57600
H  -4.54500 36.94600 23.36500
H  -5.36800 35.85100 22.32300
H  -4.12300 37.01500 21.63800
H  -2.97200 33.24300 20.90500
H  -3.76200 31.90500 21.74800
H  -0.94700 32.49100 21.69400
H  -1.88000 31.16400 22.54800
H  -1.48600 32.62200 23.40400
H  -5.67100 30.13800 25.93100
H  -6.57600 30.60600 27.43700
H  -5.17200 29.56200 27.62900
H  -3.07300 32.13200 31.45600
H  -6.18400 32.71900 34.49100
H  -6.80400 33.86000 33.22200
H  -5.53100 34.37700 34.22700

