158

Mg 5.53600 53.66200 41.31100
C  5.17800 50.12000 40.95700
C  8.79300 53.25800 40.28300
C  5.55100 56.76400 40.95600
C  1.98400 53.59500 41.94300
N  6.79000 51.92800 40.76100
C  6.52200 50.60500 40.59400
C  7.61900 49.80500 39.84700
C  8.81700 50.71900 40.09500
C  8.13500 52.07300 40.43400
C  9.85800 50.27300 41.15000
C  7.33600 49.45900 38.34900
C  6.51700 50.43500 37.48300
H  7.39700 51.22500 36.42600
N  7.03100 54.87500 40.77000
C  8.29100 54.55500 40.34800
C  9.00300 55.70900 40.01400
C  8.07900 56.85400 40.16100
C  6.80600 56.19800 40.61100
C  10.41700 55.62800 39.42800
C  8.40700 58.33600 39.75300
O  9.54500 58.67100 39.55600
C  7.33500 59.30100 39.68600
N  3.94600 54.93900 41.21900
C  4.27200 56.27800 41.20900
C  3.12200 57.20000 41.60100
C  1.94700 56.15600 41.75000
C  2.61500 54.78500 41.63200
C  3.27200 58.18900 42.84300
C  0.86600 56.38600 40.67400
C  -0.51500 56.01800 41.29600
N  3.94600 52.18800 41.57400
C  2.60100 52.37400 41.88300
C  2.05700 51.03200 42.17600
C  3.00800 50.19900 41.78900
C  4.14200 50.89800 41.34100
C  0.71900 50.66300 42.69600
C  3.25900 48.79900 41.57600
O  2.50000 47.82800 41.76700
C  4.70400 48.70300 41.09300
C  4.59200 47.92500 39.87600
O  3.81100 48.28000 38.95000
O  5.11800 46.62600 39.93200
C  4.68400 45.74300 38.81200
H  9.86800 53.25400 40.08800
H  5.56800 57.85400 40.90200
H  0.96300 53.86800 42.21800
H  7.79100 48.84400 40.33200
H  9.42900 50.87800 39.20700
H  9.36100 50.34700 42.11700
H  10.75600 50.88100 41.03800
H  10.08300 49.22500 40.95300
H  6.76800 48.53300 38.44900
H  8.30200 49.24300 37.89300
H  5.86400 51.16500 37.96000
H  5.88200 49.72000 36.95900
H  10.44400 55.59500 38.33900
H  10.98300 54.78100 39.81700
H  10.94300 56.53000 39.74100
H  7.76600 60.12400 39.11500
H  7.07500 59.63000 40.69200
H  6.49300 58.86200 39.15100
H  2.93300 57.88300 40.77300
H  1.50000 56.15900 42.74400
H  4.28200 58.20500 43.25400
H  2.62400 57.89000 43.66800
H  3.03900 59.16300 42.41400
H  0.99500 55.61300 39.91600
H  0.88600 57.36800 40.20100
H  -1.26300 56.80900 41.25800
H  -0.51600 55.60700 42.30600
H  -0.87500 55.16600 40.71900
H  0.14900 50.07600 41.97600
H  0.25000 51.53000 43.16100
H  0.99100 49.95800 43.48100
H  5.43200 48.30000 41.79700
H  4.84700 46.21200 37.84200
H  3.61200 45.55400 38.85700
H  5.29700 44.84100 38.81800
Mg 16.38500 51.79100 26.15600
C  17.92800 49.99000 28.74500
C  14.02000 52.93100 28.36800
C  14.77200 53.08600 23.51500
C  18.63600 50.18900 23.94900
N  16.10300 51.63400 28.35300
C  16.91500 50.89300 29.20400
C  16.62700 51.26100 30.69500
C  15.24700 52.00100 30.51800
C  15.05900 52.14500 29.02400
C  14.10300 51.26200 31.21200
C  17.78900 52.19800 31.28700
C  17.90600 52.43500 32.78800
H  16.97900 51.63400 33.76600
N  14.58400 52.83300 25.96200
C  13.80100 53.27200 27.00700
C  12.80300 54.16500 26.45900
C  12.92500 54.02700 25.01000
C  14.14700 53.33700 24.76600
C  11.77300 54.88400 27.36600
C  12.03500 54.62100 23.97100
O  12.28000 54.54500 22.78300
C  10.83500 55.37800 24.38800
N  16.45800 51.37800 23.81800
C  15.84600 52.28600 23.09700
C  16.70700 52.59700 21.82700
C  17.93600 51.60500 21.94800
C  17.66400 51.01400 23.29200
C  16.04700 52.47200 20.46200
C  19.31800 52.40300 21.84900
C  20.44100 51.74000 20.95500
N  17.86500 50.30700 26.24500
C  18.71000 49.74100 25.28800
C  19.69400 48.83200 25.82600
C  19.39300 48.88200 27.22900
C  18.31400 49.74300 27.38400
C  20.80600 48.16800 25.08000
C  19.82500 48.51000 28.55500
O  20.88400 48.03900 28.93000
C  18.82700 49.16800 29.60400
C  18.19300 48.08800 30.41100
O  17.55500 47.16700 29.94500
O  18.70400 48.13100 31.75100
C  18.41000 46.95500 32.59400
H  13.45600 53.37900 29.18900
H  14.51900 53.86200 22.79000
H  19.45300 49.92800 23.27400
H  16.50400 50.32000 31.23100
H  15.21800 52.98700 30.98200
H  14.39200 50.32200 31.68100
H  13.42900 50.92700 30.42300
H  13.64400 51.93400 31.93700
H  17.54900 53.22800 31.02200
H  18.78100 51.93200 30.92100
H  17.85600 53.50000 33.01500
H  18.89100 52.09400 33.10500
H  10.73800 54.76500 27.04700
H  12.07400 55.92600 27.47900
H  11.78900 54.50700 28.38800
H  10.21500 54.74600 25.02400
H  10.29100 55.75400 23.52100
H  11.24200 56.26800 24.86800
H  17.05000 53.62700 21.92800
H  17.82900 50.79700 21.22500
H  15.00600 52.15200 20.50100
H  16.47700 51.79900 19.71900
H  16.05800 53.47500 20.03700
H  19.70000 52.48300 22.86700
H  19.23400 53.46400 21.61400
H  20.89600 52.43400 20.24900
H  20.16100 50.86400 20.36900
H  21.13500 51.26800 21.65000
H  21.36600 48.81900 24.40800
H  20.47300 47.26600 24.56800
H  21.53400 47.91600 25.85100
H  19.52000 49.72400 30.23600
H  17.34200 46.73800 32.56700
H  18.90600 47.02100 33.56200
H  18.96200 46.13700 32.13300

