158

Mg -12.20800 16.22100 42.20000
C  -9.01500 14.93800 41.29200
C  -11.29400 19.13600 40.77800
C  -15.46200 17.19000 42.41000
C  -13.12400 12.92000 42.83100
N  -10.43400 16.82500 40.99100
C  -9.20500 16.20200 40.76100
C  -8.16400 17.10300 40.14000
C  -8.86000 18.49000 40.09600
C  -10.31200 18.13200 40.57600
C  -8.18000 19.57900 41.00700
C  -7.64200 16.49800 38.81200
C  -6.13300 16.56300 38.62900
H  -5.54300 17.44500 37.43900
N  -13.27100 17.90200 41.72300
C  -12.67100 18.98900 41.26900
C  -13.63800 20.07200 41.13100
C  -14.88500 19.50700 41.49400
C  -14.60500 18.16100 41.92800
C  -13.30700 21.42300 40.55600
C  -16.31000 20.16700 41.34400
O  -16.45700 21.36400 41.03700
C  -17.55600 19.38000 41.68200
N  -14.05600 15.25500 42.47200
C  -15.25100 15.81100 42.62800
C  -16.34900 14.85200 43.24800
C  -15.62600 13.44300 43.06400
C  -14.11100 13.90800 42.84000
C  -16.57800 15.16600 44.82400
C  -16.06300 12.78200 41.74300
C  -17.03300 11.59000 41.76200
N  -11.22100 14.34200 42.35600
C  -11.74500 13.09900 42.61000
C  -10.73000 12.06300 42.60900
C  -9.61500 12.78500 42.15700
C  -9.97000 14.13500 42.00100
C  -10.95200 10.61600 42.84200
C  -8.23500 12.65400 41.77100
O  -7.49700 11.69200 41.78900
C  -7.74100 14.05400 41.24500
C  -6.58900 14.55000 42.01400
O  -6.64200 15.03000 43.15300
O  -5.41400 14.47900 41.31800
C  -4.23400 14.99000 42.03900
H  -10.93300 20.04600 40.29300
H  -16.48300 17.44900 42.70000
H  -13.38700 11.89300 43.09400
H  -7.37000 17.06400 40.88600
H  -9.08900 18.90300 39.11400
H  -7.16700 19.36400 41.34700
H  -8.90600 19.64400 41.81800
H  -8.03900 20.45000 40.36700
H  -8.00500 17.07400 37.96100
H  -7.95800 15.45500 38.77300
H  -5.92400 15.56200 38.25200
H  -5.63900 16.76700 39.57800
H  -13.22200 21.33700 39.47300
H  -12.34300 21.86100 40.81400
H  -14.10800 22.11300 40.81900
H  -18.36900 20.09200 41.54200
H  -17.42600 19.24400 42.75600
H  -17.65700 18.42200 41.17100
H  -17.26000 14.94200 42.65800
H  -15.79500 12.88800 43.98700
H  -15.78200 15.73200 45.30700
H  -16.87500 14.25800 45.35100
H  -17.48100 15.77700 44.81600
H  -15.21100 12.41100 41.17300
H  -16.56400 13.54100 41.14300
H  -17.84800 11.81700 41.07500
H  -17.44700 11.45800 42.76200
H  -16.43900 10.75900 41.38100
H  -11.59600 10.46600 43.70900
H  -10.07700 9.99600 43.03800
H  -11.47500 10.21600 41.97400
H  -7.43700 13.86300 40.21600
H  -3.37500 14.71200 41.42800
H  -4.14800 14.47900 42.99800
H  -4.13600 16.07300 42.10300
Mg -6.73500 25.51200 25.83900
C  -5.24300 27.12600 28.52000
C  -8.41400 23.45400 27.82500
C  -8.35400 24.36600 23.13900
C  -5.18300 27.94500 23.63700
N  -6.75000 25.42500 27.90700
C  -6.13000 26.10100 28.88900
C  -6.56200 25.76400 30.33300
C  -7.47400 24.50800 29.96400
C  -7.49900 24.41300 28.46100
C  -7.08700 23.22700 30.67000
C  -7.11200 26.92200 31.23100
C  -8.12400 26.57800 32.31800
H  -7.72300 25.67200 33.51700
N  -8.18100 24.04000 25.54900
C  -8.76500 23.28700 26.50300
C  -9.64100 22.38100 25.85700
C  -9.71100 22.75500 24.45000
C  -8.69400 23.74700 24.34000
C  -10.44000 21.32700 26.56300
C  -10.61700 22.21500 23.37800
O  -10.50400 22.57300 22.20100
C  -11.52200 21.10200 23.62300
N  -6.74100 26.05700 23.71700
C  -7.56500 25.42900 22.80200
C  -7.63500 26.09200 21.38400
C  -6.57100 27.19800 21.56100
C  -6.07200 27.02100 23.05300
C  -7.36700 25.15700 20.17600
C  -7.03100 28.72400 21.28200
C  -7.52900 29.06500 19.85600
N  -5.28700 27.06900 25.94900
C  -4.73600 27.93300 25.03800
C  -3.88900 28.89300 25.74100
C  -4.03600 28.56200 27.07700
C  -4.90000 27.48000 27.14600
C  -3.18400 30.01800 25.12700
C  -3.70400 28.92900 28.40700
O  -3.06600 29.86900 28.88300
C  -4.54300 28.08200 29.38700
C  -3.61500 27.26800 30.21300
O  -2.77800 26.48300 29.83700
O  -3.81500 27.65200 31.56100
C  -2.94700 27.18700 32.57300
H  -9.09500 22.82300 28.40000
H  -8.87300 24.01600 22.24400
H  -4.78900 28.73500 22.99400
H  -5.63700 25.34100 30.72500
H  -8.53800 24.65800 30.14300
H  -7.96900 22.79800 31.14600
H  -6.30200 23.34900 31.41600
H  -6.78800 22.41800 30.00400
H  -7.43300 27.72000 30.56200
H  -6.28700 27.25800 31.86000
H  -9.07200 26.24500 31.89600
H  -8.28900 27.51600 32.84800
H  -11.46800 21.29700 26.20200
H  -10.38100 21.53700 27.63100
H  -9.93700 20.36200 26.49600
H  -11.00300 20.33100 24.19300
H  -12.02100 20.87400 22.68100
H  -12.25500 21.41400 24.36800
H  -8.62900 26.51600 21.23700
H  -5.68300 27.05400 20.94600
H  -8.34800 25.05300 19.71100
H  -7.05500 24.20700 20.61100
H  -6.61600 25.46900 19.45200
H  -6.20000 29.36600 21.57700
H  -7.72700 29.13400 22.01400
H  -7.82700 28.16700 19.31400
H  -6.79200 29.69800 19.36300
H  -8.50000 29.56000 19.88500
H  -3.42700 30.27500 24.09600
H  -2.10700 29.98500 25.29100
H  -3.51200 30.84200 25.76000
H  -5.07600 28.71800 30.09300
H  -2.63400 26.15400 32.41700
H  -3.42100 27.18700 33.55500
H  -2.05600 27.81000 32.49200

