158

Mg 35.77100 2.07200 29.95000
C  33.46200 2.92100 32.39600
C  38.32500 2.33100 32.26800
C  37.96700 1.51400 27.57400
C  33.15600 2.27400 27.50200
N  35.81800 2.60100 31.98400
C  34.79800 2.78700 32.86200
C  35.28000 2.98300 34.36700
C  36.86200 3.19800 34.17200
C  36.98500 2.65300 32.71300
C  37.40600 4.60600 34.23500
C  34.91000 1.74100 35.23700
C  34.37800 2.12000 36.63400
H  34.93200 3.30900 37.51400
N  37.83100 1.87500 29.95600
C  38.68000 2.00800 30.98300
C  40.02900 1.54100 30.52700
C  39.93500 1.36500 29.09600
C  38.53800 1.62600 28.81300
C  41.17000 1.33700 31.54000
C  40.99400 1.03500 28.04900
O  40.73400 0.81600 26.88900
C  42.45400 1.03600 28.48400
N  35.56600 1.86800 27.90400
C  36.65900 1.68600 27.14600
C  36.33400 1.71600 25.63000
C  34.82000 1.74400 25.63600
C  34.42200 1.93400 27.14700
C  36.97900 2.86300 24.83000
C  34.11900 0.59800 24.89000
C  33.39200 -0.54000 25.76300
N  33.73400 2.46100 29.91700
C  32.82500 2.52000 28.84400
C  31.54900 2.93700 29.34800
C  31.74200 2.96300 30.75500
C  33.10600 2.79300 31.04400
C  30.28400 3.04800 28.61500
C  31.07000 3.31800 31.95300
O  29.86700 3.44900 32.23700
C  32.16600 3.30500 33.10200
C  32.11000 4.60800 33.76800
O  32.66400 5.64900 33.43700
O  31.40500 4.45300 34.90600
C  31.38400 5.56700 35.87300
H  39.04300 2.52800 33.06600
H  38.56200 1.47700 26.65900
H  32.35300 2.41200 26.77500
H  34.79400 3.90200 34.69600
H  37.40800 2.55600 34.86400
H  38.08000 4.83600 33.41000
H  38.05600 4.69900 35.10400
H  36.65900 5.39800 34.29400
H  35.76400 1.07100 35.33100
H  34.12400 1.28600 34.63300
H  34.50800 1.22600 37.24300
H  33.31000 2.33900 36.61400
H  41.92200 2.09300 31.31200
H  41.52000 0.33900 31.27900
H  40.99200 1.35100 32.61600
H  43.12800 0.98900 27.62800
H  42.51700 0.23700 29.22200
H  42.67900 1.97300 28.99300
H  36.77200 0.79300 25.25000
H  34.53200 2.71300 25.22800
H  36.92800 3.87300 25.23600
H  36.57600 3.05900 23.83600
H  38.06100 2.74000 24.86500
H  34.86500 -0.02400 24.39700
H  33.49600 1.00800 24.09500
H  32.42800 -0.87300 25.37800
H  33.14300 -0.26800 26.78800
H  34.01000 -1.42800 25.89600
H  30.23900 3.81100 27.83900
H  29.40100 3.22200 29.22900
H  29.94200 2.17400 28.06000
H  31.77800 2.56800 33.80500
H  30.81600 6.36400 35.39400
H  32.42600 5.81600 36.07500
H  30.84200 5.29900 36.78000
Mg 50.55200 45.13700 42.99000
C  47.54500 46.36800 41.69700
C  49.99800 42.18500 41.29300
C  53.74100 44.41000 43.27900
C  51.31000 48.48700 43.85100
N  48.86500 44.40700 41.59300
C  47.74600 45.04500 41.25000
C  46.83300 44.08900 40.42900
C  47.59700 42.71900 40.41100
C  48.91100 43.12900 41.08800
C  46.93600 41.61700 41.33200
C  46.51500 44.69700 39.07300
C  44.97300 44.62400 38.71100
H  44.49100 43.42000 37.77600
N  51.63700 43.35900 42.67000
C  51.24900 42.26200 41.98800
C  52.31500 41.30400 41.97700
C  53.40900 41.92100 42.62100
C  52.95900 43.28900 42.92000
C  52.18100 39.84700 41.48000
C  54.80700 41.26000 42.91500
O  55.12300 40.23800 42.34800
C  55.89000 41.97400 43.79800
N  52.24900 46.27300 43.38400
C  53.46400 45.73100 43.52300
C  54.55400 46.70700 43.84300
C  53.75500 48.01300 44.01800
C  52.33700 47.60000 43.72800
C  55.47100 46.56400 45.07600
C  54.33300 49.17400 43.19600
C  54.80900 50.37600 43.97500
N  49.58100 47.03400 42.98300
C  50.02200 48.24300 43.41000
C  48.88200 49.21100 43.37900
C  47.81300 48.50000 42.66700
C  48.40100 47.20700 42.42400
C  48.82600 50.48800 44.14500
C  46.41100 48.47300 42.27600
O  45.54600 49.36100 42.35800
C  46.25200 47.14300 41.49900
C  44.93700 46.59900 41.98900
O  44.86600 45.82800 42.97800
O  43.88800 46.92700 41.24400
C  42.50300 46.44000 41.65200
H  49.70200 41.20600 40.91200
H  54.78200 44.09400 43.18400
H  51.55000 49.51500 44.13100
H  45.94800 43.94600 41.04900
H  47.69800 42.28600 39.41600
H  45.85600 41.72100 41.44200
H  47.36400 41.60400 42.33400
H  47.28700 40.73600 40.79500
H  46.95000 44.10400 38.26800
H  46.98800 45.67100 38.95300
H  44.66500 45.48000 38.11000
H  44.40200 44.61700 39.64000
H  52.81000 39.55300 40.63900
H  51.16400 39.77500 41.09500
H  52.29200 39.04900 42.21400
H  55.45900 42.43000 44.68900
H  56.42100 42.64700 43.12500
H  56.59000 41.22500 44.16800
H  55.24700 46.61100 43.00700
H  53.83700 48.24900 45.07900
H  55.97900 47.49100 45.34000
H  56.07700 45.66600 44.95600
H  54.87400 46.29400 45.94700
H  53.51300 49.55000 42.58400
H  55.09000 48.71300 42.56100
H  54.21300 51.26700 43.77700
H  55.86200 50.57300 43.77500
H  54.68500 50.26800 45.05300
H  48.00800 50.42700 44.86300
H  48.67200 51.33900 43.48200
H  49.77300 50.70400 44.63900
H  46.08400 47.59500 40.52100
H  41.87500 47.24200 41.26300
H  42.40300 46.29300 42.72700
H  42.12800 45.58000 41.09800

