158

Mg -1.84400 17.41700 26.71400
C  -2.26700 15.16300 29.53900
C  -2.51200 19.92500 29.01200
C  -1.65900 19.38700 24.32000
C  -1.77600 14.59600 24.69100
N  -2.56400 17.48400 28.99500
C  -2.54500 16.46500 29.93700
C  -2.75900 17.01500 31.36800
C  -2.96200 18.57000 31.13200
C  -2.68700 18.69900 29.60400
C  -4.37100 19.00400 31.60500
C  -1.54300 16.67200 32.31300
C  -1.52900 17.43800 33.64200
H  -1.44100 16.67800 34.98300
N  -1.94300 19.38100 26.67800
C  -2.19600 20.26500 27.67900
C  -2.06800 21.65100 27.15800
C  -1.85300 21.52400 25.76500
C  -1.82800 20.04700 25.48300
C  -2.22000 22.86900 28.05400
C  -1.63200 22.58700 24.67600
O  -1.57900 22.32400 23.49400
C  -1.48900 23.98600 25.05200
N  -1.54900 17.04800 24.71200
C  -1.56200 18.07900 23.89000
C  -1.20500 17.67300 22.41700
C  -1.01000 16.11700 22.60500
C  -1.43100 15.86100 24.07700
C  -2.31300 18.00900 21.31700
C  0.39500 15.56000 22.27900
C  1.47000 15.38100 23.40900
N  -1.88900 15.37700 26.97600
C  -1.87600 14.33600 26.04500
C  -2.05600 13.04200 26.62300
C  -2.17600 13.34300 27.99100
C  -2.02600 14.75400 28.19100
C  -2.15200 11.68400 26.04600
C  -2.25500 12.73600 29.29500
O  -2.34800 11.54600 29.59400
C  -2.29000 13.83200 30.29700
C  -1.00600 13.64100 31.15200
O  -0.05100 14.31300 30.86900
O  -1.09900 12.73500 32.15900
C  -0.11400 12.81700 33.24100
H  -2.34900 20.74400 29.71500
H  -1.54500 19.98900 23.41600
H  -1.89700 13.71400 24.05800
H  -3.61300 16.54400 31.85500
H  -2.24300 19.17800 31.68100
H  -4.99600 18.12200 31.74000
H  -4.83100 19.69300 30.89700
H  -4.36800 19.63100 32.49700
H  -0.62000 16.98200 31.82100
H  -1.53700 15.60600 32.53900
H  -2.50200 17.92500 33.56700
H  -0.81800 18.26300 33.62800
H  -1.20300 23.14200 28.33500
H  -2.93500 22.63700 28.84300
H  -2.79300 23.60200 27.48600
H  -2.43000 24.40300 25.41200
H  -1.12700 24.48500 24.15400
H  -0.71500 24.13800 25.80500
H  -0.32900 18.11700 21.94500
H  -1.66500 15.59100 21.91100
H  -3.10300 17.26800 21.44200
H  -1.93500 17.90500 20.30000
H  -2.81600 18.97100 21.42200
H  0.76200 16.21100 21.48500
H  0.25200 14.63800 21.71500
H  0.98800 15.22500 24.37400
H  2.29800 16.07900 23.53800
H  1.96800 14.45700 23.11700
H  -1.48900 11.63100 25.18300
H  -3.15800 11.58000 25.63800
H  -1.83500 10.96700 26.80400
H  -3.11700 13.64500 30.98200
H  0.86600 13.23600 33.01200
H  0.10400 11.80400 33.57900
H  -0.51600 13.47100 34.01500
Mg -5.33700 25.11200 26.06600
C  -3.82500 26.28600 29.02600
C  -7.29600 23.02200 27.97400
C  -6.06200 23.30300 23.20600
C  -3.23200 27.12200 24.26000
N  -5.42300 24.56700 28.27000
C  -4.78900 25.30300 29.26200
C  -5.54500 25.06500 30.61000
C  -6.37500 23.78100 30.22900
C  -6.38500 23.76200 28.73200
C  -5.88500 22.50200 30.89200
C  -6.42800 26.33700 31.02700
C  -6.23500 26.64700 32.51000
H  -5.70000 25.59100 33.47800
N  -6.60900 23.52400 25.64100
C  -7.36800 22.79600 26.57700
C  -8.19500 21.91800 25.86000
C  -7.87300 21.94800 24.46500
C  -6.84200 22.96700 24.40100
C  -9.27400 21.06100 26.50000
C  -8.46300 21.11300 23.27100
O  -8.26300 21.39300 22.09500
C  -9.30400 19.97900 23.66600
N  -4.78900 25.16200 23.98400
C  -5.14600 24.32100 23.02900
C  -4.41700 24.67000 21.70200
C  -3.52600 25.98100 22.05000
C  -3.91600 26.13800 23.53800
C  -3.74000 23.51800 20.83500
C  -3.74000 27.19300 21.03900
C  -5.15800 27.77100 21.31000
N  -3.91700 26.52100 26.48600
C  -3.22200 27.32800 25.64100
C  -2.38100 28.21200 26.33600
C  -2.59500 27.81400 27.69900
C  -3.50900 26.76800 27.74600
C  -1.46400 29.30400 25.75800
C  -2.24400 28.12300 29.07000
O  -1.51700 28.97300 29.49200
C  -3.12100 27.13200 29.96400
C  -2.22700 26.31100 30.80300
O  -1.51900 25.37800 30.36700
O  -2.25700 26.81000 32.07000
C  -1.12600 26.37700 32.84400
H  -7.86100 22.39200 28.66400
H  -6.16700 22.68500 22.31200
H  -2.58000 27.79500 23.69900
H  -4.67000 24.81700 31.21100
H  -7.38700 23.79100 30.63200
H  -4.98300 22.62800 31.49100
H  -5.68600 21.80300 30.08000
H  -6.59300 22.05400 31.58900
H  -7.46500 26.13800 30.75500
H  -6.06600 27.17400 30.43000
H  -7.19000 27.02600 32.87600
H  -5.54900 27.48500 32.63800
H  -10.30000 21.11400 26.13400
H  -9.50700 21.29200 27.54000
H  -9.05500 19.99400 26.54200
H  -9.50500 19.47700 22.72000
H  -10.29800 20.29700 23.97900
H  -8.86800 19.28200 24.38200
H  -5.18000 25.01700 21.00500
H  -2.47900 25.68800 21.97000
H  -3.84000 22.59200 21.40000
H  -2.68400 23.72100 20.65300
H  -4.17600 23.44400 19.83900
H  -3.60600 26.75700 20.04900
H  -3.06700 28.02700 21.23300
H  -5.80600 27.11200 21.88900
H  -5.67400 27.93200 20.36300
H  -5.04400 28.79300 21.66900
H  -2.05700 30.14300 25.39500
H  -0.79600 28.98100 24.95900
H  -0.72000 29.47100 26.53800
H  -3.78700 27.73800 30.57700
H  -1.17300 26.95900 33.76500
H  -0.19700 26.67600 32.35800
H  -1.19600 25.30400 33.02000

