158

Mg 41.57900 6.85100 29.62600
C  43.12400 8.42300 32.38100
C  39.12100 5.57700 31.76000
C  39.98100 5.48600 27.01500
C  44.03400 8.03600 27.66600
N  41.17400 6.91900 31.79900
C  41.87500 7.85700 32.66400
C  41.11700 7.86100 33.97100
C  40.07400 6.69200 33.91300
C  40.09400 6.35600 32.40200
C  40.49200 5.42400 34.69000
C  40.49100 9.18700 34.48600
C  40.49800 9.35300 36.00200
H  41.38800 10.40400 36.63600
N  39.87600 5.66100 29.40100
C  38.99100 5.28200 30.39600
C  37.93800 4.58700 29.81900
C  38.04800 4.68200 28.47800
C  39.33900 5.27800 28.20400
C  36.79400 4.12500 30.68900
C  37.02000 4.25400 27.43700
O  37.21000 4.49600 26.27300
C  35.68400 3.53100 27.80800
N  42.21800 6.41300 27.66200
C  41.21300 6.02500 26.71400
C  41.79900 6.21900 25.29200
C  43.00700 7.18600 25.48600
C  43.06300 7.25400 27.07600
C  42.29200 4.88300 24.67800
C  42.90400 8.54800 24.84100
C  41.56700 9.36000 25.12900
N  43.43800 7.83100 29.94700
C  44.29700 8.24900 29.03100
C  45.44700 8.92200 29.67700
C  45.04400 9.05300 31.02400
C  43.77500 8.34200 31.11200
C  46.64600 9.55200 29.03900
C  45.26700 9.71700 32.30400
O  46.07700 10.57300 32.65100
C  44.02200 9.29100 33.26300
C  44.70400 8.60100 34.37600
O  45.40500 7.62300 34.33100
O  44.42300 9.17600 35.55800
C  44.82100 8.63300 36.85700
H  38.33100 5.30700 32.46500
H  39.40400 5.11900 26.16400
H  44.82900 8.40100 27.01300
H  41.87700 7.56100 34.69200
H  39.05100 6.89600 34.23000
H  40.97400 4.73000 34.00100
H  39.57500 4.93100 35.01200
H  41.18400 5.67100 35.49600
H  39.42900 9.22100 34.24000
H  41.01000 9.93400 33.88600
H  40.52500 8.40500 36.53900
H  39.49500 9.68700 36.26400
H  35.79600 4.48600 30.44100
H  36.93900 4.16900 31.76900
H  36.85400 3.05000 30.51700
H  36.05500 2.79900 28.52500
H  35.18900 3.00600 26.99100
H  35.12800 4.19800 28.46800
H  41.09000 6.69200 24.61300
H  43.97500 6.79900 25.16900
H  43.35900 4.66500 24.68600
H  42.04800 4.85200 23.61600
H  41.82500 3.99000 25.09400
H  42.90200 8.47900 23.75300
H  43.74900 9.21600 25.00800
H  41.12900 9.01100 26.06400
H  40.77800 9.19800 24.39500
H  41.88700 10.40200 25.14500
H  46.46000 9.58500 27.96500
H  47.55500 8.98600 29.24500
H  46.77400 10.60400 29.29200
H  43.57600 10.23000 33.59000
H  44.94800 7.56300 36.69300
H  44.06500 8.71800 37.63700
H  45.78900 9.01100 37.18800
Mg -10.78600 40.45300 42.09700
C  -9.57600 37.37400 40.90700
C  -7.67900 41.83400 41.03600
C  -12.26100 43.33800 42.09200
C  -13.92300 38.85700 42.56600
N  -8.94300 39.64700 40.98300
C  -8.70300 38.38600 40.63200
C  -7.28700 38.26000 40.04000
C  -6.61000 39.60200 40.52200
C  -7.79900 40.45400 40.96400
C  -5.56500 39.45300 41.68400
C  -7.37700 37.98000 38.45500
C  -6.65200 36.67500 38.02700
H  -5.37600 36.65800 37.09200
N  -10.06200 42.39800 41.79600
C  -8.75600 42.76700 41.41000
C  -8.73100 44.17000 41.49900
C  -10.03700 44.68700 41.92300
C  -10.83200 43.48100 41.93300
C  -7.55800 44.97900 41.05600
C  -10.44100 46.09600 42.21700
O  -9.54200 46.97300 42.14000
C  -11.66800 46.39500 42.90900
N  -12.90000 40.91900 42.00500
C  -13.17600 42.26900 42.15300
C  -14.67500 42.51100 42.32100
C  -15.17200 41.04300 42.49600
C  -13.89500 40.19800 42.36900
C  -15.09600 43.53200 43.48600
C  -16.39700 40.55800 41.66900
C  -17.65700 41.37200 41.65800
N  -11.63000 38.47300 41.94600
C  -12.82900 37.94400 42.31300
C  -12.80200 36.54000 42.23400
C  -11.53500 36.23100 41.69500
C  -10.89100 37.47600 41.45700
C  -13.97300 35.63700 42.24500
C  -10.71600 35.16900 41.19500
O  -10.91400 33.95400 41.18400
C  -9.41500 35.89300 40.69100
C  -8.36300 35.41700 41.61400
O  -8.34100 35.44100 42.83300
O  -7.66900 34.52100 40.85400
C  -7.24100 33.22300 41.40900
H  -6.65900 42.20200 40.90700
H  -12.88400 44.23400 42.07000
H  -14.80600 38.32000 42.91700
H  -6.81400 37.49300 40.65300
H  -6.06900 40.12800 39.73500
H  -5.91300 39.88200 42.62400
H  -4.61000 39.85600 41.34700
H  -5.46000 38.42500 42.03300
H  -6.82200 38.77800 37.96200
H  -8.40300 38.04900 38.09300
H  -7.40700 36.12300 37.46900
H  -6.37900 36.15900 38.94800
H  -8.00700 45.70200 40.37500
H  -6.84900 44.43700 40.43000
H  -7.07800 45.51200 41.87700
H  -12.46000 46.55500 42.17700
H  -11.51100 47.35300 43.40500
H  -12.04900 45.72200 43.67600
H  -15.13400 42.64700 41.34200
H  -15.38500 40.78400 43.53400
H  -15.94800 43.20500 44.08100
H  -15.15300 44.60300 43.29100
H  -14.30100 43.27200 44.18600
H  -16.72400 39.63200 42.14200
H  -16.14500 40.39700 40.62100
H  -18.01400 41.40400 40.62900
H  -17.40100 42.36400 42.03100
H  -18.43000 40.92100 42.28100
H  -13.68000 34.59400 42.36900
H  -14.61700 35.65500 41.36600
H  -14.56100 35.86200 43.13500
H  -9.15700 35.73700 39.64300
H  -6.28300 32.88300 41.01600
H  -7.80900 32.48000 40.84900
H  -7.39000 33.13100 42.48500

