158

Mg 27.49400 49.94800 26.95900
C  25.41400 50.69200 29.75400
C  29.91700 49.15100 29.36300
C  29.32800 49.01700 24.53200
C  24.87100 50.94000 24.92600
N  27.60800 49.91000 29.35900
C  26.61300 50.19100 30.24900
C  27.02300 50.01900 31.71900
C  28.58500 49.74500 31.57000
C  28.73300 49.58100 29.99200
C  29.47600 50.84600 32.16100
C  26.20900 48.92600 32.40100
C  25.48400 49.38600 33.71600
H  25.73200 48.44100 34.94000
N  29.40600 49.21600 26.95200
C  30.24900 48.92100 27.98300
C  31.45200 48.36300 27.44500
C  31.35000 48.47000 26.06100
C  30.02300 48.88100 25.79300
C  32.56100 47.75900 28.36600
C  32.47600 48.21500 25.12300
O  32.40500 48.43800 23.91300
C  33.75600 47.79700 25.62400
N  27.19500 50.11300 25.01700
C  28.10800 49.56500 24.18100
C  27.53900 49.29500 22.72300
C  26.02600 49.78800 22.90700
C  25.98700 50.31400 24.39900
C  28.38000 49.98600 21.61100
C  24.92700 48.63100 22.65300
C  24.31200 48.64600 21.27900
N  25.59400 50.84700 27.21100
C  24.61400 51.08800 26.28100
C  23.49500 51.66300 26.94100
C  23.73800 51.44400 28.28100
C  25.01300 50.93300 28.38500
C  22.17900 52.16000 26.36700
C  23.10800 51.43700 29.61800
O  22.02100 51.80700 29.96600
C  24.23700 51.02300 30.66300
C  24.43800 52.20100 31.48400
O  25.22300 53.13300 31.27900
O  23.76000 52.08000 32.68300
C  23.84200 53.10100 33.79700
H  30.74200 49.00700 30.06300
H  29.90900 48.58700 23.71400
H  24.04600 51.15100 24.24200
H  26.89000 50.90100 32.34500
H  28.77900 48.73800 31.93900
H  28.90200 51.51600 32.80200
H  29.89900 51.40000 31.32300
H  30.35100 50.50900 32.71600
H  26.77700 48.04600 32.70200
H  25.35500 48.63900 31.78700
H  24.42100 49.25900 33.51300
H  25.68400 50.43100 33.95500
H  32.59000 46.67100 28.30700
H  32.30400 47.72700 29.42400
H  33.57100 48.15500 28.26300
H  34.11000 48.63800 26.22000
H  34.52900 47.66300 24.86700
H  33.59400 46.84700 26.13200
H  27.54200 48.21900 22.54600
H  25.83900 50.64400 22.25800
H  28.43400 49.30000 20.76500
H  29.41400 50.05500 21.94800
H  28.01600 50.98300 21.36000
H  24.14200 48.73100 23.40200
H  25.50400 47.71800 22.79800
H  23.23400 48.74000 21.40900
H  24.58200 47.74500 20.72900
H  24.52200 49.57200 20.74400
H  21.54400 51.42700 25.86900
H  22.33400 53.04200 25.74400
H  21.70000 52.32400 27.33200
H  23.83400 50.13700 31.15400
H  23.66200 54.11200 33.43100
H  24.79700 53.10600 34.32300
H  23.04900 53.03400 34.54200
Mg -1.60200 33.66400 27.12000
C  -3.44500 32.28000 29.85400
C  0.09700 35.69500 29.30900
C  -0.28400 35.25500 24.40900
C  -3.73200 32.02200 24.92100
N  -1.67800 33.96700 29.42200
C  -2.42500 33.24500 30.31300
C  -2.01000 33.67100 31.77100
C  -0.93900 34.82800 31.46800
C  -0.84600 34.89900 29.95300
C  -1.31800 36.22200 32.11700
C  -1.54300 32.47500 32.68700
C  -2.48500 31.92500 33.65800
H  -2.07700 31.89100 35.13500
N  -0.20200 35.21600 26.86800
C  0.33600 35.94100 27.91600
C  1.30200 36.82200 27.37000
C  1.16100 36.76900 25.90500
C  0.20800 35.71600 25.65000
C  2.07200 37.75900 28.22300
C  1.84300 37.56400 24.90800
O  1.70900 37.38100 23.68200
C  2.86400 38.65500 25.36400
N  -1.97200 33.74900 24.98400
C  -1.26400 34.34500 24.09100
C  -1.66100 34.03900 22.63600
C  -2.48400 32.71500 22.84700
C  -2.78000 32.82300 24.35800
C  -2.48100 35.15000 22.04300
C  -1.78100 31.31700 22.53600
C  -2.68500 30.18800 21.93100
N  -3.21000 32.35500 27.26000
C  -3.96200 31.73200 26.29200
C  -4.87100 30.85100 26.92000
C  -4.65600 30.99600 28.30700
C  -3.70200 31.95100 28.47800
C  -5.93500 29.99200 26.18800
C  -5.12600 30.63700 29.60800
O  -6.04500 29.78600 29.89900
C  -4.37200 31.48300 30.65400
C  -5.45600 32.37000 31.13700
O  -6.13300 33.19200 30.55500
O  -5.82700 31.97200 32.35900
C  -7.05200 32.62200 32.82700
H  0.69100 36.23000 30.05400
H  0.06400 35.58900 23.43000
H  -4.29700 31.52200 24.13200
H  -2.88300 34.13200 32.23200
H  0.07000 34.62400 31.82700
H  -1.75600 36.86900 31.35700
H  -0.44700 36.76400 32.48600
H  -2.07600 36.17500 32.89800
H  -0.69800 32.87800 33.24400
H  -1.12200 31.69000 32.05900
H  -2.69300 30.86400 33.52200
H  -3.47100 32.37600 33.54700
H  1.67100 37.74400 29.23700
H  1.92300 38.80400 27.94900
H  3.13300 37.51200 28.25600
H  3.42700 39.06300 24.52400
H  3.57500 38.13200 26.00400
H  2.29000 39.42700 25.87600
H  -0.75600 33.80400 22.07600
H  -3.42000 32.74200 22.28900
H  -2.35200 36.07100 22.61000
H  -3.52100 34.92400 21.80600
H  -2.04600 35.48200 21.10100
H  -1.48300 30.99800 23.53400
H  -0.84500 31.51800 22.01300
H  -2.86300 29.41200 22.67600
H  -2.20600 29.60300 21.14600
H  -3.63300 30.57900 21.56100
H  -5.46500 29.04100 25.93700
H  -6.33000 30.66500 25.42700
H  -6.74600 29.75900 26.87700
H  -3.90500 30.83300 31.39400
H  -7.82700 32.44900 32.08100
H  -6.86100 33.68800 32.95400
H  -7.44100 32.12300 33.71500

