158

Mg 2.27300 -1.52500 44.70500
C  5.55200 -0.67100 44.34700
C  1.52200 0.89800 42.20100
C  -0.86300 -2.58600 44.66700
C  3.34500 -4.55100 46.26200
N  3.42500 -0.24300 43.29700
C  4.79800 -0.01200 43.36600
C  5.32000 1.02100 42.38500
C  3.97000 1.50400 41.72600
C  2.89900 0.72300 42.48400
C  3.86600 3.03900 41.76900
C  6.48100 0.43200 41.43000
C  7.78100 1.22100 41.36200
H  8.28100 1.55200 39.95300
N  0.52600 -0.75000 43.79200
C  0.43500 0.19300 42.80000
C  -0.93400 0.49700 42.52400
C  -1.67100 -0.56700 43.18100
C  -0.70100 -1.35600 43.97000
C  -1.45900 1.56500 41.64000
C  -3.32500 -0.65600 43.02000
O  -3.99600 0.18500 42.41300
C  -4.05800 -1.84800 43.72500
N  1.38200 -3.37000 45.28700
C  0.03400 -3.41900 45.31400
C  -0.43500 -4.78900 45.87500
C  0.90500 -5.34400 46.45700
C  1.97200 -4.38000 45.99700
C  -1.73100 -4.98200 46.67300
C  1.30200 -6.80900 46.25600
C  1.65200 -7.80400 47.40400
N  4.05700 -2.48000 45.33200
C  4.30300 -3.60700 46.03900
C  5.66000 -3.57600 46.40600
C  6.20100 -2.40900 45.85000
C  5.15900 -1.82700 45.16700
C  6.51200 -4.57500 47.24300
C  7.35700 -1.57800 45.74000
O  8.50000 -1.74200 46.18000
C  6.94600 -0.36000 44.71400
C  7.10500 0.90500 45.38500
O  6.43800 1.31700 46.33700
O  8.21800 1.57300 44.88500
C  8.61600 2.86400 45.42100
H  1.24700 1.68500 41.49500
H  -1.89600 -2.92200 44.77800
H  3.68400 -5.40500 46.85100
H  5.56300 1.85300 43.04700
H  4.13600 1.24800 40.67900
H  4.77200 3.58200 42.03900
H  3.12300 3.14800 42.55900
H  3.53400 3.43700 40.81100
H  6.06100 0.14700 40.46500
H  6.72100 -0.54600 41.84700
H  8.56300 0.74600 41.95400
H  7.75900 2.16400 41.90800
H  -1.82200 2.41400 42.21900
H  -2.23700 1.19400 40.97300
H  -0.77200 1.89600 40.86000
H  -5.09400 -1.88400 43.38800
H  -4.03300 -1.82500 44.81500
H  -3.57400 -2.76400 43.38800
H  -0.50300 -5.32800 44.93000
H  0.91300 -5.19700 47.53700
H  -2.29500 -4.10400 46.98800
H  -1.65600 -5.70000 47.49000
H  -2.51400 -5.34700 46.00800
H  2.08600 -6.90900 45.50400
H  0.38000 -7.23100 45.85600
H  2.62600 -8.26000 47.22000
H  0.91900 -8.60800 47.46900
H  1.56600 -7.35300 48.39200
H  5.88300 -5.27200 47.79700
H  7.19500 -3.94300 47.80900
H  7.14200 -5.09300 46.51900
H  7.57900 -0.47100 43.83400
H  9.30300 3.23000 44.65800
H  8.98200 2.76600 46.44200
H  7.80100 3.58000 45.53200
Mg 0.66500 8.26700 26.73400
C  1.07700 10.31200 29.62100
C  0.66500 5.48200 28.90700
C  0.91400 6.34900 24.11700
C  1.15900 11.09600 24.73300
N  0.86400 7.95100 29.00800
C  0.89200 8.98300 29.97400
C  0.74800 8.32600 31.36200
C  0.84600 6.78700 31.11800
C  0.80100 6.67800 29.61300
C  2.18400 6.20800 31.65600
C  -0.51100 8.86800 32.05700
C  -0.94200 8.04400 33.28200
H  -0.01200 7.83700 34.41200
N  0.64500 6.13900 26.54100
C  0.69200 5.19700 27.51600
C  0.69600 3.91500 26.84100
C  0.83400 4.15600 25.49400
C  0.76200 5.55800 25.28500
C  0.77200 2.62200 27.57700
C  0.90800 3.18800 24.29600
O  0.90000 3.54800 23.12600
C  0.86300 1.72900 24.52700
N  0.98900 8.65300 24.77300
C  0.96800 7.69100 23.81400
C  1.07000 8.34000 22.42600
C  0.87600 9.84900 22.65300
C  1.01900 9.89300 24.12900
C  2.41300 7.88300 21.80700
C  -0.41400 10.35700 22.14800
C  -0.42000 11.64400 21.25100
N  0.96300 10.30000 27.05000
C  1.18400 11.34900 26.12100
C  1.35000 12.57300 26.79600
C  1.26200 12.21600 28.20900
C  1.09800 10.82900 28.28200
C  1.40900 13.90900 26.13900
C  1.32600 12.73600 29.56200
O  1.48100 13.85900 29.98900
C  1.15600 11.47200 30.53100
C  2.24900 11.57400 31.58400
O  3.49100 11.50800 31.41500
O  1.71300 11.86600 32.79800
C  2.63900 11.86400 33.93300
H  0.74700 4.64700 29.60600
H  0.84100 5.78000 23.18800
H  1.13600 11.97400 24.08500
H  1.65200 8.60000 31.90600
H  -0.01600 6.21300 31.45600
H  2.04000 5.20300 32.05200
H  2.47100 6.78900 32.53300
H  2.92500 6.24200 30.85800
H  -1.31100 9.08200 31.34900
H  -0.06400 9.72800 32.55700
H  -1.48400 7.12800 33.04800
H  -1.62600 8.68600 33.83700
H  -0.09200 2.01600 27.30700
H  0.63900 2.68300 28.65700
H  1.64900 2.00400 27.37900
H  0.78500 1.16300 23.59900
H  -0.09900 1.58900 25.02000
H  1.78900 1.50100 25.05300
H  0.26200 8.01200 21.77200
H  1.68700 10.35000 22.12500
H  2.95400 8.79600 21.56000
H  2.27000 7.25600 20.92700
H  2.89200 7.30200 22.59500
H  -0.98500 10.53300 23.06000
H  -1.05900 9.69800 21.56800
H  0.61900 11.93700 21.10200
H  -0.95000 12.42400 21.79800
H  -0.88800 11.48800 20.27900
H  0.47000 14.43400 26.31500
H  1.59800 13.96700 25.06700
H  2.11500 14.52600 26.69500
H  0.27200 11.64200 31.14500
H  3.66300 11.56300 33.71000
H  2.19500 11.07200 34.53500
H  2.71400 12.80700 34.47500

