158

Mg 47.23300 44.85300 44.06800
C  43.92400 44.72600 43.26200
C  47.65100 41.55200 43.00000
C  50.60000 45.37500 44.20600
C  46.77000 48.21800 45.02300
N  45.97700 43.39300 43.20500
C  44.64100 43.49100 42.98900
C  44.01100 42.19300 42.36200
C  45.18700 41.13100 42.65200
C  46.36200 42.06900 42.94500
C  44.87500 40.18100 43.81500
C  43.71600 42.37400 40.82500
C  42.32400 42.01500 40.29900
H  42.40200 41.12000 39.12700
N  48.87100 43.68000 43.74600
C  48.82400 42.30000 43.29000
C  50.18200 41.86500 43.06600
C  51.08500 42.90500 43.57200
C  50.20100 44.04500 43.84000
C  50.54200 40.58100 42.46900
C  52.60800 42.81300 43.73200
O  53.25500 41.70500 43.55000
C  53.35400 43.81300 44.51500
N  48.53900 46.58800 44.42800
C  49.89600 46.47000 44.49500
C  50.49100 47.76800 44.95900
C  49.27100 48.60600 45.37800
C  48.10100 47.76400 44.98800
C  51.59200 47.56700 46.08600
C  49.17600 50.08700 44.93400
C  48.53100 51.06600 45.91400
N  45.67400 46.21700 44.12200
C  45.62500 47.48900 44.60300
C  44.32000 48.03900 44.65700
C  43.57900 46.96300 44.03300
C  44.48500 45.86600 43.77600
C  43.84000 49.34300 45.01400
C  42.31000 46.57400 43.49600
O  41.25400 47.21600 43.32800
C  42.45200 45.12500 42.89600
C  41.40100 44.17900 43.50200
O  40.57500 43.57300 42.85100
O  41.54400 44.06600 44.84800
C  40.97200 42.85600 45.47300
H  47.72400 40.49600 42.72900
H  51.67000 45.57200 44.30600
H  46.60100 49.18800 45.49600
H  43.17600 41.83200 42.96100
H  45.37000 40.46400 41.81000
H  43.81800 40.20400 44.08100
H  45.29700 40.48900 44.77200
H  45.13800 39.14700 43.59400
H  44.57700 41.98900 40.27800
H  43.83000 43.44000 40.63200
H  41.84200 42.94800 40.00500
H  41.84300 41.54400 41.15600
H  49.73300 39.85600 42.37700
H  51.25800 40.23800 43.21600
H  51.00400 40.61900 41.48300
H  54.26600 43.37500 44.92000
H  52.75600 43.94600 45.41700
H  53.51000 44.75900 43.99800
H  50.92900 48.21900 44.06900
H  49.29500 48.59000 46.46800
H  52.62600 47.72700 45.77700
H  51.46800 46.57000 46.50900
H  51.36300 48.03200 47.04400
H  48.70300 50.08600 43.95200
H  50.18400 50.38100 44.64400
H  49.20300 51.88700 46.16400
H  48.15400 50.52800 46.78400
H  47.69300 51.50500 45.37100
H  43.80900 49.50200 46.09200
H  42.83800 49.50700 44.61900
H  44.46600 50.07300 44.50000
H  42.28700 45.06000 41.82100
H  41.13700 41.94600 44.89600
H  39.91700 43.02300 45.69300
H  41.45900 42.67000 46.43000
Mg 15.89000 51.08800 25.43900
C  17.62200 49.96300 28.33000
C  13.24300 52.05600 27.57000
C  14.30400 52.12700 22.79100
C  18.65500 50.18400 23.63500
N  15.57500 50.99400 27.74900
C  16.48400 50.61300 28.70700
C  15.95000 50.94700 30.05400
C  14.38400 51.23500 29.76400
C  14.42900 51.49100 28.26600
C  13.47900 49.99300 30.10200
C  16.67300 52.32700 30.54100
C  16.93400 52.49700 32.07000
H  16.14300 51.49800 32.91000
N  14.03600 52.04000 25.23300
C  13.07300 52.28400 26.23700
C  11.86400 52.85600 25.49600
C  12.14400 52.84800 24.10100
C  13.57400 52.32800 24.02400
C  10.59000 53.10500 26.30600
C  11.29000 53.34000 22.94700
O  11.78800 53.44400 21.84300
C  9.91500 53.71600 23.23200
N  16.33200 50.94600 23.54500
C  15.51700 51.47900 22.60800
C  16.21800 51.57100 21.17600
C  17.65800 51.07400 21.57700
C  17.58100 50.80300 22.99300
C  15.49400 50.68600 20.15900
C  18.77600 52.05900 21.13300
C  19.07000 52.12600 19.55000
N  17.70300 50.14300 25.81500
C  18.72100 49.82900 24.94500
C  19.81900 49.22300 25.66500
C  19.47600 49.26700 27.05500
C  18.10200 49.70700 27.05000
C  21.10100 48.54800 25.08000
C  19.82200 48.80300 28.41200
O  20.79600 48.27100 28.82800
C  18.65200 49.35500 29.26800
C  18.07300 48.36300 30.28400
O  17.02800 47.73300 30.13000
O  18.86600 48.37800 31.35100
C  18.46700 47.49700 32.49000
H  12.50600 52.31900 28.33100
H  13.68700 52.28800 21.90400
H  19.58200 50.09500 23.06600
H  15.93700 50.17900 30.82800
H  13.92000 52.04000 30.33500
H  13.07900 50.12700 31.10700
H  14.02400 49.05000 30.15600
H  12.67400 49.83000 29.38500
H  15.98900 53.12200 30.24400
H  17.58300 52.41700 29.94700
H  16.51500 53.47100 32.32300
H  17.98900 52.29500 32.25500
H  9.74900 52.61700 25.81300
H  10.36900 54.16600 26.42300
H  10.68300 52.72900 27.32500
H  9.28800 52.83800 23.38300
H  9.43900 53.98100 22.28800
H  9.75000 54.51800 23.95200
H  16.24600 52.62900 20.91400
H  17.98200 50.15200 21.09500
H  16.17600 49.89500 19.84700
H  15.30200 51.34900 19.31600
H  14.53000 50.24000 20.40600
H  19.75300 51.87200 21.57900
H  18.45400 53.08000 21.33800
H  20.15600 52.18500 19.47500
H  18.56000 53.01400 19.17500
H  18.76400 51.22000 19.02600
H  21.73500 49.32200 24.64600
H  20.71700 47.91900 24.27700
H  21.55700 47.91600 25.84200
H  19.05100 50.24400 29.75700
H  19.19400 46.75100 32.81000
H  17.70100 46.75100 32.27700
H  18.14800 48.11800 33.32700

