158

Mg 25.57200 0.16000 28.59700
C  27.36600 -0.03100 31.59300
C  22.68100 0.04200 30.44900
C  23.65700 0.03700 25.71100
C  28.43500 -0.32100 26.81300
N  25.12800 -0.16400 30.85200
C  26.01100 0.03800 31.87000
C  25.35800 0.14900 33.23900
C  23.89400 0.03200 32.86600
C  23.88500 -0.04700 31.28700
C  23.19700 -1.14600 33.72700
C  25.69400 1.44300 34.11200
C  25.96200 1.03700 35.63500
H  26.40100 2.13800 36.58600
N  23.49600 0.13900 28.14000
C  22.48600 0.13400 29.07800
C  21.16500 0.26800 28.44700
C  21.50100 0.15200 27.01000
C  22.92600 0.05900 26.89000
C  19.90000 0.33900 29.22200
C  20.56400 0.14700 25.79400
O  20.96900 -0.18700 24.65500
C  19.12900 0.31900 26.02800
N  25.97500 -0.06200 26.55300
C  25.04500 -0.06500 25.51600
C  25.79300 -0.01700 24.16700
C  27.23700 0.16600 24.48800
C  27.29000 -0.05400 26.02300
C  25.45300 -1.28300 23.32000
C  27.99800 1.46900 24.07400
C  27.59200 2.80200 24.76100
N  27.55300 -0.15700 29.06300
C  28.62700 -0.37400 28.20400
C  29.84000 -0.57800 28.99800
C  29.41300 -0.41700 30.34100
C  28.01200 -0.13900 30.33800
C  31.16800 -0.85000 28.44100
C  29.87000 -0.36800 31.71000
O  30.96700 -0.60300 32.20800
C  28.50500 -0.05200 32.60400
C  28.30400 -1.04100 33.65500
O  27.68100 -2.10700 33.56200
O  29.02000 -0.66600 34.79200
C  29.18900 -1.70600 35.77200
H  21.75600 0.01700 31.02800
H  23.25200 0.10700 24.69900
H  29.22200 -0.30200 26.05500
H  25.62800 -0.74300 33.80500
H  23.37400 0.94300 33.16500
H  22.32900 -0.92100 34.34600
H  23.96100 -1.62000 34.34400
H  22.76400 -1.86200 33.02900
H  24.88300 2.17100 34.12400
H  26.59100 1.89700 33.69000
H  26.65500 0.19800 35.69600
H  25.01900 0.66900 36.03900
H  20.04400 0.89200 30.15000
H  19.56400 -0.66700 29.47300
H  19.12800 0.81400 28.61700
H  18.75200 -0.32000 26.82600
H  18.54800 0.17400 25.11700
H  18.89200 1.35500 26.27300
H  25.47400 0.86000 23.60400
H  27.68000 -0.67400 23.95300
H  24.73400 -1.11700 22.51700
H  25.00200 -2.14800 23.80600
H  26.31500 -1.65000 22.76200
H  27.84700 1.66500 23.01200
H  29.04900 1.23100 24.23900
H  28.36100 2.95100 25.52000
H  26.58800 2.69800 25.17200
H  27.58900 3.65300 24.08000
H  32.03000 -0.47600 28.99300
H  31.18100 -0.40000 27.44800
H  31.13100 -1.93900 28.41800
H  28.67600 0.94200 33.01800
H  28.43900 -1.53600 36.54500
H  30.09500 -1.65000 36.37400
H  29.07000 -2.73100 35.42000
Mg -1.28400 34.19700 27.38800
C  -3.02800 32.90900 30.07100
C  0.37300 36.34600 29.40100
C  -0.34800 36.10400 24.64900
C  -3.32700 32.39800 25.16000
N  -1.31700 34.51500 29.51700
C  -2.04100 33.80500 30.50300
C  -1.65500 34.21300 31.92000
C  -0.63800 35.39100 31.68600
C  -0.41700 35.35300 30.11200
C  -1.25000 36.76400 32.23500
C  -1.01900 33.03000 32.71500
C  -1.71000 32.54600 34.03500
H  -0.78000 32.08600 35.15100
N  -0.07700 35.99900 27.06100
C  0.50300 36.65500 28.04000
C  1.38400 37.72100 27.48600
C  1.08100 37.78600 26.11500
C  0.17200 36.60100 25.87600
C  2.42900 38.41800 28.29700
C  1.53100 38.72600 25.08700
O  1.24300 38.70100 23.92400
C  2.43800 39.85600 25.47600
N  -1.71000 34.11800 25.24300
C  -1.17900 35.01700 24.33300
C  -1.71700 34.68800 22.93300
C  -2.17300 33.26900 23.00100
C  -2.37900 33.21100 24.60600
C  -2.65400 35.73900 22.24300
C  -1.31100 32.09600 22.42700
C  -0.30500 31.51300 23.35100
N  -2.84700 32.97100 27.58800
C  -3.62600 32.32500 26.56500
C  -4.55000 31.40600 27.21800
C  -4.36400 31.58500 28.57200
C  -3.35800 32.62900 28.76200
C  -5.38700 30.39900 26.51500
C  -4.74700 31.06400 29.84900
O  -5.47600 30.19000 30.22700
C  -3.91100 31.94600 30.85200
C  -4.84300 32.71900 31.66200
O  -5.25300 33.83500 31.29700
O  -5.13400 32.18200 32.84800
C  -6.01900 32.96900 33.66700
H  1.06100 36.95500 29.99200
H  0.01500 36.72100 23.82400
H  -3.86100 31.81100 24.40900
H  -2.59000 34.58400 32.34000
H  0.35700 35.15400 32.06400
H  -2.10800 36.52300 32.86200
H  -1.49500 37.33600 31.34100
H  -0.40900 37.23000 32.75000
H  0.04900 33.18800 32.86100
H  -1.08700 32.25100 31.95600
H  -2.26100 31.63500 33.79900
H  -2.52400 33.21400 34.31800
H  3.33600 38.72800 27.77900
H  2.78800 37.81200 29.12900
H  1.96800 39.29100 28.76000
H  3.43300 39.50600 25.75200
H  2.01800 40.39000 26.32900
H  2.57800 40.62100 24.71300
H  -0.76700 34.62000 22.40300
H  -3.17700 33.12200 22.60200
H  -2.31800 36.19400 21.31200
H  -2.80800 36.61800 22.86800
H  -3.60100 35.22100 22.08600
H  -0.74900 32.53600 21.60200
H  -2.00100 31.39700 21.95500
H  0.67200 31.98400 23.24500
H  -0.26700 30.43900 23.16700
H  -0.70600 31.47600 24.36400
H  -4.75400 29.64900 26.04100
H  -6.00200 30.84300 25.73300
H  -6.06600 30.06200 27.29800
H  -3.35400 31.34600 31.57200
H  -6.48100 32.23000 34.32200
H  -6.68900 33.71900 33.24600
H  -5.37100 33.65000 34.21900

