158

Mg 43.29800 5.03300 46.64500
C  41.37700 8.00200 46.91800
C  40.23600 3.32700 46.48700
C  44.94100 2.24900 45.77200
C  46.00900 7.02400 45.86700
N  41.04000 5.55300 46.81900
C  40.53500 6.85300 46.99300
C  39.00400 6.84200 46.95100
C  38.68000 5.31700 47.12700
C  40.03200 4.70700 46.70700
C  38.19700 4.99700 48.55500
C  38.41200 7.37800 45.61800
C  38.93300 6.87000 44.24100
H  39.71000 7.70300 43.19400
N  42.66400 3.05600 46.33300
C  41.36900 2.58800 46.23800
C  41.46300 1.21600 45.85300
C  42.81700 0.81400 45.70900
C  43.55100 2.05100 45.95200
C  40.19500 0.39500 45.61200
C  43.36600 -0.56500 45.43400
O  42.60100 -1.45500 45.22700
C  44.80700 -0.93600 45.51000
N  45.21600 4.69400 45.86700
C  45.67700 3.47500 45.74600
C  47.25000 3.46800 45.59600
C  47.44100 4.93900 45.28900
C  46.13500 5.58800 45.74300
C  47.89400 2.96900 46.93600
C  47.89500 5.16900 43.81400
C  49.42900 5.14300 43.66000
N  43.71300 7.10500 46.55000
C  44.86900 7.76800 46.21700
C  44.72600 9.20700 46.32600
C  43.34100 9.37100 46.64900
C  42.76200 8.01800 46.69000
C  45.83400 10.24100 46.24200
C  42.28200 10.36600 46.94000
O  42.35500 11.61600 47.01600
C  40.93300 9.50500 46.97400
C  40.13600 9.77400 48.17000
O  40.19100 9.17200 49.26700
O  39.18600 10.79400 47.92700
C  38.35000 11.22600 49.04400
H  39.31500 2.75700 46.35100
H  45.62100 1.41200 45.59700
H  46.93600 7.59100 45.76000
H  38.66500 7.46100 47.78100
H  37.97200 5.06000 46.34000
H  37.16100 4.66100 48.57300
H  38.43000 5.70300 49.35200
H  38.74100 4.12600 48.92300
H  38.42900 8.46600 45.55700
H  37.32700 7.27000 45.63200
H  38.02600 6.45100 43.80500
H  39.66800 6.07500 44.36700
H  39.52300 0.75900 46.38900
H  40.26800 -0.69200 45.63400
H  39.86600 0.52300 44.58000
H  45.24800 -0.50800 46.41100
H  45.29400 -0.55000 44.61500
H  44.82300 -2.02100 45.61200
H  47.48600 2.78600 44.77900
H  48.24800 5.35200 45.89500
H  47.30900 2.23200 47.48600
H  47.97600 3.83800 47.58900
H  48.84700 2.53800 46.63000
H  47.35800 5.97600 43.31500
H  47.45600 4.36200 43.22700
H  49.82000 5.65700 44.53800
H  49.78600 5.80200 42.86800
H  49.74500 4.10000 43.68000
H  46.50400 10.18700 45.38400
H  46.45100 10.11700 47.13200
H  45.38900 11.23600 46.25000
H  40.32500 9.86100 46.14200
H  37.34400 10.84600 48.87000
H  38.21600 12.30500 48.96300
H  38.73900 10.90900 50.01200
Mg 34.92500 3.19700 29.95300
C  32.78100 4.29800 32.51100
C  37.58400 3.45000 32.04700
C  36.91100 2.52900 27.32400
C  32.19900 3.45800 27.72400
N  35.17000 4.05300 31.92700
C  34.14500 4.21400 32.85000
C  34.66900 4.12600 34.28200
C  36.24400 4.17600 34.02700
C  36.35000 3.83800 32.58400
C  37.00000 5.46800 34.30700
C  34.19000 2.92200 35.10600
C  33.95200 3.04000 36.64100
H  34.66300 4.23500 37.28600
N  36.94400 2.92400 29.70400
C  37.88000 3.05100 30.70600
C  39.22600 2.62500 30.22100
C  39.03800 2.47300 28.80800
C  37.60400 2.69900 28.57300
C  40.44800 2.57400 31.15300
C  40.09900 2.08600 27.73700
O  39.83200 2.01300 26.51800
C  41.51500 1.81200 28.19300
N  34.61300 2.96300 27.85300
C  35.58000 2.58600 27.04600
C  35.09700 2.58800 25.57500
C  33.55100 2.52800 25.75100
C  33.43500 3.11800 27.21000
C  35.67800 3.94000 24.88600
C  32.86600 1.13800 25.50700
C  31.45100 1.10900 24.88300
N  32.83400 3.76400 30.03900
C  31.88700 3.75800 29.06400
C  30.57100 4.10300 29.68000
C  30.87600 4.28700 31.04600
C  32.31700 4.13900 31.20700
C  29.27500 4.15600 28.96300
C  30.31700 4.50600 32.34100
O  29.17200 4.69900 32.62500
C  31.51900 4.54900 33.38600
C  31.46700 5.85600 34.10000
O  31.22900 6.98200 33.57400
O  31.65500 5.65900 35.45100
C  31.40800 6.88900 36.24600
H  38.40800 3.46800 32.76400
H  37.57400 2.32500 26.48200
H  31.52100 3.52100 26.87100
H  34.38800 5.04600 34.79500
H  36.75300 3.35100 34.52600
H  37.58500 5.78300 33.44300
H  37.75700 5.45000 35.09100
H  36.20200 6.17100 34.54600
H  35.00400 2.21400 34.95500
H  33.27100 2.70800 34.56100
H  34.22000 2.13100 37.17900
H  32.90300 3.15400 36.91400
H  40.90000 1.58800 31.04800
H  40.14700 2.63600 32.19900
H  41.07000 3.37800 30.75800
H  42.06800 2.63800 28.64000
H  42.07600 1.44800 27.33200
H  41.45500 0.98400 28.89900
H  35.45400 1.72400 25.01400
H  33.07500 3.21100 25.04800
H  34.81400 4.53500 24.58800
H  36.22300 3.63400 23.99400
H  36.38600 4.46200 25.53000
H  33.01100 0.49400 26.37400
H  33.48100 0.67300 24.73700
H  31.60500 0.88800 23.82600
H  31.10300 2.14200 24.85800
H  30.72100 0.46000 25.36700
H  28.55200 4.58700 29.65500
H  28.92000 3.14500 28.76000
H  29.43700 4.75600 28.06700
H  31.41200 3.73600 34.10500
H  30.40200 7.22900 35.99700
H  32.27000 7.53300 36.07000
H  31.49100 6.72800 37.32100

