158

Mg 16.00100 52.93200 25.52900
C  17.74300 51.53700 28.34000
C  13.73900 54.22900 27.66100
C  14.64700 54.19000 22.85900
C  18.43700 51.29700 23.46400
N  15.71100 52.69900 27.74200
C  16.54400 52.22000 28.70600
C  16.04200 52.51600 30.12000
C  14.57800 53.16000 29.86100
C  14.70400 53.40900 28.32200
C  13.41000 52.27600 30.37900
C  17.05100 53.39900 30.86000
C  17.61000 52.91100 32.23900
H  16.87300 51.90900 33.17200
N  14.32800 53.95800 25.31400
C  13.58000 54.54300 26.29700
C  12.58300 55.30300 25.62800
C  12.69300 55.17800 24.17000
C  13.88400 54.35200 24.03500
C  11.48400 55.97500 26.41800
C  11.85000 55.61800 23.03600
O  12.07700 55.24400 21.91700
C  10.53300 56.32200 23.27300
N  16.27600 52.45400 23.43600
C  15.77300 53.38700 22.58000
C  16.24700 53.18200 21.18900
C  17.56200 52.37600 21.36800
C  17.44700 52.06100 22.87000
C  15.07800 52.38500 20.43600
C  18.81800 53.15000 20.91500
C  18.92700 54.55000 21.55700
N  17.79700 51.69700 25.78100
C  18.62900 51.09100 24.80200
C  19.71900 50.41600 25.53700
C  19.41600 50.56800 26.86200
C  18.22100 51.32600 26.97400
C  21.01600 49.88200 25.06100
C  19.89500 50.27400 28.16800
O  20.88500 49.67000 28.53200
C  18.76400 50.83800 29.23500
C  18.24900 49.60900 29.87500
O  17.49900 48.77800 29.33700
O  18.56300 49.65400 31.19100
C  18.01200 48.48000 31.93800
H  13.05800 54.73900 28.34600
H  14.40100 54.85400 22.02700
H  19.14000 50.73900 22.84200
H  15.96900 51.61600 30.73100
H  14.56700 54.16500 30.28300
H  13.02400 51.72000 29.52400
H  12.58400 52.80100 30.85800
H  13.86600 51.56300 31.06600
H  16.51900 54.34200 30.99400
H  17.93800 53.65300 30.28000
H  17.66400 53.85100 32.78900
H  18.62800 52.52200 32.26000
H  11.31500 57.01000 26.12000
H  11.75400 56.01500 27.47300
H  10.54600 55.43000 26.31700
H  9.94400 56.47500 22.36800
H  10.68800 57.27900 23.77000
H  9.97400 55.60300 23.87200
H  16.35000 54.10100 20.61200
H  17.56900 51.44500 20.80000
H  14.21300 52.22400 21.07900
H  15.40300 51.44500 19.99100
H  14.77500 53.08500 19.65800
H  18.70300 53.40200 19.86100
H  19.77800 52.64100 21.00100
H  18.01900 54.93300 22.02400
H  19.24700 55.37600 20.92100
H  19.56000 54.54900 22.44500
H  21.30700 49.02500 25.66900
H  21.75400 50.66900 25.21200
H  20.99100 49.51600 24.03500
H  19.28100 51.38800 30.02100
H  18.30400 47.48000 31.61600
H  16.92600 48.39000 31.90700
H  18.30000 48.54900 32.98700
Mg 8.87700 47.55000 27.56700
C  6.68500 47.16300 30.22800
C  11.27100 48.42600 29.75300
C  10.73500 48.46300 25.02000
C  5.94700 47.52800 25.40300
N  8.88200 47.74400 29.73100
C  7.97300 47.48200 30.65200
C  8.51100 47.60500 32.06200
C  9.95200 48.09300 31.94400
C  10.02800 48.16600 30.38200
C  10.35000 49.46600 32.67200
C  8.42700 46.32300 32.95400
C  9.16700 46.22800 34.34200
H  8.50000 45.64100 35.55900
N  10.80900 48.14700 27.36000
C  11.68300 48.38400 28.39100
C  12.96100 48.81100 27.88200
C  12.86300 48.72600 26.46400
C  11.46900 48.37000 26.17700
C  14.16200 48.99000 28.73200
C  13.91200 48.94000 25.32400
O  13.80700 48.67500 24.13100
C  15.21000 49.53200 25.61300
N  8.39300 47.88700 25.57600
C  9.36700 48.34100 24.74200
C  8.81200 48.73700 23.33700
C  7.28200 48.31200 23.41500
C  7.18100 47.89800 24.83100
C  8.99000 50.24100 23.05300
C  6.97900 47.02400 22.52500
C  6.57300 47.37200 21.09300
N  6.73000 47.24700 27.71200
C  5.71000 47.28400 26.77900
C  4.44100 46.91000 27.37300
C  4.78900 46.79900 28.71700
C  6.17700 47.11200 28.86300
C  3.24100 46.72800 26.58000
C  4.25400 46.48700 30.01200
O  3.13200 46.11200 30.36900
C  5.42200 46.65900 30.98600
C  5.70300 45.22300 31.44300
O  6.47800 44.42300 30.92700
O  4.97200 45.01300 32.61100
C  5.15500 43.70600 33.33100
H  11.98700 48.68500 30.53600
H  11.41000 48.87400 24.26600
H  5.05000 47.58400 24.78200
H  8.02900 48.41800 32.60400
H  10.68800 47.37500 32.30700
H  10.12000 50.28100 31.98500
H  11.41700 49.31700 32.83300
H  9.74600 49.68400 33.55400
H  8.75800 45.45600 32.38200
H  7.37900 46.21100 33.23000
H  9.40700 47.24300 34.66000
H  10.10200 45.77400 34.01300
H  14.94600 48.31300 28.39300
H  14.00100 48.79400 29.79200
H  14.53600 50.00400 28.59200
H  15.12100 50.37900 26.29500
H  15.55200 49.90400 24.64700
H  15.90800 48.92400 26.18900
H  9.30400 48.07300 22.62700
H  6.67800 49.21700 23.34500
H  9.70400 50.61800 23.78600
H  8.06600 50.80400 23.18300
H  9.46200 50.53200 22.11500
H  6.22700 46.38900 22.99200
H  7.83100 46.34400 22.53200
H  7.29300 46.87100 20.44700
H  6.40300 48.41400 20.82300
H  5.68100 46.82800 20.78200
H  3.42600 46.10100 25.70800
H  2.92200 47.72800 26.28700
H  2.52200 46.27200 27.26000
H  5.16200 47.24100 31.87000
H  6.12500 43.78500 33.82200
H  5.31700 42.86900 32.65100
H  4.26900 43.57200 33.95200

