158

Mg 26.22600 0.67700 28.76700
C  28.18300 0.35900 31.71000
C  23.56800 1.24800 30.98100
C  24.28500 0.93500 26.12100
C  29.01600 -0.24400 26.88000
N  25.93100 0.63600 31.05900
C  26.83100 0.60000 32.07900
C  26.29800 0.79900 33.48100
C  24.82000 0.90700 33.15100
C  24.75200 0.98900 31.64800
C  24.05900 -0.38900 33.70800
C  26.99600 2.01100 34.13800
C  26.25600 2.75500 35.25000
H  27.00400 2.93800 36.65100
N  24.22200 1.06100 28.57600
C  23.32200 1.23800 29.59800
C  21.98600 1.45700 29.01900
C  22.24100 1.30300 27.54400
C  23.63100 1.09500 27.37900
C  20.75700 1.74800 29.82300
C  21.15400 1.28500 26.47400
O  21.32400 0.95300 25.32100
C  19.77700 1.63400 26.86000
N  26.62100 0.20900 26.74600
C  25.62200 0.53200 25.75900
C  26.16800 0.28500 24.32500
C  27.65600 -0.19600 24.64300
C  27.81000 0.00300 26.24200
C  25.35600 -0.66700 23.36300
C  28.80600 0.51600 23.87900
C  29.70600 -0.41100 23.03200
N  28.16500 0.18700 29.14800
C  29.18700 -0.19200 28.26600
C  30.37900 -0.51800 29.05400
C  29.97700 -0.22700 30.40600
C  28.64400 0.15500 30.39800
C  31.80800 -0.98200 28.74400
C  30.48400 -0.32400 31.74400
O  31.54500 -0.65300 32.25200
C  29.29700 0.14400 32.64800
C  28.92700 -0.90600 33.55500
O  28.40100 -1.98400 33.25200
O  29.49300 -0.62900 34.76400
C  29.16900 -1.56300 35.87100
H  22.74900 1.43500 31.67900
H  23.72300 1.04000 25.19100
H  29.92000 -0.44000 26.29900
H  26.47800 -0.05300 34.13600
H  24.32800 1.72400 33.67900
H  24.72600 -1.20200 33.99600
H  23.58900 -0.88700 32.86000
H  23.38500 -0.13600 34.52600
H  27.17900 2.76100 33.36800
H  28.00400 1.74800 34.46000
H  25.38900 2.16300 35.54300
H  25.99200 3.76700 34.94400
H  21.00000 1.69100 30.88400
H  20.00500 0.97000 29.69200
H  20.35500 2.75200 29.68900
H  19.07000 1.34600 26.08200
H  19.66000 2.69800 27.06500
H  19.46100 1.02500 27.70700
H  26.33600 1.26300 23.87300
H  27.62700 -1.24000 24.33000
H  25.88900 -1.59500 23.15500
H  25.26000 -0.11400 22.42900
H  24.38700 -0.95600 23.76900
H  29.50200 0.92900 24.60900
H  28.37100 1.26400 23.21700
H  29.26400 -0.72400 22.08600
H  29.89200 -1.37600 23.50400
H  30.67400 0.01200 22.76200
H  32.33100 -0.20200 28.19100
H  31.80600 -1.85500 28.09100
H  32.46800 -1.33400 29.53800
H  29.67000 0.97800 33.24300
H  29.07600 -2.59300 35.52700
H  28.25700 -1.33400 36.42300
H  30.02900 -1.53500 36.53900
Mg 47.70600 34.45400 27.25000
C  45.97000 33.02900 29.87200
C  47.71400 37.51400 29.20100
C  48.98600 36.15100 24.70500
C  47.10200 31.67100 25.28600
N  46.88500 35.18000 29.31600
C  46.42800 34.30800 30.29200
C  46.45700 35.00100 31.62000
C  46.61100 36.50400 31.25300
C  47.09500 36.42900 29.82900
C  45.25300 37.31900 31.57800
C  47.45700 34.45200 32.68200
C  46.79400 34.16600 34.06200
H  45.61200 34.95000 34.51700
N  48.22400 36.55400 26.89200
C  48.23900 37.63400 27.83000
C  48.85800 38.82700 27.29900
C  49.36400 38.36300 26.01400
C  48.82400 36.98700 25.81300
C  48.96800 40.17400 28.03500
C  50.16600 39.08600 24.95800
O  50.63800 38.55700 23.97000
C  50.45900 40.65400 25.20000
N  47.71100 34.06500 25.15000
C  48.49000 34.83200 24.43600
C  48.76100 34.21800 23.10700
C  48.34800 32.73300 23.16700
C  47.73400 32.75100 24.63600
C  48.09800 34.98500 21.92900
C  49.51400 31.69200 22.86400
C  49.40500 30.53100 21.81100
N  46.73600 32.65900 27.42700
C  46.54800 31.57700 26.57100
C  45.75700 30.58300 27.20200
C  45.47000 31.09100 28.49300
C  46.10300 32.35900 28.59300
C  45.36000 29.28600 26.46500
C  44.90600 30.81200 29.78100
O  44.40100 29.74100 30.15300
C  45.15400 32.05900 30.67600
C  45.69500 31.57300 31.97700
O  46.83600 31.21500 32.15800
O  44.75600 31.48200 32.95500
C  44.99900 30.67300 34.18900
H  47.54800 38.44100 29.75300
H  49.61100 36.59000 23.92400
H  47.08500 30.74100 24.71300
H  45.43800 34.82800 31.96500
H  47.42000 37.04700 31.74200
H  44.70000 37.50600 30.65700
H  45.43900 38.28600 32.04400
H  44.53900 36.76800 32.19000
H  48.21100 35.23100 32.79300
H  47.87700 33.51000 32.32800
H  47.59300 34.08100 34.79800
H  46.43400 33.14400 33.95100
H  48.66900 40.08500 29.07900
H  48.38200 40.93300 27.51700
H  50.00600 40.48300 28.15600
H  49.58700 41.21000 25.54600
H  50.86600 41.03900 24.26500
H  51.28800 40.68500 25.90700
H  49.83300 34.35400 22.96300
H  47.53100 32.56700 22.46400
H  47.87800 34.31500 21.09800
H  48.72700 35.82900 21.64500
H  47.17800 35.50100 22.20700
H  49.78400 31.15300 23.77200
H  50.42700 32.24800 22.64900
H  49.64700 29.68200 22.44900
H  50.11400 30.69800 21.00000
H  48.41000 30.44500 21.37300
H  46.23700 28.78400 26.05800
H  44.72400 29.50100 25.60500
H  44.75900 28.57300 27.02800
H  44.12500 32.37900 30.84200
H  44.69600 31.27200 35.04800
H  46.03700 30.34200 34.24400
H  44.34000 29.81100 34.09300

