158

Mg -2.31500 17.48900 26.70100
C  -2.58600 15.46600 29.48000
C  -2.84400 20.17500 28.71100
C  -2.34300 19.52100 23.90800
C  -2.71900 14.78300 24.63900
N  -2.69200 17.72000 28.91500
C  -2.71500 16.78400 29.88900
C  -3.17200 17.30900 31.25300
C  -3.52100 18.83700 30.87500
C  -3.01400 18.98900 29.45600
C  -5.07400 19.13500 31.18200
C  -2.10300 17.29500 32.38900
C  -2.58100 16.47000 33.62400
H  -1.46300 16.31100 34.68600
N  -2.29400 19.56500 26.34500
C  -2.52800 20.49800 27.32600
C  -2.35900 21.81800 26.77100
C  -2.08200 21.64300 25.34600
C  -2.18200 20.22700 25.15000
C  -2.43000 23.12600 27.57200
C  -1.69700 22.60100 24.24600
O  -1.33200 22.29400 23.12400
C  -1.74800 24.10700 24.54400
N  -2.73600 17.24400 24.43300
C  -2.56300 18.16100 23.53800
C  -2.56200 17.54200 22.09300
C  -2.66000 16.01200 22.39700
C  -2.62600 15.97500 23.94600
C  -3.60400 18.15500 21.10300
C  -1.58700 15.19500 21.54600
C  -0.32700 14.82200 22.32600
N  -2.55600 15.62100 26.90800
C  -2.71500 14.57500 26.01400
C  -2.77000 13.29600 26.68900
C  -2.69300 13.55700 28.01000
C  -2.57000 14.97100 28.15900
C  -2.83700 11.91500 26.11200
C  -2.62300 12.98600 29.31500
O  -2.54100 11.80300 29.70200
C  -2.58400 14.22200 30.34600
C  -1.41100 13.99000 31.12000
O  -0.30200 14.51700 31.03200
O  -1.76000 13.20900 32.15000
C  -0.67300 12.80600 33.05800
H  -3.26700 21.08800 29.13400
H  -2.29800 20.19200 23.04800
H  -2.64900 13.99600 23.88500
H  -4.08700 16.79300 31.54500
H  -2.84200 19.48600 31.42700
H  -5.25200 20.04200 31.76100
H  -5.58600 18.35100 31.73900
H  -5.58300 19.31500 30.23500
H  -1.94700 18.28200 32.82400
H  -1.07900 17.04400 32.11500
H  -2.86200 15.47300 33.28300
H  -3.45000 16.94600 34.07800
H  -3.20800 23.77100 27.16300
H  -1.47100 23.64300 27.55100
H  -2.69300 22.93400 28.61300
H  -2.82300 24.28900 24.56300
H  -1.08400 24.58200 23.82200
H  -1.19800 24.26500 25.47200
H  -1.56200 17.75900 21.71600
H  -3.68500 15.80900 22.08800
H  -4.04200 19.03900 21.56600
H  -4.33600 17.36800 20.92400
H  -3.06100 18.33600 20.17500
H  -1.28800 15.78600 20.68100
H  -2.12500 14.31100 21.20400
H  -0.39500 15.30800 23.29900
H  0.53000 15.10000 21.71200
H  -0.38200 13.74600 22.49000
H  -1.97400 11.30100 26.37100
H  -3.04300 12.01200 25.04600
H  -3.59400 11.35600 26.66100
H  -3.33800 14.20500 31.13200
H  0.29500 12.89800 32.56500
H  -0.71300 11.77700 33.41500
H  -0.84100 13.47100 33.90500
Mg 17.02000 51.72700 25.99100
C  18.89800 50.25300 28.46500
C  14.59500 52.59800 28.17100
C  15.22000 52.83900 23.36600
C  19.28700 50.32500 23.63000
N  16.73700 51.32000 28.12100
C  17.70300 50.80900 28.96000
C  17.29700 50.99400 30.39600
C  15.81200 51.28800 30.22800
C  15.63300 51.73500 28.74700
C  14.92000 50.11100 30.68000
C  18.11700 52.19800 31.12000
C  18.31100 52.24300 32.67400
H  17.27700 51.58700 33.63300
N  15.24600 52.66100 25.82600
C  14.44400 53.02300 26.86600
C  13.37000 53.85100 26.34900
C  13.59200 53.93000 24.93700
C  14.68400 53.13900 24.62500
C  12.14700 54.38600 27.18500
C  12.85300 54.69500 23.84900
O  13.42500 55.02300 22.77000
C  11.55900 55.40500 24.12000
N  17.14200 51.43100 23.86700
C  16.34900 52.08800 23.00900
C  16.72300 51.92500 21.47300
C  18.16600 51.23600 21.67200
C  18.17700 50.88900 23.13200
C  15.71100 50.94200 20.73900
C  19.22200 52.29000 21.27300
C  20.00400 51.88100 20.05600
N  18.71900 50.48100 26.01500
C  19.56000 50.11400 24.95600
C  20.72100 49.46300 25.60600
C  20.46900 49.43700 26.96000
C  19.23200 50.01300 27.16700
C  21.85500 48.82500 24.90800
C  20.98400 49.01500 28.20100
O  21.99400 48.41300 28.51000
C  20.01200 49.47900 29.28300
C  19.50000 48.23000 30.06100
O  19.12600 47.14200 29.72700
O  19.53800 48.66000 31.35600
C  19.23200 47.64200 32.36200
H  13.81900 52.87700 28.88600
H  14.77800 53.35800 22.51300
H  20.02100 50.09200 22.85600
H  17.40000 50.07800 30.97800
H  15.56100 52.17900 30.80400
H  13.91000 50.38700 30.37700
H  14.85800 49.93100 31.75300
H  15.16700 49.20900 30.12100
H  17.71300 53.12600 30.71600
H  19.12700 52.06300 30.73200
H  18.31000 53.30400 32.92400
H  19.29200 51.77700 32.76200
H  12.56600 55.00500 27.97800
H  11.55100 53.57000 27.59300
H  11.32700 54.80200 26.60000
H  11.86600 56.19200 24.80900
H  10.74600 54.79400 24.51300
H  11.22100 55.74300 23.14000
H  16.81500 52.81400 20.84900
H  18.21400 50.35000 21.03900
H  14.91900 50.65500 21.43000
H  16.23900 50.06200 20.37200
H  15.40700 51.47000 19.83500
H  20.00600 52.43700 22.01600
H  18.87800 53.28200 20.98200
H  20.44300 52.87100 19.92600
H  19.38200 51.48300 19.25500
H  20.68400 51.14400 20.48300
H  22.00200 49.25000 23.91500
H  21.59800 47.76700 24.84900
H  22.78600 48.97500 25.45300
H  20.50000 50.19700 29.94300
H  19.57900 48.02800 33.32100
H  19.65700 46.65200 32.19300
H  18.14600 47.65800 32.44800

