158

Mg 2.25700 -1.78200 43.73700
C  5.60100 -0.84600 42.91600
C  1.15700 1.15600 42.16700
C  -0.82300 -2.98800 43.96500
C  3.51300 -4.67800 45.18200
N  3.24400 -0.17200 42.45600
C  4.61500 0.07200 42.43600
C  4.93500 1.32700 41.65500
C  3.51400 2.05400 41.75100
C  2.56500 0.98200 42.13000
C  3.48500 3.24400 42.74000
C  5.49500 1.02800 40.26100
C  6.73900 1.84700 39.88600
H  6.62100 2.60900 38.52800
N  0.42400 -1.05400 43.05000
C  0.16100 0.13900 42.42500
C  -1.19800 0.23000 42.21400
C  -1.88000 -0.94200 42.70900
C  -0.73600 -1.73500 43.20200
C  -1.83800 1.46000 41.51000
C  -3.36200 -1.22900 42.60100
O  -4.07300 -0.36400 42.09300
C  -3.95200 -2.46000 43.22100
N  1.47300 -3.66600 44.35500
C  0.15000 -3.79600 44.44500
C  -0.15800 -5.06700 45.22300
C  1.19800 -5.76600 45.42000
C  2.13500 -4.62500 45.05800
C  -0.87500 -4.80800 46.56400
C  1.60800 -7.12800 44.64600
C  1.57900 -8.31500 45.62800
N  4.08400 -2.62700 43.95600
C  4.50100 -3.79300 44.61300
C  5.91100 -3.87600 44.60700
C  6.40400 -2.71500 44.07500
C  5.21100 -2.05200 43.59300
C  6.64100 -5.08500 45.11800
C  7.58000 -1.93100 43.67400
O  8.76200 -2.21300 43.80200
C  7.12200 -0.61500 43.03800
C  7.54500 0.50800 43.90900
O  7.32200 0.63900 45.06400
O  8.21600 1.45700 43.15200
C  8.45500 2.76400 43.76800
H  0.77200 2.07900 41.72900
H  -1.77100 -3.44400 44.25800
H  3.77200 -5.53800 45.80300
H  5.70500 1.86400 42.21000
H  3.29300 2.62800 40.85100
H  4.52500 3.53500 42.89000
H  2.87600 3.09700 43.63200
H  3.10200 4.08100 42.15700
H  4.72800 1.33600 39.55100
H  5.70600 -0.03800 40.18200
H  7.48600 1.05500 39.85300
H  6.93100 2.48000 40.75200
H  -1.21000 2.20300 41.01900
H  -2.37500 1.89900 42.35100
H  -2.48600 1.06000 40.73000
H  -5.02500 -2.35900 43.05800
H  -3.68100 -2.43900 44.27700
H  -3.52200 -3.26600 42.62800
H  -0.70800 -5.62100 44.46200
H  1.26400 -5.91500 46.49700
H  -0.25400 -4.26000 47.27300
H  -1.17400 -5.76700 46.98700
H  -1.79400 -4.23700 46.43600
H  2.67000 -7.16000 44.40500
H  0.96100 -7.27700 43.78100
H  1.67100 -9.27900 45.12600
H  0.71300 -8.21700 46.28200
H  2.47000 -8.33900 46.25600
H  7.64000 -4.78800 45.43800
H  6.62300 -5.86800 44.35900
H  6.11800 -5.24100 46.06100
H  7.48700 -0.39200 42.03500
H  9.12400 2.57500 44.60700
H  7.51600 3.27000 43.99000
H  9.14000 3.28400 43.09700
Mg 53.15400 24.19500 44.25200
C  50.66000 26.46500 43.44200
C  51.07400 21.59000 43.16400
C  55.78700 22.09400 43.96400
C  55.16300 26.73600 45.26200
N  51.13700 24.04400 43.35100
C  50.31300 25.12200 43.07400
C  48.94800 24.57900 42.48400
C  48.87500 23.12700 43.07700
C  50.37400 22.87800 43.17400
C  48.08100 23.01000 44.42800
C  48.95400 24.51400 40.90300
C  50.21200 24.93500 40.13000
H  50.10800 25.18200 38.61100
N  53.41400 22.08600 43.77400
C  52.39300 21.19800 43.37100
C  52.88700 19.88200 43.09600
C  54.34400 19.96300 43.37300
C  54.55000 21.43700 43.71500
C  52.00500 18.77800 42.65200
C  55.36800 18.78900 43.22000
O  54.86200 17.73500 42.84800
C  56.82200 18.85500 43.58800
N  55.21300 24.35800 44.59300
C  56.18600 23.37400 44.34900
C  57.58800 23.85500 44.83700
C  57.32300 25.33600 45.25100
C  55.77200 25.53500 45.12200
C  58.08800 22.95300 45.99200
C  58.08900 26.24000 44.32000
C  57.54100 26.31000 42.86300
N  53.01000 26.20200 44.30700
C  53.88100 27.17800 44.86800
C  53.31000 28.51900 44.85400
C  51.97700 28.26700 44.33600
C  51.86500 26.88800 44.05600
C  53.93600 29.91100 45.39300
C  50.71900 28.86500 43.87300
O  50.36300 29.99000 43.84900
C  49.85000 27.72200 43.38300
C  49.46200 28.01600 41.99700
O  50.09200 28.36400 41.08500
O  48.09100 27.90900 41.99800
C  47.46100 28.10900 40.61800
H  50.32300 20.88900 42.79400
H  56.61900 21.40700 43.79500
H  55.81700 27.60500 45.35700
H  48.11500 25.19700 42.81900
H  48.43100 22.46100 42.33700
H  48.66000 22.57100 45.23900
H  47.27000 22.36300 44.09400
H  47.62400 23.96800 44.67900
H  48.25800 25.24600 40.49200
H  48.57200 23.55400 40.55700
H  51.03000 24.21500 40.17200
H  50.50600 25.90400 40.53200
H  51.22600 19.22100 42.03200
H  51.42900 18.35100 43.47300
H  52.54100 18.03200 42.06500
H  56.96200 19.44200 44.49600
H  57.40500 19.32500 42.79700
H  57.04700 17.78800 43.60300
H  58.23500 23.64800 43.98500
H  57.80700 25.37200 46.22600
H  57.38700 22.13200 46.14200
H  58.01000 23.37100 46.99600
H  59.12400 22.64300 45.86000
H  59.16400 26.06500 44.29200
H  57.95900 27.22300 44.77100
H  56.91200 25.42700 42.75300
H  58.31500 26.18700 42.10500
H  56.96000 27.21600 42.68900
H  54.70100 30.10600 44.64100
H  54.44700 29.64600 46.31800
H  53.19100 30.70000 45.49900
H  49.03700 27.86500 44.09500
H  48.20700 28.26900 39.84000
H  46.81700 28.98800 40.63200
H  46.93200 27.22100 40.27200

