158

Mg 6.43300 54.37600 39.68000
C  5.91300 50.95800 39.50900
C  9.67600 53.96400 39.04700
C  6.63600 57.60700 39.03400
C  2.91800 54.70700 39.95800
N  7.59400 52.66400 39.19600
C  7.26600 51.37800 39.25000
C  8.50000 50.53200 38.84100
C  9.66500 51.46700 39.09300
C  8.94700 52.81600 39.15800
C  10.30600 51.23400 40.53200
C  8.41000 50.04000 37.41400
C  8.48500 51.12300 36.37000
H  7.17300 51.51500 35.57400
N  7.95100 55.62000 39.06800
C  9.22600 55.29500 38.89800
C  10.09900 56.50200 38.64100
C  9.19200 57.59400 38.55700
C  7.82600 56.99600 38.92500
C  11.60400 56.60400 38.41400
C  9.58000 59.07400 38.38400
O  10.74700 59.39400 38.37400
C  8.51600 60.11300 38.35000
N  5.01800 55.98800 39.38100
C  5.42100 57.27000 39.38200
C  4.30700 58.24900 39.73500
C  3.12200 57.35100 39.99800
C  3.71500 55.90100 39.79000
C  4.66500 59.17000 40.93700
C  1.88700 57.50000 39.02700
C  0.72900 58.21800 39.68400
N  4.67700 53.14300 39.82600
C  3.33300 53.41700 39.98100
C  2.58000 52.09100 40.13700
C  3.58800 51.11200 39.99100
C  4.81900 51.79300 39.72000
C  1.03400 51.90700 40.48800
C  3.86800 49.68700 40.03800
O  3.13000 48.72900 40.15200
C  5.41100 49.55500 39.78800
C  5.41000 48.69900 38.61000
O  4.96400 48.86300 37.51000
O  6.09000 47.47800 38.86700
C  6.05200 46.46600 37.82000
H  10.74800 53.89000 38.85200
H  6.53900 58.66900 38.79800
H  1.86800 54.92900 40.15600
H  8.63200 49.64300 39.45800
H  10.43900 51.47000 38.32500
H  10.10800 50.23700 40.92400
H  9.98600 52.01100 41.22800
H  11.39500 51.20100 40.52400
H  7.51500 49.43500 37.27000
H  9.12400 49.23600 37.23600
H  9.11300 50.70500 35.58300
H  9.03900 52.01100 36.67400
H  11.84300 56.85000 37.38000
H  12.13900 55.67100 38.59200
H  12.10300 57.37400 39.00300
H  9.12500 61.00700 38.21900
H  7.89400 60.20600 39.24100
H  7.79000 59.89800 37.56600
H  4.06200 58.87300 38.87600
H  2.75200 57.39500 41.02300
H  5.74800 59.17900 41.06100
H  4.26100 58.70400 41.83600
H  4.30000 60.19200 40.83300
H  1.56400 56.64300 38.43500
H  2.20600 58.22500 38.27800
H  -0.02000 58.47600 38.93500
H  1.21000 59.02700 40.23400
H  0.31000 57.52000 40.40800
H  0.68800 52.92400 40.67300
H  0.93700 51.35000 41.42000
H  0.52000 51.46900 39.63300
H  6.04000 48.99300 40.47900
H  7.03400 46.00000 37.73900
H  5.87000 46.85400 36.81800
H  5.34700 45.65900 38.01900
Mg 10.10600 48.11500 24.49800
C  8.10300 48.29400 27.37000
C  12.75300 49.51100 26.39300
C  12.06600 47.94400 21.75100
C  7.22500 47.46700 22.65900
N  10.39500 48.91700 26.56000
C  9.40500 48.80100 27.55100
C  9.86800 49.47000 28.87400
C  11.24300 50.11100 28.40900
C  11.55400 49.40800 27.07900
C  11.17400 51.64900 28.17700
C  10.06800 48.52800 30.10800
C  9.36800 48.88700 31.39000
H  10.30600 49.49500 32.45600
N  12.15700 48.54000 24.17300
C  13.04300 49.00400 25.09000
C  14.36900 49.09800 24.48400
C  14.25600 48.56800 23.21100
C  12.81000 48.25000 22.97400
C  15.51900 49.60600 25.21200
C  15.35200 48.47400 22.14200
O  15.11300 47.86700 21.12200
C  16.70100 49.04100 22.32300
N  9.63400 47.98400 22.47400
C  10.73000 47.85800 21.56100
C  10.14600 47.59700 20.16900
C  8.61000 47.47700 20.38000
C  8.43600 47.53800 21.93900
C  10.58600 48.61300 19.08400
C  7.78000 46.39000 19.59700
C  6.53900 46.89700 18.76300
N  8.07600 47.81200 24.91200
C  7.06100 47.66800 24.04400
C  5.83400 47.50500 24.77900
C  6.15200 47.66300 26.13900
C  7.52000 47.90500 26.14500
C  4.43600 47.38700 24.25000
C  5.66100 47.66600 27.50900
O  4.54800 47.56800 27.92100
C  6.89400 48.13100 28.35100
C  7.00900 47.14300 29.45600
O  7.56800 46.02900 29.36900
O  6.21600 47.53800 30.52600
C  6.03600 46.53000 31.64900
H  13.59700 49.94900 26.92900
H  12.67900 47.83600 20.85400
H  6.29100 47.29400 22.11900
H  9.24000 50.30800 29.17700
H  12.09100 49.95000 29.07500
H  11.85500 52.12800 28.88000
H  10.23600 52.01000 28.60000
H  11.24400 52.06500 27.17100
H  11.13800 48.41400 30.28300
H  9.67900 47.54700 29.83400
H  8.86400 48.04500 31.86500
H  8.46400 49.47200 31.22100
H  15.36900 50.01600 26.21100
H  16.12900 50.34700 24.69500
H  16.19800 48.76800 25.36800
H  16.53000 50.10800 22.18000
H  17.39700 48.67300 21.56900
H  17.23000 48.81100 23.24700
H  10.49700 46.60100 19.90100
H  8.26000 48.50100 20.24600
H  11.49100 49.02500 19.53000
H  9.77400 49.29600 18.83500
H  10.91500 48.00500 18.24000
H  7.43600 45.71500 20.38100
H  8.45000 45.89300 18.89500
H  6.33300 47.94800 18.96200
H  5.57800 46.40800 18.92600
H  6.98700 46.94600 17.77100
H  4.01100 48.33800 23.92800
H  3.77200 47.06300 25.05100
H  4.45300 46.65400 23.44400
H  6.56800 49.08300 28.77000
H  6.77800 45.73800 31.74600
H  5.10200 45.99400 31.48500
H  5.95200 46.95000 32.65100

