158

Mg 8.00300 3.07100 27.77000
C  9.34500 1.50000 30.62600
C  5.71100 4.80100 29.71300
C  6.61700 4.23300 24.95000
C  9.64300 0.56300 25.86800
N  7.45500 2.95900 29.91500
C  8.42100 2.56100 30.90400
C  8.02900 3.09600 32.30800
C  6.87300 3.98000 31.93300
C  6.66100 3.98100 30.40800
C  5.46500 3.80600 32.67300
C  9.26200 3.59900 33.10700
C  8.95000 4.66300 34.25900
H  9.53700 4.56700 35.63900
N  6.31800 4.33000 27.38300
C  5.64500 5.01400 28.29700
C  4.78200 5.91800 27.60900
C  5.08900 5.88500 26.24200
C  6.02800 4.80400 26.12900
C  3.89100 6.89000 28.27400
C  4.55200 6.74300 24.98900
O  5.02600 6.61000 23.84200
C  3.54800 7.74200 25.17500
N  8.29700 2.53400 25.70500
C  7.56900 3.20100 24.77900
C  7.69500 2.60600 23.37100
C  8.88400 1.62700 23.67100
C  8.98400 1.55500 25.19900
C  6.39400 1.96000 22.93000
C  10.23800 1.94900 23.02600
C  10.52500 1.50500 21.60800
N  9.40100 1.49100 28.18100
C  9.91700 0.55900 27.26300
C  10.73000 -0.36900 28.04800
C  10.62200 -0.00400 29.34000
C  9.69300 1.08000 29.41200
C  11.37500 -1.58400 27.44700
C  10.94000 -0.33500 30.67600
O  11.68300 -1.14800 31.17600
C  10.27600 0.72000 31.57100
C  9.64500 0.06300 32.71100
O  8.61100 -0.62100 32.73400
O  10.30500 0.42600 33.86400
C  9.69300 -0.22700 35.03900
H  5.17700 5.53300 30.32300
H  6.22300 4.62800 24.01100
H  10.11900 -0.14500 25.18600
H  7.55900 2.25400 32.81600
H  7.24700 4.98000 32.15400
H  4.71500 3.72300 31.88700
H  5.26200 4.60800 33.38300
H  5.51300 2.90500 33.28400
H  10.01100 4.10100 32.49600
H  9.73400 2.74700 33.59700
H  7.87800 4.53700 34.41200
H  9.17900 5.64100 33.83800
H  2.82900 6.67500 28.15700
H  4.07100 7.86900 27.82900
H  4.18100 6.95400 29.32300
H  3.15900 8.21700 24.27400
H  3.89600 8.56100 25.80300
H  2.73100 7.20300 25.65500
H  7.94900 3.35500 22.62100
H  8.57700 0.62800 23.35900
H  5.73500 1.91000 23.79700
H  6.46600 0.90600 22.66300
H  5.99400 2.57300 22.12200
H  11.09400 1.59600 23.60100
H  10.18300 3.03700 23.06100
H  9.80300 0.72100 21.37900
H  11.44700 0.92500 21.65200
H  10.50400 2.35200 20.92300
H  10.56000 -2.19900 27.06700
H  11.87800 -2.17400 28.21300
H  12.10300 -1.32200 26.67900
H  11.10600 1.36000 31.87300
H  10.44700 -0.23600 35.82600
H  9.58200 -1.30200 34.89800
H  8.71400 0.13900 35.34800
Mg -12.96400 16.62300 41.99000
C  -9.60000 15.23700 41.65700
C  -11.57500 19.64400 41.18700
C  -15.99200 17.72300 42.06700
C  -14.08900 13.31800 42.50800
N  -10.79200 17.35400 41.67800
C  -9.62300 16.65100 41.50700
C  -8.45300 17.54800 41.12500
C  -9.02200 18.97000 41.37500
C  -10.52800 18.70500 41.36900
C  -8.55800 19.59300 42.73700
C  -7.98700 17.27000 39.70700
C  -6.45500 16.96100 39.46700
H  -5.76000 17.59000 38.26800
N  -13.71400 18.42500 41.64100
C  -13.02800 19.58200 41.27300
C  -13.96000 20.65000 41.12300
C  -15.21900 20.09100 41.34600
C  -15.05500 18.67700 41.70100
C  -13.47000 22.03300 40.71400
C  -16.52800 20.88000 41.40100
O  -16.41900 22.06800 41.00700
C  -17.90400 20.40800 41.72000
N  -14.78600 15.59100 41.91100
C  -15.92900 16.34100 42.19400
C  -17.11000 15.47800 42.58200
C  -16.51000 14.06700 42.47600
C  -15.04000 14.30400 42.32700
C  -17.68500 15.74100 44.00500
C  -16.98100 13.24800 41.26800
C  -17.89400 12.06900 41.69600
N  -12.08500 14.63500 42.03500
C  -12.64800 13.38900 42.32900
C  -11.62700 12.40500 42.27700
C  -10.49200 13.11300 42.06700
C  -10.75400 14.45500 41.91900
C  -11.83200 10.89000 42.40800
C  -9.00900 12.95500 41.77200
O  -8.30500 11.97900 41.80000
C  -8.37100 14.29900 41.54200
C  -7.35800 14.47100 42.61200
O  -7.42800 13.95400 43.74700
O  -6.23100 15.09900 42.17700
C  -4.99100 15.18700 42.94000
H  -11.24600 20.67800 41.06400
H  -16.98200 18.15600 42.22500
H  -14.55800 12.40000 42.86700
H  -7.67600 17.33400 41.85900
H  -8.69200 19.60400 40.55200
H  -9.21900 20.45000 42.86500
H  -7.59600 20.08500 42.59100
H  -8.57100 18.90600 43.58300
H  -8.16900 18.08600 39.00800
H  -8.61100 16.45500 39.34000
H  -6.37900 15.87700 39.38200
H  -5.87700 17.24700 40.34600
H  -13.40700 22.22800 39.64400
H  -12.50200 22.23400 41.17500
H  -14.09600 22.77800 41.20500
H  -18.17900 19.56400 41.08700
H  -18.55900 21.25800 41.53000
H  -17.92800 20.24900 42.79800
H  -17.78600 15.72900 41.76400
H  -16.75700 13.44000 43.33300
H  -18.53200 15.08100 44.19400
H  -18.00900 16.78200 43.98100
H  -17.04200 15.64400 44.87900
H  -16.27000 12.86600 40.53700
H  -17.61800 13.82400 40.59700
H  -18.95400 12.28500 41.56300
H  -17.70800 11.71200 42.70900
H  -17.65200 11.32200 40.94000
H  -12.38000 10.62900 43.31200
H  -10.82900 10.50600 42.59700
H  -12.29800 10.45200 41.52500
H  -7.90200 14.37700 40.56100
H  -4.87000 14.41000 43.69600
H  -4.99400 16.18900 43.36900
H  -4.05900 15.18700 42.37400

