158

Mg 46.88700 34.74100 28.95800
C  45.73300 32.54900 31.29000
C  47.18700 37.22500 31.31700
C  47.59700 36.94200 26.48400
C  46.23700 32.30500 26.44700
N  46.57700 34.79900 31.06000
C  46.15600 33.75500 31.84500
C  46.18700 34.13200 33.35700
C  46.17600 35.71200 33.12000
C  46.72200 35.95400 31.76600
C  44.75200 36.44500 33.23300
C  47.37900 33.43200 34.09100
C  48.20900 34.40100 35.00300
H  47.42100 35.15200 36.12300
N  47.43000 36.75700 28.95700
C  47.65800 37.56900 30.04900
C  48.26800 38.76800 29.61600
C  48.44100 38.70900 28.22100
C  47.81300 37.42300 27.82100
C  48.66600 39.80800 30.68500
C  49.01400 39.81100 27.30400
O  49.00100 39.80000 26.11600
C  49.64000 41.06200 27.89800
N  46.90000 34.68900 26.80300
C  47.27200 35.69700 26.03700
C  47.04600 35.41400 24.53900
C  46.64200 33.88700 24.52900
C  46.59800 33.57500 25.98600
C  45.98400 36.37500 23.89000
C  47.57400 32.89600 23.62300
C  47.69700 33.19400 22.09300
N  46.07600 32.83400 28.85800
C  45.83800 31.96500 27.77900
C  45.28000 30.71100 28.23500
C  45.09000 30.90600 29.62800
C  45.66100 32.19600 29.95500
C  44.98000 29.53500 27.26100
C  44.62400 30.34700 30.91700
O  44.12300 29.24600 31.20400
C  44.86500 31.50000 31.97300
C  45.33500 31.00700 33.30000
O  46.34300 30.38300 33.48800
O  44.34500 31.13400 34.23000
C  44.64700 30.78200 35.61600
H  47.34900 37.94000 32.12600
H  47.83800 37.65800 25.69500
H  46.15200 31.56300 25.65000
H  45.26200 33.79600 33.82700
H  46.73600 36.36900 33.78600
H  44.84000 37.26200 33.94900
H  44.04300 35.64800 33.45700
H  44.24000 36.92100 32.39700
H  48.06000 32.89700 33.43000
H  46.96600 32.73500 34.82100
H  48.71900 35.03400 34.27800
H  49.03100 33.87100 35.48500
H  49.66700 40.16300 30.44000
H  48.72100 39.29900 31.64700
H  47.98300 40.63900 30.86600
H  48.84300 41.60300 28.40800
H  49.81300 41.69900 27.03100
H  50.58400 40.84600 28.39800
H  47.95700 35.40600 23.94100
H  45.60600 33.81000 24.20100
H  45.39900 36.93300 24.62100
H  45.34100 35.73200 23.29000
H  46.39200 37.11700 23.20400
H  47.18600 31.87700 23.63800
H  48.57800 32.99600 24.03400
H  46.90300 33.89300 21.83100
H  47.49900 32.22400 21.63900
H  48.73400 33.45700 21.88400
H  45.78500 29.41500 26.53600
H  44.13400 29.91000 26.68400
H  44.79200 28.65500 27.87600
H  43.93300 32.05700 32.07800
H  43.71200 30.57900 36.13800
H  45.17800 31.53200 36.20200
H  45.24400 29.87200 35.55200
Mg 41.23700 40.30200 26.89300
C  40.62200 43.14600 29.02300
C  42.02700 38.44800 29.72300
C  42.17500 37.90700 24.83100
C  40.85300 42.52700 24.14600
N  41.40200 40.76100 29.11600
C  41.00400 41.98500 29.78000
C  41.05000 41.74900 31.22200
C  41.51500 40.31100 31.46500
C  41.64900 39.78000 30.01200
C  42.68200 40.02500 32.46300
C  39.84200 42.27500 31.97300
C  39.59400 41.61500 33.36400
H  38.83800 42.51100 34.33500
N  41.84800 38.42700 27.23500
C  42.09200 37.86000 28.46400
C  42.50500 36.50500 28.25400
C  42.49000 36.33500 26.82400
C  42.24800 37.59300 26.20900
C  42.88900 35.55400 29.35600
C  42.87000 34.99200 26.04600
O  42.98400 34.89200 24.81600
C  43.08000 33.73000 26.81700
N  41.27400 40.19700 24.81900
C  41.83000 39.15400 24.19600
C  41.82600 39.35500 22.67600
C  41.08600 40.71500 22.46700
C  41.03100 41.18600 23.92000
C  43.18600 39.24500 22.00000
C  39.59700 40.64400 22.03300
C  38.59800 39.90200 22.95000
N  40.82300 42.41300 26.60400
C  40.75800 43.17200 25.40400
C  40.37300 44.47200 25.76700
C  40.25100 44.51300 27.13800
C  40.60400 43.27600 27.59300
C  40.08300 45.52100 24.84400
C  39.93300 45.39000 28.31500
O  39.42300 46.51300 28.39800
C  40.31100 44.59300 29.53400
C  41.49600 45.14300 30.22100
O  42.69300 44.97700 29.91000
O  41.10100 45.80700 31.33100
C  42.21000 46.26800 32.20400
H  42.15200 37.78000 30.57800
H  42.36200 37.12500 24.09300
H  40.68100 43.14500 23.26300
H  41.81000 42.43500 31.59500
H  40.69100 39.75600 31.91500
H  43.48000 39.69300 31.79900
H  42.32100 39.33100 33.22200
H  42.92400 40.91600 33.04200
H  38.99500 42.04600 31.32600
H  39.87600 43.36100 32.06600
H  40.46300 41.11600 33.79100
H  39.02900 40.77100 32.96700
H  42.44200 34.56400 29.44400
H  42.57800 35.82700 30.36400
H  43.97200 35.55300 29.48000
H  43.91200 33.83100 27.51400
H  43.33800 32.98200 26.06700
H  42.17700 33.46200 27.36600
H  41.28000 38.55900 22.16900
H  41.63700 41.36700 21.78900
H  44.07500 39.23000 22.63100
H  43.38900 40.08100 21.33100
H  43.24300 38.27600 21.50400
H  39.60100 40.09100 21.09400
H  39.13600 41.63100 22.05500
H  39.10000 39.04700 23.40200
H  37.82900 39.45100 22.32300
H  38.06400 40.62800 23.56300
H  40.96500 45.98800 24.40600
H  39.65900 46.37800 25.36600
H  39.43300 45.17500 24.04100
H  39.49800 44.47400 30.25100
H  42.58200 45.45000 32.82000
H  41.87900 47.05400 32.88400
H  42.91700 46.88700 31.65200

