158

Mg 16.22100 -2.63600 27.79000
C  15.21800 -0.42800 30.46200
C  17.78500 -4.52700 30.20000
C  17.63000 -4.44100 25.40900
C  14.63300 -0.44900 25.48000
N  16.44700 -2.44100 30.08700
C  15.94100 -1.50600 30.94600
C  16.07200 -1.96000 32.41800
C  17.06000 -3.17300 32.31000
C  17.09100 -3.42000 30.75500
C  18.45600 -3.00700 33.01400
C  14.75000 -2.27800 33.03600
C  14.41400 -1.66700 34.42700
H  15.56400 -1.27400 35.30000
N  17.51200 -4.24800 27.87900
C  17.99800 -4.96400 28.90800
C  18.85600 -6.05200 28.49500
C  18.74900 -6.04100 27.05200
C  17.95700 -4.87100 26.71600
C  19.53200 -7.02500 29.47500
C  19.43700 -7.00000 26.07300
O  19.33800 -6.85300 24.84200
C  20.36900 -8.04700 26.67200
N  15.97700 -2.56600 25.78200
C  16.82600 -3.29700 25.07500
C  16.72200 -2.88800 23.57300
C  15.54900 -1.84600 23.58700
C  15.34700 -1.61500 25.06500
C  18.01800 -2.18500 23.07800
C  14.23400 -2.30800 22.91000
C  13.32800 -1.28700 22.16400
N  15.03600 -0.84300 27.86500
C  14.49600 -0.02400 26.85100
C  13.73800 1.07900 27.36000
C  14.03400 1.00500 28.78900
C  14.84000 -0.16500 29.01400
C  12.93700 2.06400 26.56600
C  13.84600 1.57100 30.08400
O  13.33100 2.62500 30.32100
C  14.42900 0.58600 31.22000
C  15.20300 1.49700 32.03600
O  16.35700 1.85300 31.88500
O  14.36300 1.85100 33.13000
C  14.93300 2.87000 33.95800
H  18.25000 -5.16200 30.95700
H  18.09700 -4.89400 24.53200
H  14.19600 0.19000 24.71000
H  16.51700 -1.09700 32.91300
H  16.63300 -4.06900 32.76000
H  18.54600 -3.83900 33.71300
H  18.45400 -2.04600 33.52800
H  19.15100 -3.11900 32.18200
H  14.69700 -3.34700 33.24500
H  13.93600 -1.97400 32.37900
H  13.78700 -2.37600 34.96900
H  13.84600 -0.75200 34.26300
H  19.65500 -8.06700 29.18000
H  19.17400 -6.90200 30.49700
H  20.55400 -6.64900 29.52700
H  19.69200 -8.87800 26.86800
H  21.10400 -7.73400 27.41400
H  21.02700 -8.37200 25.86600
H  16.43800 -3.82800 23.10000
H  15.82800 -0.86100 23.21300
H  18.19200 -2.39100 22.02200
H  18.92300 -2.23200 23.68500
H  17.91600 -1.10000 23.05500
H  13.62300 -2.68600 23.73000
H  14.58700 -3.09500 22.24400
H  12.66400 -0.98900 22.97500
H  12.72600 -1.71900 21.36400
H  13.98500 -0.45400 21.91400
H  12.90200 3.01400 27.10000
H  11.91700 1.68200 26.53600
H  13.31100 2.25100 25.56000
H  13.54100 0.24000 31.74800
H  15.36200 2.31300 34.79100
H  14.14500 3.46300 34.42100
H  15.70900 3.48700 33.50500
Mg 44.07000 4.08400 48.21900
C  41.79300 6.85000 48.25800
C  41.20600 2.16400 47.97100
C  46.00500 1.49900 47.69400
C  46.69500 6.30400 47.67500
N  41.79700 4.52300 48.20300
C  41.10500 5.64000 48.17200
C  39.52900 5.50100 48.08600
C  39.44300 3.97000 48.32400
C  40.93100 3.51300 48.24000
C  38.81000 3.49000 49.68800
C  38.81600 6.04600 46.83500
C  39.39000 5.45600 45.47700
H  38.59000 5.78700 44.21200
N  43.64500 2.08900 47.76800
C  42.42200 1.47200 47.74300
C  42.69900 0.01800 47.55800
C  44.06400 -0.18200 47.46600
C  44.61400 1.14400 47.61500
C  41.49300 -0.95200 47.48200
C  44.79800 -1.50200 47.16800
O  44.21500 -2.56700 47.06900
C  46.31500 -1.56000 46.98500
N  46.11300 3.96000 47.55100
C  46.69400 2.73000 47.67300
C  48.23300 2.89200 47.88000
C  48.47200 4.45300 47.70700
C  47.03700 4.98100 47.70200
C  48.85200 2.33200 49.16400
C  49.20600 4.77900 46.40000
C  50.64400 5.10600 46.49400
N  44.21200 6.13800 48.16700
C  45.37100 6.87800 47.92900
C  45.07100 8.33400 48.10900
C  43.62300 8.33800 48.21500
C  43.20600 7.00700 48.22100
C  45.99700 9.51400 47.96700
C  42.43300 9.14300 48.31100
O  42.31600 10.31600 48.42300
C  41.18200 8.18200 48.20200
C  40.44400 8.33600 49.43100
O  40.66900 7.71800 50.44800
O  39.24600 8.90600 49.14000
C  38.23200 8.73800 50.22800
H  40.30900 1.54300 48.01400
H  46.81400 0.78200 47.85300
H  47.50800 7.03300 47.68200
H  39.02800 6.01800 48.90500
H  38.84900 3.54400 47.51600
H  38.50200 4.42800 50.15100
H  39.49600 3.01500 50.38900
H  37.89400 2.92300 49.52400
H  38.59100 7.11200 46.85000
H  37.88000 5.48700 46.81600
H  39.26900 4.37300 45.50600
H  40.43200 5.75800 45.37700
H  40.69600 -0.47100 48.04900
H  41.71100 -1.95400 47.85300
H  41.23100 -1.06000 46.43000
H  46.81800 -1.65300 47.94800
H  46.64700 -0.68700 46.42400
H  46.68100 -2.40900 46.40700
H  48.63400 2.30900 47.05000
H  48.96900 4.98000 48.52200
H  47.97500 1.93300 49.67300
H  49.30900 3.11000 49.77600
H  49.61000 1.57200 48.97700
H  48.64100 5.60100 45.95900
H  49.03900 3.96600 45.69300
H  50.85900 5.99500 45.90100
H  51.36000 4.36000 46.15100
H  50.86200 5.20100 47.55800
H  46.36500 9.67400 48.98000
H  45.53000 10.48300 47.79400
H  46.77900 9.21000 47.27000
H  40.54800 8.30900 47.32400
H  37.30700 9.28300 50.03900
H  38.57200 9.20000 51.15500
H  38.00000 7.70200 50.47500

