158

Mg 47.34400 35.10500 27.82300
C  45.31500 33.29100 30.24500
C  47.59600 37.55700 30.31500
C  48.36700 37.19500 25.48400
C  46.47100 32.77000 25.47000
N  46.42500 35.40200 29.97900
C  45.84000 34.48900 30.78700
C  45.96900 34.84800 32.23800
C  46.22800 36.34300 32.19700
C  46.87100 36.41400 30.77600
C  45.06500 37.31600 32.36100
C  47.21200 34.07400 32.78600
C  47.35700 34.01400 34.34000
H  46.46700 34.82200 35.32500
N  47.95800 37.08600 27.89700
C  48.14500 37.87000 29.05500
C  48.80400 39.10800 28.65900
C  49.15100 39.00300 27.20800
C  48.51300 37.72700 26.78000
C  49.23600 40.16100 29.69600
C  49.83800 39.93800 26.31900
O  50.14400 39.72400 25.15800
C  50.25900 41.26200 26.96300
N  47.12600 35.10700 25.76400
C  47.76100 36.03600 24.99200
C  48.03700 35.58000 23.55800
C  47.27400 34.19700 23.52200
C  46.93500 33.98700 25.06100
C  47.68000 36.57500 22.45600
C  48.23100 33.02500 22.94900
C  47.60900 32.07400 21.88300
N  46.17100 33.37700 27.80500
C  46.04600 32.45900 26.77900
C  45.40700 31.27400 27.26700
C  45.05900 31.59000 28.62200
C  45.47000 32.89000 28.88600
C  45.02100 30.13900 26.49900
C  44.38700 31.04800 29.85100
O  43.90900 29.97700 30.15100
C  44.33500 32.35700 30.82700
C  44.42600 31.94000 32.29000
O  45.40500 31.41500 32.82500
O  43.18700 32.02300 32.78300
C  42.89300 31.40700 34.13500
H  47.78200 38.37200 31.01700
H  48.84500 37.80300 24.71300
H  46.24400 32.08700 24.64800
H  45.07500 34.60300 32.81000
H  46.97800 36.73000 32.88600
H  45.07300 37.76000 33.35600
H  44.14500 36.75500 32.19900
H  44.90800 38.16600 31.69700
H  48.12400 34.45000 32.32200
H  47.15200 33.02700 32.48900
H  48.40200 34.32100 34.38400
H  47.36200 32.95500 34.59800
H  50.24300 40.53500 29.51200
H  49.31300 39.62900 30.64400
H  48.50300 40.91200 29.98900
H  49.30900 41.69800 27.27400
H  50.72800 41.81700 26.15000
H  51.04600 41.11000 27.70100
H  49.11100 35.44400 23.42700
H  46.40200 34.29200 22.87400
H  48.57600 36.80300 21.88000
H  47.22300 37.39500 23.01100
H  46.94200 36.24100 21.72600
H  48.51000 32.34000 23.75000
H  49.17200 33.36800 22.52000
H  47.30700 31.16700 22.40700
H  48.22200 31.85100 21.01000
H  46.70600 32.50200 21.45000
H  45.89300 29.80900 25.93500
H  44.15400 30.43600 25.90900
H  44.75500 29.41400 27.26800
H  43.35100 32.81900 30.74700
H  43.47400 30.53100 34.42500
H  41.83400 31.16500 34.23200
H  42.98500 32.25200 34.81700
Mg 10.41900 47.60900 26.10200
C  8.09100 47.41300 28.76100
C  12.75600 48.41900 28.58700
C  12.37500 48.49700 23.63200
C  7.77200 47.26000 23.84100
N  10.42400 47.94300 28.47700
C  9.29600 47.71800 29.29300
C  9.64200 47.95100 30.75400
C  11.16600 48.28600 30.73800
C  11.48000 48.32000 29.16700
C  11.52000 49.57700 31.54600
C  9.32900 46.75300 31.80700
C  10.14600 46.64200 33.12400
H  9.51200 45.84100 34.24000
N  12.35600 48.20800 26.07600
C  13.15500 48.43900 27.19100
C  14.45800 48.68100 26.70900
C  14.42200 48.73700 25.26000
C  12.97900 48.52000 24.93100
C  15.67400 48.91900 27.66000
C  15.53100 48.89500 24.29600
O  15.27900 49.17900 23.11800
C  17.01400 48.83000 24.68800
N  10.05400 47.99600 23.98800
C  11.09900 48.29400 23.15100
C  10.68000 48.42300 21.71500
C  9.29400 47.83600 21.80600
C  8.97200 47.70500 23.27500
C  10.80300 49.86300 21.20300
C  9.06000 46.50900 21.04400
C  8.20600 46.62900 19.71700
N  8.33100 47.19900 26.27200
C  7.42700 47.05100 25.21100
C  6.07400 46.81800 25.72800
C  6.30600 46.92800 27.17000
C  7.68300 47.17200 27.40900
C  4.76300 46.73500 24.99600
C  5.65900 46.89600 28.40300
O  4.53000 46.51300 28.76400
C  6.73700 47.25700 29.50700
C  6.65900 46.08500 30.39000
O  7.22500 45.02000 30.24500
O  5.72100 46.41300 31.39000
C  5.72700 45.44500 32.54300
H  13.49900 48.56300 29.37300
H  13.06700 48.57700 22.79100
H  6.93600 47.12200 23.15300
H  9.05300 48.85400 30.91500
H  11.86500 47.49700 31.01600
H  11.70400 50.50800 31.00900
H  12.38100 49.33500 32.16900
H  10.74300 49.66300 32.30600
H  9.41900 45.80200 31.28200
H  8.31700 46.90800 32.18100
H  10.53200 47.61600 33.42400
H  11.03400 46.11100 32.78000
H  16.66000 48.50600 27.44900
H  15.48000 48.84300 28.73000
H  15.85200 49.97700 27.46900
H  17.22500 49.59800 25.43100
H  17.71400 49.05600 23.88400
H  17.14200 47.82900 25.10100
H  11.39500 47.81400 21.16200
H  8.59900 48.55300 21.36800
H  11.14400 50.53100 21.99400
H  9.84500 50.28100 20.89200
H  11.36400 49.81800 20.27000
H  8.72500 45.77600 21.77900
H  10.05800 46.14400 20.79900
H  7.78400 47.62500 19.57900
H  7.42600 45.88200 19.86700
H  8.68400 46.26500 18.80800
H  4.66800 45.66000 24.84000
H  4.77100 47.32900 24.08200
H  3.87400 47.01200 25.56300
H  6.40800 48.05500 30.17200
H  5.52500 46.11500 33.37900
H  6.63300 44.84000 32.59500
H  4.86200 44.86200 32.23000

