158

Mg 47.28100 24.16600 27.99400
C  47.97600 26.34600 30.73100
C  46.32900 21.74300 30.12000
C  46.97300 22.12300 25.34000
C  48.52800 26.70600 25.88000
N  47.07200 24.12000 30.13100
C  47.44300 25.07500 31.03400
C  47.12600 24.54100 32.47500
C  46.74400 23.07400 32.23700
C  46.67900 22.98500 30.73500
C  47.68000 21.96600 32.85500
C  45.97200 25.35400 33.15100
C  46.40700 25.91300 34.48900
H  45.30200 26.35700 35.55400
N  46.60400 22.24700 27.77700
C  46.21900 21.35400 28.76100
C  45.83700 20.15600 28.21500
C  46.05600 20.22200 26.80900
C  46.51700 21.62400 26.58900
C  45.34000 19.04100 29.00300
C  45.75900 19.19400 25.64400
O  46.14100 19.39600 24.53200
C  45.06900 17.86800 25.95400
N  47.66800 24.39200 25.89600
C  47.52800 23.44300 25.03500
C  47.63100 23.94100 23.61200
C  47.76700 25.47200 23.79500
C  48.04700 25.56300 25.27000
C  48.79000 23.28300 22.91600
C  46.67400 26.35800 23.19900
C  45.38200 26.63300 24.00700
N  48.21500 26.13800 28.22200
C  48.58400 27.04100 27.20800
C  48.94700 28.27700 27.84200
C  48.77500 28.02700 29.25900
C  48.28100 26.76200 29.40900
C  49.47000 29.50200 27.15500
C  49.00300 28.61500 30.60100
O  49.46200 29.73400 30.80500
C  48.47400 27.49800 31.59300
C  49.47200 27.12400 32.60700
O  50.08400 26.08900 32.64000
O  49.43500 28.09700 33.58600
C  50.28400 27.73000 34.72800
H  46.22600 20.88500 30.78700
H  46.77900 21.54400 24.43500
H  48.72700 27.54200 25.20600
H  48.09900 24.58400 32.96500
H  45.74100 22.78400 32.55100
H  47.05700 21.18300 33.28700
H  48.28800 22.25700 33.71100
H  48.38300 21.48800 32.17300
H  45.19900 24.64900 33.45600
H  45.60600 26.11100 32.45700
H  47.09400 26.75700 34.43100
H  46.99400 25.12800 34.96600
H  44.36800 18.66800 28.68000
H  45.08200 19.32700 30.02200
H  46.13300 18.29900 28.91900
H  45.49700 17.49700 26.88500
H  45.33300 17.16300 25.16600
H  43.98000 17.85000 26.00000
H  46.70600 23.69100 23.09300
H  48.74000 25.87100 23.51100
H  49.55200 24.01900 22.66100
H  48.43100 22.64400 22.11000
H  49.24400 22.59200 23.62700
H  46.38200 25.89000 22.25800
H  46.99000 27.36500 22.92800
H  45.52200 26.41800 25.06600
H  44.68800 25.92800 23.55100
H  45.04700 27.66000 23.86100
H  48.66100 30.23300 27.18100
H  49.67500 29.30200 26.10400
H  50.35500 29.78900 27.72300
H  47.53600 27.87000 32.00700
H  50.30900 28.56800 35.42400
H  51.31500 27.50900 34.45200
H  49.88000 26.82700 35.18600
Mg 7.16400 54.49300 40.24300
C  6.07100 50.93500 39.85200
C  10.17400 53.49800 39.33900
C  7.64600 57.61100 39.61300
C  3.57600 55.08200 40.76800
N  7.96500 52.41800 39.35400
C  7.41700 51.17100 39.44100
C  8.55400 50.14400 39.20300
C  9.82500 50.94000 39.40300
C  9.30800 52.40900 39.27300
C  10.62900 50.65000 40.69900
C  8.49600 49.36800 37.87300
C  8.40200 50.10800 36.56000
H  7.14400 49.80000 35.75600
N  8.71200 55.44000 39.55000
C  9.90100 54.85000 39.29400
C  10.91600 55.91600 39.07800
C  10.25000 57.18800 39.22900
C  8.80900 56.80800 39.49100
C  12.32500 55.57900 38.74400
C  10.89100 58.61000 39.30100
O  12.12400 58.71100 39.26400
C  10.11800 59.90000 39.51700
N  5.83600 56.04700 40.25400
C  6.31400 57.26900 39.89600
C  5.24500 58.34700 39.92000
C  3.90100 57.51600 40.05800
C  4.45400 56.11100 40.46100
C  5.46600 59.43200 40.92600
C  3.02700 57.38100 38.80700
C  1.62800 57.95300 39.04400
N  5.26400 53.32500 40.48000
C  3.98200 53.72800 40.77500
C  3.10100 52.55900 40.97200
C  3.89100 51.52300 40.66600
C  5.16200 51.98600 40.23500
C  1.71300 52.65100 41.31200
C  3.87800 50.07500 40.65500
O  2.98000 49.28900 40.98400
C  5.29200 49.63100 40.08100
C  4.96300 48.75800 38.89100
O  4.39300 49.10700 37.87400
O  5.61900 47.53900 39.05700
C  5.35600 46.68300 37.90500
H  11.21600 53.18300 39.25100
H  7.80500 58.68100 39.46200
H  2.50400 55.28600 40.80600
H  8.49000 49.38900 39.98600
H  10.45600 50.83200 38.52100
H  11.66400 50.35400 40.52900
H  10.03400 49.94400 41.27900
H  10.72700 51.63400 41.15700
H  7.61700 48.73800 38.01100
H  9.31300 48.65200 37.78800
H  9.16800 49.81000 35.84300
H  8.48700 51.18700 36.68500
H  12.80100 54.90400 39.45500
H  12.99900 56.43600 38.75900
H  12.39100 55.09000 37.77200
H  9.69600 60.16600 38.54800
H  10.73800 60.62300 40.04600
H  9.30100 59.77900 40.22900
H  5.29600 58.88500 38.97400
H  3.38400 57.74800 40.99000
H  6.17900 59.11500 41.68800
H  4.56700 59.67200 41.49400
H  5.91000 60.32000 40.47600
H  2.91300 56.38800 38.37200
H  3.53400 58.00200 38.06800
H  1.65300 58.97200 38.65700
H  1.28400 57.90600 40.07700
H  0.89200 57.35600 38.50700
H  1.56300 53.67100 41.66600
H  1.39700 52.08300 42.18600
H  1.07000 52.61200 40.43300
H  5.82600 49.10200 40.86900
H  5.58500 47.30000 37.03600
H  4.32300 46.36000 37.77200
H  6.04000 45.83600 37.95700

