158

Mg 42.97500 4.20700 47.90600
C  40.90300 6.97200 47.58300
C  40.12400 2.18500 47.77400
C  45.06600 1.54000 47.74700
C  45.83800 6.33800 47.81100
N  40.73800 4.60500 47.77600
C  40.11500 5.80400 47.68300
C  38.57200 5.66900 47.81200
C  38.42300 4.11000 48.06100
C  39.87000 3.58100 47.84000
C  37.85300 3.70900 49.38900
C  37.77400 6.23200 46.62200
C  38.17800 5.61200 45.22000
H  37.64300 6.48200 43.99300
N  42.62100 2.10200 47.67800
C  41.41100 1.49500 47.60900
C  41.69600 0.08500 47.41000
C  43.05200 -0.07000 47.38200
C  43.66700 1.18500 47.62300
C  40.61000 -0.87700 47.41500
C  43.77200 -1.46500 47.25500
O  43.16700 -2.52900 47.13000
C  45.31300 -1.51000 47.23500
N  45.16500 3.99300 47.70800
C  45.73500 2.75200 47.79100
C  47.24500 2.73400 47.90000
C  47.55300 4.27600 47.78600
C  46.09700 4.95300 47.74000
C  47.76300 2.05600 49.19200
C  48.23200 4.72200 46.52000
C  49.73400 4.77300 46.46700
N  43.36000 6.17600 47.76200
C  44.54900 6.92000 47.73500
C  44.20200 8.28000 47.58100
C  42.83500 8.32200 47.52000
C  42.33400 7.07700 47.64500
C  45.15300 9.39400 47.55200
C  41.71800 9.31500 47.35900
O  41.81100 10.53500 47.29500
C  40.38600 8.37400 47.31500
C  39.49600 8.81700 48.39000
O  39.68900 8.67200 49.59000
O  38.35300 9.38800 47.87100
C  37.55700 10.23500 48.78400
H  39.18900 1.62300 47.71900
H  45.85200 0.78300 47.78000
H  46.67900 7.02600 47.70000
H  38.18100 6.10600 48.73100
H  37.70600 3.72600 47.33400
H  38.58300 3.13600 49.96100
H  36.89300 3.21500 49.23500
H  37.63300 4.61300 49.95800
H  37.64800 7.31400 46.58100
H  36.75100 5.89600 46.79400
H  37.62600 4.68600 45.05900
H  39.26600 5.55800 45.18300
H  40.40800 -1.34000 46.45000
H  39.70200 -0.40600 47.79000
H  40.85400 -1.69900 48.08800
H  45.59000 -0.68300 46.58200
H  45.77300 -2.43900 46.90000
H  45.72200 -1.32100 48.22700
H  47.68400 2.29100 47.00600
H  48.13200 4.60900 48.64800
H  47.00200 1.65800 49.86300
H  48.38100 2.74600 49.76600
H  48.38100 1.24700 48.80400
H  48.00400 5.77400 46.34500
H  47.83400 4.16200 45.67400
H  50.08800 4.06600 47.21700
H  50.07700 5.76200 46.77100
H  50.15400 4.53000 45.49200
H  45.71900 9.45900 48.48200
H  44.56800 10.27700 47.29500
H  45.87300 9.29300 46.74000
H  39.86600 8.59500 46.38300
H  38.24300 10.74600 49.45900
H  36.96700 9.56400 49.40900
H  37.06200 10.98600 48.16800
Mg -5.97900 25.34000 25.70000
C  -3.97100 26.69800 28.17700
C  -7.40900 23.31800 27.94000
C  -7.56800 23.85800 23.15300
C  -3.72900 26.97500 23.32800
N  -5.67900 25.01700 27.78300
C  -4.95500 25.81900 28.68200
C  -5.31300 25.40900 30.15800
C  -6.03100 24.10400 30.02700
C  -6.39900 24.13100 28.52500
C  -5.16500 22.82100 30.33200
C  -6.04100 26.54100 30.89000
C  -5.64000 26.69300 32.33300
H  -5.22900 25.46100 33.08800
N  -7.31100 23.81900 25.57300
C  -7.86200 23.13000 26.61600
C  -8.94700 22.27500 26.12300
C  -9.00300 22.47700 24.72800
C  -7.93000 23.36700 24.41400
C  -9.87600 21.47800 26.99500
C  -9.89100 21.80000 23.62700
O  -9.68000 21.90700 22.37900
C  -11.07600 20.88400 23.91900
N  -5.44900 25.20300 23.54100
C  -6.43500 24.64700 22.77000
C  -6.03000 24.82000 21.30800
C  -4.93000 25.97300 21.27100
C  -4.63700 26.02800 22.79100
C  -5.60600 23.46000 20.74800
C  -5.29600 27.34200 20.67600
C  -4.71800 27.58000 19.22300
N  -4.34400 26.67100 25.67200
C  -3.57400 27.27600 24.68000
C  -2.62400 28.18700 25.23200
C  -2.69500 28.01000 26.62100
C  -3.68500 27.00000 26.79700
C  -1.73500 29.15000 24.52400
C  -2.20600 28.36700 27.90100
O  -1.31800 29.18300 28.12100
C  -2.98800 27.57900 28.93300
C  -2.07200 26.72100 29.75500
O  -1.68900 25.62100 29.59300
O  -1.74900 27.48800 30.84300
C  -1.00800 26.88900 31.97100
H  -7.86100 22.59500 28.62300
H  -8.18000 23.48400 22.32900
H  -3.16400 27.51900 22.56800
H  -4.33100 25.30700 30.62000
H  -6.88300 24.00700 30.70000
H  -5.03200 22.60500 31.39200
H  -4.32000 22.83300 29.64400
H  -5.79900 22.02700 29.93900
H  -7.12800 26.46700 30.89800
H  -5.83200 27.46900 30.35900
H  -6.42000 27.15400 32.93800
H  -4.74100 27.29500 32.20100
H  -9.63300 21.41300 28.05600
H  -9.76300 20.48700 26.55500
H  -10.88000 21.88800 26.88800
H  -11.93800 21.39200 24.35100
H  -10.73700 20.11800 24.61600
H  -11.31900 20.35100 22.99900
H  -6.92800 25.32000 20.94600
H  -3.97000 25.62000 20.89600
H  -5.62000 22.71300 21.54200
H  -4.61100 23.59200 20.32400
H  -6.29800 23.27000 19.92700
H  -5.01100 28.22100 21.25500
H  -6.38600 27.37300 20.70100
H  -5.36700 27.69700 18.35400
H  -4.14800 26.70300 18.91800
H  -4.00000 28.39500 19.31200
H  -0.76900 29.03500 25.01600
H  -2.05800 30.19100 24.54600
H  -1.55900 28.89900 23.47800
H  -3.51900 28.22900 29.62900
H  -0.66500 25.85700 31.90000
H  -1.70600 27.01500 32.79900
H  -0.14300 27.47300 32.28400

