158

Mg 35.68600 2.87900 30.41200
C  33.31900 4.11500 32.63500
C  37.81400 2.48800 33.04300
C  38.04600 1.75100 28.29600
C  33.55200 3.60100 27.73100
N  35.63700 3.46800 32.58400
C  34.54500 3.89400 33.26300
C  34.82100 3.72100 34.74900
C  36.35800 3.63000 34.80500
C  36.63000 3.13200 33.43000
C  37.07000 4.98100 35.04300
C  34.09100 2.52400 35.39500
C  33.76500 2.53700 36.82400
H  34.47100 3.68200 37.58700
N  37.65800 2.32100 30.65000
C  38.30500 2.16000 31.75100
C  39.59600 1.38100 31.54700
C  39.67200 1.20000 30.13700
C  38.43100 1.83400 29.62700
C  40.54200 0.86000 32.60100
C  40.65400 0.38900 29.32200
O  40.53700 0.16700 28.12100
C  41.76500 -0.33700 30.04900
N  35.84400 2.85600 28.23600
C  36.79800 2.10000 27.73100
C  36.55600 1.92200 26.17000
C  35.07600 2.46600 26.02100
C  34.75900 2.96300 27.41300
C  37.62200 2.51800 25.25100
C  34.03900 1.47100 25.49000
C  32.96500 2.04800 24.58600
N  33.79400 3.60100 30.20400
C  33.09200 3.86200 29.04200
C  31.78100 4.35600 29.48200
C  31.83400 4.50700 30.85600
C  33.08800 4.05900 31.24800
C  30.52800 4.56400 28.62400
C  31.02600 4.84700 32.05000
O  29.88800 5.24800 32.17700
C  32.07500 4.67000 33.28500
C  32.29700 6.01200 33.97500
O  33.14100 6.85200 33.61000
O  31.64300 6.08600 35.18900
C  31.65500 7.27300 35.96600
H  38.53700 2.36700 33.85300
H  38.70700 1.22600 27.60300
H  32.81000 3.82000 26.96000
H  34.43100 4.63300 35.20100
H  36.62900 2.86100 35.52900
H  36.50300 5.64700 35.69300
H  37.26200 5.43700 34.07200
H  38.03600 4.81400 35.52000
H  34.64800 1.63300 35.10400
H  33.10800 2.56000 34.92500
H  34.14900 1.64100 37.31200
H  32.74100 2.58100 37.19600
H  41.51400 1.34300 32.49700
H  40.60200 -0.22700 32.54600
H  40.10300 0.91000 33.59800
H  42.36300 -0.90600 29.33700
H  41.23500 -1.08200 30.64200
H  42.43100 0.29500 30.63700
H  36.49100 0.85200 25.97000
H  35.08300 3.38000 25.42800
H  38.46000 2.92700 25.81600
H  37.19300 3.27900 24.59900
H  38.00100 1.70000 24.63800
H  33.66300 1.01700 26.40700
H  34.50000 0.72600 24.84200
H  33.10700 1.63000 23.58900
H  32.91000 3.13500 24.52600
H  31.94800 1.79800 24.88600
H  29.72600 3.97200 29.06600
H  30.70100 4.28200 27.58500
H  30.16600 5.58500 28.74500
H  31.70600 4.01000 34.07100
H  30.61100 7.53000 36.14400
H  32.05100 8.14400 35.44400
H  32.19900 7.28800 36.91000
Mg 28.16600 56.05300 40.60500
C  25.77900 53.60400 39.83700
C  30.69300 54.04900 39.38400
C  30.19300 58.78200 40.30000
C  25.41800 58.28900 41.18600
N  28.20000 54.14200 39.53500
C  27.12800 53.29000 39.50700
C  27.55100 51.91900 38.97800
C  29.10100 51.93300 39.15700
C  29.38400 53.42200 39.37200
C  29.62600 51.05700 40.27700
C  26.99200 51.59600 37.57500
C  26.66300 52.76300 36.67000
H  27.37000 52.85400 35.28000
N  30.20000 56.30000 40.06500
C  31.06400 55.36400 39.65900
C  32.44300 56.00700 39.59500
C  32.26300 57.31800 39.97300
C  30.82400 57.50400 40.16300
C  33.69600 55.29600 39.08300
C  33.42100 58.34400 40.10100
O  34.56000 57.93500 39.89000
C  33.27100 59.82600 40.42500
N  27.79100 58.17600 40.62800
C  28.83700 59.06300 40.48200
C  28.30100 60.49600 40.43400
C  26.80500 60.35100 40.72200
C  26.65500 58.83500 40.87000
C  29.07300 61.43000 41.40800
C  25.85300 61.06700 39.75300
C  24.61100 61.82100 40.33600
N  26.02200 55.94200 40.72600
C  25.00500 56.93300 40.98500
C  23.67700 56.32100 41.06700
C  23.95200 54.99800 40.61300
C  25.35800 54.79800 40.40500
C  22.34400 56.97100 41.33200
C  23.38700 53.63300 40.28500
O  22.28000 53.16600 40.37800
C  24.52800 52.69200 39.78400
C  24.49500 51.41200 40.49500
O  24.28600 50.27100 40.02600
O  25.02500 51.60000 41.75100
C  25.19000 50.38100 42.50800
H  31.55500 53.47700 39.03500
H  30.86200 59.64600 40.30500
H  24.60200 58.98900 41.37600
H  27.21100 51.21600 39.73900
H  29.61300 51.57700 38.26200
H  28.92600 51.05000 41.11200
H  30.57500 51.49500 40.58400
H  29.84500 50.02200 40.01500
H  26.13100 50.93300 37.65800
H  27.84300 50.99500 37.25500
H  27.00700 53.74400 36.99800
H  25.63200 52.85400 36.32900
H  33.89500 55.59400 38.05300
H  33.43500 54.24200 39.17000
H  34.61600 55.44800 39.64900
H  32.74500 60.00200 41.36300
H  32.82700 60.32000 39.56100
H  34.29200 60.17600 40.57300
H  28.41900 60.75400 39.38100
H  26.52900 60.71500 41.71100
H  29.74300 62.04300 40.80600
H  29.65900 60.87100 42.13800
H  28.36700 62.09300 41.90900
H  25.41400 60.37700 39.03200
H  26.47600 61.77900 39.21200
H  24.82400 62.89000 40.36100
H  24.48900 61.35500 41.31400
H  23.66100 61.61900 39.84100
H  21.89900 57.05700 40.34000
H  22.33100 57.91800 41.87100
H  21.79900 56.27100 41.96600
H  24.28500 52.49900 38.73900
H  25.77200 50.66700 43.38400
H  25.78400 49.63100 41.98400
H  24.27900 49.98400 42.95500

