158

Mg 16.84100 -3.47500 28.31300
C  15.73500 -1.27700 30.84900
C  18.67900 -5.08300 30.61800
C  18.10000 -5.26400 25.79700
C  15.26900 -1.38600 25.97200
N  17.21900 -3.10800 30.52000
C  16.65800 -2.21300 31.32300
C  16.99500 -2.43600 32.80700
C  18.10300 -3.53200 32.74000
C  17.98500 -3.99100 31.22700
C  19.48600 -3.01100 33.04800
C  15.73500 -2.98900 33.57000
C  15.67900 -2.53400 35.03100
H  16.93300 -2.08400 35.79300
N  18.08200 -5.12100 28.20900
C  18.69000 -5.70400 29.30500
C  19.25900 -6.93200 28.94500
C  19.14100 -7.02600 27.51900
C  18.34800 -5.80500 27.09900
C  20.01000 -7.87800 29.80800
C  19.72300 -8.00000 26.46300
O  19.47000 -7.90800 25.27400
C  20.46400 -9.19600 26.89800
N  16.82000 -3.30500 26.20600
C  17.45300 -4.15300 25.42500
C  17.38500 -3.77400 23.92000
C  16.28600 -2.71600 23.94300
C  16.13600 -2.37400 25.44900
C  18.71000 -3.36400 23.26400
C  14.85900 -3.14800 23.37100
C  14.42800 -2.24600 22.20200
N  15.81600 -1.70200 28.26300
C  15.06000 -1.10200 27.29100
C  14.28700 0.04100 27.80100
C  14.49600 -0.06200 29.15200
C  15.42000 -1.10600 29.43800
C  13.48500 0.94400 27.03400
C  14.28600 0.73000 30.37100
O  13.81400 1.85800 30.52000
C  14.92300 -0.17000 31.53300
C  15.68600 0.76000 32.37300
O  16.80300 1.22800 32.08300
O  14.95700 1.16100 33.44300
C  15.68200 2.07300 34.27300
H  19.31300 -5.56900 31.36200
H  18.53600 -5.86500 24.99600
H  14.80900 -0.72400 25.23500
H  17.25600 -1.45900 33.21300
H  18.02500 -4.42000 33.36700
H  19.45600 -2.10000 33.64500
H  20.05300 -2.80000 32.14100
H  20.09100 -3.74500 33.58100
H  15.89400 -4.06000 33.68800
H  14.76400 -2.73300 33.14700
H  15.27100 -3.40400 35.54600
H  15.08500 -1.62300 35.09100
H  21.06900 -7.62600 29.75100
H  20.05000 -8.95300 29.63200
H  19.66700 -7.86400 30.84300
H  19.90300 -9.90100 27.51100
H  21.18600 -8.55500 27.40200
H  20.89000 -9.66600 26.01200
H  17.07300 -4.68700 23.41200
H  16.58000 -1.82700 23.38500
H  18.65700 -2.36200 22.83900
H  18.80900 -3.99500 22.38100
H  19.54800 -3.46700 23.95300
H  14.06500 -3.00000 24.10300
H  14.91600 -4.14900 22.94200
H  13.66200 -1.62600 22.66800
H  13.95900 -2.86200 21.43400
H  15.10200 -1.65500 21.58100
H  13.94400 1.24000 26.09100
H  13.17900 1.87700 27.50600
H  12.67400 0.30700 26.68000
H  14.03500 -0.52200 32.05800
H  16.19900 2.85100 33.71000
H  16.28900 1.54200 35.00600
H  15.01400 2.67600 34.88800
Mg 46.42700 45.27100 42.92900
C  42.99500 44.45700 42.92800
C  47.10100 42.02000 42.31300
C  49.65900 46.11700 42.54500
C  45.50900 48.73600 43.16800
N  45.13000 43.43300 42.45100
C  43.79400 43.31100 42.73200
C  43.36000 41.84700 42.56300
C  44.72700 41.05600 42.58800
C  45.68800 42.24000 42.47800
C  45.04900 40.14600 43.83900
C  42.52600 41.64500 41.29300
C  42.79700 42.49300 40.15600
H  42.43600 42.04200 38.68500
N  48.12500 44.22100 42.56700
C  48.22500 42.89600 42.32800
C  49.61500 42.49600 42.17000
C  50.35800 43.70300 42.21800
C  49.40800 44.74500 42.36200
C  50.11800 41.07100 41.86200
C  51.86400 43.84000 42.00800
O  52.49600 42.78300 41.82000
C  52.58600 45.25600 41.92600
N  47.40200 47.14900 42.67300
C  48.79000 47.18700 42.81300
C  49.36100 48.61700 42.88600
C  48.04600 49.47000 42.78100
C  46.90900 48.43400 42.94400
C  50.21100 48.77300 44.16500
C  47.89900 50.33600 41.50300
C  48.82300 51.59900 41.53600
N  44.69800 46.48400 43.02100
C  44.41000 47.80700 43.18800
C  42.98200 48.09900 43.39800
C  42.39200 46.76400 43.26200
C  43.44600 45.82000 43.04000
C  42.25900 49.36000 43.62700
C  41.17700 46.09000 43.22200
O  40.01300 46.43200 43.25000
C  41.54100 44.56300 43.17700
C  41.00900 43.90900 44.42400
O  40.18400 43.01500 44.33100
O  41.83000 44.17100 45.48100
C  41.79500 43.08900 46.46700
H  47.41600 40.97600 42.26200
H  50.67800 46.48200 42.68500
H  45.21000 49.78400 43.23600
H  42.67900 41.57200 43.36800
H  44.93800 40.40800 41.73700
H  45.88900 40.55300 44.40200
H  45.37800 39.21500 43.37800
H  44.13100 39.98100 44.40400
H  41.44700 41.70700 41.42800
H  42.73600 40.63400 40.94300
H  43.87400 42.63300 40.06500
H  42.30600 43.45200 40.31800
H  50.29500 41.09600 40.78600
H  49.35400 40.32600 42.08200
H  51.04700 40.83800 42.38100
H  52.12000 45.91100 41.18900
H  53.64700 45.04500 41.79300
H  52.47700 45.61900 42.94800
H  49.96500 48.92700 42.03300
H  47.85200 50.01700 43.70300
H  50.36900 49.78100 44.54700
H  51.20900 48.34400 44.07300
H  49.69400 48.22100 44.94900
H  46.90200 50.77400 41.46600
H  48.11300 49.74900 40.60900
H  49.50700 51.78900 40.70900
H  49.44900 51.55300 42.42800
H  48.19800 52.49100 41.56900
H  41.44600 49.59300 42.94000
H  43.04000 50.11400 43.72300
H  41.82100 49.29300 44.62200
H  40.96000 44.14200 42.35700
H  41.15500 43.39500 47.29400
H  42.84700 43.07000 46.75100
H  41.53200 42.08500 46.13400

