158

Mg 26.68000 50.14000 26.97000
C  24.74500 51.29100 29.61300
C  29.10700 49.10600 29.16400
C  28.78300 49.29200 24.31100
C  24.35400 51.34600 24.71700
N  26.87100 50.28700 29.16800
C  25.99000 50.78000 30.04000
C  26.43000 50.44000 31.52700
C  27.88900 49.96800 31.33400
C  27.99500 49.77800 29.79700
C  29.01700 50.82900 31.86000
C  25.46500 49.38800 32.18500
C  24.54200 50.10000 33.22400
H  24.40700 49.63400 34.74600
N  28.55100 49.17900 26.76100
C  29.43100 48.83000 27.79000
C  30.71300 48.33700 27.28700
C  30.70400 48.46100 25.87500
C  29.24400 49.02000 25.58900
C  31.74700 47.72900 28.11000
C  31.78800 48.18300 24.94800
O  31.59400 48.08700 23.70200
C  33.16400 48.04600 25.49000
N  26.59000 50.32100 24.77600
C  27.52100 49.83500 23.93000
C  27.02200 49.85700 22.42600
C  25.51600 50.38800 22.59200
C  25.42300 50.60000 24.12000
C  27.91800 50.60900 21.44600
C  24.40100 49.36000 22.14000
C  24.17900 48.08700 22.97600
N  24.93300 51.17900 27.09400
C  24.10100 51.64000 26.11600
C  22.93600 52.20300 26.71800
C  23.11100 52.06100 28.14000
C  24.35500 51.40200 28.30000
C  21.85200 52.78800 25.98700
C  22.53800 52.40100 29.42000
O  21.54800 53.04400 29.68100
C  23.57300 51.86400 30.44900
C  23.86000 52.94300 31.38600
O  24.86000 53.63800 31.34400
O  22.86300 53.17800 32.28300
C  23.23100 54.29500 33.24000
H  29.94600 48.94200 29.84300
H  29.38100 48.94300 23.46700
H  23.62000 51.63100 23.96000
H  26.43000 51.35200 32.12300
H  28.01200 48.98900 31.79600
H  29.82000 50.09200 31.88400
H  29.01700 51.28900 32.84800
H  29.11400 51.62500 31.12100
H  26.11900 48.62000 32.59800
H  24.86100 48.86700 31.44200
H  23.56900 49.92400 32.76600
H  24.64100 51.18500 33.26800
H  31.32000 47.53000 29.09300
H  32.49400 48.51700 28.21100
H  32.33200 46.90000 27.71200
H  33.25100 48.77500 26.29500
H  33.85900 48.08000 24.65000
H  33.13200 47.02200 25.86200
H  26.95100 48.83600 22.05100
H  25.47600 51.33200 22.04800
H  27.39400 51.39100 20.89700
H  28.33500 49.82800 20.81000
H  28.77100 50.97900 22.01500
H  24.63200 49.00900 21.13400
H  23.46600 49.90600 22.01200
H  23.16600 48.17100 23.37000
H  24.74500 47.93500 23.89500
H  24.28000 47.17400 22.38900
H  21.80200 52.45100 24.95200
H  22.02400 53.85900 26.09900
H  20.98300 52.48700 26.57200
H  23.02300 51.14800 31.05900
H  23.51300 55.16800 32.65200
H  24.13300 54.03800 33.79500
H  22.30700 54.54100 33.76400
Mg -11.18200 16.42300 41.27800
C  -7.86300 15.26800 41.03200
C  -10.35100 19.35600 39.92400
C  -14.42100 17.04400 40.98200
C  -12.13900 13.04800 42.13100
N  -9.26200 17.16500 40.58900
C  -8.00900 16.56400 40.53200
C  -6.96800 17.58200 40.09600
C  -7.82600 18.91400 39.95100
C  -9.23800 18.44900 40.07800
C  -7.47600 19.90700 41.15600
C  -6.28500 17.15900 38.71500
C  -4.74100 16.92600 38.64300
H  -4.23200 16.70200 37.17200
N  -12.27300 18.01100 40.69000
C  -11.73900 19.16500 40.16200
C  -12.77400 20.13100 39.94600
C  -13.95000 19.57500 40.34300
C  -13.61200 18.15200 40.77700
C  -12.51100 21.53400 39.52900
C  -15.34000 20.26900 40.51600
O  -15.57200 21.28400 39.87500
C  -16.40400 19.70400 41.25300
N  -13.02000 15.20400 41.28700
C  -14.22300 15.74900 41.13900
C  -15.38100 14.71300 41.09900
C  -14.71800 13.43300 41.70300
C  -13.15800 13.87200 41.57800
C  -16.71600 15.22600 41.80800
C  -15.09600 12.06600 41.28000
C  -15.41100 11.00500 42.44000
N  -10.27500 14.54300 41.61100
C  -10.77100 13.31800 42.00200
C  -9.61900 12.41400 42.20500
C  -8.47400 13.12500 41.88000
C  -8.90900 14.39900 41.45000
C  -9.65400 11.02300 42.68000
C  -7.02900 13.10100 41.75900
O  -6.20900 12.18500 41.93800
C  -6.54500 14.48700 41.18000
C  -5.54700 15.17300 42.07200
O  -5.77400 16.00000 42.97000
O  -4.26200 14.80700 41.78700
C  -3.25700 15.48700 42.66900
H  -9.93800 20.35400 39.76300
H  -15.49500 17.20100 40.86400
H  -12.44500 12.03400 42.39700
H  -6.15600 17.58700 40.82200
H  -7.66400 19.44600 39.01400
H  -6.79700 20.68800 40.81400
H  -6.82300 19.40000 41.86600
H  -8.38700 20.19300 41.68200
H  -6.58300 17.87700 37.95000
H  -6.69200 16.18100 38.46000
H  -4.52700 16.06600 39.27700
H  -4.32500 17.78900 39.16500
H  -12.99100 21.70000 38.56500
H  -11.47300 21.86600 39.51500
H  -13.09100 22.20800 40.16000
H  -17.34200 20.25500 41.31800
H  -16.12100 19.34700 42.24300
H  -16.57400 18.78300 40.69500
H  -15.58800 14.59400 40.03500
H  -14.88600 13.43400 42.78000
H  -16.58000 16.14700 42.37500
H  -16.69400 14.48400 42.60600
H  -17.65600 15.11100 41.26800
H  -14.46200 11.64600 40.49900
H  -16.04100 12.13300 40.74300
H  -14.78700 11.10300 43.32800
H  -15.36200 9.96300 42.12400
H  -16.47000 11.11900 42.66700
H  -8.77300 10.88300 43.30600
H  -9.63400 10.24300 41.91900
H  -10.60100 10.89000 43.20300
H  -6.06900 14.39500 40.20300
H  -2.38100 15.71300 42.06000
H  -3.07000 14.83200 43.52000
H  -3.58400 16.47000 43.00700

