158

Mg 46.90800 16.30100 27.66900
C  45.11700 15.99700 30.68400
C  49.49500 17.88000 29.44600
C  48.55900 16.57700 24.84700
C  44.05900 14.94100 26.04600
N  47.28100 16.85800 29.86900
C  46.41700 16.60500 30.87100
C  46.98500 17.16200 32.17300
C  48.22200 18.00200 31.77600
C  48.33400 17.58600 30.28100
C  47.97300 19.53300 32.04300
C  47.17600 15.99900 33.20800
C  47.35100 16.44300 34.65300
H  47.23200 17.94900 35.08900
N  48.76200 17.06000 27.24500
C  49.67600 17.63600 28.04100
C  50.93200 17.83600 27.35600
C  50.68000 17.55800 26.02700
C  49.24300 17.07900 25.99300
C  52.16300 18.31600 28.05800
C  51.66800 17.49100 24.77300
O  51.33600 17.15900 23.65200
C  53.01100 18.02400 24.94300
N  46.30400 15.94500 25.70800
C  47.20400 16.12200 24.66700
C  46.60100 15.70800 23.31200
C  45.25300 14.99400 23.83100
C  45.21300 15.23500 25.29100
C  46.54500 16.93100 22.35900
C  45.31600 13.46700 23.49200
C  44.50200 13.17500 22.22300
N  45.02100 15.51700 28.18400
C  43.94800 15.08100 27.42600
C  42.80100 14.82800 28.23800
C  43.20900 15.13200 29.55300
C  44.54000 15.62200 29.45400
C  41.45200 14.27100 27.79000
C  42.83100 15.11800 30.84500
O  41.81000 14.56100 31.31100
C  43.98400 15.76300 31.74600
C  43.46100 16.95700 32.39900
O  43.26700 18.05600 31.88600
O  43.17400 16.62900 33.73400
C  42.81400 17.71900 34.63600
H  50.15200 18.49700 30.06400
H  49.17100 16.40200 23.95900
H  43.26700 14.49600 25.44000
H  46.16800 17.77400 32.55500
H  49.06900 17.79800 32.43100
H  48.87900 20.09500 32.27100
H  47.28200 19.66100 32.87600
H  47.52500 19.93100 31.13200
H  48.09500 15.49300 32.91300
H  46.32100 15.32400 33.16700
H  48.39000 16.23100 34.90700
H  46.64600 15.83400 35.21800
H  51.91900 19.37800 28.02400
H  53.11200 17.95600 27.66000
H  52.19100 18.14600 29.13400
H  53.46700 17.28300 25.60000
H  53.02700 19.04100 25.33500
H  53.61400 17.94000 24.03900
H  47.22500 14.94100 22.85300
H  44.55000 15.58100 23.24000
H  47.20200 17.69900 22.76700
H  45.52700 17.30600 22.25400
H  46.87900 16.71700 21.34400
H  44.87700 12.95100 24.34500
H  46.30700 13.01400 23.48500
H  45.15000 12.56600 21.59200
H  44.31600 14.09700 21.67200
H  43.54800 12.67000 22.37200
H  40.64200 14.64900 28.41300
H  41.42800 13.19200 27.93800
H  41.14500 14.38300 26.75000
H  44.09500 14.99800 32.51500
H  41.86900 18.10600 34.25400
H  43.59500 18.46700 34.49500
H  42.82400 17.53700 35.71000
Mg -12.56000 17.69700 40.89800
C  -9.48800 16.03800 40.25500
C  -11.03300 20.59200 40.14000
C  -15.68600 19.22200 40.58400
C  -14.19500 14.55900 40.53800
N  -10.49800 18.28400 40.39700
C  -9.36800 17.49600 40.24500
C  -8.03000 18.28500 40.19700
C  -8.61000 19.76300 40.44800
C  -10.14200 19.58600 40.39500
C  -8.05700 20.52300 41.71200
C  -7.42400 18.13100 38.73800
C  -5.85900 17.91100 38.49800
H  -5.39900 16.87900 37.56300
N  -13.29900 19.73300 40.62200
C  -12.44900 20.68000 40.15700
C  -13.24500 21.82100 39.80100
C  -14.57900 21.51600 40.07200
C  -14.61900 20.13600 40.49400
C  -12.61900 23.21200 39.37100
C  -15.70100 22.48300 39.83000
O  -15.57400 23.60600 39.52800
C  -17.11800 22.06600 40.11500
N  -14.56600 17.02200 40.74800
C  -15.64200 17.83500 40.77300
C  -16.99400 17.12800 40.57600
C  -16.53100 15.67700 40.27500
C  -14.99500 15.73800 40.52500
C  -18.03000 17.21500 41.73600
C  -16.77900 15.21300 38.77300
C  -18.20800 14.67700 38.41600
N  -11.96500 15.71400 40.64500
C  -12.76800 14.54000 40.56000
C  -11.89900 13.43100 40.45000
C  -10.60100 13.96500 40.33600
C  -10.71400 15.32800 40.41700
C  -12.23900 11.96300 40.52800
C  -9.13700 13.63600 40.26400
O  -8.63900 12.55200 40.01900
C  -8.36600 15.03700 40.26000
C  -7.54200 15.20600 41.45200
O  -7.95500 15.43300 42.55400
O  -6.24800 15.28900 41.00800
C  -5.21000 15.37100 42.03300
H  -10.46400 21.44700 39.77000
H  -16.69500 19.58500 40.38000
H  -14.63600 13.59000 40.29900
H  -7.34600 17.99600 40.99500
H  -8.36400 20.46000 39.64700
H  -8.41400 21.55000 41.79800
H  -6.96700 20.53600 41.69900
H  -8.44200 19.94700 42.55300
H  -7.60700 18.95600 38.04900
H  -7.87300 17.28400 38.21900
H  -5.43800 17.78200 39.49500
H  -5.49600 18.91900 38.29700
H  -12.78700 23.48000 38.32800
H  -11.59200 23.23200 39.73700
H  -13.12100 23.90800 40.04400
H  -17.46000 21.24500 39.48600
H  -17.75600 22.94000 39.99100
H  -17.27300 21.59800 41.08700
H  -17.50300 17.46000 39.67200
H  -17.08000 14.97400 40.90100
H  -18.09400 16.22800 42.19400
H  -18.95700 17.57500 41.28900
H  -17.78600 18.06200 42.37600
H  -16.09400 14.51600 38.29100
H  -16.64800 16.12200 38.18600
H  -18.73400 15.38600 37.77700
H  -18.66600 14.62800 39.40400
H  -18.07200 13.70100 37.95200
H  -11.46400 11.39600 41.04200
H  -12.28200 11.43800 39.57300
H  -13.12300 11.71300 41.11400
H  -7.72200 15.18600 39.39300
H  -5.52800 14.96600 42.99400
H  -4.97500 16.43500 42.02900
H  -4.35300 14.80200 41.67200

