158

Mg -1.72400 17.55900 25.39400
C  -2.02900 15.36000 28.01300
C  -2.08900 20.10400 27.59200
C  -2.40100 19.73600 22.76500
C  -2.05600 14.79700 23.21000
N  -1.99400 17.72100 27.53600
C  -2.05700 16.67500 28.39700
C  -2.08500 17.17100 29.86400
C  -2.30100 18.74900 29.75000
C  -2.13200 18.89700 28.23300
C  -3.64500 19.22700 30.28500
C  -0.94700 16.72000 30.78300
C  -0.38500 17.52100 31.99700
H  -0.14200 16.75100 33.36400
N  -1.88800 19.65400 25.20700
C  -2.00900 20.51400 26.27200
C  -1.90200 21.84700 25.77500
C  -1.96000 21.77600 24.32200
C  -2.11000 20.34900 24.05900
C  -2.01700 23.04800 26.73800
C  -1.92700 22.86600 23.21100
O  -2.04600 22.65900 22.02200
C  -1.57100 24.25500 23.71700
N  -2.25700 17.36500 23.24900
C  -2.46100 18.36700 22.40200
C  -2.75000 17.81500 21.06400
C  -2.40500 16.29700 21.05800
C  -2.22700 16.13200 22.57600
C  -4.23900 18.02100 20.59000
C  -1.09100 16.00600 20.24500
C  0.29300 16.14600 20.88500
N  -1.87200 15.44500 25.46800
C  -1.85300 14.45100 24.55500
C  -1.95200 13.15900 25.18300
C  -2.06000 13.42700 26.56200
C  -1.88900 14.84000 26.68300
C  -2.14400 11.87300 24.52900
C  -2.22300 12.83700 27.82200
O  -2.31600 11.65900 28.15700
C  -2.25700 14.09000 28.86800
C  -1.35600 13.74000 29.98900
O  -0.15100 13.73800 29.96300
O  -2.13300 13.29700 31.08000
C  -1.38100 12.74300 32.20500
H  -2.21800 20.94900 28.27200
H  -2.62600 20.37100 21.90500
H  -2.11900 13.91400 22.57100
H  -2.99700 16.76100 30.29700
H  -1.45500 19.27500 30.19100
H  -4.33500 18.45600 30.62800
H  -4.24900 19.72500 29.52600
H  -3.49700 20.02500 31.01300
H  -0.16600 16.42000 30.08400
H  -1.26600 15.80000 31.27200
H  -0.96700 18.40800 32.24700
H  0.62000 17.78300 31.66500
H  -3.00600 23.48100 26.59200
H  -1.31700 23.85800 26.53300
H  -1.83800 22.83600 27.79300
H  -0.58600 24.01400 24.11800
H  -2.29500 24.56300 24.47100
H  -1.57300 24.84500 22.80000
H  -2.13600 18.39800 20.37800
H  -3.24000 15.68400 20.71700
H  -4.38800 19.03200 20.21000
H  -4.95700 17.84400 21.39000
H  -4.46000 17.25900 19.84200
H  -1.03000 16.75600 19.45600
H  -1.16200 15.06500 19.70000
H  0.91500 16.68600 20.17200
H  0.63000 15.11000 20.93500
H  0.40000 16.72000 21.80500
H  -2.07000 11.92400 23.44300
H  -3.10700 11.44200 24.80000
H  -1.46100 11.12900 24.93800
H  -3.29300 14.14400 29.20000
H  -1.33200 13.58500 32.89500
H  -0.35100 12.47100 31.97400
H  -1.83800 11.90200 32.72700
Mg 8.33500 48.17100 28.00400
C  6.54500 47.69900 30.97600
C  11.16000 48.44000 29.80600
C  9.88800 48.99600 25.16800
C  5.20500 48.81700 26.31200
N  8.77400 47.99700 30.19900
C  7.92500 47.76100 31.28700
C  8.66400 47.70200 32.66400
C  10.13900 48.14400 32.22200
C  10.05800 48.27200 30.64000
C  10.68800 49.50900 32.76400
C  8.59100 46.40100 33.51300
C  8.54700 46.64300 35.09900
H  9.18000 45.52600 35.92900
N  10.22700 48.53000 27.58700
C  11.30600 48.54100 28.46800
C  12.57600 48.58000 27.76800
C  12.21700 48.76000 26.40600
C  10.73600 48.74700 26.29300
C  13.91600 48.41800 28.46600
C  13.10900 48.96500 25.16000
O  12.69400 49.20200 24.03900
C  14.53400 48.93600 25.17000
N  7.65100 48.73100 26.05600
C  8.48800 48.92900 25.04400
C  7.74000 49.24800 23.72500
C  6.27200 49.07600 24.07000
C  6.38500 48.83400 25.51000
C  8.11100 50.62000 22.95400
C  5.55000 47.94600 23.32800
C  5.67000 47.91000 21.81200
N  6.29000 48.16200 28.42700
C  5.17300 48.52700 27.66000
C  4.04000 48.35200 28.49800
C  4.52700 48.08800 29.80200
C  5.91400 47.98300 29.73300
C  2.60300 48.28300 27.95300
C  4.09400 47.85200 31.16200
O  2.97600 47.79700 31.68400
C  5.38500 47.52800 31.94200
C  5.35000 46.22400 32.54700
O  5.55700 45.16300 31.95500
O  5.07400 46.29500 33.89700
C  4.83600 45.05400 34.57000
H  12.07500 48.24900 30.37100
H  10.32300 49.31900 24.21900
H  4.26700 49.04000 25.79900
H  8.19900 48.42100 33.33800
H  10.78300 47.31500 32.51500
H  11.43000 49.28600 33.53000
H  9.96300 50.12400 33.29700
H  11.26100 50.10000 32.05000
H  9.38400 45.66600 33.37500
H  7.69400 45.85300 33.22100
H  7.50600 46.67300 35.42200
H  8.99900 47.61300 35.31000
H  14.35400 47.51000 28.05100
H  13.90500 48.35500 29.55400
H  14.52700 49.29100 28.23600
H  14.90000 49.63800 25.91800
H  15.01900 49.26500 24.25200
H  14.82000 47.90900 25.39800
H  7.95700 48.44700 23.01800
H  5.91300 50.06600 23.78900
H  8.47900 50.33900 21.96800
H  8.84800 51.23600 23.46900
H  7.24500 51.27900 22.88800
H  4.47300 48.03800 23.46700
H  5.74200 46.95000 23.72700
H  6.03800 46.94200 21.47400
H  6.41900 48.67400 21.60300
H  4.70500 48.15200 21.36600
H  2.07300 49.23500 27.95300
H  1.95700 47.60600 28.51200
H  2.58600 48.05300 26.88800
H  5.55300 48.24700 32.74400
H  4.76300 45.36200 35.61300
H  5.64600 44.32600 34.52500
H  3.90300 44.61200 34.22000

