158

Mg 1.28300 -2.83000 44.01800
C  4.55800 -2.30000 43.27200
C  0.35500 -0.13800 42.04100
C  -1.93300 -3.62700 44.41800
C  2.28100 -5.76600 45.71500
N  2.33100 -1.46200 42.75900
C  3.67100 -1.38900 42.72200
C  4.13500 -0.29700 41.75700
C  2.76500 0.54400 41.52500
C  1.74600 -0.42300 42.09400
C  2.77100 1.88900 42.30100
C  4.75500 -0.82400 40.44000
C  5.91500 0.04900 39.97400
H  5.80400 0.59100 38.52500
N  -0.59100 -2.01300 43.19800
C  -0.76400 -0.86900 42.46900
C  -2.16300 -0.60400 42.23400
C  -2.89400 -1.62200 42.96400
C  -1.83000 -2.52300 43.51500
C  -2.64800 0.60400 41.58300
C  -4.44400 -1.65500 43.17100
O  -5.20600 -0.79700 42.72000
C  -5.20300 -2.72000 43.96600
N  0.33200 -4.51300 44.95900
C  -1.02000 -4.53800 44.98000
C  -1.52000 -5.85200 45.66900
C  -0.13300 -6.51100 46.18800
C  0.92700 -5.60300 45.64200
C  -2.82700 -5.75900 46.63200
C  0.10300 -7.92200 45.62800
C  0.84500 -8.92500 46.56400
N  3.08200 -3.79200 44.55800
C  3.33300 -4.97400 45.28300
C  4.74500 -5.23800 45.31800
C  5.26300 -4.14700 44.60200
C  4.22000 -3.34300 44.11700
C  5.38300 -6.40700 46.03000
C  6.49000 -3.54100 44.25300
O  7.65300 -3.79900 44.64100
C  6.12100 -2.36200 43.24900
C  6.75200 -1.02600 43.66400
O  7.40500 -0.31500 42.85100
O  6.49500 -0.64500 44.98900
C  6.84000 0.70900 45.31800
H  0.00800 0.67800 41.40400
H  -2.98700 -3.90600 44.47500
H  2.53100 -6.68800 46.24500
H  4.86900 0.37600 42.20000
H  2.52600 0.81300 40.49600
H  3.72800 2.03700 42.80100
H  1.94700 1.84700 43.01200
H  2.67500 2.71700 41.59800
H  3.96500 -0.77400 39.69100
H  5.15600 -1.82300 40.61200
H  6.82400 -0.55000 40.03000
H  6.10900 0.90900 40.61500
H  -3.72100 0.77700 41.49600
H  -2.10000 0.65200 40.64200
H  -2.25400 1.48800 42.08400
H  -4.80900 -3.04300 44.92900
H  -5.16300 -3.61500 43.34500
H  -6.26600 -2.50400 44.07800
H  -2.02200 -6.36900 44.85100
H  -0.05500 -6.38100 47.26700
H  -2.49000 -6.23700 47.55200
H  -3.71600 -6.19400 46.17600
H  -2.92500 -4.70000 46.87200
H  0.72300 -7.78200 44.74200
H  -0.89900 -8.29800 45.41800
H  0.18600 -9.65600 47.03200
H  1.09200 -8.34500 47.45400
H  1.72900 -9.38800 46.12500
H  6.24900 -6.04200 46.58300
H  5.61500 -7.25700 45.38800
H  4.74700 -6.67900 46.87200
H  6.47100 -2.63700 42.25400
H  6.03100 0.86600 46.03200
H  6.65100 1.41800 44.51300
H  7.80700 0.72700 45.82100
Mg 7.98800 53.00200 40.99700
C  7.64400 49.55400 40.63600
C  11.17900 52.70200 39.91500
C  8.03300 56.34300 40.65100
C  4.62100 53.11100 41.86500
N  9.13500 51.31400 40.08900
C  8.89700 49.97200 40.15000
C  9.99400 49.19600 39.50700
C  11.22600 50.11900 39.91900
C  10.48800 51.50700 39.94200
C  12.05000 49.81900 41.24400
C  9.84700 49.09800 37.89600
C  9.96800 47.70000 37.27100
H  8.78500 47.20800 36.31400
N  9.44200 54.44000 40.33100
C  10.69800 54.07800 39.96800
C  11.45900 55.24200 39.75500
C  10.56900 56.37500 39.91200
C  9.30500 55.76500 40.38800
C  12.97600 55.23300 39.27900
C  11.02200 57.81400 39.63100
O  12.17200 58.02500 39.19700
C  10.12700 59.05200 39.86600
N  6.56900 54.54600 41.24600
C  6.80100 55.81700 40.89700
C  5.60200 56.72500 41.14500
C  4.46100 55.69800 41.45600
C  5.24700 54.39200 41.54900
C  5.87200 57.71200 42.27600
C  3.27900 55.63700 40.49400
C  3.70700 55.10500 39.17700
N  6.43100 51.64000 41.27500
C  5.16000 51.82200 41.77600
C  4.50300 50.59300 42.00300
C  5.49700 49.65500 41.59200
C  6.59300 50.36500 41.14000
C  3.11800 50.41800 42.61500
C  5.82600 48.23800 41.61100
O  5.26600 47.28200 42.10900
C  7.18700 48.17800 40.93500
C  7.07000 47.43800 39.61800
O  6.68800 47.86800 38.52500
O  7.35000 46.10200 39.85200
C  6.88900 45.08800 38.90200
H  12.20900 52.44000 39.66500
H  7.99200 57.40800 40.41200
H  3.58900 53.19700 42.21300
H  10.05400 48.19900 39.94400
H  11.94900 50.02200 39.10900
H  11.50000 49.09500 41.84500
H  12.23800 50.69800 41.86100
H  12.93900 49.39900 40.77300
H  10.56300 49.77200 37.42700
H  8.86300 49.50100 37.65400
H  10.11200 46.95200 38.05100
H  10.74100 47.64400 36.50500
H  12.99400 55.92200 38.43400
H  13.41200 54.24900 39.10500
H  13.51000 55.62800 40.14300
H  9.49900 58.96900 40.75200
H  9.46000 59.12400 39.00700
H  10.69000 59.98400 39.89000
H  5.29400 57.15800 40.19300
H  4.14600 55.93000 42.47300
H  6.70000 57.38600 42.90600
H  4.95700 57.81000 42.85900
H  6.26900 58.66100 41.91600
H  2.84900 56.58700 40.17500
H  2.39900 55.12700 40.88400
H  3.15400 55.53600 38.34200
H  3.62100 54.01900 39.22500
H  4.75400 55.34000 38.98900
H  2.49200 51.19400 42.17600
H  3.18400 50.54600 43.69600
H  2.63600 49.46300 42.40800
H  7.73300 47.64100 41.71100
H  7.76500 44.78400 38.33000
H  6.13400 45.36600 38.16700
H  6.53200 44.16200 39.35300

