158

Mg 50.68100 45.29200 42.34700
C  47.79900 47.03000 41.03900
C  49.54600 42.39100 40.98000
C  53.74600 44.03200 42.58000
C  51.94400 48.55600 42.98000
N  48.95900 44.83700 41.11300
C  47.82200 45.65500 40.81300
C  46.67400 44.82400 40.15300
C  47.08800 43.31600 40.36000
C  48.65600 43.52100 40.84800
C  46.31200 42.49800 41.45700
C  46.44000 45.08600 38.65500
C  44.99700 45.02800 38.16200
H  44.63700 43.86500 37.27100
N  51.53400 43.40200 41.90000
C  50.83200 42.34700 41.42500
C  51.76700 41.25900 41.38400
C  53.01700 41.72600 41.77500
C  52.83400 43.12500 42.03600
C  51.41400 39.94800 40.83600
C  54.26100 40.93600 41.81100
O  54.23000 39.70300 41.68100
C  55.63200 41.48300 41.93800
N  52.49800 46.14700 42.81800
C  53.66900 45.38100 42.93700
C  54.89400 46.18400 43.36500
C  54.28300 47.59500 43.67000
C  52.85300 47.44400 43.08900
C  55.59400 45.51500 44.52300
C  55.01300 48.81500 42.97300
C  55.13700 50.06300 43.78600
N  49.96800 47.37600 42.23800
C  50.62600 48.56000 42.52100
C  49.82900 49.68800 42.23900
C  48.62500 49.12100 41.76200
C  48.80400 47.76300 41.74100
C  50.28900 51.18100 42.33600
C  47.44100 49.45800 41.05700
O  47.05400 50.61100 40.80200
C  46.82800 48.11500 40.55400
C  45.52100 48.11600 41.22000
O  45.28600 48.38800 42.41800
O  44.53700 47.99000 40.26400
C  43.17300 48.12000 40.67500
H  49.06700 41.43300 40.77000
H  54.79400 43.72700 42.60300
H  52.37100 49.50900 43.29800
H  45.83500 45.03200 40.81700
H  47.11900 42.68800 39.47000
H  45.34900 42.94200 41.70700
H  46.82400 42.43000 42.41700
H  46.01300 41.53400 41.04300
H  46.99000 44.33300 38.09000
H  46.86300 46.00900 38.25800
H  44.83300 45.95300 37.60900
H  44.32400 44.92900 39.01400
H  52.00700 39.63000 39.97900
H  50.37900 39.90100 40.49900
H  51.36100 39.09000 41.50600
H  55.61900 41.98500 42.90500
H  55.74900 42.24300 41.16600
H  56.48700 40.81300 41.84600
H  55.58300 46.21700 42.52100
H  54.06500 47.65500 44.73600
H  55.84100 46.28800 45.25200
H  56.51700 45.02400 44.21900
H  54.94800 44.78600 45.01300
H  54.43100 49.10100 42.09700
H  56.04400 48.52300 42.77200
H  56.11200 50.11900 44.27100
H  54.30100 49.98300 44.48000
H  54.91000 50.90600 43.13300
H  50.47600 51.49300 43.36400
H  49.55300 51.80500 41.83000
H  51.24900 51.19700 41.82000
H  46.77800 48.10500 39.46600
H  42.87400 47.16100 41.09700
H  42.52100 48.30800 39.82200
H  43.00600 48.97900 41.32500
Mg -5.03600 26.00200 26.83100
C  -3.43800 27.53500 29.60800
C  -6.53100 23.74900 29.16800
C  -5.91400 24.04100 24.36400
C  -2.92400 27.81000 24.74400
N  -4.95800 25.76000 29.07300
C  -4.35700 26.57200 29.98800
C  -4.75800 26.14900 31.46800
C  -5.39400 24.79200 31.28000
C  -5.68900 24.80700 29.72300
C  -4.54200 23.58900 31.77300
C  -5.74400 27.22300 31.97200
C  -5.76700 27.39100 33.44800
H  -5.41700 26.23800 34.45000
N  -6.23400 24.27800 26.76700
C  -6.85300 23.56000 27.80000
C  -7.74800 22.55500 27.24300
C  -7.59800 22.64500 25.78000
C  -6.56100 23.67900 25.59400
C  -8.62200 21.70800 28.12700
C  -8.38100 21.98800 24.72500
O  -8.24400 22.24300 23.50600
C  -9.44100 21.00100 25.14100
N  -4.39800 25.81700 24.90300
C  -4.97700 24.92300 24.03500
C  -4.41200 25.19700 22.59000
C  -3.54800 26.51600 22.69100
C  -3.60600 26.70700 24.19700
C  -3.69800 24.01100 22.04100
C  -4.08900 27.65800 21.88100
C  -3.03500 28.38700 20.89100
N  -3.61200 27.50700 27.06700
C  -2.87900 28.20100 26.10300
C  -1.92500 29.13900 26.70500
C  -2.23300 28.90000 28.08700
C  -3.22500 27.91400 28.32000
C  -0.89100 29.94900 26.05600
C  -1.76900 29.29800 29.39700
O  -1.02600 30.16100 29.71700
C  -2.69300 28.53300 30.40500
C  -1.73900 27.84600 31.37700
O  -0.78300 27.15200 31.04600
O  -2.29500 28.02900 32.67500
C  -1.65400 27.56300 33.90100
H  -7.25500 23.24300 29.81000
H  -6.32800 23.36900 23.60800
H  -2.24000 28.40000 24.13100
H  -3.87600 26.02500 32.09600
H  -6.35900 24.80200 31.78800
H  -4.79200 22.73200 31.14700
H  -4.70300 23.35100 32.82400
H  -3.45900 23.71400 31.77200
H  -6.72900 26.93300 31.60600
H  -5.51200 28.16300 31.47100
H  -6.77600 27.70500 33.71700
H  -5.05500 28.17100 33.71800
H  -8.22700 20.70500 28.29000
H  -9.67400 21.60100 27.86100
H  -8.68200 22.16300 29.11500
H  -8.95600 20.08400 25.47500
H  -10.02800 20.78800 24.24700
H  -10.17400 21.46000 25.80500
H  -5.29200 25.38600 21.97500
H  -2.49500 26.27700 22.54300
H  -2.63400 24.23400 22.11900
H  -3.89700 24.02500 20.97000
H  -3.97900 23.09700 22.56500
H  -4.48100 28.45700 22.50900
H  -4.90300 27.30800 21.24600
H  -3.36000 28.29300 19.85500
H  -2.00700 28.02300 20.89700
H  -2.97200 29.46200 21.06100
H  -0.53900 30.80100 26.63800
H  -1.25800 30.18400 25.05700
H  0.04300 29.39800 25.95100
H  -3.36600 29.24400 30.88500
H  -1.00300 26.72700 33.64800
H  -2.47500 27.15400 34.48900
H  -1.21100 28.44100 34.37100

