158

Mg 8.04000 3.21100 27.11500
C  9.45400 1.65500 29.98000
C  6.20100 5.19500 29.43200
C  6.19400 4.32000 24.57500
C  9.43900 0.76800 25.13000
N  7.94900 3.50600 29.43800
C  8.66800 2.78100 30.37300
C  8.47100 3.26200 31.85200
C  7.41900 4.47700 31.61700
C  7.12600 4.36000 30.09700
C  6.17400 4.57500 32.50400
C  9.76300 3.69000 32.60800
C  9.72600 4.75000 33.72500
H  10.65400 4.54400 34.98700
N  6.54100 4.55100 27.03700
C  5.95800 5.35200 28.05200
C  5.09900 6.32300 27.45600
C  5.25500 6.20600 26.05800
C  6.02400 5.03000 25.84200
C  4.29800 7.27800 28.30400
C  4.70000 7.05400 24.93000
O  5.00600 6.93400 23.74400
C  3.82600 8.23200 25.28600
N  7.98700 2.67900 25.03800
C  7.08500 3.28800 24.20500
C  7.44200 2.84100 22.72000
C  8.62500 1.81100 22.87900
C  8.68300 1.72200 24.40400
C  6.28500 2.26500 21.87900
C  9.95800 2.21600 22.27200
C  10.92600 1.09300 21.94500
N  9.16100 1.56700 27.43300
C  9.64600 0.67600 26.53600
C  10.48200 -0.31800 27.25400
C  10.44800 0.07100 28.60800
C  9.66500 1.24600 28.65200
C  10.98200 -1.60900 26.73200
C  11.00600 -0.27600 29.92000
O  11.75200 -1.20700 30.24000
C  10.32600 0.80700 30.89800
C  9.55200 0.15100 31.94200
O  8.54300 -0.53900 31.71400
O  10.03500 0.44600 33.20200
C  9.27400 0.01400 34.41800
H  5.64900 5.82200 30.13500
H  5.56400 4.66000 23.75100
H  9.92200 -0.05300 24.59500
H  8.08200 2.38100 32.36300
H  7.89100 5.45300 31.72600
H  6.07300 5.54500 32.99100
H  6.28300 3.80200 33.26400
H  5.27900 4.32200 31.93500
H  10.36500 4.14500 31.82200
H  10.38100 2.87500 32.98500
H  8.73500 4.81600 34.17400
H  10.03600 5.69600 33.28000
H  4.00200 6.83600 29.25500
H  3.30100 7.30600 27.86400
H  4.81100 8.22700 28.46000
H  3.24700 8.41800 24.38200
H  4.33600 9.16500 25.52500
H  2.97100 8.16800 25.95900
H  7.67300 3.82300 22.30600
H  8.31700 0.82000 22.54600
H  5.41100 2.74000 22.32500
H  6.18200 1.18000 21.89100
H  6.31700 2.49000 20.81300
H  10.41500 2.96000 22.92400
H  9.68800 2.74800 21.36000
H  10.38800 0.14500 21.92200
H  11.69100 0.99200 22.71400
H  11.41400 1.23100 20.98000
H  10.44500 -1.92600 25.83800
H  10.95400 -2.45700 27.41700
H  12.02800 -1.36700 26.54400
H  11.18000 1.36700 31.27800
H  10.01900 -0.54900 34.98000
H  8.48500 -0.70500 34.19900
H  8.93400 0.87000 35.00200
Mg -1.93200 34.23400 26.49100
C  -3.36200 32.38400 29.24900
C  -0.04600 36.00700 28.94300
C  -0.43000 35.77200 24.05600
C  -3.82800 32.30700 24.39100
N  -1.76800 34.22400 28.86400
C  -2.38500 33.32200 29.72400
C  -2.06300 33.67300 31.21200
C  -1.07100 34.88700 31.10800
C  -0.92700 35.06600 29.54100
C  -1.58100 36.24900 31.72800
C  -1.49400 32.52100 32.00800
C  -0.88000 32.76000 33.47100
H  -1.31200 31.98700 34.76500
N  -0.51200 35.67900 26.48500
C  0.19300 36.29300 27.53400
C  1.13800 37.26800 26.99700
C  0.94300 37.28500 25.64800
C  -0.08200 36.22900 25.30600
C  2.09700 38.08000 27.86700
C  1.65400 38.13900 24.60900
O  1.29100 38.06300 23.40400
C  2.81900 38.91000 25.06200
N  -2.09300 34.10200 24.45900
C  -1.39700 34.86900 23.62200
C  -1.74900 34.53700 22.10300
C  -2.85900 33.46400 22.27700
C  -2.95100 33.23800 23.83000
C  -2.11400 35.76900 21.25600
C  -2.70300 32.18900 21.32000
C  -1.82100 31.08900 21.86700
N  -3.40300 32.76100 26.69200
C  -4.05400 32.03600 25.75200
C  -4.85000 31.06400 26.33900
C  -4.66400 31.14800 27.71300
C  -3.80700 32.26800 27.91500
C  -5.86400 30.12800 25.67300
C  -4.99600 30.63400 28.97000
O  -5.76100 29.80200 29.28700
C  -4.20300 31.41200 30.08900
C  -5.10200 32.08800 31.13300
O  -5.85100 33.07200 30.87200
O  -5.13400 31.44800 32.26300
C  -6.05800 32.06400 33.33200
H  0.32100 36.73900 29.66500
H  0.00000 36.30300 23.20400
H  -4.44600 31.69100 23.73400
H  -3.01000 33.88000 31.71000
H  -0.11100 34.80700 31.61900
H  -2.19200 36.78700 31.00300
H  -0.75400 36.83300 32.13300
H  -2.15000 35.96300 32.61200
H  -0.58200 32.23000 31.48900
H  -2.16300 31.66100 32.00200
H  -1.09900 33.80400 33.69500
H  0.19400 32.58800 33.54900
H  3.09600 38.33300 27.51200
H  2.23700 37.46100 28.75300
H  1.61200 39.03600 28.06500
H  2.46900 39.61900 25.81200
H  3.28700 39.41300 24.21600
H  3.66300 38.35700 25.47500
H  -0.89400 34.03900 21.64500
H  -3.77900 33.99300 22.02900
H  -1.23200 36.37200 21.04000
H  -2.79500 36.38600 21.84200
H  -2.55900 35.50700 20.29600
H  -2.57300 32.42400 20.26300
H  -3.71000 31.78400 21.41600
H  -2.38100 30.19000 22.12600
H  -1.32300 31.46300 22.76200
H  -1.11400 30.91900 21.05500
H  -5.20200 29.60100 24.98600
H  -6.60200 30.76200 25.18300
H  -6.31000 29.55400 26.48500
H  -3.56800 30.60200 30.44800
H  -6.86200 32.58100 32.80700
H  -5.49700 32.66000 34.05200
H  -6.56300 31.25100 33.85300

