158

Mg -1.76000 17.50400 27.61000
C  -2.37700 15.23600 30.13700
C  -2.22600 20.15400 29.62700
C  -1.36300 19.50800 24.77800
C  -1.82100 14.69800 25.33600
N  -2.31100 17.64100 29.64000
C  -2.32800 16.58000 30.51800
C  -2.53300 17.14900 31.95600
C  -2.64500 18.74900 31.71500
C  -2.32000 18.88800 30.23000
C  -4.01400 19.46500 32.15400
C  -1.47000 16.80700 33.05400
C  -1.65000 17.46600 34.46700
H  -1.26000 16.69500 35.68500
N  -1.69500 19.54700 27.25000
C  -1.90200 20.52000 28.25200
C  -1.79200 21.76600 27.66300
C  -1.55300 21.66100 26.30200
C  -1.60100 20.22300 26.01800
C  -1.98700 23.08200 28.48900
C  -1.50100 22.74100 25.28300
O  -1.44600 22.48600 24.06400
C  -1.44300 24.16900 25.68400
N  -1.78100 17.12600 25.37000
C  -1.53800 18.16400 24.49900
C  -1.20800 17.61500 23.15500
C  -0.99500 16.10100 23.38300
C  -1.59200 15.90700 24.79900
C  -2.43200 17.87500 22.17300
C  0.48300 15.65600 23.22000
C  1.53200 15.82600 24.31000
N  -2.02400 15.40800 27.71700
C  -1.97800 14.41800 26.70600
C  -2.24800 13.09900 27.31000
C  -2.55600 13.39700 28.63100
C  -2.34200 14.76900 28.85000
C  -2.29700 11.80900 26.64700
C  -2.97600 12.82300 29.88000
O  -3.19300 11.68900 30.18700
C  -2.77700 14.03300 30.92700
C  -1.77200 13.53800 31.87500
O  -0.63200 13.45500 31.65800
O  -2.47500 13.31500 33.05200
C  -1.62600 12.94400 34.18600
H  -2.33300 20.90300 30.41500
H  -1.10400 20.14000 23.92600
H  -1.70700 13.80200 24.72200
H  -3.47700 16.85300 32.41500
H  -1.82300 19.18500 32.28200
H  -4.51000 18.91500 32.95400
H  -4.60800 19.47600 31.24000
H  -3.72900 20.46200 32.49300
H  -0.48100 17.17800 32.78500
H  -1.46300 15.71700 33.05300
H  -2.65800 17.87800 34.50800
H  -0.94000 18.29300 34.47000
H  -2.83200 23.67000 28.12900
H  -1.10400 23.72200 28.46600
H  -2.19500 22.97800 29.55300
H  -1.47800 24.76500 24.77100
H  -0.56500 24.32500 26.31000
H  -2.31200 24.39000 26.30400
H  -0.37000 18.16600 22.72800
H  -1.65700 15.51500 22.74400
H  -3.05100 16.97800 22.12900
H  -2.10400 18.18400 21.18100
H  -2.96000 18.74700 22.55900
H  0.85900 16.13000 22.31400
H  0.45400 14.59600 22.96900
H  0.97100 15.88400 25.24300
H  1.81600 16.86500 24.14000
H  2.43000 15.22000 24.42700
H  -2.92800 11.16900 27.26400
H  -1.26900 11.44700 26.65600
H  -2.70500 11.66700 25.64700
H  -3.76600 14.23100 31.34000
H  -2.28000 12.71100 35.02600
H  -0.93300 13.74500 34.44300
H  -0.99000 12.12800 33.84300
Mg 6.59600 53.99400 40.29400
C  6.16600 50.49400 40.01900
C  9.74800 53.56900 39.09800
C  6.64800 57.24800 39.86400
C  3.09300 54.13600 40.85700
N  7.70800 52.23300 39.45200
C  7.33600 50.92800 39.44200
C  8.56300 50.06600 39.27000
C  9.77000 51.04800 39.23200
C  9.06200 52.36300 39.29700
C  10.76600 50.80600 40.36000
C  8.55500 49.32300 37.92600
C  8.45200 50.13900 36.66900
H  7.48300 49.74100 35.51000
N  8.06200 55.27700 39.71200
C  9.32800 54.88400 39.25500
C  10.09800 56.06400 39.05300
C  9.20900 57.15600 39.27500
C  7.92300 56.59200 39.60900
C  11.54800 56.11300 38.58200
C  9.64300 58.60400 39.32200
O  10.75500 58.89900 38.92400
C  8.74300 59.71900 39.80200
N  5.03500 55.42800 40.29500
C  5.40200 56.76400 40.20800
C  4.18600 57.67500 40.38200
C  3.00400 56.61000 40.51800
C  3.73800 55.28000 40.53100
C  4.42600 58.60900 41.70600
C  1.85000 56.62200 39.39900
C  0.57900 57.41700 39.64600
N  4.89400 52.65100 40.43100
C  3.58800 52.83200 40.96100
C  3.05200 51.53100 41.31800
C  3.99700 50.60400 40.91500
C  5.07700 51.32100 40.42300
C  1.75100 51.29200 42.01400
C  4.29100 49.23300 40.82700
O  3.49900 48.30700 41.10900
C  5.66000 49.02700 40.26100
C  5.44900 48.11400 39.08900
O  4.77000 48.33700 38.06500
O  6.25700 47.05700 39.13500
C  6.06700 46.05500 38.05800
H  10.78000 53.43500 38.76900
H  6.50700 58.33000 39.83000
H  2.03800 54.29700 41.08700
H  8.72200 49.38900 40.10900
H  10.39800 51.10600 38.34300
H  10.74600 49.76900 40.69300
H  10.54500 51.58000 41.09600
H  11.79400 50.97600 40.04000
H  7.65700 48.71200 37.83600
H  9.40200 48.64800 37.80300
H  9.47700 50.31500 36.34500
H  8.08800 51.11600 36.98700
H  11.91300 55.22100 38.07300
H  12.23700 56.46100 39.35100
H  11.64000 56.85600 37.78900
H  7.81600 59.83500 39.24200
H  9.28500 60.62400 39.52800
H  8.54100 59.56500 40.86200
H  4.07700 58.27100 39.47500
H  2.55500 56.68900 41.50800
H  4.37300 59.63700 41.34700
H  5.33500 58.40300 42.27100
H  3.61300 58.42200 42.40800
H  1.52500 55.60500 39.17800
H  2.26100 56.92700 38.43700
H  0.32800 58.18600 38.91600
H  0.57900 58.04700 40.53600
H  -0.17900 56.64600 39.51400
H  1.09700 50.76400 41.32000
H  1.33000 52.20400 42.43600
H  1.96100 50.72700 42.92200
H  6.19500 48.45500 41.02000
H  6.73000 46.20700 37.20600
H  5.08600 46.07400 37.58400
H  6.29400 45.05600 38.43200

