158

Mg -0.00400 7.73800 26.54500
C  1.00900 9.86500 28.98200
C  -0.27300 5.17100 28.78300
C  -0.91500 5.63200 24.01800
C  0.68100 10.32900 24.19500
N  0.47900 7.57600 28.69900
C  0.66300 8.60000 29.52800
C  0.59700 8.13200 30.96400
C  0.58100 6.54600 30.88500
C  0.31100 6.38400 29.35400
C  1.84500 5.73700 31.37700
C  -0.65800 8.76500 31.61400
C  -0.73400 8.80900 33.17100
H  0.53000 8.52800 34.03700
N  -0.63400 5.71400 26.43400
C  -0.74000 4.83700 27.46300
C  -1.37300 3.58200 27.02800
C  -1.59300 3.80100 25.66200
C  -1.02900 5.09200 25.28600
C  -1.55400 2.31300 27.88800
C  -2.24000 2.75600 24.62800
O  -2.28400 2.90100 23.37400
C  -2.87600 1.46100 25.14500
N  -0.05400 7.87000 24.38600
C  -0.44900 6.87400 23.54400
C  -0.35100 7.28400 22.06800
C  0.27900 8.70600 22.11500
C  0.33800 9.01400 23.61000
C  0.29600 6.33600 21.04400
C  -0.47400 9.79100 21.41100
C  -1.87600 10.06700 21.95700
N  0.92800 9.64600 26.51300
C  0.95600 10.61400 25.52800
C  1.36900 11.90300 26.05900
C  1.47800 11.64000 27.45700
C  1.20500 10.26500 27.60900
C  1.84900 13.19500 25.38700
C  1.77400 12.25500 28.77100
O  2.13200 13.41000 29.17100
C  1.46500 11.09600 29.74300
C  2.63000 10.82900 30.53300
O  3.59800 10.12100 30.27400
O  2.48200 11.63600 31.61100
C  3.46900 11.34700 32.63200
H  -0.45900 4.35900 29.48900
H  -1.35700 5.05700 23.20100
H  0.64600 11.22300 23.56900
H  1.41500 8.54500 31.55400
H  -0.37700 6.23300 31.30200
H  1.49600 4.87900 31.95200
H  2.46400 6.43900 31.93700
H  2.32900 5.30600 30.50100
H  -1.50700 8.23900 31.17700
H  -0.80400 9.74600 31.16400
H  -1.51500 8.12000 33.49100
H  -1.04800 9.83000 33.38900
H  -1.00200 2.48700 28.81200
H  -1.08700 1.47900 27.36500
H  -2.58600 2.06400 28.13500
H  -3.22000 0.93600 24.25400
H  -3.78000 1.82600 25.63200
H  -2.18000 0.78300 25.63900
H  -1.36400 7.35900 21.67200
H  1.32300 8.85400 21.83900
H  0.79300 6.96700 20.30800
H  -0.50900 5.79000 20.55200
H  0.95200 5.62300 21.54300
H  -0.78500 9.44700 20.42500
H  0.06300 10.73900 21.37400
H  -2.59700 10.08000 21.14000
H  -1.85700 11.13000 22.19700
H  -2.21100 9.39900 22.75100
H  0.99800 13.62800 24.86200
H  2.52900 12.86100 24.60400
H  2.37800 13.83200 26.09700
H  0.60600 11.35500 30.36100
H  4.47600 11.46100 32.23100
H  3.46600 10.34200 33.05400
H  3.35500 12.01400 33.48700
Mg 41.59000 8.93100 29.66000
C  43.49100 10.09800 32.18200
C  39.46200 7.30500 31.94800
C  39.85700 7.82900 27.04800
C  44.11600 10.15500 27.36000
N  41.38800 8.75300 31.73900
C  42.32200 9.33900 32.58800
C  41.95000 9.12900 34.07900
C  40.82400 8.05800 33.99800
C  40.50900 8.04300 32.48300
C  41.32100 6.64500 34.37700
C  41.45800 10.51800 34.62400
C  40.82400 10.52100 36.12600
H  41.56000 11.31000 37.22900
N  39.90300 7.80200 29.54600
C  39.21600 7.15100 30.57300
C  38.03600 6.44100 30.01000
C  38.01700 6.78300 28.59300
C  39.34100 7.44400 28.33000
C  36.99200 5.66900 30.80500
C  37.04200 6.48700 27.60900
O  37.23100 6.76200 26.41200
C  35.70300 5.90200 27.90900
N  42.13100 8.75100 27.54700
C  41.11000 8.43700 26.73100
C  41.42300 8.62400 25.18200
C  42.81400 9.28000 25.29800
C  43.08400 9.41700 26.85300
C  41.42900 7.33000 24.33000
C  43.12500 10.53900 24.45900
C  42.66200 11.91900 24.84100
N  43.42100 9.96500 29.70500
C  44.27500 10.47100 28.74200
C  45.32400 11.26200 29.35700
C  45.02200 11.22900 30.73700
C  43.95200 10.33500 30.86900
C  46.45400 11.96600 28.62700
C  45.40700 11.69300 32.04600
O  46.26000 12.53100 32.30700
C  44.48100 10.97000 33.04200
C  45.14100 10.10100 34.07600
O  45.88000 9.15200 33.83900
O  44.83300 10.48100 35.39800
C  45.23100 9.58100 36.50000
H  38.84200 6.71200 32.62300
H  39.30300 7.67200 26.12000
H  44.89700 10.53200 26.69700
H  42.82500 8.74400 34.60200
H  39.99400 8.25700 34.67600
H  41.00600 5.89000 33.65700
H  40.71400 6.41600 35.25200
H  42.40000 6.56700 34.50800
H  40.75100 11.01500 33.95900
H  42.34400 11.14000 34.74600
H  40.82300 9.50700 36.52600
H  39.78600 10.85100 36.09100
H  37.18000 5.57400 31.87400
H  36.82900 4.65900 30.42900
H  35.99800 6.11600 30.82300
H  35.11300 6.60300 28.50000
H  35.73900 4.99700 28.51400
H  35.34100 5.65500 26.91100
H  40.75900 9.33900 24.69700
H  43.57800 8.53300 25.08000
H  40.64400 7.31600 23.57400
H  41.14400 6.52600 25.00800
H  42.42800 7.14900 23.93300
H  42.63300 10.36100 23.50200
H  44.21200 10.45500 24.45800
H  43.54000 12.56600 24.83900
H  42.21100 11.91600 25.83300
H  42.00800 12.50000 24.19000
H  47.33300 11.40400 28.31100
H  46.83900 12.78700 29.23200
H  46.17100 12.36800 27.65400
H  43.94000 11.76500 33.55400
H  46.31900 9.64600 36.52100
H  44.96600 8.54800 36.27600
H  44.70600 9.83100 37.42200

