158

Mg 24.01400 -6.62300 46.70200
C  26.20000 -4.38000 45.09500
C  21.45500 -5.50200 44.83000
C  22.48600 -9.58500 47.13000
C  27.04000 -8.04700 48.08900
N  23.92800 -5.19700 45.19300
C  24.89900 -4.37100 44.68100
C  24.26800 -3.30700 43.78600
C  22.75500 -3.42400 44.02200
C  22.64300 -4.82700 44.76200
C  21.94400 -2.22500 44.75100
C  24.61600 -3.60600 42.28900
C  25.18400 -2.34700 41.52900
H  24.75600 -2.28300 40.07800
N  22.04900 -7.36400 46.23100
C  21.15800 -6.69100 45.49700
C  19.97700 -7.41900 45.46500
C  20.21300 -8.67300 46.20000
C  21.61400 -8.58800 46.58900
C  18.72000 -6.95500 44.74600
C  19.12000 -9.66000 46.51300
O  17.98600 -9.52200 46.05000
C  19.29100 -10.64400 47.66900
N  24.64200 -8.53800 47.60700
C  23.81100 -9.62100 47.62000
C  24.45100 -10.86300 48.32700
C  25.89200 -10.31700 48.68900
C  25.84600 -8.86700 48.11100
C  23.58000 -11.38200 49.45300
C  27.15300 -11.10900 48.25200
C  28.41500 -11.07900 49.14000
N  26.19700 -6.19600 46.81700
C  27.28700 -6.84300 47.41600
C  28.43500 -6.06300 47.23900
C  28.09900 -5.10300 46.22600
C  26.73300 -5.24300 45.99300
C  29.74500 -6.30500 47.86800
C  28.62800 -4.05900 45.38300
O  29.75000 -3.58600 45.16600
C  27.37000 -3.53600 44.57200
C  27.27900 -2.05700 44.76700
O  27.51300 -1.23600 43.86000
O  26.71300 -1.69000 45.99800
C  26.83500 -0.22600 46.23800
H  20.57300 -5.18400 44.27100
H  22.07500 -10.59400 47.05100
H  27.92900 -8.54000 48.48600
H  24.68100 -2.35700 44.12500
H  22.37800 -3.48300 43.00100
H  21.28700 -1.84100 43.97000
H  22.61800 -1.41700 45.03700
H  21.31800 -2.57500 45.57100
H  23.88100 -4.17800 41.72300
H  25.47900 -4.26300 42.18700
H  26.26600 -2.33900 41.65800
H  24.71300 -1.47500 41.98300
H  18.10700 -7.71100 44.25600
H  19.01000 -6.26000 43.95800
H  18.11100 -6.33400 45.40300
H  19.88400 -10.25000 48.49400
H  19.78400 -11.50800 47.22300
H  18.33600 -10.99400 48.06000
H  24.64000 -11.70200 47.65600
H  26.00000 -10.18900 49.76600
H  23.18900 -12.37700 49.24500
H  22.71600 -10.72000 49.50900
H  24.04400 -11.27300 50.43300
H  27.31500 -10.83900 47.20800
H  26.80400 -12.13900 48.31900
H  29.31800 -11.10700 48.53000
H  28.33800 -12.08400 49.55600
H  28.45200 -10.31500 49.91600
H  30.30000 -7.01800 47.25800
H  29.67900 -6.49800 48.93900
H  30.22100 -5.34800 47.65100
H  27.57700 -3.67900 43.51100
H  27.79000 0.24800 46.00900
H  26.80700 -0.03600 47.31100
H  25.98900 0.29800 45.79400
Mg 46.91200 44.83700 42.80200
C  43.84300 43.39500 42.36500
C  48.40000 41.89600 41.67400
C  49.81500 46.55800 42.20400
C  45.25000 48.04700 43.28900
N  46.19900 42.87100 41.95900
C  44.91100 42.47400 42.09300
C  44.76800 40.90200 41.94200
C  46.26300 40.46700 41.85500
C  47.01800 41.83300 41.81900
C  46.82800 39.74700 43.07400
C  43.97500 40.43400 40.67200
C  44.07500 41.32900 39.43300
H  44.07900 40.75500 38.02100
N  48.82800 44.30000 42.14100
C  49.22200 42.99800 41.81300
C  50.63500 43.02200 41.41500
C  51.04300 44.38300 41.49300
C  49.88200 45.17300 41.92000
C  51.43200 41.75600 40.93500
C  52.32000 44.85900 40.98400
O  53.14200 44.07000 40.50100
C  52.77000 46.32400 41.00700
N  47.44500 47.03000 42.72000
C  48.74100 47.36100 42.60800
C  48.95300 48.84400 42.99100
C  47.52300 49.22800 43.55800
C  46.67000 48.04600 43.15000
C  49.97700 49.25100 43.89100
C  46.86100 50.53000 42.97400
C  46.58100 51.74000 43.87300
N  44.98800 45.58800 42.96500
C  44.46600 46.87100 43.18500
C  43.03000 46.74400 43.26300
C  42.71600 45.37100 42.96100
C  43.95000 44.75600 42.70500
C  42.20100 47.96100 43.68600
C  41.68500 44.43000 42.86900
O  40.46400 44.54000 43.08700
C  42.34400 43.08600 42.52400
C  42.06700 42.11600 43.61800
O  42.20300 42.27000 44.81500
O  41.57900 40.95200 43.13900
C  40.93700 39.95000 44.03500
H  48.82900 40.90700 41.50400
H  50.79200 47.04400 42.24900
H  44.75200 48.94300 43.66500
H  44.23100 40.52200 42.81100
H  46.32500 39.83700 40.96800
H  45.98800 39.15500 43.43900
H  46.94100 40.40300 43.93700
H  47.72400 39.21000 42.76400
H  42.98000 40.22400 41.06400
H  44.34300 39.45100 40.37500
H  44.96000 41.96000 39.52600
H  43.24700 42.03800 39.45200
H  52.06600 41.97400 40.07600
H  50.69800 41.01600 40.61700
H  52.15300 41.39700 41.67000
H  51.94800 46.91200 40.59700
H  53.54200 46.44000 40.24600
H  53.15100 46.66800 41.96800
H  49.06900 49.38500 42.05200
H  47.54300 49.31500 44.64500
H  49.65700 49.74600 44.80800
H  50.59600 49.93200 43.30700
H  50.43600 48.33100 44.25200
H  45.97400 50.43400 42.34800
H  47.56600 50.88400 42.22100
H  47.27000 52.55900 43.66800
H  46.70200 51.46800 44.92100
H  45.59300 52.15500 43.67200
H  42.53300 48.07900 44.71700
H  41.11500 47.87300 43.67700
H  42.59600 48.75200 43.04900
H  41.85600 42.78500 41.59800
H  41.44000 39.81000 44.99200
H  40.89600 39.01600 43.47500
H  39.89600 40.24100 44.17400

