158

Mg 46.75200 24.96200 28.19200
C  47.47500 27.34400 30.72300
C  46.00900 22.76000 30.80400
C  46.34700 22.69900 25.91300
C  48.00800 27.24400 25.81900
N  46.82900 25.06300 30.55100
C  46.99800 26.13000 31.31500
C  46.74600 25.90000 32.80200
C  46.21600 24.40200 32.76400
C  46.42300 24.01100 31.26000
C  46.81200 23.43200 33.77700
C  45.74500 26.96600 33.36100
C  44.97000 26.46700 34.62100
H  44.86000 27.45400 35.77800
N  46.20300 23.01400 28.34400
C  45.91400 22.28200 29.46400
C  45.59300 20.92100 29.13000
C  45.73100 20.89000 27.71800
C  46.09000 22.22300 27.25100
C  45.15300 19.81900 30.17200
C  45.64200 19.62100 26.82000
O  45.99400 19.56800 25.65900
C  45.29200 18.32700 27.47300
N  47.40500 24.84900 26.18700
C  46.95200 23.87100 25.38700
C  47.22600 24.11100 23.92200
C  47.56500 25.70600 23.87600
C  47.66900 25.96400 25.38700
C  48.47000 23.28600 23.48400
C  46.49500 26.61300 23.10300
C  45.21200 26.76800 23.89300
N  47.55900 26.81700 28.22900
C  48.02100 27.61200 27.16500
C  48.36500 28.93600 27.61100
C  48.25600 28.80800 29.04900
C  47.68200 27.59000 29.32500
C  48.79600 30.06600 26.69000
C  48.34100 29.53200 30.25000
O  48.48500 30.72600 30.60400
C  47.87400 28.63300 31.35700
C  49.04000 28.49100 32.27500
O  50.11200 28.10800 31.88700
O  48.77400 29.05600 33.50700
C  49.76000 28.74500 34.56200
H  45.58100 22.11500 31.57400
H  46.07300 21.91600 25.20400
H  48.39900 27.92400 25.05900
H  47.64100 26.03000 33.41000
H  45.14800 24.52300 32.94700
H  47.57700 23.89900 34.39800
H  47.48200 22.75100 33.25100
H  46.06600 22.83100 34.29700
H  45.06300 27.31800 32.58800
H  46.21300 27.88800 33.70500
H  45.52400 25.59500 34.96800
H  43.97600 26.24900 34.23200
H  44.33300 19.23300 29.75800
H  44.79000 20.32200 31.06800
H  46.00200 19.14600 30.28900
H  44.35800 18.44600 28.02200
H  46.06700 18.09700 28.20500
H  45.24800 17.50500 26.75900
H  46.31700 23.94900 23.34200
H  48.57000 25.92200 23.51300
H  48.34100 22.76200 22.53700
H  48.72400 22.53000 24.22700
H  49.31800 23.94200 23.28700
H  46.26100 26.16200 22.13900
H  46.97200 27.59200 23.05700
H  44.93400 25.86000 24.42800
H  44.36300 26.82900 23.21200
H  45.29700 27.57100 24.62600
H  48.53000 31.00800 27.17100
H  48.32100 30.12300 25.71000
H  49.87700 30.05900 26.55400
H  47.07700 29.19800 31.84000
H  49.32200 28.06600 35.29400
H  50.15600 29.61900 35.07900
H  50.64000 28.18600 34.24500
Mg 35.60800 49.40600 24.01000
C  35.46000 47.62900 27.16000
C  34.31800 52.21700 25.76100
C  35.33600 50.79700 21.19200
C  36.57400 46.35800 22.50500
N  34.88300 49.85900 26.21400
C  35.16200 49.00600 27.27500
C  34.81900 49.81700 28.57300
C  34.40400 51.21500 28.12600
C  34.53100 51.13800 26.61800
C  33.09400 51.78600 28.57700
C  36.12600 49.84800 29.51900
C  35.82000 49.69700 30.99300
H  34.49200 50.15400 31.50400
N  35.09600 51.33200 23.52400
C  34.49800 52.31800 24.35600
C  34.21500 53.44000 23.50500
C  34.61700 53.18900 22.13100
C  35.07000 51.76600 22.21500
C  33.85400 54.74700 24.10300
C  34.61500 53.96400 20.94500
O  35.13000 53.54900 19.94000
C  34.04200 55.28200 20.99900
N  35.50300 48.54000 22.02400
C  35.62700 49.48500 21.08100
C  36.02000 48.86600 19.73000
C  36.71900 47.55200 20.27200
C  36.24400 47.45400 21.70900
C  34.81700 48.58000 18.64800
C  38.29900 47.61400 20.21500
C  39.02100 46.27200 19.85500
N  35.77700 47.32100 24.63100
C  36.26900 46.27100 23.86900
C  36.29300 45.10300 24.74400
C  35.93000 45.59200 26.01900
C  35.66600 46.95200 25.90900
C  36.74700 43.72400 24.32500
C  35.95900 45.23300 27.45800
O  36.19600 44.16400 28.01900
C  35.45200 46.55300 28.25600
C  34.14200 46.27600 28.76500
O  33.22000 45.82600 28.13700
O  34.21900 46.42600 30.12500
C  33.07300 46.08000 30.93600
H  33.94000 53.07900 26.31400
H  35.29200 51.18500 20.17200
H  36.94300 45.42400 22.07700
H  33.95800 49.35700 29.05600
H  35.04300 51.92800 28.64700
H  33.37700 52.74800 29.00400
H  32.46700 51.16800 29.22000
H  32.34900 52.01600 27.81600
H  36.74100 50.73400 29.36600
H  36.77800 49.02400 29.23000
H  36.54600 50.30000 31.53800
H  35.83800 48.64000 31.25700
H  34.56600 55.51000 23.78800
H  33.73000 54.75300 25.18600
H  32.82400 54.84000 23.75900
H  33.05000 55.08700 21.40700
H  34.09600 55.74700 20.01500
H  34.74100 55.96200 21.48700
H  36.70400 49.59200 19.29000
H  36.29500 46.78200 19.62800
H  33.82600 48.65600 19.09400
H  34.86100 47.58200 18.21200
H  34.93400 49.18400 17.74800
H  38.61000 47.98800 21.19100
H  38.65900 48.33500 19.48000
H  38.42700 45.35900 19.85900
H  39.80300 46.00600 20.56700
H  39.58000 46.44400 18.93600
H  37.76200 43.88200 23.95800
H  36.26300 43.13300 23.54900
H  36.78800 43.10200 25.21900
H  36.12000 46.63100 29.11400
H  32.58300 46.98000 31.30800
H  33.31700 45.32100 31.67900
H  32.30600 45.54900 30.37300

