158

Mg 17.17400 -1.52000 27.77600
C  15.89300 0.28300 30.48800
C  19.32000 -2.96400 30.03400
C  18.46700 -3.17200 25.20800
C  15.10200 0.23000 25.46600
N  17.41300 -1.39400 30.02500
C  16.91600 -0.55200 30.89100
C  17.42100 -0.71500 32.33000
C  18.75500 -1.56200 32.12800
C  18.46800 -1.95800 30.63200
C  20.03600 -0.78200 32.52700
C  16.42100 -1.44100 33.17400
C  16.50100 -1.17400 34.73800
H  17.72500 -0.53000 35.33900
N  18.74400 -2.86900 27.63200
C  19.38600 -3.40700 28.65100
C  20.24700 -4.48900 28.06500
C  19.96400 -4.62300 26.69500
C  19.05400 -3.53400 26.46100
C  21.13000 -5.39900 28.96400
C  20.59500 -5.52500 25.63100
O  20.38700 -5.42300 24.45700
C  21.43100 -6.76900 26.02700
N  16.75400 -1.55400 25.58400
C  17.62200 -2.12600 24.77800
C  17.30100 -1.89600 23.30600
C  16.18400 -0.79700 23.34700
C  15.98800 -0.68300 24.91600
C  18.50700 -1.70000 22.42300
C  14.91100 -1.00400 22.49700
C  15.05200 -0.86300 21.00300
N  15.77000 -0.11000 27.85400
C  14.92900 0.52400 26.88300
C  13.96000 1.34200 27.63700
C  14.28200 1.26000 28.99700
C  15.46400 0.37500 29.12600
C  12.86100 2.06000 26.97000
C  13.91900 1.63300 30.32300
O  13.05600 2.41100 30.70000
C  14.92100 1.03400 31.34300
C  15.52400 2.20100 32.12600
O  16.31000 3.01500 31.65800
O  15.13000 2.10700 33.46600
C  15.90800 3.01500 34.25900
H  20.07900 -3.42500 30.67000
H  18.83400 -3.75800 24.36300
H  14.38700 0.70500 24.79200
H  17.47600 0.26200 32.81000
H  18.74700 -2.45000 32.76000
H  19.90200 0.19000 33.00100
H  20.60500 -0.66400 31.60400
H  20.63000 -1.55500 33.01400
H  16.54500 -2.51100 33.00500
H  15.37200 -1.17400 33.04600
H  16.46500 -2.15200 35.21600
H  15.53500 -0.74900 35.01100
H  20.72500 -6.40900 29.01900
H  21.10500 -5.16100 30.02700
H  22.12400 -5.51900 28.53300
H  22.39700 -6.45100 26.41900
H  21.43800 -7.58500 25.30500
H  20.92800 -7.28700 26.84400
H  16.93900 -2.86600 22.96300
H  16.68800 0.08500 22.95200
H  19.43100 -1.90700 22.96300
H  18.60300 -0.66500 22.09400
H  18.51200 -2.36800 21.56200
H  14.24900 -0.18300 22.77100
H  14.30500 -1.88700 22.69600
H  16.02700 -0.55400 20.62600
H  14.35100 -0.06400 20.76500
H  14.74300 -1.80400 20.54600
H  12.99100 2.37000 25.93400
H  12.54100 2.94800 27.51500
H  12.06600 1.31400 26.99600
H  14.39900 0.47700 32.12000
H  16.96200 3.10400 33.99500
H  15.85800 2.72000 35.30700
H  15.42000 3.98900 34.23100
Mg 27.10800 50.81700 26.61700
C  25.09300 51.76700 29.34700
C  29.46700 49.90300 28.83000
C  29.10600 50.13500 23.99400
C  24.75000 52.19700 24.52300
N  27.25900 50.78800 28.85500
C  26.27400 51.16900 29.77200
C  26.76500 50.92400 31.27200
C  28.30600 50.60400 31.09700
C  28.36800 50.40100 29.52100
C  29.15000 51.77500 31.72700
C  26.01000 49.74300 31.92400
C  25.27100 50.09000 33.27300
H  26.16300 50.46300 34.44500
N  28.99100 50.15600 26.45100
C  29.79500 49.73100 27.48300
C  31.08900 49.14000 26.96200
C  30.99600 49.31600 25.56300
C  29.67700 49.86400 25.30400
C  32.14400 48.60000 27.86700
C  32.06800 48.96400 24.53400
O  31.86600 49.09300 23.33000
C  33.44900 48.52400 24.98000
N  27.14000 51.38000 24.56000
C  27.93600 50.76500 23.66900
C  27.47600 50.96700 22.22900
C  26.01100 51.53000 22.38700
C  25.94600 51.69700 23.94100
C  28.42000 51.96900 21.45500
C  24.83100 50.80800 21.79400
C  23.82000 51.57400 20.85300
N  25.22400 51.81900 26.82600
C  24.38800 52.30900 25.90700
C  23.30900 52.97500 26.52300
C  23.46500 52.75900 27.91000
C  24.69100 52.03100 28.04300
C  22.31900 53.71000 25.73800
C  22.88400 52.92000 29.21900
O  21.85500 53.35000 29.58700
C  23.95900 52.28800 30.21900
C  24.41500 53.42200 31.07300
O  25.24300 54.26900 30.79900
O  23.70300 53.51100 32.22200
C  23.87200 54.74800 33.05600
H  30.22300 49.54700 29.53300
H  29.72100 49.98600 23.10400
H  24.18800 52.75900 23.77400
H  26.61700 51.88900 31.75600
H  28.37300 49.62300 31.56600
H  28.71200 52.67100 32.16600
H  29.91500 52.15100 31.04800
H  29.65900 51.20000 32.50100
H  26.53900 48.85000 32.25700
H  25.28600 49.42100 31.17600
H  24.60200 49.24300 33.42600
H  24.49500 50.82000 33.04000
H  33.06500 49.15900 27.70400
H  32.30900 47.57100 27.54900
H  31.86700 48.69800 28.91700
H  34.24400 48.49900 24.23500
H  33.33300 47.47600 25.25700
H  33.81600 49.16900 25.77800
H  27.48400 49.98600 21.75400
H  26.03800 52.55700 22.02300
H  29.13700 52.43200 22.13300
H  27.92400 52.77900 20.91900
H  28.91700 51.35200 20.70700
H  24.17500 50.62200 22.64400
H  25.16800 49.91400 21.27000
H  24.21600 52.56500 20.63100
H  22.89500 51.77700 21.39200
H  23.64500 51.03700 19.92100
H  22.70200 54.57200 25.19200
H  21.57100 54.05800 26.45000
H  21.82800 52.99100 25.08300
H  23.44700 51.49200 30.76000
H  24.64700 54.37200 33.72400
H  22.99800 54.87600 33.69500
H  24.12900 55.67000 32.53500

