158

Mg 46.86200 25.01500 28.45800
C  47.74200 27.47700 30.90800
C  46.37500 22.89900 30.94100
C  46.42400 22.71600 26.08800
C  48.33200 27.18200 25.94700
N  46.84700 25.27100 30.66100
C  47.28600 26.30100 31.49100
C  47.13300 25.96300 32.98700
C  46.93000 24.39700 32.95500
C  46.67900 24.11900 31.41800
C  48.05700 23.53200 33.60300
C  45.87700 26.74300 33.70700
C  46.14000 27.29000 35.15000
H  44.96000 27.06300 36.14300
N  46.26300 23.13600 28.51600
C  46.17400 22.37600 29.64300
C  45.74300 21.01200 29.24500
C  45.64100 20.99500 27.80800
C  46.12100 22.32900 27.40100
C  45.40300 19.94800 30.29800
C  45.04200 19.90800 26.97600
O  44.93400 20.07200 25.77400
C  44.69500 18.55700 27.61100
N  47.49500 24.94300 26.26200
C  47.02700 23.89400 25.58400
C  47.39900 24.07300 24.11400
C  47.71200 25.56600 24.00100
C  47.86600 25.95100 25.50000
C  48.41400 22.98600 23.62200
C  46.55300 26.52600 23.36600
C  46.76000 27.42400 22.15600
N  47.84200 26.97100 28.39600
C  48.36600 27.62900 27.29900
C  48.94300 28.91500 27.77600
C  48.64500 28.94900 29.19100
C  48.04100 27.74300 29.49100
C  49.60000 30.01600 26.97200
C  48.75300 29.73300 30.38600
O  49.17500 30.90000 30.60700
C  48.17500 28.79400 31.55800
C  49.11900 28.61000 32.69600
O  50.26700 28.26500 32.50300
O  48.66700 29.07500 33.96100
C  49.35900 28.93700 35.19500
H  46.23400 22.22000 31.78500
H  46.19300 21.96400 25.33100
H  48.76100 27.91100 25.25600
H  48.02900 26.25700 33.53400
H  45.97400 24.18400 33.43300
H  47.78300 22.97600 34.50000
H  48.99200 24.08500 33.69400
H  48.19600 22.75600 32.85100
H  45.03700 26.04900 33.69900
H  45.70900 27.59600 33.05000
H  46.14200 28.37800 35.08600
H  47.01400 26.89500 35.66800
H  46.09600 19.13600 30.07800
H  44.36300 19.62800 30.22200
H  45.48700 20.23500 31.34600
H  43.86800 18.54600 28.32100
H  45.53800 18.12500 28.15000
H  44.40300 17.93500 26.76500
H  46.50900 23.90900 23.50600
H  48.63800 25.56500 23.42700
H  48.65200 22.42900 24.52800
H  49.27800 23.45300 23.14900
H  47.98800 22.23900 22.95300
H  46.15800 27.16900 24.15300
H  45.72500 25.86800 23.10400
H  46.44900 28.46000 22.28900
H  46.26800 26.98400 21.28800
H  47.83400 27.41000 21.97200
H  49.29900 31.02000 27.27000
H  49.38000 29.77600 25.93100
H  50.67300 29.97400 27.15700
H  47.31000 29.26700 32.02300
H  50.12700 28.16700 35.12600
H  48.65500 28.64300 35.97300
H  49.80000 29.91500 35.39000
Mg 26.30300 49.97300 25.54000
C  24.48800 51.30300 28.25800
C  28.70900 48.78500 27.74700
C  27.93900 48.68200 22.93300
C  24.04800 51.63700 23.38100
N  26.56400 50.02900 27.78000
C  25.65600 50.61800 28.63700
C  26.19500 50.44400 30.01300
C  27.67000 49.95800 29.87600
C  27.66800 49.55500 28.40300
C  28.67900 51.10600 30.09500
C  25.26200 49.46800 30.83200
C  24.63400 50.14000 32.08900
H  25.52900 50.44800 33.35200
N  27.98500 48.78500 25.36700
C  28.76600 48.40900 26.34500
C  29.93500 47.76500 25.69700
C  29.60900 47.51300 24.38000
C  28.41900 48.32300 24.16000
C  31.27800 47.36000 26.40600
C  30.41400 46.76100 23.30000
O  30.04300 46.51200 22.18200
C  31.79800 46.13100 23.62800
N  26.05400 50.25200 23.42800
C  26.87000 49.56500 22.53900
C  26.52600 49.88600 21.09300
C  25.22700 50.77700 21.25500
C  25.08100 50.92700 22.79300
C  27.63500 50.50300 20.27600
C  23.90900 50.18400 20.61300
C  23.24800 48.92200 21.17800
N  24.55200 51.20100 25.74800
C  23.80100 51.83500 24.78300
C  22.67000 52.47600 25.45600
C  22.91800 52.36700 26.81400
C  24.06400 51.56200 26.96700
C  21.56800 53.19100 24.75300
C  22.44200 52.78300 28.11100
O  21.49600 53.45300 28.44700
C  23.48800 52.14900 29.06000
C  24.07400 53.27500 29.90900
O  25.07300 53.89100 29.67200
O  23.31600 53.53700 31.02700
C  23.80700 54.54300 32.03000
H  29.52000 48.34700 28.33300
H  28.44900 48.29600 22.04800
H  23.37400 52.11300 22.66600
H  26.21100 51.38400 30.56500
H  27.92800 49.12900 30.53400
H  29.33500 50.78200 30.90300
H  28.22100 52.02800 30.45400
H  29.23200 51.29400 29.17500
H  25.91000 48.68000 31.21500
H  24.54000 48.87300 30.27300
H  23.79500 49.53700 32.43700
H  24.12800 51.03400 31.72300
H  31.35700 47.93900 27.32700
H  32.17100 47.48900 25.79500
H  31.44700 46.31600 26.67000
H  31.99100 45.47200 22.78200
H  31.73900 45.49600 24.51200
H  32.65700 46.79800 23.69800
H  25.98000 49.05500 20.64800
H  25.45800 51.78800 20.92000
H  28.60300 50.43100 20.77200
H  27.34900 51.52600 20.03300
H  27.68700 50.08200 19.27200
H  24.22900 50.03800 19.58200
H  23.25300 51.05200 20.55300
H  23.91500 48.35400 21.82600
H  22.99300 48.28700 20.33000
H  22.29500 49.15300 21.65300
H  21.17800 52.61200 23.91600
H  21.80400 54.16800 24.33100
H  20.76300 53.32500 25.47500
H  22.89600 51.57300 29.77200
H  23.02500 54.83300 32.73200
H  24.12600 55.44300 31.50300
H  24.53600 54.08200 32.69600

