158

Mg 6.16300 55.68500 40.37000
C  3.36600 53.50400 40.44500
C  8.03300 53.13800 39.17200
C  8.59900 57.95300 39.71800
C  3.83300 58.28300 40.91600
N  5.66200 53.62300 39.71300
C  4.55000 52.94000 39.84800
C  4.67400 51.58400 39.15400
C  6.19700 51.36500 39.15700
C  6.69100 52.79100 39.37900
C  6.72800 50.31900 40.21300
C  4.11400 51.42500 37.70800
C  3.46800 50.01300 37.47300
H  4.12700 49.33600 36.33500
N  8.13200 55.61400 39.75800
C  8.71900 54.46700 39.26600
C  10.02500 54.74700 38.95200
C  10.20900 56.12100 38.99100
C  8.96600 56.63300 39.49400
C  11.08000 53.67800 38.48600
C  11.50900 56.78800 38.57500
O  12.54000 56.18700 38.22700
C  11.56800 58.28300 38.47500
N  6.11200 57.77400 40.18100
C  7.29400 58.40800 40.03700
C  7.11300 59.93500 40.20100
C  5.63500 60.02400 40.71100
C  5.16300 58.62700 40.58700
C  8.26300 60.61300 41.05400
C  4.80000 61.23300 40.18200
C  4.02700 62.09000 41.20200
N  4.04200 55.87600 40.80400
C  3.26600 57.00500 41.04900
C  2.03100 56.62400 41.53600
C  1.94900 55.17400 41.31700
C  3.21100 54.80900 40.79700
C  0.80500 57.53800 41.94400
C  1.16200 53.95600 41.47000
O  0.03200 53.79200 41.82500
C  2.08300 52.80400 40.93700
C  1.27600 52.09300 39.91000
O  1.05300 52.54800 38.84000
O  0.77200 50.92800 40.40800
C  -0.21200 50.22300 39.53700
H  8.73800 52.38600 38.81100
H  9.42200 58.66800 39.65900
H  3.16000 59.08200 41.23200
H  4.19300 50.81500 39.75900
H  6.57900 51.03900 38.19000
H  7.42400 50.76900 40.92000
H  7.28900 49.60400 39.61000
H  5.89500 49.93800 40.80300
H  4.84700 51.65400 36.93500
H  3.36600 52.17800 37.45700
H  2.39800 50.16900 37.33100
H  3.78000 49.36900 38.29500
H  10.66500 52.70000 38.24200
H  11.85300 53.52000 39.23800
H  11.60400 53.99200 37.58300
H  10.75000 58.66300 37.86300
H  12.53400 58.48500 38.01300
H  11.62500 58.55000 39.53000
H  7.07000 60.40800 39.22000
H  5.55000 60.16600 41.78900
H  7.81900 61.41200 41.64800
H  9.00800 60.94500 40.33200
H  8.77200 59.89800 41.70100
H  3.99900 60.92600 39.51000
H  5.46600 61.89100 39.62400
H  3.00000 61.74000 41.30300
H  3.86300 63.12100 40.88600
H  4.46300 62.03500 42.19900
H  -0.02100 57.09400 42.49900
H  0.50200 57.78600 40.92600
H  1.17700 58.46500 42.38000
H  2.21100 52.02700 41.69000
H  -0.61300 50.80900 38.71000
H  -1.06000 50.04600 40.19800
H  0.29000 49.27500 39.34200
Mg 8.96800 47.91800 25.65300
C  6.82300 48.16500 28.47300
C  11.42800 49.59300 27.38000
C  10.68300 48.32700 22.83500
C  6.16800 46.98700 23.83400
N  8.98900 49.07900 27.63900
C  8.08200 48.80600 28.68300
C  8.64300 49.45100 29.99900
C  10.11300 49.97300 29.55900
C  10.22600 49.50800 28.08600
C  10.30300 51.53000 29.61800
C  8.70200 48.43900 31.20700
C  7.82000 48.80600 32.40400
H  8.06500 47.87100 33.65900
N  10.90200 48.55300 25.27500
C  11.78600 49.07600 26.10800
C  13.14400 49.04100 25.49000
C  12.97700 48.68800 24.12600
C  11.46700 48.50400 24.00900
C  14.38200 49.44000 26.24900
C  13.95700 48.51500 22.97800
O  13.62700 48.11600 21.88700
C  15.36800 48.83500 23.14400
N  8.45100 47.85600 23.67700
C  9.33200 48.01800 22.66700
C  8.72200 47.67000 21.28600
C  7.52400 46.72600 21.72800
C  7.32100 47.25300 23.19600
C  8.26100 48.95200 20.50700
C  7.75600 45.20300 21.66300
C  8.68700 44.45200 22.61100
N  6.95900 47.54200 26.08400
C  5.88600 47.21000 25.21300
C  4.58500 47.00400 25.94800
C  5.00000 47.34800 27.25200
C  6.39300 47.67100 27.23000
C  3.22500 46.68800 25.43200
C  4.51600 47.58900 28.62900
O  3.40800 47.57600 29.02400
C  5.76400 47.88200 29.50100
C  5.82300 46.58000 30.33400
O  6.60100 45.63900 30.10800
O  5.04700 46.53900 31.47100
C  5.40100 45.46900 32.39500
H  12.19700 50.13900 27.93000
H  11.26400 48.42400 21.91600
H  5.34300 46.59600 23.23400
H  8.10300 50.35100 30.29300
H  10.97800 49.44700 29.96200
H  11.36100 51.61700 29.86300
H  9.62300 51.99700 30.33100
H  10.14400 51.97400 28.63500
H  9.71200 48.27300 31.58300
H  8.28400 47.48000 30.90000
H  6.75300 48.69300 32.20900
H  8.03800 49.82900 32.70900
H  14.84800 50.24300 25.67900
H  15.07400 48.60300 26.15100
H  14.31600 49.91000 27.23000
H  15.51500 49.74300 23.72900
H  15.86000 48.87000 22.17200
H  15.86500 48.04200 23.70400
H  9.48000 47.14700 20.70300
H  6.61600 47.02000 21.20200
H  8.71200 49.81400 20.99800
H  7.20200 48.92100 20.25000
H  8.77500 48.90800 19.54700
H  8.19800 45.20600 20.66700
H  6.80000 44.68000 21.68000
H  9.02900 45.13600 23.38700
H  9.54200 44.15100 22.00600
H  8.20400 43.54300 22.97000
H  2.79500 45.84500 25.97300
H  3.13500 46.58100 24.35100
H  2.72600 47.63000 25.65800
H  5.54300 48.62400 30.26700
H  4.68600 44.64700 32.42900
H  5.37900 46.00700 33.34300
H  6.44000 45.16700 32.26400

