158

Mg 1.87500 -1.80000 43.95400
C  5.23500 -1.40100 43.40900
C  1.32200 1.12700 42.38400
C  -1.37800 -2.58500 44.10100
C  2.53700 -5.06700 45.14500
N  3.17800 -0.36900 42.83200
C  4.51700 -0.36100 42.85400
C  5.05300 0.82700 42.08400
C  3.79700 1.78400 41.85800
C  2.68700 0.79700 42.40000
C  3.82000 3.19100 42.60800
C  5.70400 0.51200 40.73000
C  6.87000 1.40700 40.41200
H  6.73800 2.24400 39.18000
N  0.18800 -0.80900 43.34000
C  0.12100 0.46400 42.81400
C  -1.20800 0.78900 42.63200
C  -2.06200 -0.22500 43.20900
C  -1.07600 -1.30100 43.61400
C  -1.74100 2.06600 42.08600
C  -3.62400 -0.22800 43.42400
O  -4.29700 0.56500 42.81000
C  -4.28400 -1.13600 44.35500
N  0.73200 -3.59300 44.56200
C  -0.57200 -3.67600 44.55200
C  -1.15900 -5.05700 44.91600
C  0.08300 -5.88100 45.09700
C  1.20200 -4.78200 44.91700
C  -2.16000 -4.98400 46.04700
C  0.38800 -7.05800 44.01900
C  0.15600 -8.50700 44.46900
N  3.55900 -3.03500 44.33100
C  3.69000 -4.29800 44.84700
C  5.12900 -4.60100 44.92200
C  5.78400 -3.48700 44.39000
C  4.78300 -2.55200 44.07900
C  5.77400 -5.79200 45.51500
C  6.96200 -2.96200 44.06800
O  8.09300 -3.44000 44.23000
C  6.72600 -1.52000 43.43700
C  7.45000 -0.45000 44.23900
O  7.57200 -0.34100 45.46500
O  8.01000 0.48600 43.43300
C  8.80000 1.54000 44.23500
H  1.04400 2.02900 41.83500
H  -2.41000 -2.93900 44.15000
H  2.74500 -6.10800 45.40300
H  5.73500 1.35200 42.75300
H  3.61800 1.98300 40.80200
H  3.90100 4.03900 41.92800
H  4.72300 3.27400 43.21200
H  3.03200 3.25800 43.35900
H  4.96000 0.67100 39.95000
H  5.89300 -0.53800 40.50600
H  7.81900 0.88800 40.28000
H  7.15900 2.10700 41.19700
H  -2.61600 1.85400 41.47200
H  -1.09000 2.58600 41.38300
H  -1.86300 2.93900 42.72800
H  -5.25800 -0.67400 44.51900
H  -3.57700 -1.36700 45.15100
H  -4.43000 -2.03200 43.75300
H  -1.71200 -5.36400 44.02900
H  0.25400 -6.13100 46.14400
H  -1.84800 -5.75700 46.75000
H  -3.18800 -5.07900 45.69800
H  -2.08600 -4.00400 46.51800
H  1.45000 -7.03900 43.77400
H  -0.14000 -6.73800 43.12100
H  -0.50800 -9.05800 43.80300
H  -0.44700 -8.59200 45.37300
H  1.09500 -9.04100 44.61900
H  6.40700 -6.34000 44.81800
H  4.96500 -6.43800 45.85900
H  6.32000 -5.35900 46.35300
H  7.29800 -1.53300 42.50900
H  8.01700 2.23100 44.54700
H  9.57200 1.99100 43.61300
H  9.45500 1.10400 44.98900
Mg 48.09100 45.07100 42.81600
C  44.68900 44.77100 42.84600
C  48.40100 41.80300 42.32300
C  51.43400 45.46900 42.69900
C  47.76900 48.58800 42.92500
N  46.72300 43.46000 42.62000
C  45.34800 43.53100 42.64100
C  44.68200 42.22900 42.55100
C  45.87200 41.22700 42.31500
C  47.10500 42.21900 42.49600
C  45.75600 39.92300 43.24300
C  43.57000 41.95000 41.56200
C  43.89800 42.15700 40.12600
H  44.24700 41.01600 39.20400
N  49.71500 43.84500 42.49100
C  49.64600 42.54700 42.40400
C  50.93600 41.96900 42.35200
C  51.88200 43.00800 42.38300
C  51.03600 44.18300 42.47900
C  51.18100 40.51400 42.02400
C  53.39800 42.85900 42.20500
O  53.98000 41.78200 42.37700
C  54.34300 44.05100 41.98500
N  49.43500 46.81200 42.54600
C  50.78000 46.67100 42.72200
C  51.41000 48.04500 42.88200
C  50.21600 49.04300 42.66800
C  49.04500 48.08500 42.73400
C  52.20800 48.24400 44.32600
C  50.34400 49.78600 41.33900
C  50.92600 51.16500 41.36500
N  46.56600 46.46200 42.74200
C  46.60500 47.77800 42.99000
C  45.26200 48.29800 43.18300
C  44.41000 47.19000 43.00900
C  45.27200 46.08600 42.89100
C  44.90000 49.77300 43.43600
C  43.05100 46.64000 43.11000
O  41.97500 47.22700 43.31900
C  43.22300 45.09000 42.91800
C  42.50900 44.38600 44.08400
O  41.71200 43.48400 43.86100
O  42.71400 45.00600 45.30500
C  42.07100 44.39700 46.45700
H  48.44100 40.73300 42.11000
H  52.48600 45.75000 42.61700
H  47.71200 49.65900 43.12900
H  44.15400 41.99000 43.47400
H  46.02800 40.92300 41.28000
H  44.76800 39.78400 43.68000
H  46.45500 39.81200 44.07200
H  45.81300 39.07400 42.56200
H  42.65300 42.51700 41.72600
H  43.19500 40.93700 41.70600
H  44.74800 42.83800 40.07700
H  43.15400 42.72600 39.56800
H  52.01000 40.24200 42.67700
H  51.50300 40.32100 41.00000
H  50.32800 39.92200 42.35500
H  53.91600 44.61600 41.15700
H  55.33000 43.68400 41.70100
H  54.44100 44.72700 42.83500
H  52.16900 48.06900 42.09900
H  50.20900 49.70400 43.53500
H  52.13800 47.29400 44.85600
H  51.70200 48.87300 45.05800
H  53.24400 48.54600 44.17600
H  49.32800 49.79300 40.94400
H  50.96000 49.15900 40.69500
H  50.15700 51.93500 41.29800
H  51.78800 51.21200 40.70000
H  51.55600 51.37100 42.23000
H  44.72500 50.16500 42.43400
H  45.63400 50.40600 43.93300
H  44.02000 49.72600 44.07800
H  42.73200 44.84300 41.97600
H  41.11900 44.92100 46.53900
H  42.73200 44.68300 47.27500
H  42.00600 43.30900 46.49000

