158

Mg 25.44900 -7.52700 48.30200
C  27.78100 -5.11800 47.09200
C  23.31500 -6.52100 45.83600
C  23.58500 -10.24200 48.85700
C  27.99600 -8.74400 50.44800
N  25.71700 -6.05600 46.62500
C  26.64100 -5.12000 46.30700
C  26.27100 -4.14500 45.20400
C  24.72100 -4.53200 45.12800
C  24.58600 -5.82400 45.87600
C  23.67000 -3.48400 45.60700
C  27.05000 -4.46000 43.90500
C  27.70100 -3.27900 43.17400
H  27.53800 -3.01600 41.68900
N  23.57100 -8.28100 47.44100
C  22.86500 -7.67500 46.51800
C  21.55600 -8.29800 46.39600
C  21.54600 -9.30000 47.46200
C  22.96600 -9.41500 47.91800
C  20.46300 -7.89200 45.43400
C  20.39500 -10.17400 47.83400
O  19.30000 -10.07500 47.31800
C  20.47500 -11.24900 48.94400
N  25.80300 -9.32900 49.44900
C  24.78500 -10.18500 49.63200
C  25.12000 -11.35600 50.62400
C  26.52200 -10.88100 51.09400
C  26.80700 -9.56600 50.32500
C  24.00900 -11.69900 51.62000
C  27.65200 -11.97400 50.87500
C  28.65000 -12.07000 52.04800
N  27.38700 -7.07800 48.83100
C  28.27300 -7.56900 49.69600
C  29.49500 -6.83200 49.71700
C  29.27500 -5.82900 48.74600
C  28.03100 -6.01700 48.18200
C  30.60700 -7.13200 50.60900
C  29.95100 -4.70100 48.05900
O  31.06100 -4.24200 48.24900
C  28.92300 -4.19900 47.01400
C  28.55600 -2.84000 47.42200
O  28.10700 -2.61200 48.53500
O  28.82700 -1.86500 46.44400
C  28.22100 -0.61800 46.86100
H  22.55500 -6.32100 45.07800
H  22.89400 -11.00400 49.22400
H  28.65900 -9.12400 51.22800
H  26.44800 -3.15800 45.63100
H  24.51000 -4.82500 44.09900
H  24.13600 -2.69900 46.20100
H  22.86300 -3.89700 46.21300
H  23.11700 -3.13300 44.73600
H  26.44000 -5.02100 43.19700
H  27.78400 -5.24500 44.08800
H  28.78300 -3.35100 43.28100
H  27.40900 -2.36100 43.68500
H  19.42900 -7.83200 45.77300
H  20.36400 -8.55900 44.57800
H  20.62400 -6.95400 44.90300
H  21.18900 -11.95600 48.52100
H  19.50900 -11.73400 49.08300
H  20.79500 -10.74300 49.85500
H  25.28300 -12.21700 49.97600
H  26.52400 -10.59000 52.14400
H  23.67000 -12.72800 51.50000
H  23.20600 -10.96700 51.70600
H  24.44700 -11.67400 52.61800
H  28.20000 -11.76800 49.95600
H  27.18700 -12.95300 50.75800
H  28.39800 -12.97000 52.60900
H  28.56100 -11.18600 52.67900
H  29.69400 -12.04900 51.73500
H  30.10900 -6.88400 51.54600
H  31.57900 -6.65600 50.47800
H  30.74800 -8.21200 50.64300
H  29.37600 -4.09900 46.02800
H  29.00500 0.08200 47.15000
H  27.44600 -0.64400 47.62800
H  27.73800 -0.37800 45.91400
Mg -9.54100 40.67700 42.73300
C  -8.59500 37.39400 41.63700
C  -6.76600 41.95400 41.02500
C  -10.81200 43.71900 43.07300
C  -12.54100 39.23500 43.78400
N  -7.98400 39.78300 41.39900
C  -7.79700 38.38600 41.12200
C  -6.41800 38.19700 40.43900
C  -5.78800 39.63500 40.50500
C  -6.93900 40.54800 40.98600
C  -4.43400 39.82900 41.30200
C  -6.46400 37.63300 39.03600
C  -5.51800 36.37800 38.74600
H  -4.38400 36.61100 37.70900
N  -8.92200 42.55100 42.16400
C  -7.74500 42.81900 41.51700
C  -7.59100 44.27500 41.38500
C  -8.71100 44.87800 42.04200
C  -9.56000 43.76800 42.48900
C  -6.38400 44.98300 40.72500
C  -9.01400 46.46400 42.17900
O  -8.27800 47.32000 41.73000
C  -10.26000 46.96400 42.89100
N  -11.49200 41.40700 43.40900
C  -11.65500 42.74700 43.47800
C  -13.20000 42.97700 43.73600
C  -13.77000 41.52400 44.00200
C  -12.52300 40.65700 43.81600
C  -13.40800 44.00500 44.87500
C  -15.05700 41.12400 43.16900
C  -15.78300 39.85900 43.62300
N  -10.45900 38.70800 42.69200
C  -11.59800 38.34400 43.23500
C  -11.69100 36.92600 43.24800
C  -10.50000 36.53300 42.66100
C  -9.78600 37.63700 42.34800
C  -12.87100 36.12600 43.60800
C  -9.78200 35.37200 42.23700
O  -10.01000 34.15200 42.33200
C  -8.53500 35.89200 41.55100
C  -7.32300 35.23400 42.18800
O  -7.06200 35.20500 43.34300
O  -6.71600 34.44800 41.25300
C  -5.63800 33.51300 41.77900
H  -5.86600 42.34400 40.54400
H  -11.26700 44.70800 43.16500
H  -13.44000 38.76100 44.18400
H  -5.88200 37.53800 41.12100
H  -5.57900 39.99100 39.49600
H  -3.89000 38.89000 41.41200
H  -4.75000 40.16000 42.29100
H  -3.83100 40.66100 40.93800
H  -6.14100 38.34400 38.27600
H  -7.47400 37.37700 38.71600
H  -6.11500 35.52600 38.41900
H  -5.06300 36.03500 39.67600
H  -6.67600 45.22600 39.70300
H  -5.54700 44.29300 40.83300
H  -6.10100 45.87200 41.28800
H  -10.08800 48.02200 43.08800
H  -10.30500 46.44900 43.85100
H  -11.15300 46.84100 42.27700
H  -13.70700 43.35100 42.84600
H  -13.92600 41.41900 45.07600
H  -12.47900 44.04300 45.44400
H  -14.26700 43.73200 45.48700
H  -13.46700 45.01900 44.47800
H  -14.79600 40.98400 42.12100
H  -15.82800 41.89000 43.24600
H  -15.40800 39.64800 44.62400
H  -15.73100 38.97400 42.98900
H  -16.82400 40.17100 43.71000
H  -13.50000 36.68200 44.30300
H  -12.65600 35.20100 44.14400
H  -13.34700 35.84800 42.66700
H  -8.54400 35.74400 40.47100
H  -5.92700 32.99300 42.69300
H  -4.67500 34.00200 41.92100
H  -5.36600 32.79000 41.01100

