158

Mg 43.58500 4.33000 46.69600
C  41.73900 7.41000 46.65000
C  40.58800 2.65600 46.60300
C  45.22500 1.62800 45.83200
C  46.61200 6.23700 46.36300
N  41.49500 5.01500 46.62200
C  40.95200 6.27100 46.64300
C  39.39500 6.27500 46.68200
C  39.11300 4.72600 46.78200
C  40.48100 4.05000 46.71900
C  38.20100 4.15600 47.93900
C  38.69400 6.94100 45.44000
C  39.20700 6.55100 44.08500
H  40.00500 7.56100 43.24200
N  42.99800 2.32700 46.57400
C  41.71300 1.81700 46.47100
C  41.73400 0.41100 46.22000
C  43.06900 0.00500 46.13300
C  43.84900 1.31000 46.13100
C  40.49900 -0.45400 46.18900
C  43.57500 -1.38600 45.96700
O  42.76700 -2.36000 45.88200
C  45.05800 -1.61100 46.16400
N  45.60100 4.03200 46.23700
C  46.05000 2.75200 46.03600
C  47.49900 2.66100 45.78700
C  48.03600 3.97900 46.29400
C  46.73100 4.81600 46.32300
C  48.24500 1.40800 46.32500
C  49.16800 4.65100 45.41300
C  50.18800 5.40300 46.23400
N  44.16300 6.39600 46.48800
C  45.41300 7.00000 46.43800
C  45.20400 8.46700 46.39500
C  43.80100 8.64600 46.58400
C  43.19300 7.35100 46.57700
C  46.27500 9.51700 46.35800
C  42.79000 9.62700 46.86000
O  42.90300 10.85200 47.06200
C  41.42600 8.87800 46.85300
C  40.65800 9.07100 48.14900
O  41.01500 8.77400 49.25300
O  39.47500 9.71700 47.96100
C  38.53300 9.74600 49.07200
H  39.61100 2.17500 46.52900
H  45.82200 0.80400 45.43600
H  47.50300 6.84200 46.54400
H  39.16600 6.81900 47.59800
H  38.63900 4.35200 45.87400
H  38.68900 3.49800 48.65900
H  37.43000 3.54800 47.46600
H  37.71700 4.92600 48.53900
H  38.77500 8.02400 45.53100
H  37.63900 6.66800 45.47000
H  38.32000 6.36800 43.47900
H  39.77200 5.62600 44.20200
H  40.82400 -1.47600 46.38300
H  40.17300 -0.49400 45.14900
H  39.74000 -0.25800 46.94600
H  45.46800 -0.85000 46.82900
H  45.59000 -1.66800 45.21400
H  45.10900 -2.54800 46.71800
H  47.68900 2.68000 44.71300
H  48.29100 3.77800 47.33500
H  47.75800 0.97600 47.20000
H  49.21700 1.73300 46.69500
H  48.45300 0.64400 45.57500
H  48.70200 5.38200 44.75200
H  49.75000 3.94200 44.82400
H  51.15100 4.89200 46.25000
H  49.85900 5.46700 47.27200
H  50.40600 6.41800 45.90300
H  45.87900 10.43300 45.92000
H  47.11700 9.21400 45.73600
H  46.61100 9.72700 47.37300
H  40.74800 9.31700 46.12100
H  38.64600 10.66300 49.65000
H  38.48600 8.89700 49.75500
H  37.53700 9.80500 48.63200
Mg -5.41700 24.57900 25.75400
C  -3.68900 26.20200 28.39200
C  -7.12100 22.70800 28.01200
C  -6.67600 22.98000 23.04600
C  -3.34500 26.41700 23.49700
N  -5.43900 24.44000 27.89000
C  -4.74200 25.34600 28.78300
C  -5.27700 25.18000 30.17800
C  -6.02900 23.76200 30.13400
C  -6.25100 23.62200 28.59400
C  -5.18200 22.55400 30.76200
C  -6.08400 26.44200 30.66500
C  -6.02300 26.82800 32.18400
H  -5.22000 25.84000 33.06100
N  -6.73600 23.04300 25.53900
C  -7.41600 22.42600 26.58100
C  -8.37100 21.51800 25.96900
C  -8.35700 21.66700 24.53200
C  -7.26700 22.64900 24.31000
C  -9.29300 20.86800 26.87900
C  -9.12000 20.80300 23.42200
O  -9.04700 21.04300 22.23400
C  -9.94500 19.75600 23.84500
N  -4.88100 24.51000 23.58000
C  -5.61800 23.81500 22.69400
C  -5.23500 24.09100 21.25300
C  -4.19300 25.29800 21.37900
C  -4.07100 25.40000 22.92500
C  -4.68300 22.74000 20.64700
C  -4.67000 26.58000 20.53300
C  -3.76600 27.27900 19.44800
N  -3.93100 26.03400 25.85400
C  -3.20400 26.72600 24.86400
C  -2.31100 27.67700 25.45500
C  -2.46100 27.49600 26.85100
C  -3.39700 26.44700 27.03800
C  -1.32000 28.67200 24.82800
C  -1.92700 27.91500 28.14500
O  -1.08300 28.78300 28.42400
C  -2.75900 27.03900 29.21700
C  -1.89400 26.27900 30.04200
O  -1.26700 25.28100 29.75500
O  -1.67500 26.89100 31.25900
C  -0.65500 26.34500 32.24600
H  -7.53200 22.06700 28.79400
H  -7.18400 22.47600 22.22100
H  -2.79000 26.94900 22.72200
H  -4.45800 24.96100 30.86300
H  -7.01600 23.73300 30.59500
H  -4.75700 21.87900 30.02000
H  -5.75500 21.83100 31.34300
H  -4.42900 22.91300 31.46400
H  -7.12700 26.36700 30.35700
H  -5.76000 27.33200 30.12600
H  -7.00800 26.99800 32.61900
H  -5.38400 27.70800 32.26100
H  -9.05400 19.80900 26.78600
H  -10.28300 21.00700 26.44400
H  -9.27300 21.10900 27.94200
H  -10.35700 19.04200 23.13200
H  -10.84100 20.12900 24.34300
H  -9.36300 19.30400 24.64800
H  -6.11700 24.45900 20.73000
H  -3.21100 25.06500 20.96800
H  -3.59400 22.75500 20.69200
H  -4.91200 22.73100 19.58100
H  -5.09600 21.93700 21.25700
H  -4.75400 27.43100 21.21000
H  -5.62300 26.37700 20.04500
H  -3.43700 28.23400 19.85800
H  -4.33900 27.40900 18.53000
H  -2.90200 26.63900 19.27300
H  -1.75400 29.27400 24.03000
H  -0.40100 28.26300 24.40900
H  -0.96600 29.36600 25.59000
H  -3.27800 27.72300 29.88900
H  -0.99000 25.43200 32.73800
H  -0.60900 27.13500 32.99500
H  0.26300 26.05300 31.73500

