158

Mg -1.81600 17.07400 27.18000
C  -2.56000 14.94100 30.09900
C  -2.57300 19.66500 29.11200
C  -1.67100 18.80400 24.47300
C  -1.62600 14.10900 25.30800
N  -2.62900 17.22100 29.47700
C  -2.62800 16.29300 30.46800
C  -3.02800 16.91500 31.84000
C  -3.01800 18.55300 31.43700
C  -2.69400 18.48700 29.91700
C  -4.22600 19.46800 31.92900
C  -2.12800 16.46800 33.05800
C  -1.46800 17.42800 34.05900
H  -1.14500 16.80100 35.42600
N  -1.81700 19.03900 26.88400
C  -2.17400 19.90400 27.78900
C  -2.24900 21.23000 27.09600
C  -1.83600 21.02000 25.75000
C  -1.76500 19.56900 25.62800
C  -2.86200 22.45200 27.69400
C  -1.62200 22.01800 24.64600
O  -1.43300 21.72400 23.48700
C  -1.55600 23.36200 25.06500
N  -1.66900 16.50400 25.25100
C  -1.61000 17.42400 24.22900
C  -1.33500 16.86400 22.79900
C  -1.09500 15.39100 23.20300
C  -1.43300 15.31600 24.69400
C  -2.43700 17.02400 21.68600
C  0.31800 14.80100 22.95000
C  1.65000 15.38700 23.51200
N  -2.19600 14.98800 27.58000
C  -2.03500 13.87300 26.67900
C  -2.25200 12.66300 27.41100
C  -2.36900 12.98600 28.74200
C  -2.32200 14.44800 28.79900
C  -2.17600 11.29600 26.75000
C  -2.61400 12.46600 30.04200
O  -2.76300 11.29400 30.36700
C  -2.51800 13.77100 30.97700
C  -1.22900 13.81700 31.70200
O  -0.17000 14.26700 31.32300
O  -1.53500 13.27700 32.89500
C  -0.49500 13.18000 33.92700
H  -2.81200 20.58000 29.65800
H  -1.52500 19.30300 23.51300
H  -1.32200 13.21300 24.76200
H  -4.05800 16.69200 32.11800
H  -2.21000 19.13100 31.88700
H  -4.61300 19.88100 30.99800
H  -3.72200 20.29000 32.43800
H  -5.05500 19.03000 32.48500
H  -1.21500 16.18500 32.53500
H  -2.51900 15.59500 33.58100
H  -2.07500 18.32600 34.16700
H  -0.55700 17.68700 33.51900
H  -2.14800 23.26400 27.82700
H  -3.31000 22.29200 28.67500
H  -3.62500 22.74800 26.97500
H  -0.83700 23.42200 25.88200
H  -2.59100 23.66800 25.21500
H  -1.31300 24.02300 24.23400
H  -0.41800 17.30000 22.40200
H  -1.76800 14.71500 22.67600
H  -3.00800 17.94700 21.79000
H  -3.05900 16.12900 21.65600
H  -2.01000 17.00800 20.68300
H  0.51500 14.90400 21.88300
H  0.16000 13.73200 23.09400
H  2.19100 15.78700 22.65500
H  2.38000 14.69100 23.92400
H  1.34200 16.21200 24.15400
H  -1.57300 11.40000 25.84800
H  -3.16000 11.05600 26.34700
H  -1.68300 10.48500 27.28700
H  -3.40100 13.90500 31.60100
H  0.20300 14.01600 33.96700
H  0.00100 12.22200 33.77000
H  -0.97400 13.07700 34.90000
Mg 17.19900 52.45800 25.64600
C  18.80600 51.04800 28.21400
C  14.50900 53.14500 27.66800
C  15.48900 53.78100 22.98800
C  19.83000 51.61000 23.53100
N  16.69900 51.97500 27.71500
C  17.60700 51.61400 28.63200
C  17.03000 51.93000 29.98800
C  15.53400 52.09200 29.79600
C  15.53400 52.37900 28.25800
C  14.71000 50.76800 30.09500
C  17.69200 53.15000 30.56000
C  18.32100 53.16900 31.98200
H  17.63000 52.34900 33.08800
N  15.21100 53.25700 25.42200
C  14.32300 53.53500 26.37700
C  13.23700 54.33400 25.82600
C  13.38300 54.34200 24.40700
C  14.76900 53.77400 24.21100
C  12.27500 55.11500 26.65800
C  12.35200 54.87300 23.34500
O  12.62100 54.88500 22.16800
C  10.92900 55.34400 23.75300
N  17.51800 52.53300 23.46900
C  16.72500 53.25100 22.65700
C  17.38400 53.41500 21.29900
C  18.76400 52.72800 21.44600
C  18.73600 52.25900 22.90400
C  16.49600 52.92900 20.06400
C  19.93200 53.61000 21.08100
C  21.08500 52.93100 20.40500
N  18.84600 51.24900 25.71700
C  19.84900 51.06100 24.82400
C  20.84500 50.18200 25.50100
C  20.45600 50.09300 26.83900
C  19.29700 50.91200 26.92500
C  22.11700 49.60400 24.84200
C  20.80900 49.73500 28.21700
O  21.79900 49.13500 28.56600
C  19.84300 50.46600 29.13700
C  19.22500 49.49000 30.09900
O  18.34900 48.66700 29.93800
O  19.86500 49.58200 31.34800
C  19.58600 48.54400 32.32800
H  13.75700 53.41700 28.41200
H  15.02400 54.37900 22.20100
H  20.70500 51.50900 22.88600
H  17.25900 51.11600 30.67600
H  15.09500 52.89300 30.39100
H  13.96600 50.89700 30.88100
H  15.25100 49.86100 30.36300
H  14.22700 50.52400 29.14900
H  16.93300 53.91000 30.74700
H  18.43000 53.68400 29.96300
H  18.36700 54.22900 32.23100
H  19.37800 52.90900 32.02500
H  11.29600 54.63700 26.69400
H  12.00300 56.09100 26.25600
H  12.61100 55.26100 27.68500
H  10.44300 54.38900 23.95100
H  10.55300 55.70400 22.79500
H  10.88000 56.06700 24.56700
H  17.56000 54.48300 21.17600
H  18.78300 51.82800 20.83100
H  16.15200 51.92300 20.30600
H  17.09200 52.94500 19.15200
H  15.61100 53.56600 20.07200
H  20.30700 54.25500 21.87500
H  19.56800 54.33400 20.35300
H  20.84800 51.89000 20.18500
H  21.94600 52.99900 21.07000
H  21.51700 53.44700 19.54700
H  22.54300 50.36700 24.19000
H  21.70800 48.76000 24.28700
H  22.71300 49.28100 25.69600
H  20.42500 51.18600 29.71300
H  19.66600 48.83100 33.37600
H  20.31600 47.73900 32.25000
H  18.53300 48.27300 32.24600

