158

Mg 55.28900 23.21500 45.10000
C  53.11600 25.90400 44.16400
C  53.12800 21.08400 43.68500
C  57.77100 21.10500 44.92900
C  57.62800 25.92800 46.03100
N  53.42400 23.59400 43.91400
C  52.69300 24.68700 43.68500
C  51.32900 24.37300 42.99000
C  51.23000 22.82600 43.26300
C  52.69400 22.42800 43.65800
C  50.08700 22.41400 44.26600
C  51.25900 24.65900 41.49600
C  49.85800 25.17600 41.03200
H  49.32200 24.47300 39.86900
N  55.44700 21.22900 44.46000
C  54.40200 20.54300 43.95400
C  54.84000 19.21400 43.65200
C  56.23900 19.11000 44.17100
C  56.55000 20.51300 44.54200
C  54.07700 18.05800 43.16500
C  57.10200 17.86900 44.02700
O  56.69400 16.83000 43.44200
C  58.35400 17.86800 44.72100
N  57.37300 23.52400 45.25200
C  58.17300 22.37100 45.26100
C  59.64000 22.73300 45.37700
C  59.58200 24.16700 45.98200
C  58.09900 24.61900 45.66600
C  60.61000 21.75900 46.24600
C  60.72400 25.12100 45.62100
C  61.40600 25.71000 46.92600
N  55.34500 25.44800 45.31300
C  56.31300 26.35800 45.70700
C  55.69600 27.64600 45.75200
C  54.43900 27.56200 45.21600
C  54.31000 26.21800 44.85800
C  56.36400 28.86200 46.22300
C  53.28300 28.29900 44.75000
O  53.00900 29.46700 44.77700
C  52.34000 27.19500 44.10400
C  52.02600 27.74500 42.78300
O  52.76800 27.87500 41.81900
O  50.81300 28.33300 42.87600
C  50.46300 29.15100 41.73700
H  52.45400 20.35400 43.23200
H  58.63400 20.44200 45.01000
H  58.43700 26.63700 46.21700
H  50.52700 24.86700 43.53900
H  51.01800 22.21100 42.38800
H  49.68200 21.42200 44.06500
H  49.30000 23.16900 44.23700
H  50.49600 22.35300 45.27500
H  51.56100 23.83700 40.84700
H  52.01900 25.40200 41.25400
H  50.12500 26.18500 40.71800
H  49.12600 25.19200 41.84000
H  54.37800 17.64000 42.20500
H  53.07300 18.36300 42.86700
H  53.99100 17.23400 43.87300
H  59.17500 18.19600 44.08400
H  58.56900 16.83000 44.97800
H  58.34800 18.34100 45.70300
H  59.88100 22.75200 44.31500
H  59.51300 24.07300 47.06600
H  61.07000 22.36100 47.02900
H  61.35000 21.22300 45.65200
H  59.88400 21.16700 46.80300
H  60.36300 25.92700 44.98200
H  61.58700 24.72700 45.08400
H  61.85400 24.94600 47.56100
H  60.64700 26.27000 47.47200
H  62.19700 26.41900 46.68400
H  56.08100 29.00900 47.26500
H  56.08700 29.70500 45.59000
H  57.45300 28.84600 46.16100
H  51.49300 27.15600 44.78900
H  50.29800 28.53100 40.85700
H  51.16400 29.98000 41.63900
H  49.53200 29.67200 41.96400
Mg -2.64200 35.04200 25.77000
C  -4.43300 33.55200 28.51200
C  -1.59300 37.46400 27.95200
C  -0.96700 36.41400 23.20400
C  -4.29700 32.80400 23.66200
N  -3.27600 35.55800 27.95300
C  -3.68900 34.62400 28.92400
C  -3.36400 35.11800 30.34400
C  -2.62900 36.52900 30.05500
C  -2.53900 36.55400 28.53000
C  -3.31600 37.77700 30.69700
C  -2.52600 34.08200 31.16600
C  -2.07300 34.38200 32.62800
H  -2.85700 33.82200 33.84300
N  -1.47400 36.72700 25.59100
C  -1.09300 37.60400 26.60100
C  -0.12500 38.56200 25.96500
C  0.22600 38.15800 24.64400
C  -0.74200 37.04300 24.39500
C  0.49200 39.65500 26.62900
C  1.20100 38.69200 23.67500
O  1.35100 38.25200 22.53800
C  2.29900 39.62400 24.21300
N  -2.84000 34.76300 23.67300
C  -2.02100 35.48900 22.81200
C  -2.14200 34.88000 21.39100
C  -3.02300 33.63400 21.56000
C  -3.39600 33.71100 23.07000
C  -2.58900 35.83600 20.26400
C  -2.43600 32.32800 21.11600
C  -1.48500 31.68500 22.12800
N  -4.11500 33.51500 25.93100
C  -4.61500 32.68800 25.03200
C  -5.43200 31.74500 25.60400
C  -5.43700 32.00100 26.95800
C  -4.62500 33.12900 27.14200
C  -6.19500 30.64800 24.88400
C  -5.92900 31.64300 28.28400
O  -6.67700 30.71800 28.50600
C  -5.16300 32.49900 29.32200
C  -6.16000 33.11600 30.28000
O  -6.84600 34.08400 30.02300
O  -6.15200 32.47100 31.46800
C  -7.01100 33.11400 32.45600
H  -1.10800 38.06900 28.72100
H  -0.49600 36.82300 22.30700
H  -4.64500 31.99900 23.01100
H  -4.21100 35.23200 31.01900
H  -1.60200 36.38700 30.39300
H  -3.58500 38.57400 30.00400
H  -2.75200 38.27900 31.48200
H  -4.19200 37.61700 31.32700
H  -1.60900 33.93200 30.59700
H  -3.07500 33.14100 31.18800
H  -1.96500 35.46200 32.72100
H  -1.09100 33.92500 32.75500
H  0.04200 39.77900 27.61500
H  0.45900 40.59300 26.07600
H  1.50300 39.40700 26.95300
H  1.82200 40.49500 24.66100
H  2.64700 39.96400 23.23700
H  3.16400 39.26500 24.77100
H  -1.13900 34.61900 21.05300
H  -3.98500 33.80100 21.07600
H  -3.48200 35.40900 19.80800
H  -1.79000 35.79000 19.52300
H  -2.65200 36.84500 20.67100
H  -1.89900 32.54800 20.19300
H  -3.18500 31.56700 20.89800
H  -0.69300 31.46400 21.41200
H  -2.00800 30.81500 22.52400
H  -1.12600 32.32300 22.93600
H  -6.48100 29.79000 25.49300
H  -5.72400 30.32800 23.95500
H  -7.12600 31.16500 24.65100
H  -4.55800 31.77300 29.86500
H  -8.00300 33.27600 32.03500
H  -6.59200 34.04100 32.84700
H  -7.35600 32.53900 33.31600

