158

Mg 35.06400 3.26400 29.22300
C  32.89700 4.13700 31.82400
C  37.63100 3.26000 31.44100
C  37.03600 2.10800 26.68100
C  32.42800 3.68800 26.99500
N  35.23000 3.59400 31.40200
C  34.18800 3.91900 32.27700
C  34.68700 3.81000 33.69600
C  36.26200 3.90900 33.53900
C  36.43200 3.61100 32.01500
C  36.92800 5.32500 33.97200
C  34.29400 2.54900 34.43900
C  33.61600 2.89700 35.80900
H  34.21400 4.01900 36.69000
N  37.09500 2.73700 29.05600
C  37.99400 2.75700 30.19200
C  39.23800 2.17800 29.77900
C  39.10900 1.83600 28.37100
C  37.73100 2.21000 27.95000
C  40.44600 2.12600 30.68000
C  40.10700 1.27800 27.32900
O  39.89800 0.95200 26.17300
C  41.52400 0.97100 27.82300
N  34.82400 3.07200 27.20500
C  35.76100 2.54500 26.30500
C  35.33200 2.66500 24.85300
C  33.86100 2.98800 25.05300
C  33.66000 3.25600 26.53500
C  36.17600 3.84600 24.05100
C  32.85600 1.90900 24.43200
C  32.25600 0.82000 25.31500
N  33.18100 3.91500 29.32700
C  32.16300 3.98500 28.35200
C  30.90600 4.32600 28.88900
C  31.07600 4.33700 30.28400
C  32.52200 4.10000 30.46900
C  29.63300 4.64600 28.15300
C  30.48900 4.46300 31.61200
O  29.32700 4.72900 31.91400
C  31.69300 4.39200 32.59200
C  31.71200 5.65700 33.29600
O  32.03300 6.78800 32.92900
O  31.33100 5.43600 34.67200
C  30.97000 6.64600 35.43100
H  38.33500 3.27600 32.27600
H  37.61100 1.78600 25.81000
H  31.70400 3.83100 26.19100
H  34.31800 4.73100 34.14800
H  36.77900 3.11500 34.07700
H  36.19900 5.97800 34.45300
H  37.35400 5.93100 33.17300
H  37.69100 5.12200 34.72400
H  35.16500 1.89800 34.51900
H  33.58400 1.96500 33.85400
H  33.61600 2.06000 36.50800
H  32.64000 3.23900 35.46600
H  40.78600 1.11000 30.88200
H  40.24000 2.55000 31.66300
H  41.17800 2.77100 30.19500
H  42.08700 1.85500 28.12000
H  42.13000 0.66800 26.97000
H  41.54200 0.05000 28.40700
H  35.44600 1.76700 24.24700
H  33.70800 3.90200 24.48000
H  35.66000 4.80500 24.00800
H  36.43800 3.45900 23.06600
H  37.12800 4.09300 24.52100
H  33.22900 1.38200 23.55400
H  32.01300 2.52800 24.12400
H  32.98500 0.39800 26.00700
H  32.03100 -0.02500 24.66400
H  31.32500 1.17600 25.75600
H  28.88400 4.58200 28.94300
H  29.48000 3.87400 27.39900
H  29.68300 5.60400 27.63500
H  31.57000 3.53700 33.25700
H  30.08100 7.19200 35.11700
H  31.77900 7.37400 35.49600
H  30.84100 6.26300 36.44400
Mg -6.12100 24.85600 25.80500
C  -4.42800 26.12100 28.69100
C  -7.69500 22.66200 27.76100
C  -7.20300 23.36500 23.08400
C  -4.05200 27.05000 23.90400
N  -6.06700 24.56200 28.02800
C  -5.44900 25.19400 29.02700
C  -5.93300 24.73900 30.40200
C  -6.76200 23.50400 30.00600
C  -6.84300 23.56700 28.52300
C  -5.94100 22.18600 30.38500
C  -6.63300 25.87300 31.22300
C  -6.37900 25.98300 32.76400
H  -5.94800 24.72700 33.50900
N  -7.42500 23.28000 25.48600
C  -8.04000 22.59200 26.41000
C  -9.07900 21.74900 25.74600
C  -8.92600 21.94900 24.31700
C  -7.79100 22.87600 24.23200
C  -10.04900 20.84000 26.53700
C  -9.66300 21.40900 23.14100
O  -9.39700 21.62300 21.98100
C  -10.71100 20.44300 23.50100
N  -5.49700 24.99300 23.80700
C  -6.20600 24.30000 22.86100
C  -5.56300 24.65200 21.42400
C  -4.66100 25.87700 21.71200
C  -4.60900 25.93300 23.28400
C  -4.81500 23.53000 20.67500
C  -5.21600 27.23500 21.08000
C  -4.24600 28.24500 20.53400
N  -4.58700 26.32200 26.16700
C  -3.91400 27.18200 25.29200
C  -2.97800 28.02700 26.00400
C  -3.17000 27.63100 27.38400
C  -4.15800 26.61400 27.43300
C  -1.97800 28.88500 25.40800
C  -2.68900 27.90000 28.72500
O  -1.90100 28.71600 29.17100
C  -3.46100 26.88500 29.61600
C  -2.48400 26.03800 30.37500
O  -1.77700 25.17600 29.87500
O  -2.44900 26.41100 31.72200
C  -1.67100 25.52000 32.54100
H  -8.22600 21.89800 28.33300
H  -7.57500 22.89800 22.16900
H  -3.33300 27.60900 23.30200
H  -4.99600 24.54800 30.92500
H  -7.78200 23.55800 30.38400
H  -5.64700 22.30200 31.42900
H  -5.10200 22.18600 29.69000
H  -6.56400 21.29900 30.27400
H  -7.68100 25.80400 30.93100
H  -6.20100 26.80500 30.86000
H  -7.35700 26.22400 33.17900
H  -5.66200 26.76100 33.02700
H  -11.07000 20.95600 26.17500
H  -9.85600 20.99800 27.59800
H  -9.87400 19.77600 26.37600
H  -11.13400 20.12500 22.54800
H  -11.53600 21.03600 23.89400
H  -10.43300 19.52600 24.02100
H  -6.39400 24.98600 20.80200
H  -3.66900 25.70100 21.29500
H  -4.79700 22.75700 21.44300
H  -3.79700 23.88600 20.51500
H  -5.32800 23.26900 19.74900
H  -5.71400 27.72400 21.91700
H  -5.92500 27.04200 20.27400
H  -3.22000 27.87700 20.53000
H  -4.35000 29.15400 21.12700
H  -4.52300 28.47700 19.50500
H  -1.25900 29.25300 26.14100
H  -2.49700 29.73200 24.95900
H  -1.44000 28.37300 24.61100
H  -3.96100 27.56600 30.30500
H  -0.60300 25.71900 32.45300
H  -1.77000 24.43600 32.50300
H  -2.05600 25.79000 33.52400

