158

Mg 36.23800 49.52300 24.95200
C  36.11900 47.74900 27.91900
C  34.64000 52.06700 26.35800
C  36.27900 50.94200 21.92400
C  37.73700 46.62200 23.43100
N  35.55900 49.78500 26.93800
C  35.66100 49.11700 28.05600
C  35.12000 49.84400 29.27900
C  34.36600 51.03900 28.59400
C  34.86900 50.93200 27.13600
C  32.88300 51.09000 28.78500
C  36.20300 50.16900 30.39100
C  35.88200 49.68900 31.86000
H  34.39500 49.53000 32.23600
N  35.65500 51.35800 24.24200
C  35.08300 52.29100 25.03300
C  35.04200 53.51800 24.37300
C  35.35700 53.21500 22.99300
C  35.80100 51.76200 23.00900
C  34.54700 54.72600 25.07600
C  35.31000 54.11000 21.80200
O  35.61700 53.63600 20.71800
C  34.90300 55.49400 21.89600
N  37.00200 48.91300 22.99900
C  36.90900 49.70700 21.90700
C  37.57800 49.03400 20.72300
C  38.31400 47.87400 21.32900
C  37.70400 47.81700 22.67800
C  36.66600 48.66700 19.48600
C  39.76600 48.21800 21.54800
C  40.57300 48.51200 20.24800
N  36.74800 47.53600 25.44600
C  37.33400 46.46500 24.75300
C  37.37200 45.27400 25.58000
C  36.93800 45.74000 26.84700
C  36.57900 47.11800 26.71400
C  37.86100 43.93900 25.17000
C  36.77100 45.38900 28.25300
O  37.10200 44.34300 28.86700
C  36.35700 46.80000 29.00800
C  35.10200 46.42300 29.74500
O  34.00400 46.49400 29.22000
O  35.32900 45.79300 30.89400
C  34.17100 45.13500 31.50400
H  34.05100 52.85800 26.82900
H  36.29200 51.47200 20.96900
H  38.27700 45.79600 22.96300
H  34.39500 49.17200 29.73700
H  34.74100 51.97300 29.01400
H  32.43300 50.38200 29.48100
H  32.42700 50.90600 27.81200
H  32.47600 52.05400 29.08700
H  36.42600 51.23400 30.44900
H  37.10100 49.61000 30.13200
H  36.28900 50.48000 32.48900
H  36.40000 48.78700 32.18500
H  34.84600 55.69000 24.66500
H  34.76800 54.66900 26.14200
H  33.46700 54.61200 24.98800
H  33.86700 55.47800 22.23400
H  34.94000 56.06900 20.97000
H  35.58600 56.07000 22.52100
H  38.27200 49.75400 20.29000
H  38.18400 46.95400 20.75900
H  35.61800 48.87900 19.69700
H  36.67700 47.62000 19.18400
H  36.93600 49.27700 18.62400
H  40.21300 47.36600 22.06000
H  39.85600 49.11300 22.16300
H  39.80400 48.60400 19.48100
H  41.29400 47.72700 20.01900
H  40.99500 49.51000 20.37100
H  38.07400 43.94400 24.10100
H  37.17700 43.12800 25.41900
H  38.82700 43.79100 25.65300
H  36.96300 47.16900 29.83600
H  34.01000 44.13800 31.09300
H  33.21800 45.64700 31.37000
H  34.28600 44.99800 32.58000
Mg 0.85400 42.72800 26.42400
C  1.98900 43.42500 29.65000
C  -2.13500 41.52000 27.81400
C  -0.12300 41.99100 23.32200
C  3.88700 43.63500 25.16300
N  -0.04000 42.63000 28.59600
C  0.61800 43.04400 29.69500
C  -0.32300 42.91500 30.92100
C  -1.52500 42.17000 30.35500
C  -1.15700 41.97000 28.81700
C  -2.01100 40.76900 31.05100
C  -0.69900 44.24300 31.77900
C  0.01100 44.39700 33.07600
H  -0.61200 43.73500 34.46100
N  -0.82900 41.92600 25.71700
C  -1.96200 41.53800 26.41300
C  -2.93900 41.05800 25.52300
C  -2.39400 41.25400 24.21100
C  -1.06800 41.82700 24.37000
C  -4.41300 40.55900 25.93400
C  -3.05600 40.85800 22.88100
O  -2.75400 41.18600 21.79100
C  -4.33400 39.95500 22.89900
N  1.84600 42.59600 24.51500
C  1.16700 42.39900 23.36200
C  1.96700 42.64100 22.11500
C  3.16800 43.37800 22.76900
C  2.94300 43.20700 24.21900
C  2.37600 41.31300 21.35000
C  3.24600 44.83400 22.22700
C  3.26100 45.07200 20.72900
N  2.63100 43.28700 27.21800
C  3.79300 43.57300 26.55000
C  4.79600 43.99700 27.52300
C  4.08400 43.95000 28.73600
C  2.77500 43.48400 28.49800
C  6.15700 44.51900 27.32600
C  4.29100 44.17900 30.16000
O  5.26000 44.56800 30.82900
C  2.93800 43.75300 30.84900
C  3.08500 42.57000 31.79300
O  3.15500 41.43000 31.34800
O  3.26400 43.00500 33.04500
C  3.57300 41.93000 34.02200
H  -3.06900 41.06900 28.15800
H  -0.55900 41.91300 22.32400
H  4.72500 44.24400 24.81700
H  0.00200 42.22500 31.70100
H  -2.45600 42.70400 30.54600
H  -2.02600 39.93700 30.34600
H  -3.00800 40.88600 31.47600
H  -1.41100 40.44500 31.90200
H  -1.78000 44.31500 31.90500
H  -0.43100 45.13200 31.20800
H  -0.00100 45.47800 33.21600
H  1.06500 44.13200 32.99400
H  -5.18500 40.94600 25.26800
H  -4.74400 40.90700 26.91300
H  -4.45100 39.47000 25.94800
H  -5.23600 40.39100 23.32900
H  -4.01400 38.96900 23.23700
H  -4.51100 39.72800 21.84800
H  1.37400 43.30100 21.48300
H  4.14200 42.97100 22.49600
H  1.99000 40.46100 21.90900
H  3.41700 41.13500 21.08000
H  1.82600 41.29300 20.40900
H  4.16600 45.29000 22.59200
H  2.47700 45.47900 22.65300
H  4.08000 45.78300 20.62400
H  2.41800 45.64900 20.35000
H  3.64600 44.22600 20.16000
H  6.41700 45.24900 28.09200
H  6.11200 45.02900 26.36400
H  6.92300 43.74600 27.26100
H  2.43300 44.50300 31.45700
H  3.21000 40.97400 33.64700
H  3.05800 42.03300 34.97800
H  4.65400 41.89800 34.15400

