158

Mg 16.16800 51.80200 26.43300
C  18.22600 50.94100 29.11000
C  13.72200 52.77200 28.53100
C  14.50200 52.82600 23.72500
C  18.78400 50.68700 24.25000
N  15.99500 51.93200 28.65200
C  16.96500 51.45300 29.51000
C  16.49800 51.70800 30.97600
C  14.92900 51.98400 30.73300
C  14.81000 52.19800 29.21200
C  14.08600 50.80100 31.16700
C  17.30800 52.87200 31.58900
C  17.67800 52.69300 33.08800
H  16.80400 51.99800 34.11900
N  14.35500 52.73500 26.21400
C  13.48600 53.06300 27.17500
C  12.29500 53.61500 26.54800
C  12.50500 53.67600 25.07900
C  13.81100 53.02900 24.96400
C  11.07000 54.07100 27.41900
C  11.61500 54.31500 24.08200
O  11.84400 54.35000 22.86900
C  10.38000 54.93700 24.45300
N  16.65900 51.86600 24.38800
C  15.75200 52.33200 23.47100
C  16.30200 52.33800 22.02500
C  17.79500 51.84700 22.19300
C  17.80700 51.45500 23.71300
C  15.44400 51.43900 21.05700
C  18.79800 52.82300 21.58800
C  19.85000 53.51100 22.52900
N  17.96400 50.68200 26.62900
C  18.88900 50.29100 25.60400
C  20.01900 49.69700 26.27600
C  19.80700 49.93300 27.64600
C  18.56400 50.58700 27.81200
C  21.23300 48.99400 25.55800
C  20.32200 49.85000 28.94300
O  21.40900 49.42700 29.24700
C  19.32100 50.47200 29.96100
C  18.97400 49.40800 30.89900
O  18.37600 48.41400 30.61400
O  19.47200 49.64400 32.07500
C  19.28800 48.55600 33.09100
H  12.97000 53.04500 29.27500
H  13.87600 53.05200 22.85900
H  19.52200 50.25500 23.57100
H  16.53000 50.81400 31.59800
H  14.61700 52.88100 31.26900
H  14.59100 50.06800 31.79700
H  13.53600 50.28100 30.38300
H  13.33700 51.29600 31.78400
H  16.61700 53.71500 31.60200
H  18.18700 52.96800 30.95200
H  17.80100 53.74100 33.36100
H  18.61600 52.13900 33.13000
H  10.19000 53.56200 27.02600
H  10.84800 55.12300 27.23700
H  11.14000 53.94300 28.49900
H  9.78900 55.28700 23.60700
H  10.58200 55.85000 25.01300
H  9.81600 54.15000 24.95400
H  16.32300 53.37500 21.69100
H  17.85600 50.86000 21.73300
H  16.06300 50.82300 20.40500
H  14.81900 52.01100 20.37200
H  14.86600 50.80000 21.72500
H  18.30500 53.56100 20.95600
H  19.33200 52.26400 20.81900
H  20.23000 52.85100 23.30800
H  19.60700 54.47700 22.97000
H  20.67300 53.70700 21.84200
H  21.50100 49.58900 24.68500
H  20.78100 48.04900 25.25600
H  22.11300 48.93500 26.19800
H  19.83700 51.34500 30.36000
H  19.83900 47.62400 32.96500
H  18.36600 47.97600 33.12900
H  19.47600 49.07000 34.03400
Mg -10.91900 16.66400 40.50700
C  -7.44200 16.53000 40.52500
C  -10.66700 20.07600 39.91700
C  -14.34300 16.89000 39.92000
C  -10.99700 13.26800 40.09500
N  -9.30900 18.08900 40.38200
C  -7.96700 17.84900 40.39800
C  -7.12900 19.08500 40.16400
C  -8.16300 20.22200 40.54000
C  -9.46900 19.42600 40.22300
C  -8.10000 20.75800 42.08300
C  -6.63300 19.08900 38.70100
C  -5.08700 19.00800 38.43900
H  -4.68200 18.23000 37.21800
N  -12.33500 18.35300 40.03500
C  -12.06500 19.65600 39.86600
C  -13.22400 20.50300 39.68600
C  -14.31900 19.58700 39.91400
C  -13.71900 18.19300 39.95200
C  -13.09200 22.02100 39.35900
C  -15.76600 19.97600 39.88900
O  -15.93700 21.20100 39.84900
C  -16.96300 19.07300 40.01300
N  -12.43900 15.30300 40.12900
C  -13.72800 15.59000 39.91400
C  -14.59600 14.38500 39.76800
C  -13.49900 13.22400 39.67300
C  -12.23700 13.97100 40.01700
C  -15.71400 14.26800 40.84900
C  -13.44000 12.62400 38.23100
C  -12.70300 11.19000 38.10900
N  -9.56000 15.16700 40.56100
C  -9.74000 13.79500 40.33800
C  -8.40100 13.11900 40.23400
C  -7.52400 14.18200 40.28500
C  -8.23200 15.34200 40.48700
C  -8.13300 11.69600 40.00300
C  -6.09600 14.46700 40.24500
O  -5.11300 13.70300 40.04500
C  -6.03100 15.96700 40.55800
C  -5.22600 16.08600 41.81400
O  -5.34800 15.39500 42.83500
O  -4.36700 17.21000 41.66300
C  -3.58300 17.56900 42.88000
H  -10.52100 21.14300 39.73500
H  -15.43500 16.89200 39.93600
H  -11.05200 12.20000 39.87500
H  -6.24800 19.26600 40.78000
H  -8.02900 21.08300 39.88600
H  -8.93700 20.35500 42.65300
H  -7.98300 21.83800 42.16700
H  -7.15000 20.50400 42.55300
H  -6.99700 20.01600 38.25800
H  -7.01200 18.24900 38.11900
H  -4.61300 18.57200 39.31800
H  -4.61900 19.97900 38.27800
H  -13.12700 22.03600 38.27000
H  -12.13000 22.46700 39.61400
H  -13.80700 22.70200 39.82200
H  -17.82300 19.71900 40.18800
H  -16.87200 18.36600 40.83700
H  -16.94600 18.62100 39.02100
H  -15.11900 14.40800 38.81200
H  -13.57400 12.50200 40.48600
H  -15.93000 13.20000 40.79800
H  -16.62600 14.72900 40.46800
H  -15.28800 14.45600 41.83400
H  -12.84100 13.33500 37.66100
H  -14.41600 12.46500 37.77300
H  -12.94600 10.76700 39.08300
H  -11.65700 11.22500 37.80400
H  -13.20300 10.44600 37.48900
H  -8.25100 11.10100 40.90900
H  -7.09200 11.55300 39.71400
H  -8.72000 11.15500 39.26000
H  -5.37900 16.27700 39.74100
H  -2.72100 18.03300 42.39900
H  -3.22800 16.68400 43.40800
H  -3.92400 18.31300 43.59900

