158

Mg 45.19200 4.17700 47.14500
C  43.04600 6.91100 47.01100
C  42.56800 2.02500 46.72700
C  47.41900 1.73800 46.37700
C  47.97300 6.47800 47.26800
N  43.07500 4.44300 46.88700
C  42.37500 5.63600 46.95200
C  40.83800 5.33400 46.87700
C  40.75800 3.82200 46.86800
C  42.21600 3.39900 46.84800
C  39.93900 3.08800 48.01500
C  40.12700 6.11100 45.67800
C  40.86800 6.21200 44.32500
H  40.04500 6.40100 43.06100
N  45.02700 2.11100 46.67100
C  43.84200 1.43300 46.54000
C  44.19700 0.08500 46.36800
C  45.56300 -0.01700 46.08800
C  46.08000 1.31400 46.38700
C  43.25800 -1.03000 46.32800
C  46.26200 -1.25800 45.61700
O  45.60600 -2.30900 45.61000
C  47.67800 -1.36400 45.07500
N  47.44500 4.14900 46.98000
C  48.04700 3.00800 46.65500
C  49.61400 3.26400 46.45700
C  49.71900 4.71500 46.77100
C  48.30200 5.15700 47.07200
C  50.53400 2.30900 47.19800
C  50.37400 5.60700 45.64600
C  51.74500 5.09600 45.16700
N  45.47500 6.27500 47.17300
C  46.62800 7.04800 47.25600
C  46.13800 8.44900 47.21300
C  44.79400 8.40700 47.25300
C  44.42200 7.04700 47.19500
C  46.95400 9.60200 47.07400
C  43.62200 9.20000 47.26300
O  43.49100 10.42600 47.55500
C  42.45300 8.27300 47.11500
C  41.57800 8.44300 48.29600
O  41.58300 7.78000 49.31500
O  40.62400 9.40200 48.11400
C  39.64600 9.72800 49.17400
H  41.68100 1.38800 46.72300
H  48.08200 0.92600 46.07300
H  48.81600 7.17000 47.20700
H  40.29400 5.65400 47.76600
H  40.44900 3.45700 45.88800
H  39.21000 3.80400 48.39300
H  40.59000 2.84400 48.85400
H  39.36500 2.23100 47.66100
H  39.94300 7.13600 46.00200
H  39.16500 5.60000 45.63900
H  41.46900 5.30800 44.22400
H  41.61800 7.00200 44.35300
H  42.28700 -0.60600 46.58500
H  43.63300 -1.87600 46.90400
H  43.10600 -1.42600 45.32400
H  47.88400 -2.39100 44.77400
H  48.30800 -1.14200 45.93600
H  47.83600 -0.62100 44.29300
H  49.69000 3.11800 45.37900
H  50.28900 4.85100 47.69000
H  49.97400 1.80600 47.98700
H  51.33600 2.90000 47.63900
H  50.78200 1.46100 46.56000
H  50.49300 6.65000 45.94000
H  49.62000 5.63600 44.85900
H  52.46500 5.91300 45.19000
H  51.72100 4.66700 44.16500
H  52.15400 4.39400 45.89400
H  47.14300 10.13200 48.00700
H  46.45900 10.38000 46.49300
H  47.95200 9.44200 46.66500
H  42.01500 8.55000 46.15600
H  38.69200 10.10300 48.80500
H  40.00400 10.54100 49.80600
H  39.43600 8.91500 49.86900
Mg 9.88200 47.70200 25.50200
C  8.03600 48.09500 28.27900
C  12.68300 48.87100 27.34700
C  11.86300 47.10600 22.76900
C  7.10500 47.01600 23.63300
N  10.29100 48.25800 27.59500
C  9.34900 48.23100 28.58100
C  9.87900 48.71500 29.90000
C  11.23900 49.44500 29.43900
C  11.44900 48.86500 28.00700
C  11.02900 51.05200 29.35800
C  10.12400 47.57300 30.89600
C  9.67300 47.86300 32.33800
H  9.33500 46.69800 33.36900
N  11.95700 47.88700 25.13000
C  12.93600 48.31300 26.01000
C  14.28500 48.07600 25.44900
C  14.04000 47.55700 24.12900
C  12.57300 47.48700 23.93700
C  15.57200 48.39200 26.26100
C  15.07000 47.09500 23.16800
O  14.71400 46.54200 22.13000
C  16.53400 47.25500 23.48100
N  9.49900 47.10900 23.46600
C  10.48200 46.77100 22.58200
C  9.84700 46.26400 21.25000
C  8.34600 46.23600 21.55800
C  8.31200 46.91400 22.92700
C  10.23600 47.23700 20.14500
C  7.82400 44.84300 21.53500
C  8.05400 43.84600 22.69600
N  7.93900 47.48400 25.86900
C  6.89700 47.29300 24.99000
C  5.66400 47.32400 25.74200
C  6.09300 47.60400 27.04200
C  7.44100 47.76800 27.04300
C  4.19100 47.28200 25.21800
C  5.57200 47.85600 28.39100
O  4.43100 47.87100 28.83300
C  6.83500 48.07000 29.25100
C  6.86200 46.89300 30.17500
O  7.28800 45.77900 29.79200
O  6.23200 47.14100 31.30800
C  6.04800 46.07000 32.26300
H  13.49200 49.24700 27.97600
H  12.42500 46.87500 21.86200
H  6.20100 46.83300 23.04800
H  9.30800 49.52500 30.35200
H  12.17300 49.12700 29.90200
H  10.13700 51.52400 29.77000
H  11.23200 51.40200 28.34600
H  11.88100 51.29900 29.99300
H  11.16200 47.24700 30.82400
H  9.56000 46.68200 30.62200
H  8.73800 48.42300 32.31300
H  10.50600 48.45200 32.72300
H  15.27900 48.44100 27.31000
H  16.23500 49.19800 25.94800
H  16.13200 47.48600 26.02800
H  16.85200 48.14800 24.01900
H  17.11600 47.16400 22.56400
H  16.65300 46.41200 24.16200
H  10.24600 45.28100 20.99900
H  7.87600 46.93500 20.86700
H  9.51500 47.09800 19.33900
H  11.22800 46.97400 19.77700
H  10.30900 48.27300 20.47500
H  8.31700 44.35700 20.69300
H  6.75400 44.94200 21.35400
H  8.54800 44.29300 23.55900
H  8.86200 43.13700 22.51400
H  7.12400 43.45400 23.10600
H  4.08000 46.50400 24.46300
H  4.02100 48.27800 24.80900
H  3.49800 47.06000 26.02900
H  6.66900 48.95900 29.85900
H  5.69100 46.39500 33.24000
H  6.63900 45.15900 32.16200
H  5.13700 45.59700 31.89700

