158

Mg 16.80300 -1.64200 28.33800
C  15.58900 0.40500 30.97600
C  19.11600 -2.94200 30.59700
C  18.34600 -3.25700 25.81000
C  14.92600 0.17900 26.13000
N  17.39500 -1.22000 30.48200
C  16.61800 -0.48600 31.31900
C  17.11100 -0.72300 32.77900
C  18.23100 -1.75300 32.66000
C  18.31100 -1.97000 31.16300
C  19.52700 -1.40100 33.44400
C  15.94100 -1.24000 33.76800
C  16.00000 -0.62900 35.19300
H  17.17300 0.16800 35.75600
N  18.42500 -2.86500 28.22700
C  19.19200 -3.37100 29.27900
C  19.98600 -4.52300 28.77800
C  19.91400 -4.49900 27.35000
C  18.86200 -3.53600 27.06700
C  20.75700 -5.40700 29.69200
C  20.66700 -5.39000 26.44100
O  20.56700 -5.34400 25.25000
C  21.64600 -6.40400 26.93600
N  16.93500 -1.28500 26.24600
C  17.64700 -2.09900 25.39800
C  17.27900 -1.71600 23.91500
C  16.08200 -0.73500 24.07900
C  15.91900 -0.62300 25.57800
C  18.58200 -1.02600 23.39600
C  14.74900 -1.22800 23.36400
C  13.92400 -0.17300 22.61600
N  15.45400 -0.01000 28.51800
C  14.74700 0.63000 27.51400
C  13.87100 1.54100 28.14700
C  14.13000 1.54000 29.52400
C  15.12600 0.54200 29.66200
C  12.91400 2.39800 27.45200
C  13.87300 2.16700 30.76700
O  13.15000 3.05200 31.08400
C  14.70700 1.36200 31.83000
C  15.54800 2.29700 32.70300
O  16.60600 2.74700 32.41900
O  14.85100 2.68300 33.80900
C  15.42500 3.61200 34.83400
H  19.71800 -3.47800 31.33400
H  18.77400 -3.77800 24.95100
H  14.24600 0.58800 25.37900
H  17.47400 0.22900 33.16400
H  18.02900 -2.77400 32.98700
H  19.83500 -2.00500 34.29800
H  19.25000 -0.44800 33.89500
H  20.39300 -1.33600 32.78500
H  15.99900 -2.32200 33.88400
H  15.00800 -1.05900 33.23300
H  15.66900 -1.36300 35.92800
H  15.23500 0.14700 35.21800
H  20.29400 -6.36700 29.91700
H  20.78800 -5.00500 30.70500
H  21.80800 -5.56900 29.45000
H  21.19500 -7.17600 27.55800
H  22.48300 -5.87900 27.39600
H  22.21600 -6.92400 26.16500
H  16.98400 -2.58100 23.32100
H  16.29600 0.25700 23.67900
H  18.33600 -0.05500 22.96600
H  19.08500 -1.61000 22.62500
H  19.26200 -0.86900 24.23300
H  14.16600 -1.79800 24.08700
H  15.00600 -2.03200 22.67500
H  14.37400 0.80300 22.80000
H  12.98900 -0.09100 23.17100
H  13.70200 -0.38100 21.56900
H  12.70400 1.89700 26.50800
H  13.51000 3.28400 27.23200
H  12.07100 2.46300 28.14000
H  13.98700 0.84300 32.46200
H  15.43500 3.02200 35.75100
H  14.77100 4.48400 34.82500
H  16.42300 3.92300 34.52600
Mg -12.96400 16.62300 41.99000
C  -9.60000 15.23700 41.65700
C  -11.57500 19.64400 41.18700
C  -15.99200 17.72300 42.06700
C  -14.08900 13.31800 42.50800
N  -10.79200 17.35400 41.67800
C  -9.62300 16.65100 41.50700
C  -8.45300 17.54800 41.12500
C  -9.02200 18.97000 41.37500
C  -10.52800 18.70500 41.36900
C  -8.55800 19.59300 42.73700
C  -7.98700 17.27000 39.70700
C  -6.45500 16.96100 39.46700
H  -5.76000 17.59000 38.26800
N  -13.71400 18.42500 41.64100
C  -13.02800 19.58200 41.27300
C  -13.96000 20.65000 41.12300
C  -15.21900 20.09100 41.34600
C  -15.05500 18.67700 41.70100
C  -13.47000 22.03300 40.71400
C  -16.52800 20.88000 41.40100
O  -16.41900 22.06800 41.00700
C  -17.90400 20.40800 41.72000
N  -14.78600 15.59100 41.91100
C  -15.92900 16.34100 42.19400
C  -17.11000 15.47800 42.58200
C  -16.51000 14.06700 42.47600
C  -15.04000 14.30400 42.32700
C  -17.68500 15.74100 44.00500
C  -16.98100 13.24800 41.26800
C  -17.89400 12.06900 41.69600
N  -12.08500 14.63500 42.03500
C  -12.64800 13.38900 42.32900
C  -11.62700 12.40500 42.27700
C  -10.49200 13.11300 42.06700
C  -10.75400 14.45500 41.91900
C  -11.83200 10.89000 42.40800
C  -9.00900 12.95500 41.77200
O  -8.30500 11.97900 41.80000
C  -8.37100 14.29900 41.54200
C  -7.35800 14.47100 42.61200
O  -7.42800 13.95400 43.74700
O  -6.23100 15.09900 42.17700
C  -4.99100 15.18700 42.94000
H  -11.24600 20.67800 41.06400
H  -16.98200 18.15600 42.22500
H  -14.55800 12.40000 42.86700
H  -7.67600 17.33400 41.85900
H  -8.69200 19.60400 40.55200
H  -9.21900 20.45000 42.86500
H  -7.59600 20.08500 42.59100
H  -8.57100 18.90600 43.58300
H  -8.16900 18.08600 39.00800
H  -8.61100 16.45500 39.34000
H  -6.37900 15.87700 39.38200
H  -5.87700 17.24700 40.34600
H  -13.40700 22.22800 39.64400
H  -12.50200 22.23400 41.17500
H  -14.09600 22.77800 41.20500
H  -18.17900 19.56400 41.08700
H  -18.55900 21.25800 41.53000
H  -17.92800 20.24900 42.79800
H  -17.78600 15.72900 41.76400
H  -16.75700 13.44000 43.33300
H  -18.53200 15.08100 44.19400
H  -18.00900 16.78200 43.98100
H  -17.04200 15.64400 44.87900
H  -16.27000 12.86600 40.53700
H  -17.61800 13.82400 40.59700
H  -18.95400 12.28500 41.56300
H  -17.70800 11.71200 42.70900
H  -17.65200 11.32200 40.94000
H  -12.38000 10.62900 43.31200
H  -10.82900 10.50600 42.59700
H  -12.29800 10.45200 41.52500
H  -7.90200 14.37700 40.56100
H  -4.87000 14.41000 43.69600
H  -4.99400 16.18900 43.36900
H  -4.05900 15.18700 42.37400

