158

Mg 17.19800 -1.04500 28.23400
C  15.84700 0.83500 30.86000
C  18.96900 -2.83400 30.45800
C  18.89700 -2.27800 25.73300
C  15.56100 1.22800 25.94900
N  17.55000 -0.77300 30.37500
C  16.79600 -0.09500 31.30100
C  17.06100 -0.57600 32.70700
C  18.26500 -1.48200 32.54200
C  18.25700 -1.73600 31.04500
C  19.56200 -0.94100 33.14000
C  15.85800 -1.25400 33.39200
C  15.53400 -1.09700 34.86700
H  16.51400 -0.28800 35.73700
N  18.63600 -2.49000 28.06900
C  19.21600 -3.21100 29.08000
C  20.04400 -4.26900 28.56400
C  19.95900 -4.23600 27.11000
C  19.08000 -3.00700 26.90700
C  20.71000 -5.27900 29.47400
C  20.42400 -5.12100 26.05900
O  20.12500 -5.06200 24.85500
C  21.31600 -6.28900 26.50700
N  17.42100 -0.35300 26.15000
C  18.17200 -1.13800 25.37300
C  18.04900 -0.65700 23.92000
C  16.85400 0.33100 23.90500
C  16.51800 0.36700 25.38800
C  19.37900 -0.19100 23.22100
C  15.55800 -0.06300 23.05200
C  15.46400 0.32000 21.60100
N  15.95400 0.61500 28.34600
C  15.47500 1.44300 27.35300
C  14.54900 2.38900 27.98900
C  14.67000 2.16000 29.33000
C  15.57800 1.16300 29.50000
C  13.62800 3.33100 27.25800
C  14.20900 2.55100 30.59400
O  13.56400 3.54300 30.85100
C  14.86000 1.63300 31.65100
C  15.55100 2.48400 32.64700
O  16.59900 3.11700 32.45000
O  14.67600 2.53300 33.72800
C  15.07600 3.55700 34.71800
H  19.62400 -3.37000 31.14900
H  19.44500 -2.78500 24.93500
H  14.93000 1.87600 25.33700
H  17.38300 0.32600 33.22800
H  18.09600 -2.47800 32.95000
H  20.37800 -0.95500 32.41800
H  19.84000 -1.61000 33.95400
H  19.53100 0.08200 33.51400
H  15.58900 -2.28800 33.17900
H  14.96200 -0.81700 32.95300
H  15.25400 -2.09600 35.20300
H  14.59100 -0.55400 34.92800
H  21.77100 -5.04500 29.56300
H  20.63800 -6.29000 29.07200
H  20.19100 -5.29100 30.43200
H  21.89900 -6.67800 25.67200
H  20.74600 -7.13600 26.89000
H  22.14000 -5.92100 27.11800
H  17.73300 -1.47100 23.26900
H  17.22600 1.28000 23.52000
H  20.22800 -0.42200 23.86500
H  19.32900 0.88900 23.08500
H  19.56400 -0.69300 22.27200
H  14.63500 0.32300 23.48400
H  15.48300 -1.12700 23.27500
H  15.76400 -0.57300 21.05300
H  16.10600 1.13900 21.27500
H  14.43700 0.60100 21.36400
H  13.51800 3.25200 26.17600
H  14.04800 4.33100 27.37300
H  12.64800 3.38300 27.73200
H  14.06000 1.03000 32.08100
H  15.69100 3.00200 35.42700
H  14.16100 3.89600 35.20400
H  15.54500 4.41800 34.24100
Mg -11.04000 38.62900 41.86300
C  -9.15400 35.74800 40.99300
C  -8.85600 40.48100 39.98200
C  -13.29500 41.24800 41.74100
C  -13.61900 36.44800 43.01700
N  -9.43900 38.02800 40.30000
C  -8.75900 36.83500 40.24600
C  -7.46200 37.02300 39.35900
C  -7.37600 38.60500 39.22700
C  -8.64000 39.12600 39.91600
C  -6.08900 39.20900 39.72900
C  -7.70000 36.26600 37.95700
C  -6.62900 35.28400 37.55300
H  -5.68600 35.92100 36.47700
N  -10.96600 40.61200 41.15600
C  -9.97700 41.15500 40.49500
C  -10.20600 42.60200 40.30500
C  -11.46200 42.85500 40.89000
C  -11.99400 41.51600 41.16300
C  -9.28400 43.50100 39.50700
C  -12.17200 44.20500 40.94300
O  -11.59200 45.24000 40.70800
C  -13.55200 44.35700 41.50300
N  -13.12100 38.75200 42.11000
C  -13.81700 39.96800 42.08800
C  -15.28200 39.78500 42.46800
C  -15.40500 38.32100 42.79300
C  -13.92700 37.81200 42.68900
C  -15.67400 40.77700 43.61200
C  -16.17900 37.44500 41.80600
C  -17.19900 36.44200 42.45600
N  -11.36100 36.48300 42.03900
C  -12.33800 35.78500 42.70400
C  -11.87000 34.45600 42.94900
C  -10.66700 34.39900 42.36700
C  -10.37900 35.62300 41.73400
C  -12.64800 33.44200 43.72200
C  -9.59800 33.59800 41.97300
O  -9.41000 32.38900 42.14700
C  -8.55000 34.38100 41.07200
C  -7.16000 34.34000 41.75000
O  -6.37300 33.41800 41.59200
O  -6.86900 35.58000 42.34400
C  -5.52400 35.75700 42.83900
H  -8.24700 41.03600 39.26600
H  -14.07600 42.00800 41.81700
H  -14.40600 35.85600 43.48900
H  -6.62400 36.54200 39.86500
H  -7.45300 38.95000 38.19600
H  -6.25300 39.89700 40.55800
H  -5.59700 39.77900 38.94000
H  -5.30000 38.47700 39.90600
H  -7.89800 37.05800 37.23500
H  -8.56600 35.61900 38.10100
H  -6.96500 34.32900 37.14900
H  -5.98500 34.90800 38.34900
H  -9.90600 44.21400 38.96600
H  -8.77200 42.85100 38.79700
H  -8.62400 44.08200 40.15200
H  -13.82700 45.41100 41.45400
H  -13.68200 44.06700 42.54600
H  -14.11300 43.77700 40.77100
H  -16.01900 40.06100 41.71400
H  -15.84200 38.15900 43.77800
H  -15.94300 41.74600 43.19200
H  -14.85600 40.97700 44.30400
H  -16.52000 40.46300 44.22400
H  -15.49400 36.82000 41.23300
H  -16.73400 38.07300 41.10900
H  -18.23400 36.73400 42.28000
H  -17.06900 36.51000 43.53600
H  -17.05300 35.44300 42.04600
H  -13.64400 33.25100 43.32200
H  -12.76000 34.02400 44.63600
H  -11.99500 32.58000 43.85800
H  -8.39200 33.86700 40.12400
H  -5.55900 36.44400 43.68400
H  -4.79500 36.06500 42.08900
H  -5.22000 34.80600 43.27800

