158

Mg 26.12700 0.55300 28.84800
C  28.01100 0.16200 31.67000
C  23.39500 1.18800 30.80700
C  24.16800 0.74300 26.09100
C  28.65400 -0.96900 26.87600
N  25.79400 0.62300 31.00400
C  26.75100 0.61200 31.97500
C  26.10200 0.71900 33.37900
C  24.56400 0.84300 33.08400
C  24.58700 0.91400 31.58000
C  23.72500 -0.31200 33.61600
C  26.64500 1.96700 34.20500
C  26.63800 1.77600 35.68100
H  26.26700 2.97400 36.64000
N  24.09200 1.08700 28.45500
C  23.13100 1.34100 29.44500
C  21.88100 1.71700 28.79400
C  22.05700 1.49400 27.37400
C  23.48000 1.13200 27.25500
C  20.55800 2.11700 29.42600
C  21.08100 1.53500 26.21400
O  21.34600 1.50600 25.05000
C  19.62900 1.83500 26.52800
N  26.23900 -0.29800 26.81200
C  25.37400 0.06800 25.81200
C  25.81000 -0.42200 24.40900
C  27.25200 -0.83700 24.70900
C  27.43000 -0.61000 26.21500
C  24.91200 -1.56000 23.83700
C  28.35300 -0.19800 23.80300
C  28.90200 1.13700 24.22300
N  28.00000 -0.25300 29.12100
C  28.90500 -0.83700 28.29700
C  30.08400 -1.01700 29.07500
C  29.85300 -0.63900 30.40800
C  28.53400 -0.22300 30.41000
C  31.40500 -1.44300 28.54200
C  30.40900 -0.50700 31.69300
O  31.53000 -0.69400 32.10700
C  29.25300 0.06300 32.61100
C  28.89900 -0.98100 33.58900
O  28.08900 -1.89300 33.49200
O  29.70900 -0.69400 34.70600
C  29.40800 -1.47100 35.90300
H  22.50400 1.34700 31.41800
H  23.66200 0.77300 25.12400
H  29.52300 -1.42300 26.39500
H  26.41000 -0.17900 33.91600
H  24.16700 1.82000 33.35700
H  23.29400 -0.89600 32.80300
H  22.83400 -0.02200 34.17200
H  24.23400 -0.99700 34.29400
H  26.00800 2.83300 34.02500
H  27.66800 2.21600 33.92500
H  27.58100 1.31900 35.98400
H  25.78800 1.10000 35.77600
H  19.87100 1.27100 29.41500
H  19.99700 2.90400 28.92200
H  20.68900 2.43300 30.46100
H  18.86600 1.80500 25.75000
H  19.62000 2.86800 26.87800
H  19.31700 1.05900 27.22700
H  25.64800 0.38200 23.69200
H  27.44300 -1.90600 24.61900
H  24.97200 -2.35800 24.57600
H  25.11100 -2.03600 22.87700
H  23.89300 -1.17300 23.84900
H  27.97500 -0.20000 22.78100
H  29.23900 -0.82100 23.92700
H  28.27600 1.58900 24.99200
H  28.93000 1.73900 23.31500
H  29.97000 1.07200 24.42900
H  32.10500 -1.82500 29.28500
H  31.92600 -0.62200 28.05000
H  31.37000 -2.18400 27.74400
H  29.55900 1.02100 33.03300
H  28.52200 -1.04600 36.37400
H  30.27100 -1.41900 36.56600
H  29.21700 -2.54200 35.83400
Mg 48.03600 34.16500 26.73600
C  46.32900 33.00700 29.50800
C  48.43400 37.30700 28.25100
C  49.07200 35.48200 23.85400
C  47.16000 31.25300 25.01700
N  47.57200 35.00900 28.69600
C  46.83100 34.32400 29.64800
C  46.54900 35.23700 30.93800
C  47.11300 36.64800 30.41400
C  47.72600 36.31700 29.00900
C  45.98300 37.63100 30.28800
C  47.28800 34.80500 32.24200
C  46.43200 34.68200 33.47000
H  46.16600 36.02000 34.16800
N  48.95000 36.02700 26.19800
C  49.05600 37.18600 26.95800
C  49.93800 38.11200 26.21000
C  50.08500 37.61100 24.86300
C  49.36800 36.34200 24.87300
C  50.47900 39.35000 26.95900
C  50.87200 38.21600 23.66900
O  50.93200 37.70500 22.53900
C  51.61800 39.50000 23.95600
N  48.12600 33.44700 24.70300
C  48.57300 34.16700 23.67600
C  48.56900 33.42600 22.34700
C  48.07400 31.99600 22.77700
C  47.78800 32.26700 24.21400
C  47.72300 34.19700 21.34500
C  49.01100 30.79400 22.61200
C  50.22400 30.81600 23.58900
N  46.91900 32.43300 27.10600
C  46.76700 31.30700 26.39500
C  46.01100 30.35300 27.25000
C  45.81400 30.97300 28.49300
C  46.41900 32.25500 28.37000
C  45.60800 29.01600 26.73700
C  45.22400 30.79400 29.74400
O  44.64700 29.80100 30.17400
C  45.44900 32.17600 30.44400
C  46.05700 31.74500 31.77800
O  47.24900 31.55700 31.99400
O  45.04600 31.43400 32.71300
C  45.41500 31.10800 34.05700
H  48.46200 38.26500 28.77300
H  49.53000 35.82300 22.92200
H  46.91500 30.25500 24.64600
H  45.49200 35.26900 31.20000
H  47.92600 37.03000 31.03000
H  45.72700 38.01700 29.30200
H  46.27400 38.49700 30.88300
H  45.09800 37.32000 30.84400
H  48.03500 35.54800 32.51900
H  47.98000 33.99500 32.01200
H  47.03300 33.98600 34.05400
H  45.48000 34.27800 33.12500
H  49.82700 39.53500 27.81300
H  50.55000 40.21100 26.29500
H  51.43900 39.08800 27.40300
H  52.16200 39.62800 24.89200
H  50.86500 40.27800 23.82900
H  52.24300 39.68000 23.08100
H  49.57800 33.30000 21.95500
H  47.11600 31.67500 22.37000
H  47.22400 35.06000 21.78500
H  46.98900 33.55500 20.85800
H  48.42400 34.56800 20.59700
H  49.34400 30.74600 21.57500
H  48.44500 29.86300 22.65300
H  50.42700 31.77700 24.06000
H  50.99400 30.38900 22.94600
H  49.93300 30.21300 24.44900
H  44.53100 28.98100 26.57400
H  45.84300 28.19500 27.41300
H  46.11200 28.77800 25.80000
H  44.51900 32.71000 30.63800
H  46.33500 31.63700 34.30600
H  45.58700 30.04400 34.22000
H  44.49200 31.38700 34.56400

