158

Mg -1.59600 34.16900 26.55300
C  -3.43500 32.61600 29.15500
C  0.09900 36.01200 28.94200
C  -0.35800 35.94100 24.13000
C  -3.96100 32.80700 24.31800
N  -1.67900 34.30800 28.81800
C  -2.41800 33.49700 29.62900
C  -2.06500 33.69900 31.05900
C  -0.98900 34.89800 31.00600
C  -0.76900 35.04200 29.51200
C  -1.41500 36.25700 31.66900
C  -1.45000 32.38300 31.66800
C  -2.18900 31.94800 32.92700
H  -1.49200 32.03000 34.27300
N  -0.10500 35.64400 26.50500
C  0.45300 36.23100 27.57100
C  1.45000 37.16600 27.10900
C  1.33100 37.14900 25.69700
C  0.24100 36.29200 25.34900
C  2.31200 38.01400 28.07100
C  2.17800 37.88700 24.71700
O  2.00500 37.91500 23.52300
C  3.28900 38.67000 25.23400
N  -2.07100 34.28900 24.51500
C  -1.31700 35.03400 23.73200
C  -1.70800 34.92100 22.25400
C  -2.87800 33.86100 22.32200
C  -3.05100 33.69600 23.80100
C  -2.21400 36.28900 21.60500
C  -2.55300 32.49900 21.56000
C  -1.46300 31.68800 22.04800
N  -3.18900 32.89000 26.61100
C  -3.97000 32.34500 25.62700
C  -4.79500 31.30200 26.21700
C  -4.67100 31.51300 27.59300
C  -3.64800 32.46100 27.77900
C  -5.87300 30.52400 25.55300
C  -5.26100 31.05600 28.77400
O  -6.11400 30.24700 28.96200
C  -4.45900 31.70000 29.86300
C  -5.46100 32.39100 30.68500
O  -6.23400 33.23700 30.15000
O  -5.43100 32.02100 32.00300
C  -6.36500 32.58100 32.92500
H  0.57800 36.61100 29.71900
H  0.21100 36.38600 23.31100
H  -4.68900 32.29900 23.68200
H  -2.95800 33.96700 31.62400
H  -0.06400 34.66700 31.53400
H  -2.31300 36.59200 31.15100
H  -0.61400 36.99400 31.72900
H  -1.71000 36.12400 32.71000
H  -0.37100 32.53500 31.62700
H  -1.68400 31.52500 31.03700
H  -2.43100 30.88800 32.85100
H  -3.11600 32.52200 32.94800
H  3.34200 37.66300 28.00600
H  2.08200 37.90000 29.13000
H  2.22700 39.07900 27.85700
H  3.10200 39.52600 25.88200
H  3.71400 39.17200 24.36500
H  4.00200 37.94200 25.62100
H  -0.84700 34.53600 21.70900
H  -3.79500 34.35100 21.99500
H  -2.00100 36.25200 20.53700
H  -1.55100 37.09300 21.92200
H  -3.28700 36.45400 21.69900
H  -2.48100 32.68500 20.48800
H  -3.44200 31.87000 21.61900
H  -0.97100 32.17400 22.89000
H  -0.68500 31.47300 21.31500
H  -1.86600 30.72500 22.35900
H  -5.45300 29.84600 24.81000
H  -6.64100 31.17900 25.14200
H  -6.29600 29.85200 26.30100
H  -4.07300 30.82800 30.39100
H  -6.94900 31.73200 33.28100
H  -7.05900 33.37100 32.63900
H  -5.74300 32.92100 33.75400
Mg -12.25200 16.23400 41.96900
C  -9.09100 14.50900 41.38400
C  -10.80300 19.02400 40.69400
C  -15.22600 17.39800 41.71000
C  -13.51500 13.06900 42.84400
N  -10.15400 16.62700 40.91200
C  -9.09300 15.83400 40.93500
C  -7.92700 16.62800 40.54100
C  -8.42700 18.14400 40.36800
C  -9.90400 17.92900 40.66400
C  -7.62800 19.22500 41.23800
C  -7.24400 16.00600 39.26000
C  -5.74100 16.15900 39.21200
H  -5.11100 16.73400 37.98700
N  -12.92100 18.02400 41.31100
C  -12.18300 19.03100 40.83700
C  -13.09500 20.08000 40.53800
C  -14.38100 19.70700 40.94500
C  -14.22000 18.32600 41.31400
C  -12.60800 21.39100 39.94900
C  -15.61600 20.53600 40.80900
O  -15.56300 21.69800 40.29800
C  -17.02100 20.17400 41.31300
N  -14.13000 15.30300 42.15600
C  -15.21000 16.09100 42.12800
C  -16.48000 15.23300 42.17700
C  -16.02900 13.81300 42.69200
C  -14.45700 14.00300 42.50300
C  -17.62100 15.80400 43.06900
C  -16.63700 12.53800 42.00500
C  -17.04300 11.41300 43.02200
N  -11.47900 14.18400 42.22800
C  -12.08600 13.06800 42.71000
C  -11.12700 11.96400 42.87000
C  -9.90200 12.54400 42.41100
C  -10.20500 13.87800 41.97700
C  -11.38800 10.59300 43.42300
C  -8.44900 12.22200 42.23200
O  -7.73700 11.23900 42.43500
C  -7.85500 13.51700 41.53200
C  -6.75800 14.02700 42.39000
O  -6.86800 14.77700 43.33300
O  -5.56500 13.65800 41.84800
C  -4.40800 14.22100 42.50700
H  -10.43800 20.02400 40.45200
H  -16.23600 17.81100 41.68100
H  -13.99600 12.13000 43.12600
H  -7.28000 16.61600 41.41800
H  -8.25800 18.40300 39.32300
H  -8.33000 19.83800 41.80300
H  -6.99000 19.93700 40.71600
H  -6.96800 18.71900 41.94300
H  -7.69500 16.42200 38.35900
H  -7.37700 14.92600 39.18800
H  -5.27300 15.18900 39.38400
H  -5.44600 16.70800 40.10600
H  -12.73800 22.26700 40.58400
H  -13.27600 21.39600 39.08800
H  -11.61600 21.43400 39.49800
H  -17.36200 19.38600 40.64200
H  -17.68000 21.01700 41.10500
H  -17.07600 19.95600 42.38000
H  -16.88400 15.18100 41.16600
H  -16.18800 13.58300 43.74500
H  -17.19400 16.53200 43.75900
H  -18.12000 15.00500 43.61900
H  -18.18800 16.30200 42.28300
H  -15.96100 12.13000 41.25400
H  -17.55300 12.92800 41.56100
H  -18.01300 11.74800 43.39100
H  -16.23600 11.21300 43.72700
H  -17.10000 10.59900 42.30000
H  -11.59000 10.67900 44.49100
H  -10.59000 9.86000 43.29900
H  -12.28900 10.13100 43.02100
H  -7.41500 13.18900 40.59000
H  -4.34200 15.30800 42.47400
H  -3.49300 13.87900 42.02400
H  -4.40700 13.94100 43.56000

