158

Mg 1.76700 -2.04700 44.86000
C  4.87100 -1.10200 43.88300
C  0.39100 0.44900 42.77600
C  -1.42000 -3.31900 45.48300
C  3.02000 -5.07800 46.14600
N  2.54100 -0.60100 43.43100
C  3.88600 -0.35800 43.22600
C  4.15200 0.84200 42.31100
C  2.66900 1.37200 42.13300
C  1.75300 0.30400 42.76100
C  2.40500 2.85200 42.68500
C  4.74300 0.44200 40.90100
C  6.12100 1.03700 40.60600
H  6.28300 1.81700 39.23100
N  -0.19800 -1.53000 44.21900
C  -0.52900 -0.47800 43.39600
C  -1.97500 -0.34400 43.39300
C  -2.54100 -1.34400 44.18600
C  -1.35800 -2.14600 44.65900
C  -2.75000 0.74200 42.61000
C  -3.95500 -1.46100 44.52200
O  -4.74600 -0.68900 44.02500
C  -4.48000 -2.40300 45.51700
N  0.87900 -4.11100 45.45100
C  -0.38800 -4.22400 45.85400
C  -0.70400 -5.55400 46.49900
C  0.74400 -6.12200 46.78500
C  1.64600 -5.07400 46.06000
C  -1.74400 -5.51200 47.71500
C  1.02500 -7.50900 46.21100
C  -0.19000 -8.48700 46.30400
N  3.52500 -2.93700 45.01100
C  3.95600 -4.16300 45.56300
C  5.42400 -4.20600 45.48400
C  5.81300 -3.05500 44.84300
C  4.61900 -2.27500 44.61200
C  6.23600 -5.27800 46.13400
C  6.94200 -2.24600 44.49400
O  8.12400 -2.58300 44.53900
C  6.34700 -0.94600 43.83900
C  6.84100 0.29100 44.46600
O  7.35800 1.18700 43.83500
O  6.60500 0.34400 45.80400
C  6.81300 1.66200 46.50700
H  -0.09800 1.32100 42.33600
H  -2.37200 -3.65900 45.89500
H  3.49300 -5.86200 46.74100
H  4.69800 1.65100 42.79600
H  2.39500 1.53600 41.09100
H  2.08400 3.58000 41.94000
H  3.24200 3.22700 43.27400
H  1.56400 2.72900 43.36800
H  4.12200 0.42100 40.00600
H  4.96000 -0.61800 41.03500
H  6.72900 0.13800 40.50700
H  6.38000 1.72900 41.40800
H  -2.18400 1.67000 42.54000
H  -3.70900 1.01300 43.05200
H  -2.96500 0.33700 41.62100
H  -3.90900 -2.44900 46.44400
H  -4.59800 -3.40300 45.10100
H  -5.43500 -1.97300 45.81800
H  -1.29900 -6.05900 45.73800
H  0.99100 -5.98100 47.83700
H  -2.79200 -5.65000 47.44900
H  -1.74400 -4.53200 48.19200
H  -1.40300 -6.25400 48.43700
H  1.84300 -7.95700 46.77500
H  1.30900 -7.56000 45.16000
H  -0.66200 -8.77900 45.36600
H  -0.88100 -8.04500 47.02200
H  0.14200 -9.43700 46.72200
H  7.24200 -4.88700 46.28600
H  6.22000 -6.12800 45.45200
H  5.86400 -5.63100 47.09600
H  6.65400 -0.94800 42.79300
H  6.06100 1.71200 47.29400
H  6.58500 2.49600 45.84300
H  7.80300 1.71600 46.95900
Mg 43.07500 3.49500 46.82300
C  41.39400 6.60700 47.01600
C  39.81900 1.91100 46.83100
C  44.42400 0.62900 46.12900
C  46.06600 5.25900 46.28100
N  40.94400 4.24800 46.93600
C  40.54100 5.53900 47.03200
C  39.00900 5.70200 47.19600
C  38.57500 4.18800 47.14500
C  39.84300 3.35800 46.98800
C  37.69900 3.69000 48.36400
C  38.21000 6.45600 46.13600
C  38.84600 6.49700 44.65000
H  38.08600 5.76800 43.48800
N  42.24700 1.49400 46.46700
C  40.91300 1.03700 46.63500
C  40.91800 -0.36900 46.41100
C  42.25900 -0.77700 46.16600
C  43.09500 0.42100 46.21400
C  39.69000 -1.20400 46.56300
C  42.69400 -2.26800 45.93700
O  41.84900 -3.16800 45.74800
C  44.07200 -2.62300 45.53700
N  44.96700 3.04600 46.21900
C  45.25800 1.74000 46.10100
C  46.78300 1.61400 46.03300
C  47.34600 3.03900 45.79200
C  46.05400 3.84400 46.13700
C  47.34600 1.01500 47.30800
C  47.93100 3.28700 44.42300
C  49.16400 4.04100 44.27400
N  43.69700 5.49000 46.75000
C  44.91200 6.04700 46.51900
C  44.75600 7.52000 46.56900
C  43.39600 7.68900 46.72600
C  42.82500 6.50300 46.88300
C  45.85200 8.60900 46.42600
C  42.37900 8.81700 46.80400
O  42.44700 10.06500 46.72600
C  41.06900 8.10400 46.95800
C  40.52300 8.65800 48.27100
O  40.96400 8.54700 49.38200
O  39.36700 9.32600 48.00900
C  38.82300 10.00400 49.20600
H  38.84200 1.42200 46.81900
H  45.00300 -0.29600 46.10300
H  46.96400 5.87000 46.17000
H  38.86800 6.17900 48.16500
H  38.09500 3.92000 46.20400
H  37.80000 2.61800 48.53200
H  36.65600 3.92700 48.15700
H  37.94200 4.11200 49.33900
H  38.10300 7.45300 46.56400
H  37.21300 6.07200 45.91600
H  39.79700 5.97000 44.56600
H  38.93600 7.56900 44.47700
H  39.82600 -2.18800 47.01300
H  39.06100 -1.10700 45.67900
H  39.03100 -0.72500 47.28700
H  44.56700 -2.69700 46.50600
H  44.35700 -1.85300 44.82100
H  44.11600 -3.56000 44.98200
H  46.99100 1.06400 45.11500
H  47.99000 3.45900 46.56500
H  46.66300 0.54500 48.01600
H  47.84700 1.81500 47.85200
H  48.10700 0.30800 46.97600
H  47.21400 3.82700 43.80300
H  47.90200 2.39000 43.80400
H  49.00400 4.93500 43.67200
H  49.90900 3.41600 43.78200
H  49.50900 4.31500 45.27200
H  46.90100 8.31200 46.41400
H  45.71500 9.25700 47.29100
H  45.76200 9.13800 45.47700
H  40.37300 8.24700 46.13200
H  38.57100 9.20800 49.90700
H  37.83800 10.40800 48.97200
H  39.43400 10.79000 49.65100

