158

Mg 45.23700 5.37300 48.80000
C  42.97200 7.83200 47.56400
C  42.87300 2.96000 47.79700
C  47.65500 2.98500 48.95000
C  47.72900 7.90800 48.84000
N  43.20200 5.45800 47.78300
C  42.52100 6.52600 47.35200
C  41.10300 6.14900 46.80200
C  41.12300 4.58200 46.91500
C  42.45100 4.30400 47.53200
C  39.89500 4.11400 47.76300
C  40.87600 6.62400 45.29300
C  39.56700 7.58200 45.16400
H  38.62700 7.33700 44.00700
N  45.20200 3.29200 48.64800
C  44.10000 2.50100 48.27600
C  44.52800 1.09200 48.36600
C  45.91900 1.14900 48.61500
C  46.30900 2.51400 48.77300
C  43.62500 -0.03000 48.09500
C  46.77000 -0.09400 48.81100
O  46.29800 -1.21700 48.63800
C  48.15100 -0.08200 49.28500
N  47.39000 5.45700 48.99200
C  48.16700 4.32500 49.08000
C  49.63400 4.64900 49.10400
C  49.64400 6.19600 49.08900
C  48.21400 6.54500 48.94600
C  50.41700 3.88700 50.15900
C  50.49300 6.76300 47.91900
C  51.29100 8.08800 48.24400
N  45.32300 7.44600 48.50400
C  46.41400 8.35600 48.61000
C  45.96600 9.64300 48.29700
C  44.59700 9.46800 47.99700
C  44.26600 8.12900 48.04200
C  46.86800 10.88300 48.34300
C  43.40700 10.20400 47.80900
O  43.19100 11.42100 47.88100
C  42.25000 9.14300 47.50700
C  41.17600 9.39300 48.60000
O  41.25400 8.85400 49.67100
O  40.13900 10.03800 47.99800
C  38.85800 10.03900 48.70800
H  42.03900 2.28000 47.60900
H  48.46200 2.25000 48.92900
H  48.56000 8.57900 49.06400
H  40.37500 6.56700 47.49700
H  41.12800 4.11400 45.93000
H  39.62300 3.15500 47.32400
H  39.04000 4.79100 47.74700
H  40.22600 3.86900 48.77200
H  40.97200 5.87900 44.50400
H  41.76300 7.23700 45.13100
H  39.93300 8.60700 45.10200
H  38.95800 7.53100 46.06700
H  43.38100 -0.50300 49.04600
H  44.09600 -0.74600 47.42200
H  42.70700 0.23300 47.57000
H  48.74000 0.42000 48.51700
H  48.55400 -1.04400 49.60200
H  48.23400 0.58700 50.14100
H  49.92900 4.33000 48.10400
H  49.89200 6.59500 50.07300
H  49.75200 3.17400 50.64600
H  50.89300 4.61300 50.81800
H  51.27200 3.33100 49.77300
H  49.92900 7.05300 47.03300
H  51.26700 6.03700 47.67000
H  50.80600 9.01800 47.94800
H  52.29800 7.93200 47.85500
H  51.48000 8.10700 49.31700
H  46.40500 11.54800 47.61500
H  47.88900 10.61600 48.06900
H  46.94700 11.26400 49.36200
H  41.79000 9.48300 46.58000
H  38.27000 10.90600 48.40400
H  38.97700 10.22000 49.77600
H  38.25100 9.15200 48.52700
Mg -5.53800 25.59800 26.32100
C  -4.22300 27.05100 29.23000
C  -7.31000 23.43700 28.27800
C  -6.22300 24.05600 23.46900
C  -3.13900 27.69000 24.52600
N  -5.58600 25.25800 28.49200
C  -5.07600 26.00300 29.53500
C  -5.66700 25.52300 30.94400
C  -6.45900 24.26700 30.56800
C  -6.40800 24.24100 29.00900
C  -5.92600 22.96900 31.20100
C  -6.37600 26.64800 31.61100
C  -6.27700 26.84900 33.16300
H  -5.61500 25.71500 33.97900
N  -6.72200 23.94500 25.93700
C  -7.41900 23.25400 26.87200
C  -8.14700 22.22500 26.12300
C  -7.92900 22.45000 24.68800
C  -6.88900 23.49800 24.62500
C  -9.05800 21.24100 26.85600
C  -8.53300 21.87700 23.48500
O  -8.31300 22.19800 22.36900
C  -9.62700 20.80500 23.60300
N  -4.80500 25.92500 24.31300
C  -5.22700 25.04100 23.35600
C  -4.46000 25.32900 21.94500
C  -3.84000 26.76300 22.28400
C  -3.87200 26.82500 23.81300
C  -3.37700 24.26600 21.49100
C  -4.45400 27.96000 21.48900
C  -5.37000 29.00200 22.19100
N  -3.98200 27.08200 26.77800
C  -3.15200 27.79600 25.95400
C  -2.32800 28.69400 26.74600
C  -2.76700 28.52800 28.06000
C  -3.72800 27.45100 27.98800
C  -1.30900 29.75700 26.26900
C  -2.64900 28.93200 29.43400
O  -2.07800 29.83400 30.03900
C  -3.58500 27.94800 30.23300
C  -2.82800 27.21300 31.24700
O  -2.14500 26.18600 31.00800
O  -2.93600 27.77900 32.48200
C  -2.02200 27.14200 33.44900
H  -7.71200 22.67400 28.94700
H  -6.32100 23.59100 22.48600
H  -2.43600 28.31300 23.96900
H  -4.88700 25.16300 31.61400
H  -7.53100 24.43700 30.66200
H  -5.50700 22.22700 30.52100
H  -6.79600 22.52300 31.68200
H  -5.18900 23.09500 31.99500
H  -7.43900 26.58300 31.38100
H  -6.15000 27.59200 31.11600
H  -7.29800 26.89000 33.54300
H  -5.76900 27.81000 33.24200
H  -8.75300 21.09200 27.89200
H  -9.04300 20.26700 26.36600
H  -10.10600 21.53900 26.89700
H  -9.32700 19.77800 23.81100
H  -10.11100 20.76100 22.62800
H  -10.41600 21.18000 24.25600
H  -5.30200 25.50900 21.27800
H  -2.79900 26.74900 21.96100
H  -2.41100 24.76000 21.39000
H  -3.81900 23.86100 20.58000
H  -3.28900 23.41000 22.16000
H  -5.03200 27.59700 20.63900
H  -3.59900 28.48400 21.06200
H  -5.60400 28.70100 23.21200
H  -6.27700 29.00400 21.58600
H  -4.81600 29.94100 22.22300
H  -1.39100 30.65000 26.88800
H  -1.56800 30.00200 25.23900
H  -0.33700 29.26400 26.24100
H  -4.35600 28.62800 30.59500
H  -1.03000 27.58500 33.36300
H  -1.90800 26.08000 33.22900
H  -2.43400 27.14900 34.45800

