158

Mg 24.13700 -5.56000 45.33900
C  26.19600 -3.13900 43.86200
C  21.41700 -4.28400 43.55500
C  22.50900 -8.36600 45.83400
C  26.98900 -6.76700 47.03900
N  23.84500 -3.86500 43.93200
C  24.84400 -3.03300 43.47600
C  24.34700 -2.10400 42.34300
C  22.78700 -2.29500 42.48000
C  22.62100 -3.58200 43.40700
C  21.97700 -0.96900 42.92600
C  24.91400 -2.49300 40.94400
C  25.39800 -1.31000 40.07100
H  25.07900 -1.44000 38.56100
N  22.18000 -6.16900 44.94300
C  21.16800 -5.49300 44.23000
C  20.05600 -6.28200 44.09000
C  20.32000 -7.45400 44.75900
C  21.71700 -7.35200 45.20900
C  18.72800 -5.83900 43.36500
C  19.31800 -8.61600 44.99200
O  18.19900 -8.49300 44.46700
C  19.59300 -9.69300 45.97100
N  24.66700 -7.32700 46.39500
C  23.76900 -8.31100 46.44900
C  24.44700 -9.49700 47.18100
C  25.90000 -9.00500 47.63000
C  25.90200 -7.59900 47.00800
C  23.52600 -10.07100 48.36600
C  27.01400 -9.93300 47.10100
C  28.19300 -10.28400 47.96400
N  26.18900 -4.93700 45.57200
C  27.15600 -5.55900 46.33500
C  28.49800 -4.85900 46.20600
C  28.16800 -3.87700 45.16400
C  26.71100 -4.02800 44.83300
C  29.80500 -5.38900 46.70000
C  28.71500 -2.86900 44.15000
O  29.91400 -2.51400 43.88300
C  27.49200 -2.34300 43.39200
C  27.45400 -0.88100 43.60800
O  26.87300 -0.35500 44.57000
O  27.98100 -0.23900 42.55800
C  27.85100 1.22900 42.61800
H  20.61000 -3.91800 42.91600
H  22.01700 -9.32900 45.98800
H  27.81600 -7.18500 47.61600
H  24.57200 -1.08100 42.64500
H  22.38400 -2.63900 41.52800
H  22.64000 -0.11100 43.04100
H  21.70500 -1.24200 43.94500
H  21.11100 -0.76700 42.29500
H  24.12500 -2.89500 40.30800
H  25.70200 -3.22500 41.11600
H  26.46800 -1.12600 40.16600
H  24.97500 -0.44000 40.57400
H  18.79700 -6.02100 42.29200
H  18.74200 -4.76600 43.55700
H  17.76900 -6.24000 43.69200
H  18.62700 -10.02300 46.35200
H  20.17100 -9.26900 46.79200
H  20.16300 -10.44800 45.42900
H  24.48700 -10.30300 46.44900
H  25.83800 -8.89300 48.71300
H  24.13100 -10.39500 49.21200
H  23.16300 -11.03200 48.00100
H  22.68400 -9.41200 48.58000
H  27.34500 -9.50900 46.15300
H  26.56700 -10.87900 46.79600
H  28.13500 -11.32400 48.28800
H  28.17300 -9.63200 48.83800
H  29.01100 -10.12200 47.26100
H  30.13700 -4.90200 47.61700
H  30.55000 -5.36300 45.90500
H  29.86300 -6.40700 47.08400
H  27.63000 -2.48500 42.32000
H  27.83100 1.56300 41.58100
H  28.76700 1.66200 43.02100
H  26.99900 1.68400 43.12200
Mg 27.68700 49.86100 26.48700
C  25.64000 50.86300 29.14200
C  30.07200 49.01800 28.86100
C  29.80700 49.40300 23.98900
C  25.08300 50.61100 24.25800
N  27.77200 49.98700 28.81300
C  26.80500 50.33700 29.62400
C  27.22200 50.24900 31.07200
C  28.73600 49.74900 30.98600
C  28.90700 49.59700 29.50100
C  29.75800 50.78100 31.60200
C  26.34900 49.18300 31.87500
C  25.58400 49.75000 33.14400
H  26.42600 49.67200 34.38700
N  29.54200 49.07700 26.42000
C  30.36600 48.81900 27.52700
C  31.64900 48.40200 26.97900
C  31.59600 48.51300 25.56500
C  30.27400 49.03600 25.28200
C  32.72500 47.79400 27.96700
C  32.68500 48.23400 24.52000
O  32.53000 48.50500 23.29300
C  33.97100 47.64400 24.99500
N  27.54900 50.18200 24.34300
C  28.53200 49.74300 23.54800
C  28.14000 49.93100 22.01700
C  26.55800 50.21600 22.16600
C  26.33600 50.33500 23.69100
C  28.79700 51.13100 21.32300
C  25.69000 49.04200 21.55700
C  25.48500 47.69600 22.36400
N  25.76400 50.67900 26.68300
C  24.81300 50.87400 25.65600
C  23.61800 51.42000 26.26200
C  23.86800 51.46700 27.64000
C  25.22300 51.03200 27.82800
C  22.41200 51.84600 25.50700
C  23.32400 51.71700 28.93700
O  22.33300 52.31100 29.26200
C  24.34500 51.34600 29.94000
C  24.65900 52.52800 30.83600
O  25.61800 53.30900 30.77800
O  23.64400 52.54900 31.81600
C  23.90700 53.39600 33.00300
H  30.80100 48.61400 29.56500
H  30.43200 49.14000 23.13400
H  24.18100 50.66100 23.64500
H  27.18800 51.20900 31.58800
H  28.86000 48.78400 31.47800
H  30.55200 51.07300 30.91500
H  30.18300 50.26000 32.46000
H  29.21500 51.68900 31.86600
H  26.95200 48.32500 32.17300
H  25.59300 48.75600 31.21700
H  24.59700 49.29400 33.20700
H  25.36500 50.81000 33.01200
H  32.64300 46.71400 27.84200
H  32.65500 48.01900 29.03100
H  33.72200 48.17100 27.73900
H  34.55900 47.35100 24.12600
H  33.62800 46.75900 25.53100
H  34.51300 48.44100 25.50300
H  28.37500 49.00200 21.49700
H  26.24600 51.16100 21.72300
H  29.43300 50.75600 20.52200
H  29.48200 51.65000 21.99400
H  28.08500 51.79300 20.83000
H  26.10200 48.77200 20.58500
H  24.66500 49.41000 21.51400
H  24.50400 47.67800 22.84000
H  26.25500 47.74100 23.13500
H  25.67200 46.74400 21.86800
H  21.65100 51.58800 26.24300
H  22.28700 51.24300 24.60800
H  22.53300 52.91000 25.30100
H  23.95300 50.60300 30.63400
H  24.93100 53.75800 33.09500
H  23.63900 52.74600 33.83600
H  23.32700 54.31900 33.03700

