158

Mg 40.82900 8.79700 29.51100
C  42.89900 9.85300 31.97500
C  38.73400 7.23600 31.75200
C  39.00500 7.47500 26.91400
C  43.43900 9.47000 27.23700
N  40.75900 8.64500 31.61200
C  41.69600 9.25600 32.40200
C  41.09400 9.32100 33.81400
C  40.01900 8.15000 33.88200
C  39.85300 7.93900 32.30500
C  40.67800 6.90900 34.56000
C  40.56500 10.70600 34.23600
C  40.09300 10.89200 35.63100
H  40.67300 11.95800 36.55700
N  39.10600 7.49600 29.35000
C  38.37500 7.02900 30.39600
C  37.34800 6.20000 29.86800
C  37.29500 6.48800 28.50100
C  38.47800 7.21600 28.19900
C  36.35300 5.39900 30.72900
C  36.10800 6.30200 27.54300
O  36.13800 6.64900 26.33400
C  34.79500 5.75100 28.05000
N  41.29400 8.35600 27.43000
C  40.24100 7.99800 26.55600
C  40.74600 8.04700 25.07200
C  42.17000 8.56300 25.15500
C  42.35800 8.86200 26.66900
C  40.71500 6.67900 24.29700
C  42.53400 9.73700 24.18100
C  41.84800 11.08700 24.49800
N  42.64600 9.61400 29.51400
C  43.56500 9.89800 28.57300
C  44.71200 10.61900 29.11700
C  44.42000 10.65400 30.43400
C  43.23100 10.05400 30.69000
C  45.96400 11.07500 28.35100
C  44.90600 11.09600 31.66200
O  45.90900 11.73100 31.97900
C  43.86500 10.62600 32.79400
C  44.63300 9.88300 33.85000
O  45.44400 9.05500 33.70300
O  44.18000 10.33500 35.04600
C  44.80200 9.61900 36.17600
H  38.04600 6.90900 32.53500
H  38.51700 7.17500 25.98400
H  44.26400 9.72900 26.57000
H  41.94700 9.04300 34.43200
H  39.08900 8.42300 34.38100
H  41.73900 7.09600 34.72600
H  40.57100 6.03500 33.91700
H  40.04800 6.66600 35.41600
H  39.68400 10.98700 33.65900
H  41.19900 11.54700 33.95500
H  40.26500 9.98400 36.20900
H  39.00300 10.89300 35.60700
H  36.62200 5.38200 31.78500
H  36.34200 4.37300 30.35900
H  35.34600 5.81300 30.76900
H  34.31400 6.33600 28.83500
H  34.95100 4.77900 28.51800
H  34.16600 5.66500 27.16400
H  40.05200 8.68800 24.52900
H  42.89100 7.79300 24.88000
H  40.10400 6.01200 24.90500
H  41.70100 6.23800 24.15400
H  40.22400 6.80000 23.33100
H  42.35700 9.48900 23.13400
H  43.61500 9.80700 24.30300
H  41.08500 11.48600 23.83000
H  42.68000 11.79200 24.49500
H  41.42900 10.94400 25.49400
H  45.73100 12.03600 27.89200
H  46.18900 10.35300 27.56600
H  46.85100 11.13100 28.98200
H  43.40000 11.55600 33.12000
H  45.82100 9.93200 36.40500
H  44.80400 8.53300 36.07900
H  44.21800 9.76500 37.08500
Mg 9.48800 48.62600 25.47600
C  7.37100 49.29700 28.16000
C  12.12300 49.98000 27.26200
C  11.63100 48.14400 22.77200
C  6.81100 48.03100 23.45500
N  9.73400 49.52200 27.45200
C  8.73400 49.57700 28.42000
C  9.38700 49.94900 29.73400
C  10.66600 50.72500 29.24500
C  10.88200 50.01700 27.90100
C  10.56600 52.30900 29.28800
C  9.61800 48.61600 30.56000
C  9.18700 48.77900 32.02100
H  8.97200 47.44000 32.88300
N  11.57900 48.86900 25.22000
C  12.48900 49.49300 26.01500
C  13.80600 49.35800 25.38900
C  13.65700 48.66500 24.16900
C  12.25600 48.52700 24.03100
C  15.07500 49.77900 26.15400
C  14.74400 48.06000 23.19700
O  14.46300 47.36600 22.24900
C  16.12000 48.32700 23.41100
N  9.20400 48.19500 23.37700
C  10.22800 47.91900 22.48300
C  9.69300 47.41500 21.15300
C  8.15400 47.38200 21.46900
C  8.01900 47.83700 22.83400
C  10.10300 48.25100 19.89500
C  7.48700 45.94300 21.22200
C  6.02300 45.90300 20.65700
N  7.45600 48.76100 25.68600
C  6.45700 48.46100 24.76800
C  5.20100 48.56800 25.37000
C  5.53000 48.80300 26.78200
C  6.92000 48.97800 26.87100
C  3.86800 48.22400 24.72200
C  4.97100 48.90000 28.09900
O  3.91100 48.65300 28.42000
C  6.09200 49.35100 29.06500
C  5.97500 48.23000 30.16100
O  6.46800 47.12300 30.04300
O  5.14400 48.64500 31.12800
C  4.76300 47.70200 32.20500
H  12.87300 50.33500 27.97100
H  12.24000 47.91000 21.89600
H  5.90900 47.90400 22.85300
H  8.76400 50.70400 30.21400
H  11.49000 50.45200 29.90500
H  10.70100 52.69600 30.29700
H  9.58400 52.67700 28.99300
H  11.31900 52.75600 28.63800
H  10.63400 48.22200 30.54800
H  9.03800 47.81900 30.09400
H  8.30400 49.41400 32.10500
H  9.86900 49.47700 32.50600
H  15.49000 48.81600 26.45300
H  14.80400 50.38500 27.01900
H  15.74300 50.36700 25.52600
H  16.27600 49.38200 23.18200
H  16.69800 47.67100 22.76000
H  16.14100 48.16100 24.48800
H  10.18100 46.44100 21.20400
H  7.60400 48.14500 20.91900
H  10.77400 49.09700 20.04700
H  9.20100 48.66300 19.44300
H  10.49900 47.66600 19.06500
H  7.35700 45.43400 22.17800
H  8.12200 45.31700 20.59600
H  5.75900 46.94400 20.47300
H  5.42500 45.50700 21.47800
H  5.88500 45.28800 19.76700
H  3.26500 47.46700 25.22400
H  3.94800 47.95900 23.66700
H  3.22100 49.10100 24.71900
H  5.85200 50.32100 29.50100
H  4.98600 46.65400 32.00700
H  3.68500 47.84800 32.27400
H  5.01000 47.94000 33.24000

