158

Mg 30.38600 58.09700 39.32100
C  27.46100 56.24600 38.64000
C  32.27100 55.44600 38.11600
C  33.14100 60.08000 39.46200
C  28.37700 60.87900 40.12000
N  29.89900 56.01800 38.41000
C  28.62700 55.48200 38.27900
C  28.74500 54.10300 37.67900
C  30.29700 53.88300 37.66700
C  30.88200 55.19600 38.08000
C  30.76800 52.73800 38.63800
C  27.89300 53.87300 36.39300
C  28.27900 54.88700 35.16800
H  27.66400 54.56100 33.86100
N  32.43700 57.70700 39.07600
C  32.96800 56.61500 38.46500
C  34.42600 56.75700 38.48100
C  34.70200 58.15700 38.75500
C  33.41600 58.69700 39.17100
C  35.38200 55.69000 37.98200
C  36.11400 58.83300 38.55200
O  37.07100 58.15600 38.12200
C  36.33700 60.24200 38.78400
N  30.67500 60.19800 39.70300
C  31.92100 60.74500 39.79100
C  31.87700 62.18100 40.33200
C  30.38200 62.26700 40.90900
C  29.71700 61.02500 40.21100
C  32.92400 62.69900 41.32000
C  29.78600 63.68300 40.60200
C  28.71500 64.05000 41.62500
N  28.35800 58.57700 39.35300
C  27.68400 59.73400 39.75000
C  26.23400 59.46400 39.64900
C  26.17600 58.06300 39.30000
C  27.42000 57.57700 39.11000
C  25.11300 60.53200 39.86300
C  25.17600 57.02100 38.96900
O  23.93100 57.03700 38.93600
C  25.96400 55.83300 38.46700
C  25.67000 54.65700 39.28200
O  26.15500 54.30900 40.31800
O  24.62900 54.03000 38.66500
C  23.98300 52.98600 39.45100
H  32.88100 54.70900 37.58900
H  33.98300 60.77500 39.46100
H  27.83300 61.72600 40.54300
H  28.27400 53.39800 38.36300
H  30.55900 53.57600 36.65400
H  30.06700 51.91000 38.53700
H  30.87400 53.04100 39.68000
H  31.71500 52.34600 38.26800
H  26.85700 54.11900 36.62900
H  28.00100 52.85700 36.01200
H  29.36900 54.87600 35.14200
H  28.07100 55.89800 35.51700
H  35.45800 55.71300 36.89500
H  35.00800 54.70000 38.24200
H  36.36300 55.80400 38.44500
H  36.24100 60.37900 39.86100
H  35.48500 60.69400 38.27600
H  37.25400 60.71200 38.42800
H  32.02400 62.82100 39.46200
H  30.50700 62.18500 41.98800
H  33.71400 61.95300 41.22400
H  32.61500 62.70700 42.36500
H  33.37300 63.65100 41.04000
H  29.39000 63.51100 39.60200
H  30.53200 64.47400 40.53000
H  28.95400 65.05800 41.96400
H  28.87200 63.39800 42.48500
H  27.75400 64.04300 41.11100
H  24.40000 60.29100 39.07500
H  25.52400 61.53900 39.78100
H  24.67000 60.31000 40.83400
H  25.68500 55.60300 37.43900
H  24.74000 52.20600 39.53600
H  23.09600 52.57200 38.97100
H  23.65300 53.41600 40.39600
Mg -11.37200 16.60700 41.59200
C  -8.39100 14.99200 40.94100
C  -10.27000 19.35000 39.75400
C  -14.52400 17.83900 41.63600
C  -12.69200 13.48200 42.42000
N  -9.49200 17.14600 40.55300
C  -8.42800 16.26800 40.32400
C  -7.26600 16.91800 39.52800
C  -7.91700 18.24900 39.02400
C  -9.27700 18.29400 39.81600
C  -6.95500 19.50600 39.09600
C  -6.79000 15.97800 38.37300
C  -5.28600 15.94800 38.19100
H  -4.71800 15.83500 36.80800
N  -12.27600 18.38900 40.89100
C  -11.65100 19.40600 40.21400
C  -12.53700 20.56100 39.96400
C  -13.79300 20.15500 40.52700
C  -13.59100 18.72800 41.01600
C  -12.15300 21.83800 39.18200
C  -15.06800 20.98400 40.56000
O  -15.16500 22.03300 39.95300
C  -16.23600 20.58500 41.34500
N  -13.33800 15.72300 41.77600
C  -14.41200 16.53700 42.05600
C  -15.58200 15.75400 42.62600
C  -15.16900 14.33900 42.32600
C  -13.65300 14.46900 42.20100
C  -15.79300 15.96600 44.13300
C  -15.87800 13.67600 41.03300
C  -16.37100 12.19300 41.30600
N  -10.66200 14.77700 41.86800
C  -11.33100 13.59000 42.24400
C  -10.38500 12.57000 42.49500
C  -9.21400 13.12400 42.03400
C  -9.46400 14.43300 41.62800
C  -10.52700 11.17000 42.93300
C  -7.81600 12.84500 41.84400
O  -7.19000 11.84400 42.08900
C  -7.23200 14.03000 41.06800
C  -6.16700 14.61900 41.95600
O  -6.31500 15.11000 43.07600
O  -4.89500 14.55400 41.33900
C  -3.80100 15.38100 41.89700
H  -9.88100 20.12600 39.09000
H  -15.55900 18.13300 41.82100
H  -13.23300 12.58700 42.73300
H  -6.48100 17.14800 40.24900
H  -8.24800 18.14500 37.99100
H  -6.02200 19.12400 39.51100
H  -7.37400 20.33600 39.66500
H  -6.81100 19.89100 38.08700
H  -7.19500 16.31000 37.41700
H  -7.22100 14.97900 38.43300
H  -4.79500 15.20000 38.81400
H  -4.95900 16.95500 38.45200
H  -12.96700 22.56100 39.23800
H  -11.81100 21.57200 38.18200
H  -11.27100 22.22800 39.69200
H  -16.99600 21.36500 41.39900
H  -15.96900 20.20400 42.33100
H  -16.68100 19.81700 40.71200
H  -16.45500 15.92800 41.99800
H  -15.30900 13.67700 43.18100
H  -16.55600 16.73900 44.22200
H  -14.85800 16.16400 44.65700
H  -16.25000 15.03900 44.48000
H  -15.21500 13.74700 40.17100
H  -16.74100 14.29800 40.79500
H  -15.79400 11.57400 41.99300
H  -16.46400 11.70200 40.33800
H  -17.36400 12.11700 41.75000
H  -9.64000 10.73400 43.39400
H  -10.66300 10.47000 42.10900
H  -11.33600 11.16800 43.66400
H  -6.76900 13.58500 40.18700
H  -2.82800 15.24500 41.42600
H  -3.72300 15.25900 42.97700
H  -4.01300 16.45000 41.87800

