158

Mg -1.91300 16.91200 26.93900
C  -2.57500 14.50200 29.45900
C  -2.49600 19.37500 29.29000
C  -2.12700 19.24800 24.44100
C  -1.90500 14.38600 24.65500
N  -2.50500 16.89000 29.07000
C  -2.55800 15.80300 29.94700
C  -2.53000 16.25200 31.42000
C  -2.62900 17.82300 31.34100
C  -2.54900 18.08100 29.80400
C  -3.89500 18.41800 32.08400
C  -1.32400 15.58500 32.23600
C  -0.66000 16.28400 33.45400
H  -0.36200 15.46400 34.70100
N  -2.13600 18.98500 26.85700
C  -2.35200 19.79900 27.95300
C  -2.26600 21.23300 27.61400
C  -2.20300 21.26900 26.19700
C  -2.23300 19.78200 25.74900
C  -2.38900 22.34800 28.59600
C  -2.06300 22.38700 25.26200
O  -1.92700 22.19000 24.03100
C  -2.21800 23.80400 25.69100
N  -2.09500 16.83200 24.82300
C  -2.00700 17.93900 24.00200
C  -1.82100 17.50200 22.53100
C  -1.69200 15.93500 22.75200
C  -1.85900 15.67200 24.17300
C  -3.01000 17.93200 21.63200
C  -0.34200 15.37200 22.26200
C  0.97100 15.88500 22.96400
N  -2.12800 14.81200 26.97200
C  -2.10200 13.89300 25.98200
C  -2.30900 12.60300 26.50100
C  -2.41700 12.78500 27.86100
C  -2.30500 14.15200 28.13100
C  -2.42000 11.28100 25.70600
C  -2.60300 12.06700 29.00800
O  -2.80500 10.89600 29.17300
C  -2.66300 13.14700 30.14800
C  -1.67100 12.71600 31.14100
O  -0.44100 12.63300 30.99100
O  -2.28800 12.41800 32.28100
C  -1.63300 11.54100 33.27800
H  -2.24700 20.14100 30.02800
H  -2.14900 19.96100 23.61500
H  -2.02700 13.65600 23.85300
H  -3.42800 15.87900 31.91300
H  -1.72500 18.22000 31.80200
H  -4.41100 17.61600 32.61100
H  -4.66600 18.66400 31.35300
H  -3.52900 19.18700 32.76500
H  -0.46300 15.37000 31.60400
H  -1.81400 14.72100 32.68500
H  -1.25900 17.11000 33.83700
H  0.26300 16.78000 33.15500
H  -1.43300 22.86200 28.69100
H  -2.67500 22.04600 29.60400
H  -3.12500 23.02900 28.17100
H  -3.25400 23.89200 26.01800
H  -2.13000 24.39200 24.77700
H  -1.44800 24.12700 26.39200
H  -0.81700 17.84800 22.28400
H  -2.44100 15.43300 22.13800
H  -3.62900 18.58800 22.24300
H  -3.64700 17.11400 21.29600
H  -2.76000 18.61800 20.82200
H  -0.22800 15.70500 21.23100
H  -0.47100 14.29000 22.24400
H  0.73600 16.60000 23.75200
H  1.58700 16.29000 22.16000
H  1.49100 14.99300 23.31400
H  -1.78200 10.43400 25.95900
H  -2.23000 11.51400 24.65800
H  -3.47800 11.02500 25.75900
H  -3.66200 13.05000 30.57400
H  -2.30100 11.34300 34.11600
H  -0.70200 11.96000 33.66100
H  -1.42100 10.60100 32.76700
Mg -11.45400 15.99900 41.67600
C  -8.51800 13.96100 41.12500
C  -9.97400 18.46400 40.11400
C  -14.40400 17.35100 41.75500
C  -12.99700 12.84200 42.77600
N  -9.52300 16.10700 40.69800
C  -8.46600 15.25400 40.61300
C  -7.23000 15.93900 39.90100
C  -7.73300 17.42800 39.76500
C  -9.19200 17.31500 40.18500
C  -6.93400 18.53000 40.42100
C  -6.75800 15.20700 38.62500
C  -5.24100 15.05900 38.47200
H  -4.64800 15.60900 37.15400
N  -12.14700 17.63500 40.97300
C  -11.35800 18.64800 40.46600
C  -12.10700 19.81700 40.30800
C  -13.42900 19.61900 40.80200
C  -13.39400 18.14700 41.17200
C  -11.46900 21.18800 39.86000
C  -14.55700 20.63600 40.91700
O  -14.40300 21.76600 40.46900
C  -15.91100 20.28800 41.59700
N  -13.53000 15.03200 41.77600
C  -14.50900 16.02000 42.06200
C  -15.85800 15.28900 42.21500
C  -15.40400 13.87000 42.68900
C  -13.90500 13.92900 42.43600
C  -16.83600 15.94700 43.32000
C  -15.97300 12.68700 41.86400
C  -16.62800 11.54200 42.70800
N  -10.84200 13.84400 42.12800
C  -11.59100 12.75200 42.60100
C  -10.68100 11.65200 42.78800
C  -9.47600 12.08700 42.31700
C  -9.59800 13.38200 41.80800
C  -10.99500 10.28100 43.38800
C  -8.08700 11.69500 42.15700
O  -7.47000 10.70400 42.52600
C  -7.39200 12.87500 41.26700
C  -6.33200 13.45800 42.08100
O  -6.44400 13.78900 43.25400
O  -5.12800 13.39500 41.40800
C  -3.89600 13.86600 41.91100
H  -9.48200 19.33200 39.67000
H  -15.36500 17.86000 41.85000
H  -13.44200 11.95200 43.22500
H  -6.43000 16.05500 40.63200
H  -7.64500 17.78000 38.73700
H  -6.76300 19.28600 39.65400
H  -6.07100 18.14900 40.96600
H  -7.45800 19.11900 41.17500
H  -7.06300 15.79200 37.75700
H  -7.13200 14.18400 38.58900
H  -4.92500 14.02100 38.57000
H  -4.79000 15.60300 39.30200
H  -11.10900 21.75600 40.71700
H  -12.14600 21.77200 39.23600
H  -10.60300 20.92600 39.25100
H  -16.37000 21.27100 41.69700
H  -15.66900 19.82000 42.55100
H  -16.60100 19.68400 41.00800
H  -16.34800 15.21900 41.24300
H  -15.50200 13.76800 43.77000
H  -16.57400 16.99200 43.48600
H  -16.89100 15.45400 44.29100
H  -17.83100 15.98400 42.87600
H  -15.16700 12.25000 41.27300
H  -16.74600 13.03500 41.17900
H  -16.38000 10.58700 42.24400
H  -17.70400 11.71500 42.70200
H  -16.26500 11.54700 43.73500
H  -10.08300 9.69800 43.51600
H  -11.65800 9.70700 42.74100
H  -11.51500 10.36700 44.34200
H  -7.02600 12.53500 40.29800
H  -3.27800 14.21800 41.08500
H  -3.35600 12.97100 42.22000
H  -3.93500 14.50900 42.79100

