158

Mg 27.24000 50.91200 25.75200
C  25.25600 52.06700 28.40000
C  29.24700 49.59900 28.06200
C  29.25500 49.77400 23.15700
C  25.07300 52.36900 23.49400
N  27.27400 51.00100 27.96600
C  26.35200 51.44600 28.83100
C  26.66000 51.10900 30.27800
C  28.14900 50.54100 30.15500
C  28.19900 50.38700 28.62000
C  29.29500 51.44300 30.80800
C  25.68900 50.07600 30.92200
C  25.05100 50.56500 32.24000
H  26.04100 50.92900 33.38500
N  29.07500 49.86600 25.63400
C  29.75900 49.49300 26.75100
C  30.90200 48.75700 26.27700
C  30.88000 48.71300 24.87500
C  29.75800 49.48400 24.47000
C  32.01100 48.11100 27.17300
C  31.71800 48.00900 23.85600
O  31.72200 48.14400 22.61100
C  32.66000 47.02600 24.40600
N  27.29100 51.19400 23.66500
C  28.10700 50.51400 22.81300
C  27.50500 50.52000 21.36400
C  26.05800 51.18800 21.50000
C  26.15300 51.68000 22.98700
C  28.53400 51.11900 20.37400
C  24.79800 50.37300 21.08600
C  24.69400 48.89500 21.65400
N  25.53300 52.04300 25.88500
C  24.77400 52.53700 24.85000
C  23.66400 53.20600 25.48700
C  23.83400 53.06000 26.81600
C  24.96200 52.30000 27.02700
C  22.57200 53.92600 24.71800
C  23.30900 53.42200 28.04500
O  22.29500 54.05700 28.29600
C  24.06400 52.68900 29.17000
C  24.54900 53.80200 30.01700
O  25.44900 54.55100 29.69100
O  23.82400 53.83000 31.15500
C  24.32000 54.61600 32.21600
H  29.83800 49.04000 28.79100
H  29.53500 49.27900 22.22600
H  24.25400 52.76700 22.89200
H  26.72500 52.11300 30.69600
H  28.31500 49.56200 30.60400
H  30.00000 50.76800 31.29200
H  28.90000 52.18100 31.50700
H  29.90200 51.94200 30.05300
H  26.14500 49.11000 31.13500
H  24.89300 49.93200 30.19100
H  24.56100 49.65000 32.57300
H  24.47500 51.48900 32.18500
H  32.09900 48.58600 28.15000
H  32.97400 48.37500 26.73500
H  32.02500 47.02100 27.19200
H  33.52600 47.53700 24.82600
H  32.99800 46.34000 23.62800
H  32.07700 46.45000 25.12400
H  27.33000 49.48200 21.08200
H  25.87500 52.07000 20.88700
H  29.39200 51.35200 21.00400
H  28.13500 51.98400 19.84500
H  28.74000 50.40700 19.57500
H  24.65000 50.21400 20.01800
H  23.91600 50.92300 21.41300
H  25.63500 48.58100 22.10500
H  24.47900 48.13900 20.89800
H  23.96000 48.75800 22.44700
H  22.91000 54.28200 23.74500
H  22.28900 54.82900 25.25800
H  21.71700 53.25600 24.62700
H  23.50900 51.92500 29.71500
H  24.59400 55.65300 32.02000
H  25.18100 54.14900 32.69300
H  23.59000 54.77500 33.00900
Mg -12.42200 37.75400 41.96200
C  -10.00200 35.22400 41.56600
C  -10.46100 39.88400 40.11500
C  -15.05000 39.95300 41.96200
C  -14.56000 35.50500 43.49900
N  -10.50500 37.44800 40.84000
C  -9.70300 36.36500 40.78500
C  -8.51600 36.55800 39.90400
C  -8.54700 38.16800 39.79000
C  -9.93200 38.52800 40.29200
C  -7.49500 39.03500 40.56900
C  -8.49600 35.70600 38.57000
C  -7.39500 34.64200 38.42800
H  -6.42500 34.85700 37.23400
N  -12.68100 39.70100 41.22600
C  -11.71900 40.41200 40.54000
C  -12.19900 41.81500 40.44000
C  -13.59200 41.81800 40.80900
C  -13.85400 40.47500 41.36300
C  -11.41400 42.92300 39.87700
C  -14.57300 42.97400 40.52500
O  -14.19100 43.96100 39.95500
C  -16.04200 42.81200 40.68100
N  -14.65400 37.60200 42.50500
C  -15.40700 38.67600 42.54100
C  -16.81400 38.29000 42.98100
C  -16.68300 36.77200 43.34100
C  -15.23400 36.61800 43.19000
C  -17.44000 38.97900 44.22100
C  -17.51700 35.87500 42.35900
C  -18.56900 35.02300 43.13200
N  -12.37200 35.70500 42.27500
C  -13.13100 35.01400 43.19400
C  -12.50100 33.77800 43.54000
C  -11.24500 33.86100 42.97600
C  -11.22900 35.10100 42.21400
C  -13.10900 32.68400 44.32300
C  -10.02400 33.09200 42.80400
O  -9.55600 32.01600 43.29000
C  -9.11500 33.95900 41.80500
C  -7.83900 34.21700 42.50500
O  -6.92200 33.33700 42.62500
O  -7.79500 35.54500 42.97000
C  -6.54600 35.92600 43.55900
H  -9.80800 40.59500 39.60400
H  -15.87400 40.66500 41.88100
H  -15.09300 34.73500 44.06300
H  -7.63900 36.31700 40.50400
H  -8.41500 38.47300 38.75200
H  -6.70800 38.32900 40.83300
H  -7.94100 39.48500 41.45600
H  -7.16600 39.83600 39.90800
H  -8.55800 36.38200 37.71700
H  -9.42900 35.14600 38.61900
H  -7.91600 33.69100 38.31800
H  -6.78900 34.56300 39.33100
H  -11.29000 43.70800 40.62200
H  -11.89400 43.33600 38.99000
H  -10.38400 42.62900 39.67100
H  -16.32800 42.70400 41.72800
H  -16.28700 41.91400 40.11400
H  -16.56500 43.68000 40.28000
H  -17.48800 38.45600 42.14000
H  -16.87200 36.53500 44.38800
H  -16.70100 39.67400 44.61800
H  -17.63000 38.29900 45.05100
H  -18.26900 39.62000 43.92100
H  -16.84400 35.13500 41.92700
H  -18.05700 36.38400 41.56000
H  -18.32200 35.04900 44.19400
H  -18.48800 33.99000 42.79600
H  -19.56500 35.39200 42.88700
H  -12.50600 31.80100 44.11500
H  -14.15200 32.60000 44.01700
H  -13.10200 32.82600 45.40400
H  -8.97200 33.29800 40.95100
H  -6.41700 35.33600 44.46600
H  -6.65300 36.98300 43.80500
H  -5.59800 35.69700 43.07400

