158

Mg 24.02100 -4.74600 45.91700
C  26.22200 -2.44400 44.42200
C  21.60200 -3.78200 43.73500
C  22.27200 -7.64600 46.72700
C  26.91000 -6.21700 47.49500
N  24.00600 -3.36800 44.23400
C  24.99700 -2.43200 43.79800
C  24.42600 -1.40100 42.77900
C  22.91500 -1.61600 42.93400
C  22.83100 -3.04600 43.72200
C  22.17700 -0.51000 43.62100
C  24.98700 -1.68300 41.37600
C  25.45200 -0.47700 40.63500
H  25.33100 -0.54900 39.07100
N  22.11000 -5.48200 45.47900
C  21.28300 -4.90100 44.54200
C  20.02900 -5.68600 44.56800
C  20.21200 -6.78600 45.48800
C  21.58900 -6.69400 45.92500
C  18.81800 -5.27500 43.78300
C  19.22300 -7.89000 45.80700
O  18.12500 -7.82200 45.25400
C  19.42600 -9.01900 46.82200
N  24.55100 -6.68900 47.05000
C  23.60000 -7.65500 47.21300
C  24.21300 -8.81200 47.95700
C  25.71000 -8.46900 48.11200
C  25.77100 -6.99300 47.55700
C  23.48800 -9.19800 49.30000
C  26.71300 -9.46900 47.46800
C  26.93500 -10.70000 48.23100
N  26.12000 -4.37000 46.08400
C  27.12400 -4.90900 46.87900
C  28.31000 -4.09600 46.70700
C  28.00100 -3.15700 45.71900
C  26.65200 -3.37200 45.35200
C  29.63600 -4.28800 47.43200
C  28.58700 -2.09700 44.95400
O  29.72900 -1.63200 44.95000
C  27.45400 -1.63600 44.03800
C  27.15600 -0.19200 44.43700
O  26.48800 0.14000 45.35400
O  27.86700 0.69800 43.61400
C  27.69100 2.15000 43.87900
H  20.77900 -3.44600 43.10100
H  21.79900 -8.54200 47.13300
H  27.75600 -6.72800 47.95900
H  24.71100 -0.38000 43.02900
H  22.35500 -1.89200 42.04100
H  22.92100 0.10900 44.12200
H  21.45600 -0.82200 44.37600
H  21.78400 0.15900 42.85600
H  24.18200 -2.05200 40.74000
H  25.75700 -2.44400 41.50300
H  26.49400 -0.25800 40.86800
H  24.92300 0.44100 40.89000
H  18.48300 -6.08200 43.13100
H  19.00500 -4.49700 43.04300
H  18.01900 -5.05900 44.49300
H  18.46600 -9.50700 46.99100
H  19.83900 -8.76800 47.79900
H  19.95900 -9.85700 46.37300
H  24.25200 -9.69200 47.31500
H  25.98400 -8.43600 49.16600
H  23.99900 -8.83900 50.19400
H  23.46400 -10.28800 49.30700
H  22.51300 -8.71300 49.27800
H  27.65600 -8.92600 47.41000
H  26.24400 -9.69800 46.51100
H  26.55200 -11.52800 47.63500
H  26.49300 -10.61700 49.22400
H  27.99400 -10.89000 48.40300
H  29.75400 -5.37200 47.40100
H  29.55100 -3.82000 48.41300
H  30.45600 -3.88800 46.83600
H  27.78000 -1.60300 42.99900
H  27.61900 2.67600 42.92800
H  28.61800 2.52500 44.31300
H  26.77000 2.47700 44.36300
Mg 16.38500 51.79100 26.15600
C  17.92800 49.99000 28.74500
C  14.02000 52.93100 28.36800
C  14.77200 53.08600 23.51500
C  18.63600 50.18900 23.94900
N  16.10300 51.63400 28.35300
C  16.91500 50.89300 29.20400
C  16.62700 51.26100 30.69500
C  15.24700 52.00100 30.51800
C  15.05900 52.14500 29.02400
C  14.10300 51.26200 31.21200
C  17.78900 52.19800 31.28700
C  17.90600 52.43500 32.78800
H  16.97900 51.63400 33.76600
N  14.58400 52.83300 25.96200
C  13.80100 53.27200 27.00700
C  12.80300 54.16500 26.45900
C  12.92500 54.02700 25.01000
C  14.14700 53.33700 24.76600
C  11.77300 54.88400 27.36600
C  12.03500 54.62100 23.97100
O  12.28000 54.54500 22.78300
C  10.83500 55.37800 24.38800
N  16.45800 51.37800 23.81800
C  15.84600 52.28600 23.09700
C  16.70700 52.59700 21.82700
C  17.93600 51.60500 21.94800
C  17.66400 51.01400 23.29200
C  16.04700 52.47200 20.46200
C  19.31800 52.40300 21.84900
C  20.44100 51.74000 20.95500
N  17.86500 50.30700 26.24500
C  18.71000 49.74100 25.28800
C  19.69400 48.83200 25.82600
C  19.39300 48.88200 27.22900
C  18.31400 49.74300 27.38400
C  20.80600 48.16800 25.08000
C  19.82500 48.51000 28.55500
O  20.88400 48.03900 28.93000
C  18.82700 49.16800 29.60400
C  18.19300 48.08800 30.41100
O  17.55500 47.16700 29.94500
O  18.70400 48.13100 31.75100
C  18.41000 46.95500 32.59400
H  13.45600 53.37900 29.18900
H  14.51900 53.86200 22.79000
H  19.45300 49.92800 23.27400
H  16.50400 50.32000 31.23100
H  15.21800 52.98700 30.98200
H  14.39200 50.32200 31.68100
H  13.42900 50.92700 30.42300
H  13.64400 51.93400 31.93700
H  17.54900 53.22800 31.02200
H  18.78100 51.93200 30.92100
H  17.85600 53.50000 33.01500
H  18.89100 52.09400 33.10500
H  10.73800 54.76500 27.04700
H  12.07400 55.92600 27.47900
H  11.78900 54.50700 28.38800
H  10.21500 54.74600 25.02400
H  10.29100 55.75400 23.52100
H  11.24200 56.26800 24.86800
H  17.05000 53.62700 21.92800
H  17.82900 50.79700 21.22500
H  15.00600 52.15200 20.50100
H  16.47700 51.79900 19.71900
H  16.05800 53.47500 20.03700
H  19.70000 52.48300 22.86700
H  19.23400 53.46400 21.61400
H  20.89600 52.43400 20.24900
H  20.16100 50.86400 20.36900
H  21.13500 51.26800 21.65000
H  21.36600 48.81900 24.40800
H  20.47300 47.26600 24.56800
H  21.53400 47.91600 25.85100
H  19.52000 49.72400 30.23600
H  17.34200 46.73800 32.56700
H  18.90600 47.02100 33.56200
H  18.96200 46.13700 32.13300

