158

Mg 25.96500 0.37300 28.86100
C  27.89100 -0.20900 31.93300
C  23.32900 0.74200 30.82400
C  24.31200 0.94800 26.07100
C  28.92600 -0.30300 27.11100
N  25.66500 0.27600 31.19800
C  26.54200 -0.02400 32.23900
C  25.86500 0.18600 33.57000
C  24.28900 0.14700 33.11200
C  24.42500 0.46700 31.61400
C  23.55400 -1.11700 33.31400
C  26.42900 1.57100 34.20300
C  27.00700 1.43400 35.64100
H  26.46600 2.46300 36.71400
N  24.04700 0.83900 28.52600
C  23.09500 0.89200 29.40800
C  21.86300 1.23300 28.73400
C  22.10400 1.34400 27.33900
C  23.49700 0.96600 27.23700
C  20.61100 1.49200 29.51300
C  21.18600 1.74400 26.30300
O  21.53700 1.94800 25.14700
C  19.77000 2.00600 26.62600
N  26.50700 0.05900 26.90300
C  25.63500 0.55300 25.94200
C  26.25700 0.54300 24.52300
C  27.77300 0.33300 24.89400
C  27.76300 0.00700 26.38100
C  25.68900 -0.46000 23.52900
C  28.70800 1.43100 24.36500
C  29.67300 0.90900 23.33500
N  27.96900 -0.18000 29.34800
C  29.01900 -0.36100 28.52100
C  30.20300 -0.74600 29.33200
C  29.82400 -0.56500 30.65600
C  28.47500 -0.29200 30.65600
C  31.47600 -1.14100 28.78400
C  30.23700 -0.54500 31.99000
O  31.34000 -0.75500 32.46400
C  29.02700 -0.17900 32.91500
C  28.80200 -1.32000 33.88300
O  28.42900 -2.41900 33.57400
O  29.02400 -0.91900 35.20400
C  28.76700 -1.91300 36.26300
H  22.45600 0.72400 31.47900
H  23.83200 1.23500 25.13400
H  29.86300 -0.46900 26.57600
H  26.08500 -0.63700 34.25000
H  23.71200 0.86800 33.69100
H  23.12900 -1.54500 32.40600
H  22.73700 -0.89700 34.00100
H  24.13000 -1.89400 33.81600
H  25.66000 2.34200 34.17300
H  27.23800 1.96200 33.58700
H  28.07700 1.59000 35.50000
H  26.72000 0.44700 36.00300
H  20.29000 2.52600 29.39000
H  20.67300 1.16900 30.55200
H  19.89100 0.81400 29.05400
H  19.12300 2.27100 25.79000
H  19.78900 2.90500 27.24300
H  19.36700 1.12200 27.12000
H  26.08400 1.54300 24.12400
H  28.06700 -0.61800 24.44800
H  26.43200 -0.46800 22.73200
H  24.72500 -0.18500 23.10200
H  25.67700 -1.47600 23.92300
H  29.24300 2.03100 25.10200
H  28.05300 2.21100 23.97700
H  29.36100 0.08100 22.69900
H  30.52000 0.62300 23.95900
H  30.19400 1.66600 22.74900
H  32.27400 -0.52200 29.19300
H  31.68800 -1.18300 27.71500
H  31.66400 -2.12500 29.21200
H  29.17400 0.78900 33.39500
H  29.67500 -2.37100 36.65600
H  27.99700 -2.60100 35.91400
H  28.29900 -1.44700 37.13100
Mg 52.74800 23.90300 44.76200
C  49.77800 25.85800 44.01200
C  51.11900 21.10500 43.86000
C  55.67400 22.36800 44.76600
C  54.23900 26.93000 45.56900
N  50.64300 23.62500 43.83900
C  49.58400 24.47600 43.73500
C  48.23800 23.67200 43.47200
C  48.67000 22.19500 43.64200
C  50.22400 22.25800 43.86500
C  47.99900 21.40700 44.79800
C  47.66500 24.00000 42.10700
C  48.69600 23.81500 40.87900
H  48.03700 23.25700 39.54200
N  53.36800 22.01000 44.27900
C  52.57300 20.98400 43.89500
C  53.32200 19.76800 43.72000
C  54.74300 20.13800 43.88900
C  54.70200 21.53800 44.34200
C  52.62900 18.52200 43.28600
C  55.95000 19.18700 43.70900
O  55.73400 18.00000 43.50800
C  57.37700 19.58900 43.79400
N  54.73900 24.58800 45.15100
C  55.80100 23.75200 45.04500
C  57.09600 24.52600 45.13100
C  56.68400 26.00900 45.50700
C  55.13000 25.88900 45.37300
C  58.17900 23.85900 46.08700
C  57.22500 27.17300 44.58000
C  58.25500 28.20400 45.13100
N  52.16000 25.93700 44.96500
C  52.85000 27.02800 45.38600
C  52.04800 28.26200 45.48700
C  50.80300 27.79200 44.93900
C  50.94900 26.37300 44.59500
C  52.42300 29.59500 45.91300
C  49.51700 28.23200 44.57900
O  48.95400 29.34600 44.62200
C  48.75400 26.96800 43.99700
C  48.35200 27.33100 42.58300
O  49.13100 27.31000 41.59500
O  47.01400 27.68800 42.50800
C  46.52200 27.88400 41.18900
H  50.59200 20.14900 43.89300
H  56.68000 21.95900 44.65100
H  54.71300 27.89000 45.78700
H  47.52700 23.88800 44.27000
H  48.39800 21.64200 42.74300
H  48.66100 20.62300 45.16500
H  47.12100 20.92800 44.36500
H  47.75900 22.09900 45.60500
H  47.00900 24.86900 42.06600
H  46.87000 23.26100 42.01300
H  49.43100 23.04500 41.11000
H  49.21700 24.75800 40.70900
H  51.55500 18.60900 43.12300
H  52.80000 17.70900 43.99200
H  53.07800 18.12600 42.37600
H  57.59400 20.28400 42.98300
H  57.94200 18.67300 43.62100
H  57.67000 20.00200 44.75900
H  57.56900 24.64200 44.15600
H  56.91800 26.09100 46.56800
H  57.85800 22.88400 46.45300
H  58.46400 24.47100 46.94300
H  59.01400 23.77900 45.39100
H  56.39200 27.78000 44.22200
H  57.65800 26.75700 43.67000
H  58.87700 27.72000 45.88500
H  57.74900 29.11200 45.45900
H  58.71100 28.53800 44.19900
H  52.79300 30.31900 45.18700
H  53.06900 29.41700 46.77200
H  51.49600 29.99100 46.32800
H  47.89100 26.72600 44.61700
H  46.79900 27.17600 40.40800
H  46.91700 28.83100 40.82200
H  45.43700 27.95500 41.26200

