158

Mg 2.61200 -0.61600 43.66500
C  6.21500 -0.07500 43.48600
C  2.15900 2.17600 41.88000
C  -0.46200 -1.72100 42.99000
C  3.48100 -3.92500 44.75000
N  4.10000 0.73400 42.67000
C  5.44500 0.83200 42.76900
C  5.95600 2.17000 42.25400
C  4.63500 3.01900 42.20600
C  3.53200 1.93300 42.20500
C  4.63200 4.13100 43.26600
C  6.77000 2.20300 40.97100
C  6.11900 1.53900 39.72900
H  6.21200 2.43500 38.47200
N  1.05200 0.14800 42.57700
C  0.99900 1.34800 42.01600
C  -0.31400 1.59900 41.54500
C  -1.16900 0.54500 41.91000
C  -0.19200 -0.41900 42.48800
C  -0.71900 2.86600 40.79300
C  -2.65100 0.41800 41.85100
O  -3.37500 1.16000 41.26100
C  -3.34100 -0.62000 42.65400
N  1.68300 -2.58200 43.66700
C  0.36200 -2.63700 43.59500
C  -0.25100 -4.00200 44.13600
C  1.05400 -4.74100 44.57000
C  2.16000 -3.71700 44.32200
C  -1.26300 -3.68600 45.30800
C  1.29800 -6.20300 44.05800
C  1.39300 -7.32400 45.16500
N  4.40900 -1.75400 44.22500
C  4.58900 -3.00900 44.76300
C  5.87400 -3.19500 45.30700
C  6.59100 -2.05400 44.74800
C  5.66400 -1.27900 44.10900
C  6.33100 -4.38800 46.06800
C  7.86400 -1.45300 44.66100
O  8.92000 -1.90000 45.08100
C  7.73300 -0.15700 43.77900
C  8.39400 1.00400 44.51700
O  9.37900 1.60600 44.05000
O  7.89600 1.10900 45.77300
C  8.45500 2.22600 46.63800
H  2.01000 3.23100 41.63800
H  -1.43500 -2.19700 42.85400
H  3.69000 -4.92000 45.14900
H  6.59200 2.61500 43.01800
H  4.58100 3.53800 41.24800
H  5.38700 4.03700 44.04600
H  3.64600 4.09700 43.72900
H  4.89300 5.05600 42.75000
H  7.75000 1.76600 41.16500
H  7.14100 3.20800 40.76600
H  5.05200 1.45700 39.93600
H  6.54000 0.54900 39.55600
H  -0.95200 2.62600 39.75500
H  0.06600 3.62200 40.78800
H  -1.59100 3.34400 41.23800
H  -4.17700 -0.03000 43.02900
H  -2.84200 -0.82700 43.60000
H  -3.59600 -1.49100 42.05000
H  -0.74500 -4.59000 43.36300
H  1.12800 -4.81100 45.65600
H  -1.60800 -2.67500 45.09200
H  -0.89600 -3.88500 46.31400
H  -2.17000 -4.28000 45.20100
H  2.18400 -6.11600 43.42900
H  0.43400 -6.51600 43.47200
H  2.34700 -7.84200 45.06400
H  0.64200 -8.10700 45.05500
H  1.21500 -6.89800 46.15200
H  7.03400 -4.85500 45.37900
H  5.53900 -5.08300 46.34800
H  6.82500 -4.15400 47.01100
H  8.42600 -0.25100 42.94300
H  9.43400 1.94100 47.02200
H  7.80400 2.35400 47.50400
H  8.47100 3.05000 45.92500
Mg 40.27600 7.17000 29.14300
C  41.92500 8.73400 31.99800
C  38.29200 5.56700 31.30400
C  39.06500 5.55300 26.46100
C  42.93600 8.47400 27.23300
N  40.08300 7.30200 31.37600
C  40.89300 7.89600 32.31600
C  40.34000 7.65800 33.71000
C  39.36300 6.52000 33.51400
C  39.19700 6.44300 31.96500
C  39.90900 5.19400 34.10600
C  39.75900 8.93100 34.27700
C  39.40500 9.03800 35.74600
H  40.29500 10.06000 36.57100
N  38.71900 5.87500 28.97300
C  37.96300 5.37300 29.90500
C  36.92100 4.53600 29.33600
C  37.08500 4.69300 27.88200
C  38.35500 5.34500 27.71000
C  35.92600 3.81800 30.16500
C  36.11700 4.36300 26.69200
O  36.36300 4.47900 25.47800
C  34.81100 3.88500 27.15600
N  40.97100 6.94600 27.11500
C  40.26200 6.28300 26.22000
C  40.76700 6.52900 24.79300
C  41.94400 7.57600 25.03700
C  42.03500 7.64900 26.56800
C  41.24300 5.23800 23.94700
C  41.91300 8.96800 24.25300
C  40.91100 9.99200 24.65500
N  42.07100 8.28300 29.49900
C  43.05100 8.67000 28.60700
C  44.04000 9.41300 29.29600
C  43.62300 9.49300 30.61900
C  42.37900 8.82400 30.70200
C  45.36000 9.82800 28.81700
C  43.97800 10.01800 31.91800
O  44.93300 10.71000 32.23900
C  42.84800 9.55700 32.84800
C  43.45800 8.61800 33.84800
O  44.12900 7.63800 33.61600
O  43.40400 9.16300 35.11900
C  44.02700 8.34100 36.13700
H  37.63400 5.08400 32.02900
H  38.73400 5.09000 25.53000
H  43.60700 8.97600 26.53300
H  41.21200 7.41800 34.31800
H  38.34400 6.74000 33.83100
H  40.88100 5.28800 34.59200
H  40.07400 4.45400 33.32300
H  39.19400 4.76000 34.80500
H  38.77900 8.96900 33.80100
H  40.25800 9.83600 33.92800
H  39.55200 8.07600 36.23700
H  38.33600 9.24400 35.79400
H  36.21200 3.82200 31.21700
H  35.89100 2.75800 29.91100
H  34.92000 4.21700 30.03800
H  34.31800 4.51400 27.89700
H  35.13000 2.97000 27.65600
H  34.13300 3.63600 26.33900
H  39.93900 7.04800 24.31000
H  42.87100 7.09800 24.72100
H  40.87700 5.16200 22.92300
H  41.07400 4.28800 24.45400
H  42.32900 5.29100 23.86900
H  41.60400 8.77300 23.22500
H  42.93400 9.32000 24.39700
H  40.21500 9.64600 25.41900
H  40.35300 10.31500 23.77600
H  41.51000 10.77000 25.12900
H  45.29300 9.72200 27.73400
H  46.09300 9.15800 29.26700
H  45.65500 10.82200 29.15200
H  42.32600 10.38500 33.32800
H  43.50600 7.38300 36.14400
H  43.93300 8.72400 37.15300
H  45.11100 8.37700 36.02900

