158

Mg 0.40900 7.58800 26.08900
C  0.95600 9.83600 28.83200
C  0.73000 5.00500 28.47200
C  0.13500 5.41000 23.57400
C  0.73000 10.23100 23.80800
N  0.80500 7.52900 28.39600
C  0.90700 8.52400 29.32900
C  0.85600 7.98300 30.72600
C  1.12000 6.45900 30.62500
C  0.87800 6.32300 29.04000
C  2.42100 5.91700 31.11800
C  -0.47100 8.21200 31.56800
C  -0.38000 8.25200 33.14700
H  0.97500 8.15800 33.76000
N  0.35900 5.53600 26.04600
C  0.52900 4.65000 27.12100
C  0.33600 3.30600 26.63800
C  0.31400 3.32400 25.20500
C  0.25400 4.78700 24.89400
C  0.30200 2.09300 27.49100
C  0.34300 2.23800 24.16300
O  0.28800 2.45500 22.99800
C  0.43400 0.77700 24.56100
N  0.41000 7.84100 24.03300
C  0.10000 6.76900 23.19100
C  0.13100 7.20800 21.66600
C  0.18100 8.74500 21.81500
C  0.45700 8.99800 23.29400
C  1.37600 6.53700 20.85000
C  -1.03100 9.54000 21.19100
C  -0.71600 10.78400 20.38300
N  0.70800 9.57100 26.21800
C  0.80200 10.58400 25.20400
C  0.96500 11.87700 25.85600
C  1.03300 11.61200 27.23100
C  0.89500 10.20700 27.43400
C  0.93400 13.25100 25.22200
C  1.17800 12.30400 28.52900
O  1.37700 13.49700 28.83300
C  1.05600 11.10100 29.60400
C  2.11500 11.22600 30.57900
O  3.14100 10.63300 30.57200
O  1.78500 12.14200 31.57500
C  2.70100 12.19100 32.71600
H  0.88600 4.13300 29.11200
H  0.01300 4.74300 22.71700
H  0.74800 10.91300 22.95500
H  1.62700 8.57600 31.21800
H  0.23500 5.96700 31.02700
H  2.80700 5.12800 30.47300
H  2.44000 5.41600 32.08600
H  3.12300 6.75200 31.11700
H  -1.20200 7.46600 31.25700
H  -0.79500 9.16300 31.14500
H  -0.95400 7.35000 33.35900
H  -0.87600 9.16100 33.48600
H  0.99900 1.29300 27.24000
H  -0.68300 1.71700 27.21300
H  0.43800 2.31200 28.55000
H  0.59700 0.10700 23.71600
H  -0.45200 0.43200 25.09300
H  1.25300 0.58500 25.25500
H  -0.73900 6.84300 21.12000
H  1.09400 9.10500 21.34200
H  1.07900 6.46400 19.80300
H  1.74100 5.59700 21.26300
H  2.20800 7.24000 20.83900
H  -1.71900 9.75800 22.00800
H  -1.61900 8.99200 20.45400
H  -0.91900 10.46200 19.36200
H  0.37000 10.86800 20.43000
H  -1.30800 11.61400 20.76900
H  0.92100 13.45900 24.15300
H  1.78800 13.78400 25.63900
H  0.05800 13.78100 25.59600
H  0.11800 11.15000 30.15700
H  3.33000 13.08100 32.69500
H  3.40100 11.37500 32.89700
H  2.02900 12.16200 33.57400
Mg 10.06900 47.55000 26.59300
C  8.29700 47.68100 29.50800
C  12.75600 49.05600 28.14900
C  11.65200 47.39700 23.72900
C  7.01300 46.56200 24.84500
N  10.40200 48.37100 28.56500
C  9.59000 48.08400 29.67600
C  10.28800 48.47600 30.98200
C  11.63000 49.19000 30.47500
C  11.65100 48.73600 29.00400
C  11.49300 50.79200 30.58200
C  10.60500 47.22800 31.82100
C  10.81400 47.42600 33.33800
H  10.35800 46.30000 34.23100
N  12.02000 48.06800 26.04300
C  12.93400 48.72700 26.78300
C  14.15300 48.84100 26.04300
C  13.84000 48.32100 24.67300
C  12.43800 47.94300 24.75800
C  15.54200 49.25700 26.70000
C  14.81900 48.20900 23.42700
O  14.38800 47.95200 22.31300
C  16.33100 48.58200 23.57000
N  9.31900 47.25400 24.50600
C  10.31900 47.05400 23.56600
C  9.73000 46.46600 22.23200
C  8.30200 46.16600 22.67000
C  8.20500 46.63600 24.12100
C  9.84900 47.43800 21.00700
C  7.93700 44.72400 22.47500
C  8.82500 43.72700 23.20900
N  7.99800 47.20900 27.07600
C  6.90600 46.83600 26.25300
C  5.72800 46.87300 27.12000
C  6.23900 47.10200 28.44200
C  7.60200 47.40000 28.30800
C  4.38400 46.57200 26.71400
C  5.89100 47.15800 29.83200
O  4.84900 46.94800 30.39900
C  7.17500 47.43400 30.56800
C  7.33700 46.16900 31.30500
O  7.83700 45.13000 30.82900
O  6.90400 46.37000 32.62200
C  6.81000 45.13600 33.46400
H  13.66900 49.47000 28.58300
H  12.28300 47.39700 22.83800
H  6.09800 46.14800 24.41800
H  9.65900 49.16900 31.54200
H  12.51300 48.92800 31.05800
H  10.62200 51.05300 31.18300
H  11.42700 51.20600 29.57500
H  12.34000 51.12000 31.18500
H  11.53100 46.85700 31.38200
H  9.84900 46.45400 31.68500
H  10.31400 48.35600 33.60800
H  11.89400 47.47400 33.47500
H  15.81000 50.28100 26.44100
H  16.39100 48.61500 26.46500
H  15.55300 49.16000 27.78500
H  16.93400 48.44200 22.67300
H  16.73800 47.91200 24.32800
H  16.39800 49.58400 23.99400
H  10.32500 45.55600 22.30100
H  7.60800 46.81600 22.13600
H  9.69700 48.35900 21.57100
H  9.07900 47.14700 20.29300
H  10.73000 47.58400 20.38200
H  7.94900 44.51300 21.40500
H  6.89100 44.67300 22.77800
H  9.48300 44.23600 23.91300
H  9.42400 43.13700 22.51600
H  8.20800 43.05600 23.80700
H  4.27000 45.66600 26.11800
H  4.17500 47.44600 26.09800
H  3.60300 46.61200 27.47200
H  7.23000 48.37700 31.11200
H  7.75400 44.60200 33.35400
H  6.09000 44.37000 33.17600
H  6.80600 45.40800 34.52000

