158

Mg 0.46000 8.17200 26.00600
C  1.38300 10.09800 28.97500
C  0.32400 5.43200 27.88900
C  0.20100 6.62800 23.06300
C  1.00400 11.25500 24.31100
N  0.78900 7.82900 28.13200
C  1.06200 8.74600 29.17300
C  0.93200 8.10400 30.55500
C  1.19300 6.59900 30.11600
C  0.67200 6.57800 28.60700
C  2.63100 6.07300 30.53900
C  -0.47000 8.41000 31.27200
C  -0.43400 8.55500 32.86500
H  0.74100 7.89300 33.68000
N  0.10500 6.32100 25.56000
C  0.10700 5.27600 26.47400
C  -0.24000 4.09500 25.78000
C  -0.17300 4.41500 24.34700
C  0.03700 5.87800 24.29100
C  -0.38500 2.73900 26.42600
C  -0.41700 3.46600 23.16000
O  -0.38400 3.76900 21.94200
C  -0.74600 2.00000 23.49600
N  0.50000 8.89000 24.08700
C  0.34100 8.04400 23.04200
C  0.45700 8.77400 21.70300
C  0.16800 10.21000 22.15300
C  0.71600 10.07900 23.56700
C  1.78800 8.69100 21.02900
C  -1.35400 10.68400 22.13600
C  -1.65200 11.71000 21.00900
N  1.22300 10.26500 26.46300
C  1.31300 11.39400 25.66400
C  1.67800 12.52300 26.41000
C  1.63800 12.03600 27.69500
C  1.37600 10.69700 27.70400
C  2.08000 13.91900 25.87100
C  1.75000 12.48000 29.04400
O  2.03100 13.63900 29.40400
C  1.52600 11.23700 29.92600
C  2.62100 11.05500 30.89300
O  3.63500 10.34800 30.85300
O  2.29600 11.87500 31.93000
C  3.11200 11.65500 33.13100
H  0.30500 4.63100 28.63000
H  0.16500 6.12400 22.09500
H  0.89500 12.12300 23.65600
H  1.67400 8.54600 31.22000
H  0.43700 6.05600 30.68500
H  3.09700 6.74400 31.26000
H  3.27700 6.05300 29.66000
H  2.51500 5.14400 31.09600
H  -1.23300 7.81300 30.77100
H  -0.79000 9.40800 30.97100
H  -1.32600 8.07800 33.27000
H  -0.37500 9.60000 33.17200
H  -1.42500 2.42200 26.35000
H  -0.07000 2.78400 27.46900
H  0.44700 2.14800 26.04200
H  -1.00700 1.48400 22.57200
H  -1.60900 2.04800 24.16000
H  0.07400 1.50200 24.01300
H  -0.38400 8.45700 21.08600
H  0.74300 10.93900 21.58300
H  2.53400 9.31700 21.51900
H  1.71500 9.05800 20.00600
H  2.06800 7.63800 20.98400
H  -1.49900 11.23300 23.06600
H  -2.09600 9.88700 22.09600
H  -0.97400 11.68000 20.15600
H  -1.58400 12.68900 21.48200
H  -2.66100 11.57700 20.61900
H  2.47300 13.66300 24.88700
H  2.91400 14.34200 26.43200
H  1.28200 14.64700 25.72600
H  0.59500 11.44500 30.45400
H  2.57800 11.75600 34.07500
H  3.96000 12.34000 33.11500
H  3.63700 10.70800 33.25300
Mg 35.09100 3.14400 30.00400
C  32.75700 4.16600 32.43600
C  37.51900 3.23200 32.33500
C  37.31200 2.44400 27.57400
C  32.59300 3.38400 27.73300
N  35.07400 3.75500 32.12000
C  34.06500 3.97500 32.89500
C  34.51400 3.97700 34.37300
C  36.12900 3.89600 34.28800
C  36.26000 3.63200 32.82200
C  36.90300 5.19700 34.67100
C  33.84400 2.79700 35.23800
C  33.46300 3.07800 36.64300
H  34.37200 4.16600 37.27400
N  37.16400 2.92900 29.89900
C  37.94000 2.84100 31.02900
C  39.33700 2.41300 30.73800
C  39.27500 2.16200 29.32000
C  37.91100 2.50200 28.84600
C  40.46700 2.39400 31.88100
C  40.34000 1.63000 28.39000
O  40.12300 1.29200 27.21600
C  41.59200 1.25900 28.97000
N  34.96000 2.90400 27.89000
C  36.01800 2.63800 27.09300
C  35.57700 2.47800 25.63100
C  34.00200 2.69500 25.67600
C  33.86800 3.00500 27.16800
C  36.26900 3.59700 24.80100
C  33.14600 1.47000 25.26100
C  31.80300 1.80200 24.54800
N  33.09900 3.77900 29.99400
C  32.20800 3.77400 28.96900
C  30.92000 4.23100 29.45500
C  31.06300 4.32600 30.86600
C  32.42300 4.10800 31.12500
C  29.62400 4.46300 28.58900
C  30.36700 4.69800 32.04900
O  29.17300 4.99400 32.21100
C  31.44400 4.44600 33.19700
C  31.46100 5.57800 34.13000
O  31.82700 6.68500 33.81100
O  30.82500 5.30200 35.31600
C  30.49400 6.37300 36.21800
H  38.30300 3.11300 33.08500
H  38.03800 2.12400 26.82300
H  31.79200 3.53700 27.00700
H  34.17600 4.95500 34.71400
H  36.45600 3.01800 34.84600
H  36.34300 5.87700 35.31200
H  37.13700 5.80600 33.79700
H  37.78700 4.98900 35.27400
H  34.66300 2.07800 35.23200
H  32.97400 2.35500 34.75400
H  33.41300 2.18300 37.26300
H  32.43300 3.43100 36.58000
H  40.29500 1.47500 32.44100
H  40.31400 3.24000 32.55100
H  41.48000 2.59700 31.53200
H  41.26100 0.61900 29.78800
H  42.21500 2.05400 29.38100
H  42.13100 0.64500 28.24900
H  35.84600 1.46300 25.33800
H  33.74400 3.45000 24.93400
H  36.91400 3.06800 24.09900
H  36.92400 4.22000 25.40900
H  35.68500 4.29200 24.19900
H  33.10100 0.75400 26.08100
H  33.73400 0.83800 24.59600
H  32.18600 1.74300 23.53000
H  31.42900 2.80000 24.77800
H  31.06600 1.03800 24.79400
H  29.67200 5.29500 27.88700
H  28.68700 4.69800 29.09500
H  29.38900 3.60200 27.96300
H  31.00800 3.58800 33.70900
H  31.01900 6.17500 37.15300
H  29.45900 6.31900 36.55400
H  30.76800 7.31600 35.74600

