158

Mg 50.50600 46.12900 41.68500
C  47.42400 47.57700 40.79200
C  49.24500 42.99200 40.46300
C  53.63000 44.69500 41.99600
C  51.72000 49.22600 42.44900
N  48.54700 45.36400 40.79800
C  47.45500 46.18100 40.49500
C  46.32800 45.36700 39.81500
C  46.85800 43.90200 40.12300
C  48.34800 44.07300 40.53000
C  46.13500 43.17500 41.31300
C  46.20800 45.72600 38.33000
C  44.87800 45.69200 37.69800
H  44.86000 44.61100 36.54900
N  51.28400 44.16900 41.15100
C  50.58600 43.06500 40.72300
C  51.54400 41.93300 40.56600
C  52.83800 42.45200 40.87200
C  52.61600 43.82100 41.39900
C  51.11000 40.52600 40.09300
C  54.15200 41.77700 40.76300
O  54.22100 40.61200 40.52400
C  55.39400 42.48100 40.88400
N  52.41900 46.84600 42.03000
C  53.47600 46.07100 42.29300
C  54.69200 47.00800 42.68500
C  54.05200 48.36400 43.10400
C  52.66000 48.16300 42.43000
C  55.68800 46.28000 43.68500
C  54.88300 49.56600 42.62900
C  54.94100 50.69000 43.69600
N  49.80000 48.06400 41.73000
C  50.38400 49.24800 41.98200
C  49.50600 50.35800 41.86300
C  48.29300 49.73000 41.42200
C  48.51800 48.33500 41.29900
C  49.72000 51.77900 42.12500
C  46.95000 49.98000 40.87200
O  46.37500 51.03800 40.68700
C  46.39100 48.63300 40.34500
C  44.99400 48.37400 40.87400
O  44.66300 47.78600 41.91000
O  44.07900 48.80400 39.91100
C  42.74000 48.21600 40.00100
H  48.73800 42.10800 40.07100
H  54.60800 44.29300 42.26900
H  52.01800 50.20400 42.83300
H  45.36400 45.51400 40.30400
H  46.76900 43.25900 39.24700
H  45.36300 42.47300 40.99700
H  45.63800 44.00000 41.82300
H  46.88100 42.67500 41.93000
H  46.83000 44.95500 37.87300
H  46.64200 46.66200 37.97900
H  44.64000 46.66400 37.26600
H  44.04700 45.56600 38.39300
H  51.70600 39.66400 40.39200
H  51.04500 40.46300 39.00700
H  50.18400 40.24800 40.59600
H  55.64200 42.52000 41.94400
H  55.32400 43.50300 40.51200
H  56.05000 41.92000 40.21800
H  55.33700 47.08700 41.81000
H  54.02500 48.36200 44.19300
H  55.99400 46.88100 44.54200
H  56.62600 46.10500 43.15900
H  55.26600 45.33700 44.03100
H  54.63000 49.90900 41.62500
H  55.90900 49.20500 42.57000
H  55.96600 51.00400 43.89200
H  54.67100 50.25300 44.65700
H  54.23700 51.50200 43.51400
H  49.86200 51.87800 43.20100
H  48.80100 52.32600 41.91100
H  50.63300 52.08400 41.61500
H  46.27900 48.67800 39.26100
H  42.12700 49.09900 39.81900
H  42.42400 47.78400 40.95000
H  42.46900 47.51100 39.21400
Mg 4.46400 53.87800 40.46100
C  4.69900 50.44200 40.87500
C  7.58700 53.80900 38.86000
C  4.11500 57.08000 39.73400
C  1.28600 53.81500 42.07500
N  5.83600 52.26500 39.74300
C  5.75200 50.93300 40.13600
C  6.99200 50.17100 39.69600
C  8.06500 51.33700 39.40500
C  7.10100 52.54600 39.30500
C  9.22800 51.50400 40.33000
C  6.83200 49.23000 38.47200
C  5.74100 49.45000 37.44500
H  6.11700 49.60400 36.01400
N  5.64300 55.24900 39.31700
C  6.90500 55.04800 38.82300
C  7.44100 56.32000 38.42000
C  6.43500 57.32800 38.69000
C  5.30300 56.58000 39.20900
C  8.87600 56.52200 38.02600
C  6.60300 58.87300 38.56900
O  7.73300 59.28300 38.27400
C  5.56400 59.92900 38.93800
N  2.79500 55.21500 40.65500
C  3.01100 56.52600 40.38500
C  1.90000 57.41500 40.99400
C  0.89200 56.31500 41.58800
C  1.68100 55.04000 41.44500
C  2.41100 58.32500 42.16400
C  -0.45300 56.19700 40.82900
C  -1.39000 57.29300 40.57500
N  3.15300 52.49300 41.37200
C  1.97100 52.59400 42.00000
C  1.68300 51.38100 42.72900
C  2.73900 50.48000 42.33000
C  3.60500 51.18400 41.46700
C  0.56700 51.07700 43.60700
C  3.19300 49.16500 42.42200
O  2.71700 48.13700 42.95000
C  4.35900 49.02400 41.38800
C  3.88700 48.14400 40.22000
O  3.24000 48.60600 39.26600
O  4.31300 46.81000 40.27800
C  3.93700 45.94700 39.13600
H  8.64900 53.79800 38.60500
H  4.02400 58.16800 39.73500
H  0.33800 53.85400 42.61600
H  7.43300 49.65300 40.54700
H  8.38200 51.18500 38.37300
H  9.08500 52.38800 40.95100
H  10.18500 51.68200 39.84000
H  9.37400 50.59600 40.91500
H  6.72400 48.23700 38.90800
H  7.74100 49.19500 37.87200
H  5.08800 50.25700 37.77700
H  5.17900 48.51900 37.51900
H  8.89700 56.76300 36.96300
H  9.37800 55.56400 37.88600
H  9.47900 57.31200 38.47500
H  5.92500 60.82700 38.43700
H  5.57300 60.06000 40.02000
H  4.59300 59.63700 38.53900
H  1.39100 58.03200 40.25200
H  0.78200 56.47000 42.66200
H  3.43600 58.12400 42.47500
H  1.65900 58.31000 42.95300
H  2.30500 59.37400 41.88800
H  -0.98300 55.38100 41.32000
H  -0.26100 55.79900 39.83300
H  -2.38600 56.89300 40.76200
H  -1.34700 57.61200 39.53300
H  -1.12600 58.14000 41.20900
H  -0.36600 51.50500 43.24100
H  0.83300 51.47600 44.58600
H  0.48600 50.00300 43.77100
H  5.22500 48.54200 41.84200
H  2.85400 45.89800 39.01900
H  4.32900 44.96400 39.39700
H  4.39200 46.40300 38.25600

