158

Mg 17.04400 52.28800 26.13500
C  18.85900 50.89800 28.69000
C  14.55800 53.13800 28.29800
C  15.03700 53.25200 23.50600
C  19.28100 50.87400 23.78700
N  16.73600 51.97800 28.21900
C  17.69900 51.59500 29.12300
C  17.30900 52.00300 30.50300
C  15.73700 52.05800 30.29400
C  15.62700 52.51500 28.84600
C  15.04000 50.67900 30.39600
C  18.09800 53.29400 31.05000
C  18.27400 53.34600 32.57300
H  17.42800 52.40400 33.41400
N  15.08700 53.21700 25.93100
C  14.24400 53.47400 26.96200
C  13.07500 54.10500 26.41700
C  13.19700 54.17300 25.01400
C  14.49100 53.56500 24.73200
C  11.84900 54.51300 27.25400
C  12.26500 54.76000 23.97200
O  12.44900 54.69700 22.75600
C  11.08100 55.50100 24.38900
N  17.07500 51.93700 23.88300
C  16.21200 52.61400 23.06000
C  16.56300 52.38500 21.57700
C  18.01800 51.75400 21.68900
C  18.14200 51.48100 23.19300
C  15.50500 51.42900 20.86700
C  19.10400 52.70500 21.20300
C  19.15600 54.11100 21.88300
N  18.69200 51.10200 26.14500
C  19.46000 50.55500 25.11700
C  20.58500 49.87400 25.78000
C  20.41200 49.94100 27.16700
C  19.24000 50.69800 27.33100
C  21.79500 49.29100 25.13700
C  20.91800 49.61700 28.52600
O  21.89300 49.03600 28.85600
C  19.86300 50.25600 29.56600
C  19.51700 49.11800 30.52400
O  19.03300 48.06100 30.12400
O  19.83300 49.41500 31.84700
C  19.50900 48.40300 32.77400
H  13.73200 53.26400 29.00000
H  14.60900 53.74200 22.62900
H  20.10400 50.57100 23.13600
H  17.43300 51.11800 31.12700
H  15.13500 52.72300 30.91300
H  14.16100 50.81100 31.02700
H  15.67900 49.91500 30.83900
H  14.72800 50.29000 29.42700
H  17.53400 54.20900 30.86900
H  19.04200 53.36700 30.51000
H  18.05100 54.32500 32.99700
H  19.30800 53.08900 32.80500
H  11.67500 55.58500 27.16500
H  11.97000 54.36600 28.32700
H  10.93500 54.00200 26.94900
H  10.46900 55.92100 23.59100
H  11.47300 56.37200 24.91500
H  10.52800 54.78900 25.00200
H  16.58500 53.29300 20.97400
H  17.99500 50.75100 21.26100
H  14.77200 51.02500 21.56600
H  16.05300 50.57100 20.47800
H  14.93700 51.99300 20.12800
H  18.81500 52.93400 20.17800
H  20.06400 52.18900 21.23000
H  19.83200 54.82400 21.41100
H  19.78000 53.92100 22.75600
H  18.19000 54.57700 22.07400
H  21.70000 48.20900 25.04800
H  22.57300 49.57200 25.84600
H  21.91000 49.77800 24.16900
H  20.46100 50.96400 30.14000
H  18.49100 48.05600 32.59200
H  19.63700 48.76300 33.79400
H  20.26700 47.62000 32.79200
Mg -11.70600 38.73000 42.32600
C  -9.45100 36.17400 41.25800
C  -9.87500 40.91900 40.36500
C  -14.08200 40.99600 43.00600
C  -13.81800 36.22000 43.35700
N  -9.92200 38.54500 40.99100
C  -9.10300 37.43600 40.71600
C  -7.98400 37.72200 39.77200
C  -8.05800 39.28000 39.72500
C  -9.39300 39.59000 40.32800
C  -6.94200 40.29300 40.08100
C  -8.18800 36.89900 38.41700
C  -7.12400 35.76800 38.13500
H  -6.25500 35.93400 36.91000
N  -11.87000 40.73300 41.87300
C  -11.01400 41.42100 41.01400
C  -11.49300 42.76500 40.98000
C  -12.59300 42.88600 41.85800
C  -12.86300 41.51500 42.35000
C  -10.89800 43.73900 40.06600
C  -13.33500 44.20400 42.10300
O  -12.95200 45.27600 41.62900
C  -14.57100 44.28900 42.97500
N  -13.65200 38.58700 43.16600
C  -14.39200 39.67000 43.37900
C  -15.80800 39.36800 43.67800
C  -15.80600 37.78100 43.51600
C  -14.34200 37.47700 43.35400
C  -16.40200 40.03300 45.00000
C  -16.71300 37.25400 42.35100
C  -18.19700 37.06900 42.72400
N  -11.66700 36.63700 42.46800
C  -12.57900 35.73300 42.91400
C  -12.07700 34.40000 42.98400
C  -10.80900 34.53000 42.32900
C  -10.59900 35.90200 42.08100
C  -12.67100 33.22600 43.65800
C  -9.64000 33.83900 41.89300
O  -9.37100 32.65800 41.92000
C  -8.69500 34.84400 41.21900
C  -7.32100 34.80200 41.82300
O  -6.43100 34.00300 41.69200
O  -7.18900 35.91400 42.69500
C  -6.03000 35.91300 43.56300
H  -9.28800 41.66100 39.81900
H  -14.88900 41.70500 43.20200
H  -14.59100 35.53500 43.71100
H  -7.07600 37.29500 40.19800
H  -8.15300 39.48800 38.65900
H  -6.13600 39.66100 40.45400
H  -7.31600 41.08800 40.72600
H  -6.73700 40.69900 39.09100
H  -8.20600 37.59400 37.57700
H  -9.14100 36.37200 38.45800
H  -7.65100 34.82400 37.99500
H  -6.53500 35.65200 39.04500
H  -10.29200 43.31200 39.26600
H  -10.15600 44.28400 40.64900
H  -11.52300 44.46400 39.54400
H  -15.34800 43.79500 42.39200
H  -14.71000 45.34700 43.20000
H  -14.49200 43.79700 43.94400
H  -16.42200 39.76300 42.86900
H  -16.15500 37.31100 44.43600
H  -16.94000 39.23300 45.50900
H  -17.08500 40.83000 44.70700
H  -15.52400 40.27500 45.59900
H  -16.23900 36.41400 41.84400
H  -16.63900 37.96200 41.52600
H  -18.57800 37.79300 43.44400
H  -18.34100 36.02900 43.01600
H  -18.78200 37.27000 41.82600
H  -13.35000 32.65600 43.02400
H  -13.23700 33.68500 44.46900
H  -11.83800 32.58400 43.94300
H  -8.51000 34.35400 40.26200
H  -6.28700 36.48700 44.45300
H  -5.19200 36.47100 43.14400
H  -5.54400 35.02400 43.96300

