158

Mg 24.42300 -5.08900 46.33600
C  26.26400 -2.41500 44.82400
C  21.81900 -4.24600 44.43800
C  23.10100 -8.11600 47.18100
C  27.46200 -6.06200 47.80900
N  24.15200 -3.54900 44.80900
C  25.02700 -2.62400 44.27500
C  24.33500 -1.70900 43.17100
C  22.83800 -2.21900 43.19800
C  22.88800 -3.44500 44.29700
C  21.91400 -1.09400 43.66200
C  24.91800 -1.77700 41.67900
C  25.44300 -0.44000 41.03900
H  25.26500 -0.37200 39.51200
N  22.66400 -5.98800 45.98400
C  21.67600 -5.42300 45.20100
C  20.43100 -6.30400 45.36800
C  20.77300 -7.40400 46.15900
C  22.18100 -7.22400 46.50500
C  19.03900 -5.99300 44.76500
C  19.83300 -8.49900 46.68200
O  18.62000 -8.50800 46.41100
C  20.31300 -9.61400 47.42500
N  25.16600 -6.81000 47.30800
C  24.44600 -7.93000 47.53400
C  25.31500 -8.99600 48.29000
C  26.63400 -8.32700 48.53000
C  26.38900 -6.97900 47.78500
C  24.54200 -9.39800 49.63400
C  27.85700 -9.07700 48.05700
C  29.03500 -9.07300 49.00400
N  26.48200 -4.38100 46.44100
C  27.57000 -4.84300 47.09500
C  28.64800 -3.95600 47.01800
C  28.17100 -3.03600 46.12700
C  26.85400 -3.28900 45.78400
C  29.96700 -3.96000 47.77100
C  28.50900 -1.84500 45.40700
O  29.52100 -1.16800 45.42200
C  27.32700 -1.37500 44.53000
C  26.96100 0.02600 44.70200
O  26.41700 0.55300 45.66500
O  27.27900 0.81000 43.60700
C  26.84300 2.27900 43.56700
H  20.94000 -4.03600 43.82500
H  22.64100 -9.07700 47.41900
H  28.37600 -6.37800 48.31700
H  24.48400 -0.67600 43.48400
H  22.49200 -2.66100 42.26400
H  21.19900 -0.93800 42.85500
H  22.37100 -0.10800 43.74700
H  21.39400 -1.29900 44.59800
H  24.16200 -2.17600 41.00300
H  25.76400 -2.45600 41.79200
H  26.42600 -0.06600 41.32700
H  24.75600 0.31600 41.41900
H  18.49400 -6.81100 44.29400
H  19.22400 -5.29800 43.94600
H  18.28300 -5.52500 45.39500
H  19.45700 -10.28700 47.44700
H  20.54600 -9.36200 48.46000
H  21.14000 -10.07400 46.88300
H  25.46800 -9.82700 47.60200
H  26.75400 -7.96300 49.55100
H  25.15100 -9.15600 50.50500
H  24.34600 -10.46900 49.58400
H  23.57600 -8.90700 49.75700
H  28.15500 -8.49700 47.18300
H  27.74100 -10.07300 47.63100
H  29.67800 -8.27400 48.63500
H  29.59100 -10.00700 48.92200
H  28.86400 -8.95400 50.07400
H  30.50300 -3.05200 47.49300
H  30.58200 -4.81100 47.48200
H  29.88800 -4.07900 48.85200
H  27.62200 -1.49900 43.48800
H  27.67000 2.89700 43.21700
H  26.47800 2.69500 44.50500
H  26.02100 2.35800 42.85600
Mg 49.85900 46.63300 42.63200
C  46.74700 47.56400 41.43700
C  49.55900 43.68000 40.67700
C  53.19900 45.92500 43.11100
C  50.27500 49.68600 43.97500
N  48.35700 45.84900 41.07900
C  47.11500 46.31100 40.93300
C  46.22900 45.43900 40.06700
C  47.06700 44.07100 40.18600
C  48.47800 44.57000 40.53700
C  46.45200 43.09400 41.07600
C  46.08700 46.01200 38.62700
C  44.85600 45.61600 37.81000
H  45.06800 44.33400 36.99000
N  51.11500 44.99700 42.11200
C  50.83000 43.87000 41.36600
C  51.92000 42.99500 41.37600
C  52.95700 43.54400 42.10500
C  52.44300 44.94100 42.46300
C  51.86200 41.65700 40.82000
C  54.30500 42.92500 42.42600
O  54.68400 41.86800 41.93600
C  55.21800 43.51700 43.41400
N  51.55600 47.68800 43.26500
C  52.79700 47.16900 43.48800
C  53.72400 48.25900 44.00900
C  52.74300 49.38600 44.41000
C  51.41400 48.88700 43.83300
C  54.68700 47.83100 45.18400
C  53.11800 50.80800 43.91900
C  52.97000 51.96400 44.94200
N  48.81200 48.33700 42.68200
C  49.02500 49.54400 43.37000
C  47.91200 50.40100 43.25100
C  46.98200 49.68300 42.46800
C  47.58900 48.43200 42.18200
C  47.75500 51.74100 43.95300
C  45.65500 49.67600 41.96600
O  44.70200 50.46400 42.16900
C  45.49400 48.36900 41.13500
C  44.15600 47.78100 41.41800
O  43.25100 47.69000 40.56500
O  44.16900 47.05600 42.54400
C  43.00500 46.24000 42.90500
H  49.34900 42.74900 40.14700
H  54.27600 45.76400 43.18300
H  50.41000 50.54600 44.63400
H  45.19000 45.36500 40.38900
H  47.32400 43.57700 39.24900
H  45.52400 43.48600 41.49400
H  47.08600 42.91000 41.94300
H  46.18600 42.14100 40.62000
H  46.90700 45.60200 38.03700
H  46.11600 47.09800 38.53500
H  44.66800 46.48300 37.17500
H  43.91400 45.41700 38.32100
H  52.43600 41.61800 39.89500
H  50.87800 41.22100 40.64500
H  52.30800 40.96600 41.53500
H  56.02000 42.90400 43.82500
H  54.53900 43.94100 44.15500
H  55.73000 44.35600 42.94300
H  54.41400 48.49200 43.19800
H  52.57900 49.33500 45.48600
H  54.46400 46.89400 45.69300
H  54.83200 48.59600 45.94700
H  55.69400 47.69600 44.79100
H  52.67100 50.98400 42.94100
H  54.17800 50.85700 43.66800
H  52.40000 52.79200 44.51900
H  53.94300 52.35300 45.24200
H  52.45100 51.65300 45.84800
H  48.65200 52.28800 43.66400
H  47.70700 51.53200 45.02200
H  46.90700 52.15900 43.41000
H  45.55400 48.66300 40.08700
H  43.45200 45.46400 43.52700
H  42.52900 45.70900 42.08100
H  42.36600 46.91500 43.47500

