158

Mg 41.21700 41.10000 27.01700
C  40.34700 43.39700 29.47300
C  41.96300 38.88800 29.49300
C  42.21100 38.94200 24.60200
C  40.69500 43.53300 24.47000
N  41.24000 41.17900 29.19900
C  40.72800 42.15200 29.99300
C  40.59400 41.79000 31.51900
C  41.05000 40.32600 31.49000
C  41.46000 40.06100 29.95900
C  42.27100 39.92600 32.29400
C  39.14100 42.01400 32.16200
C  38.84500 42.87200 33.45400
H  38.15300 42.10400 34.61300
N  42.16400 39.20600 27.04400
C  42.32800 38.45600 28.18300
C  42.96000 37.20600 27.83500
C  42.91200 37.18400 26.38500
C  42.38100 38.51000 25.94400
C  43.51900 36.27500 28.77600
C  43.36800 36.08800 25.42500
O  43.18900 36.05700 24.16400
C  44.13700 34.90900 25.98100
N  41.32100 41.20500 24.77200
C  41.70000 40.10800 24.06200
C  41.69400 40.49300 22.50000
C  41.15300 41.99300 22.52700
C  41.07400 42.29300 24.01600
C  43.04300 40.39400 21.74700
C  39.79200 42.04300 21.87100
C  38.56800 41.49000 22.60000
N  40.73000 43.03300 26.94800
C  40.51900 43.95000 25.86000
C  40.15400 45.23300 26.32500
C  40.01400 45.03200 27.75600
C  40.41700 43.72200 28.06100
C  39.86100 46.47700 25.55200
C  39.61200 45.73200 29.03100
O  39.28000 46.89200 29.17500
C  39.86100 44.68100 30.17400
C  40.93200 45.12500 31.12700
O  42.04000 45.48900 30.81200
O  40.49100 45.25700 32.37000
C  41.33500 46.00400 33.26300
H  42.05000 38.18000 30.32000
H  42.57000 38.25800 23.83100
H  40.43900 44.35700 23.80100
H  41.35800 42.44700 31.93300
H  40.26300 39.60900 31.72100
H  42.11400 40.37200 33.27600
H  43.22200 40.19600 31.83700
H  42.27300 38.83600 32.29800
H  38.75000 41.03800 32.44800
H  38.56700 42.29400 31.27900
H  38.24100 43.72000 33.13200
H  39.75500 43.36800 33.79100
H  43.39200 35.20400 28.61700
H  43.03500 36.43000 29.74100
H  44.57700 36.53500 28.80600
H  44.46100 34.16600 25.25200
H  43.60800 34.28000 26.69700
H  45.12000 35.24400 26.31200
H  40.98400 39.82400 22.01500
H  41.84700 42.72300 22.10900
H  43.85800 40.54000 22.45600
H  43.04700 41.17600 20.98800
H  43.05500 39.42700 21.24400
H  39.94100 41.54500 20.91300
H  39.60800 43.10000 21.67400
H  38.37600 40.57100 22.04500
H  37.73000 42.15500 22.39100
H  38.71200 41.27600 23.65900
H  39.54600 46.27300 24.52900
H  40.67200 47.19600 25.66900
H  38.91400 46.81300 25.97600
H  38.98600 44.71300 30.82200
H  40.63900 46.22600 34.07100
H  41.97600 46.82300 32.93700
H  42.03500 45.31400 33.73400
Mg -0.65700 43.04100 26.82300
C  1.61000 42.90200 29.38400
C  -3.04000 41.81000 28.90100
C  -2.60600 42.57200 24.00300
C  2.11200 43.49400 24.49900
N  -0.65100 42.23600 28.86000
C  0.33200 42.51600 29.77600
C  -0.14500 42.36000 31.26300
C  -1.46900 41.53100 30.99700
C  -1.83200 41.94200 29.50700
C  -1.30200 40.00800 31.11300
C  -0.39600 43.57100 32.13100
C  0.49400 43.57700 33.40100
H  0.22300 42.50000 34.41400
N  -2.58100 42.48700 26.54500
C  -3.45100 42.08200 27.55000
C  -4.83000 41.96600 26.98700
C  -4.60900 42.21800 25.56100
C  -3.20400 42.42900 25.34900
C  -6.01800 41.48000 27.81400
C  -5.60500 42.30700 24.52700
O  -5.43100 42.47900 23.31500
C  -7.00900 42.01800 24.89700
N  -0.32600 43.28600 24.48600
C  -1.33700 43.05500 23.64500
C  -0.88800 43.16300 22.11400
C  0.61100 43.64200 22.32500
C  0.86600 43.43300 23.86500
C  -1.15000 41.92000 21.22900
C  0.76200 45.23800 21.93600
C  1.71700 45.56800 20.71100
N  1.44300 43.24300 26.90000
C  2.37300 43.49200 25.86600
C  3.66600 43.57700 26.48600
C  3.45600 43.30200 27.85800
C  2.08600 43.08400 28.03700
C  4.98000 43.92500 25.81500
C  4.05100 43.11600 29.18500
O  5.24600 43.12300 29.42500
C  2.87200 42.94900 30.21000
C  3.01400 41.68500 30.98800
O  2.89700 40.54300 30.51100
O  3.25500 42.00700 32.27100
C  3.55100 40.85000 33.12700
H  -3.82500 41.65000 29.64300
H  -3.22900 42.32300 23.14100
H  3.00200 43.62300 23.88000
H  0.58100 41.73900 31.78800
H  -2.30000 41.82500 31.63800
H  -0.25800 39.71800 30.99500
H  -1.80500 39.55200 30.26000
H  -1.63700 39.71200 32.10700
H  -1.40900 43.52500 32.52900
H  -0.31000 44.53000 31.62000
H  0.18600 44.53000 33.83200
H  1.55900 43.63300 33.17600
H  -6.28800 40.48900 27.44800
H  -6.85700 42.07000 27.44600
H  -5.86800 41.40400 28.89100
H  -6.96300 40.94500 25.08500
H  -7.66000 42.18300 24.03800
H  -7.16300 42.81400 25.62500
H  -1.36200 44.00400 21.60900
H  1.28200 43.06800 21.68600
H  -1.91400 42.38600 20.60700
H  -1.64900 41.11900 21.77500
H  -0.26600 41.69300 20.63300
H  1.18900 45.71800 22.81600
H  -0.17700 45.71400 21.65100
H  2.07700 44.59200 20.38500
H  2.59900 46.13500 21.01200
H  1.28700 46.09500 19.86000
H  5.27500 43.10100 25.16400
H  5.78200 43.99600 26.55000
H  5.12000 44.87800 25.30600
H  2.94200 43.84400 30.82900
H  3.57400 41.25600 34.13800
H  4.48200 40.33300 32.89100
H  2.74500 40.11700 33.14700

