158

Mg 5.91400 53.18100 41.10900
C  5.77500 49.75300 40.31300
C  9.19700 53.17700 39.64800
C  5.75900 56.52700 40.90600
C  2.56700 52.94700 41.98500
N  7.32600 51.62100 40.20200
C  7.08500 50.31000 40.06900
C  8.43600 49.58500 39.64000
C  9.50100 50.72400 39.83200
C  8.62200 51.94300 39.85500
C  10.28300 50.58900 41.16600
C  8.28600 49.08800 38.20100
C  7.56300 49.99300 37.10900
H  8.13100 49.88400 35.68800
N  7.29200 54.67200 40.37000
C  8.52800 54.44500 39.79000
C  9.14800 55.73300 39.61000
C  8.18300 56.75700 39.93300
C  7.01900 55.99300 40.46900
C  10.44200 55.96800 38.96600
C  8.37400 58.27400 39.74200
O  9.35600 58.68400 39.16400
C  7.42100 59.31500 40.32200
N  4.36000 54.49400 41.48900
C  4.56800 55.85500 41.31200
C  3.35500 56.57500 41.74900
C  2.29100 55.40600 41.97200
C  3.09500 54.20900 41.83900
C  3.71700 57.39300 43.00500
C  1.02000 55.44600 40.98400
C  -0.26700 55.56600 41.73900
N  4.52500 51.68900 41.25000
C  3.22200 51.75900 41.66200
C  2.61700 50.48300 41.72300
C  3.58400 49.64700 41.19300
C  4.73700 50.46000 40.88300
C  1.34800 50.00000 42.24600
C  3.94500 48.29400 40.84400
O  3.28400 47.29200 40.94600
C  5.39600 48.29200 40.21400
C  5.23600 47.86100 38.82200
O  4.43400 48.26200 38.01100
O  6.00800 46.77700 38.70300
C  5.85000 46.20000 37.33300
H  10.24000 53.17600 39.32600
H  5.75200 57.61100 41.03600
H  1.49600 53.00000 42.19000
H  8.60600 48.69200 40.24100
H  10.14400 50.88600 38.96700
H  11.31900 50.46000 40.85500
H  9.97300 49.71700 41.74300
H  10.11000 51.41500 41.85600
H  8.03100 48.04100 38.36500
H  9.35600 48.93000 38.06400
H  7.68700 51.00900 37.48200
H  6.51100 49.71000 37.15200
H  10.38200 56.32100 37.93600
H  11.07200 55.08000 38.92400
H  10.91100 56.77600 39.52700
H  7.80000 60.27400 39.96800
H  7.43100 59.27900 41.41100
H  6.41800 59.16200 39.92400
H  3.04400 57.23700 40.94100
H  1.94100 55.45800 43.00300
H  3.06900 57.02100 43.79900
H  3.55000 58.46400 42.88900
H  4.76100 57.19200 43.24500
H  0.92200 54.51400 40.42600
H  1.15000 56.17700 40.18600
H  -0.11700 55.62600 42.81700
H  -0.93000 54.77500 41.39100
H  -0.81100 56.46000 41.43100
H  0.59700 50.38800 41.55800
H  1.15100 50.34400 43.26200
H  1.22400 48.91900 42.18100
H  6.01500 47.58300 40.76500
H  6.76500 45.71000 37.00100
H  5.75500 46.96300 36.56100
H  5.05500 45.46700 37.19600
Mg -11.68400 39.29400 41.82300
C  -10.38300 36.09500 40.89700
C  -9.09300 40.77200 40.19200
C  -13.36100 42.14400 42.13600
C  -14.61600 37.57100 42.94700
N  -9.95100 38.44000 40.65500
C  -9.61400 37.10600 40.36500
C  -8.33700 37.04500 39.52000
C  -7.89000 38.53400 39.55300
C  -9.02200 39.29700 40.17900
C  -6.65100 38.65500 40.51100
C  -8.63800 36.47800 38.13600
C  -7.66900 35.45100 37.47600
H  -6.94200 35.88100 36.16100
N  -11.30000 41.26900 41.34600
C  -10.18800 41.68100 40.58800
C  -10.27400 43.12100 40.39500
C  -11.46600 43.55900 41.02100
C  -12.13100 42.31600 41.55500
C  -9.20800 44.00700 39.76600
C  -11.88300 44.99900 41.19600
O  -11.14600 45.93000 40.91100
C  -13.27100 45.31800 41.77100
N  -13.87100 39.72700 42.18900
C  -14.11900 41.01600 42.52800
C  -15.62500 41.12100 42.95400
C  -16.08700 39.69700 43.13000
C  -14.83600 38.91400 42.72400
C  -15.77400 42.01400 44.23500
C  -17.27600 39.29900 42.19100
C  -18.49500 40.17300 42.33400
N  -12.39300 37.26700 41.90000
C  -13.53000 36.71500 42.50100
C  -13.39300 35.32300 42.73500
C  -12.20400 35.01800 42.12100
C  -11.62500 36.20200 41.58900
C  -14.36800 34.40900 43.56300
C  -11.30900 33.93800 41.70400
O  -11.34800 32.75200 41.85800
C  -10.21900 34.58200 40.81600
C  -8.91600 34.14600 41.34400
O  -8.44100 33.08400 40.92600
O  -8.27100 35.00300 42.19200
C  -7.05800 34.40100 42.71600
H  -8.30500 41.31500 39.66600
H  -13.97600 43.03900 42.25400
H  -15.45900 37.08700 43.44400
H  -7.72300 36.37600 40.12200
H  -7.61900 38.87400 38.55400
H  -6.08500 37.75500 40.75100
H  -6.88400 39.17500 41.44000
H  -5.91900 39.22000 39.93400
H  -8.64400 37.33000 37.45700
H  -9.63400 36.04400 38.05100
H  -8.08300 34.49300 37.16000
H  -6.87800 35.12400 38.15200
H  -9.72400 44.76100 39.17200
H  -8.53800 43.35700 39.20200
H  -8.59700 44.60600 40.44200
H  -14.06200 44.80200 41.22700
H  -13.35300 46.40300 41.83300
H  -13.23400 45.02600 42.82000
H  -16.28500 41.59500 42.22800
H  -16.43200 39.53600 44.15200
H  -15.58600 43.04200 43.92700
H  -14.96700 41.85200 44.94900
H  -16.74300 42.08500 44.72900
H  -17.51400 38.25700 42.40500
H  -16.96700 39.29600 41.14600
H  -18.32700 40.97100 43.05800
H  -19.31900 39.58900 42.74400
H  -18.87500 40.64400 41.42600
H  -15.36000 34.63900 43.17400
H  -14.31800 34.57500 44.63900
H  -14.30800 33.36500 43.25600
H  -10.33000 34.39400 39.74800
H  -6.89300 35.04300 43.58100
H  -6.23000 34.37800 42.00700
H  -7.19500 33.37600 43.06300

