158

Mg -0.58900 7.50200 26.00500
C  0.43400 9.24100 28.79900
C  -1.02400 4.73700 27.95500
C  -1.24200 5.68600 23.28100
C  -0.29700 10.33400 24.13600
N  -0.22100 7.01100 28.12300
C  0.10300 7.91000 29.12500
C  -0.19100 7.37800 30.49200
C  -0.34700 5.83400 30.17700
C  -0.52500 5.81400 28.67100
C  0.76800 4.91100 30.62300
C  -1.50700 8.00300 31.19100
C  -1.28600 8.65800 32.56500
H  -0.12400 8.04200 33.30600
N  -1.03700 5.51600 25.62700
C  -1.21100 4.55200 26.58600
C  -1.61100 3.28700 26.00200
C  -1.51200 3.43800 24.58800
C  -1.23500 4.95200 24.42400
C  -1.87400 2.00800 26.83700
C  -1.69300 2.45600 23.39700
O  -1.52500 2.79000 22.24300
C  -2.18300 1.07500 23.62600
N  -0.79700 7.93600 23.93000
C  -1.12400 7.04800 23.00500
C  -1.31500 7.68500 21.60200
C  -1.10500 9.23000 22.00100
C  -0.71900 9.21200 23.41700
C  -0.32700 7.22900 20.57400
C  -2.36600 10.13900 21.89500
C  -2.34900 11.55000 21.42100
N  0.01600 9.40200 26.31400
C  0.04100 10.53400 25.50400
C  0.57700 11.71700 26.15300
C  0.70100 11.22400 27.44900
C  0.35500 9.81000 27.53100
C  0.90200 13.09100 25.60700
C  1.16300 11.61100 28.72900
O  1.61000 12.63600 29.13500
C  0.79500 10.34800 29.64500
C  2.08000 10.01900 30.33400
O  2.88200 9.13500 30.12400
O  2.28900 10.97400 31.32900
C  3.66400 11.06800 31.84900
H  -1.28100 3.94000 28.65600
H  -1.52000 5.08300 22.41400
H  -0.26000 11.29000 23.61000
H  0.67100 7.55000 31.13600
H  -1.24900 5.49700 30.68800
H  1.60500 5.43300 31.08900
H  1.14600 4.36700 29.75800
H  0.36800 4.12900 31.26800
H  -2.32400 7.28200 31.22900
H  -1.83300 8.83700 30.57000
H  -2.19900 8.42200 33.11200
H  -1.19500 9.74300 32.51500
H  -2.94300 1.88900 27.01100
H  -1.42300 2.05500 27.82800
H  -1.40000 1.14000 26.37900
H  -2.53500 0.59600 22.71300
H  -3.08800 1.20100 24.21900
H  -1.49600 0.37800 24.10600
H  -2.36500 7.56100 21.33700
H  -0.23200 9.58800 21.45600
H  -0.80200 6.48200 19.93900
H  0.51200 6.73500 21.06500
H  -0.01200 8.05000 19.93000
H  -2.85800 10.25600 22.86000
H  -3.21800 9.63400 21.44000
H  -3.26900 11.65000 20.84500
H  -1.50500 11.80000 20.77900
H  -2.29700 12.16600 22.31900
H  0.17100 13.48900 24.90400
H  1.86500 12.95000 25.11600
H  0.94200 13.79900 26.43500
H  0.04700 10.57800 30.40400
H  4.30500 11.01300 30.97000
H  3.82200 10.21900 32.51400
H  3.82400 12.08900 32.19700
Mg 53.78800 24.92800 44.81800
C  51.08900 26.99300 44.05100
C  52.04900 22.29900 43.39900
C  56.64800 23.21600 44.39700
C  55.57500 27.83000 45.51400
N  51.79600 24.69900 43.91000
C  50.80500 25.71600 43.75300
C  49.55100 25.13800 43.08700
C  49.83200 23.65800 43.27800
C  51.32100 23.50000 43.49800
C  49.00300 22.90900 44.36900
C  49.46600 25.55700 41.62200
C  48.02500 25.78700 41.07700
H  47.81100 25.42500 39.62500
N  54.32200 23.03100 44.05800
C  53.46100 22.07500 43.57400
C  54.14600 20.78000 43.42200
C  55.46400 20.96400 43.81000
C  55.53800 22.43300 44.08900
C  53.42400 19.52000 42.98900
C  56.58300 19.97400 43.81000
O  56.35700 18.83500 43.40700
C  57.92300 20.28600 44.27900
N  55.74400 25.50200 44.80700
C  56.80000 24.56000 44.69800
C  58.10000 25.16300 44.97700
C  57.83300 26.66700 45.12200
C  56.31500 26.74500 45.03100
C  58.89700 24.47800 46.18700
C  58.54400 27.61700 44.10000
C  59.49900 28.63400 44.70600
N  53.44800 27.03700 44.90700
C  54.20900 28.04300 45.36600
C  53.44300 29.25800 45.55800
C  52.22500 28.89900 44.89100
C  52.26800 27.53600 44.58400
C  53.82400 30.44300 46.27600
C  50.91500 29.42100 44.56900
O  50.47300 30.54400 44.81100
C  50.26800 28.30700 43.76000
C  50.44600 28.69300 42.31500
O  51.50700 28.76200 41.78700
O  49.25900 28.99300 41.79100
C  49.21700 29.54200 40.42900
H  51.41100 21.44600 43.16000
H  57.61500 22.77500 44.14900
H  56.13400 28.70700 45.84600
H  48.65800 25.35800 43.67300
H  49.47700 23.12900 42.39300
H  48.32500 22.23300 43.84800
H  48.38200 23.55600 44.98900
H  49.73200 22.37600 44.98000
H  49.85100 24.71500 41.04600
H  50.13500 26.37800 41.36500
H  47.72700 26.83200 41.16600
H  47.28200 25.22100 41.63800
H  53.52100 19.43900 41.90700
H  52.43100 19.45000 43.43200
H  53.96400 18.65400 43.37300
H  58.33200 20.93800 43.50600
H  58.57600 19.42600 44.13400
H  57.90600 20.63500 45.31200
H  58.70600 24.92300 44.10300
H  58.18200 26.89800 46.12800
H  58.76600 25.13600 47.04600
H  59.95600 24.43000 45.93600
H  58.55400 23.50500 46.54000
H  57.90800 28.19100 43.42700
H  59.04400 26.92800 43.42000
H  60.51800 28.47800 44.35300
H  59.35500 28.71400 45.78400
H  59.13500 29.57000 44.28300
H  54.73100 30.22000 46.83800
H  52.99200 30.83500 46.86000
H  53.97700 31.27900 45.59300
H  49.24000 28.25100 44.12000
H  50.24700 29.75400 40.14400
H  48.78700 30.53800 40.31600
H  48.68100 28.93800 39.69700

