158

Mg 41.51300 8.15800 29.43700
C  43.16200 9.78500 31.95900
C  39.15700 6.91800 31.75000
C  40.21100 6.17900 27.10500
C  44.25000 8.89800 27.35900
N  41.17100 8.36200 31.50400
C  42.03100 9.05500 32.39100
C  41.58300 8.89000 33.92000
C  40.37200 8.00700 33.82500
C  40.21100 7.69700 32.27100
C  40.10400 6.74600 34.68900
C  41.15800 10.31500 34.54000
C  40.25600 10.36800 35.77500
H  40.79500 11.02000 37.04800
N  39.75700 6.99900 29.37300
C  38.86200 6.69800 30.38200
C  37.70400 6.00500 29.77800
C  38.03200 5.83500 28.44100
C  39.39800 6.30500 28.26500
C  36.55700 5.54100 30.65900
C  37.16700 5.32600 27.28500
O  37.55000 5.15500 26.11800
C  35.68800 5.23800 27.59700
N  42.23800 7.45300 27.55700
C  41.48900 6.75000 26.74800
C  42.06600 6.64400 25.29200
C  43.24800 7.59100 25.36500
C  43.27900 8.01900 26.84700
C  42.30300 5.13500 24.91500
C  43.02000 8.89900 24.46700
C  41.97900 9.96600 24.96600
N  43.32600 9.17500 29.55400
C  44.30700 9.41600 28.65800
C  45.33200 10.28100 29.25100
C  44.90900 10.54200 30.55600
C  43.69100 9.82800 30.70700
C  46.54300 10.77400 28.49200
C  45.24800 11.18100 31.77400
O  46.17200 11.93000 32.14200
C  44.03900 10.68300 32.72400
C  44.65100 10.04600 33.89300
O  45.37800 9.07100 33.73200
O  44.32900 10.52900 35.11600
C  44.54100 9.70400 36.35200
H  38.46300 6.59300 32.52800
H  39.85500 5.39400 26.43500
H  45.06700 9.25300 26.72800
H  42.33900 8.36800 34.50700
H  39.46400 8.60900 33.86400
H  39.78300 5.88200 34.10700
H  39.30600 6.92100 35.41000
H  40.98900 6.53800 35.29000
H  40.52500 10.80100 33.79800
H  42.06300 10.90200 34.69500
H  40.13500 9.30100 35.95900
H  39.26100 10.74900 35.54600
H  35.67900 6.18200 30.73700
H  36.80200 5.39100 31.71100
H  36.21500 4.62300 30.18100
H  35.12100 5.01200 26.69400
H  35.40600 6.22300 27.96900
H  35.56900 4.35500 28.22500
H  41.30900 7.09900 24.65300
H  44.21600 7.10600 25.24000
H  43.04200 5.12200 24.11500
H  41.35200 4.67100 24.65300
H  42.69900 4.60700 25.78300
H  42.71700 8.57000 23.47200
H  43.98200 9.36300 24.25100
H  41.65600 10.58700 24.13100
H  42.53900 10.52300 25.71700
H  41.10200 9.54200 25.45500
H  47.30900 10.77400 29.26700
H  46.31800 11.79100 28.17100
H  46.78800 10.17200 27.61700
H  43.57600 11.56500 33.16600
H  44.84300 8.70300 36.04100
H  43.59100 9.66700 36.88500
H  45.27100 10.14600 37.03000
Mg 41.15000 41.33900 27.05100
C  40.26200 43.71200 29.47200
C  42.04200 39.28500 29.61300
C  42.30300 39.14400 24.80400
C  40.77300 43.80800 24.58500
N  41.07900 41.51800 29.16100
C  40.52900 42.44900 29.95500
C  40.57800 42.14500 31.44700
C  41.17300 40.67500 31.51400
C  41.51600 40.49300 30.00200
C  42.36200 40.48000 32.49900
C  39.23800 42.29400 32.21100
C  39.20900 41.61000 33.56200
H  38.46100 42.24200 34.72100
N  42.06700 39.46200 27.22000
C  42.37900 38.77600 28.39400
C  42.69700 37.42900 28.04800
C  42.63800 37.30400 26.64200
C  42.30000 38.65800 26.12200
C  42.94300 36.34900 29.14000
C  42.90300 36.01600 25.75500
O  42.96000 36.02700 24.51400
C  42.86800 34.73000 26.55100
N  41.63800 41.46300 25.05400
C  42.07400 40.43200 24.33000
C  41.99500 40.69100 22.80400
C  41.40700 42.15200 22.72800
C  41.19900 42.48300 24.21600
C  43.38300 40.46900 22.00000
C  40.15700 42.33700 21.79500
C  38.77700 42.20900 22.44500
N  40.57700 43.31200 26.96000
C  40.53200 44.21900 25.89800
C  39.96800 45.41700 26.37800
C  39.87100 45.30400 27.77100
C  40.29700 44.05900 28.07200
C  39.77400 46.61700 25.56600
C  39.44500 45.99300 29.00700
O  38.94100 47.07100 29.13400
C  39.63700 44.98700 30.11400
C  40.56700 45.61600 31.09700
O  41.78500 45.61100 30.97700
O  39.94000 46.27300 32.17700
C  40.82100 46.83700 33.24800
H  42.35500 38.59300 30.39800
H  42.53800 38.46600 23.98100
H  40.59000 44.46500 23.73200
H  41.36100 42.80500 31.82100
H  40.42900 39.91200 31.74300
H  43.29500 40.23100 31.99400
H  42.06000 39.74300 33.24300
H  42.49400 41.40800 33.05700
H  38.32700 42.00100 31.69000
H  38.95500 43.32800 32.41000
H  40.26900 41.58300 33.81300
H  38.79900 40.60600 33.46000
H  42.51100 36.64600 30.09600
H  44.02100 36.21300 29.23000
H  42.41500 35.43300 28.87700
H  41.93400 34.64200 27.10600
H  43.72000 34.67200 27.22900
H  42.84700 33.91800 25.82400
H  41.24700 40.04400 22.34500
H  42.23600 42.83100 22.52800
H  43.17100 39.70900 21.24800
H  44.09200 40.09400 22.73800
H  43.61100 41.44900 21.58100
H  40.39200 41.73800 20.91600
H  40.06200 43.40200 21.58500
H  38.15300 41.49600 21.90700
H  38.25200 43.15300 22.59400
H  38.93200 41.85900 23.46600
H  39.17700 47.36900 26.08200
H  39.24800 46.28400 24.67100
H  40.60400 47.20600 25.17500
H  38.68200 44.76000 30.58800
H  40.45700 46.60300 34.24800
H  40.95100 47.89700 33.02700
H  41.78600 46.35800 33.41600

