158

Mg 1.28100 7.81300 25.79400
C  1.87000 9.82700 28.67300
C  1.63700 5.02700 27.78200
C  0.51300 5.96000 23.11100
C  1.15200 10.72400 23.96000
N  1.76700 7.60700 27.92900
C  1.87200 8.52600 28.98800
C  2.00200 7.84000 30.35900
C  2.18700 6.31700 29.98300
C  1.89300 6.26100 28.42500
C  3.52700 5.71900 30.35800
C  0.72700 8.24100 31.25500
C  0.99600 8.63000 32.70200
H  2.07500 7.75100 33.45100
N  1.10500 5.77100 25.43800
C  1.21400 4.75000 26.38500
C  0.71100 3.47100 25.86600
C  0.46000 3.74700 24.46000
C  0.61500 5.21900 24.28400
C  0.55300 2.23500 26.75800
C  0.07900 2.74800 23.40000
O  -0.07000 3.10500 22.22600
C  -0.23000 1.33900 23.70500
N  1.01600 8.21700 23.74700
C  0.63000 7.36700 22.82200
C  0.47700 8.07000 21.48300
C  0.70700 9.59700 21.78200
C  0.94200 9.56200 23.28600
C  1.40400 7.34600 20.40800
C  -0.52600 10.53100 21.37400
C  -0.10900 11.81500 20.70300
N  1.48200 9.89200 26.19000
C  1.27700 10.96900 25.33800
C  1.51500 12.21800 26.01900
C  1.75900 11.81000 27.40800
C  1.64700 10.40400 27.42700
C  1.36400 13.65100 25.50400
C  2.09800 12.26500 28.67800
O  2.40400 13.35700 29.03200
C  2.09100 10.96600 29.60900
C  3.30900 10.88800 30.31900
O  4.41100 10.65700 29.78900
O  3.06500 11.15300 31.66300
C  4.25100 11.30500 32.54700
H  1.90900 4.11300 28.31300
H  0.16100 5.43900 22.21800
H  1.04200 11.61600 23.33900
H  2.87100 8.37200 30.74800
H  1.38800 5.79300 30.50700
H  3.38500 4.97100 31.13800
H  4.05200 6.55800 30.81600
H  4.14300 5.43200 29.50700
H  -0.06100 7.48900 31.29200
H  0.28500 9.16200 30.87200
H  0.02100 8.38000 33.12100
H  1.03100 9.71400 32.81600
H  -0.32400 1.77500 26.30100
H  0.33800 2.56200 27.77500
H  1.34200 1.48200 26.77000
H  0.55100 0.94300 24.35400
H  -0.38500 0.68600 22.84600
H  -1.14200 1.33200 24.30100
H  -0.56300 7.96500 21.17500
H  1.62700 10.00200 21.36100
H  2.24800 6.80400 20.83500
H  1.80400 8.03100 19.65900
H  0.70500 6.62100 19.99300
H  -1.04600 10.78600 22.29700
H  -1.17900 10.02400 20.66200
H  0.91000 12.08100 20.42000
H  -0.59900 12.58900 21.29400
H  -0.68800 11.78400 19.78000
H  1.40700 14.41900 26.27700
H  0.58200 13.88800 24.78300
H  2.22800 13.84100 24.86800
H  1.25100 11.03100 30.30000
H  4.78800 12.23500 32.35900
H  5.01800 10.54900 32.37700
H  4.02200 11.07900 33.58800
Mg 24.46000 -7.98100 47.81000
C  26.84200 -5.42500 46.80200
C  22.28900 -6.62700 45.55600
C  22.54100 -10.50200 48.52000
C  26.96100 -9.34400 49.93500
N  24.58800 -6.32400 46.28800
C  25.64000 -5.39500 46.08000
C  25.22200 -4.34300 45.03400
C  23.66100 -4.55500 44.88900
C  23.52300 -5.92500 45.64700
C  22.66100 -3.51800 45.50600
C  26.03200 -4.55500 43.65400
C  26.80300 -3.39000 43.07900
H  26.09100 -2.69900 41.95000
N  22.66800 -8.55400 47.11300
C  21.85000 -7.82000 46.21800
C  20.66600 -8.57400 46.01900
C  20.71700 -9.69500 46.82800
C  21.98700 -9.64800 47.57900
C  19.51800 -8.08200 45.24200
C  19.65000 -10.77100 46.93100
O  18.57000 -10.65200 46.36000
C  19.83400 -11.91800 47.76300
N  24.69200 -9.64200 49.08500
C  23.71300 -10.47500 49.25800
C  24.13300 -11.66800 50.16100
C  25.42300 -11.18200 50.70300
C  25.78400 -10.03900 49.80200
C  22.97200 -12.09600 51.12000
C  26.50700 -12.29700 50.95500
C  27.21300 -12.36900 52.32700
N  26.51000 -7.52400 48.28700
C  27.37900 -8.23800 49.14800
C  28.65300 -7.45900 49.13700
C  28.48400 -6.35900 48.24400
C  27.17200 -6.45800 47.76600
C  29.86300 -7.78800 49.91500
C  29.11900 -5.21400 47.63600
O  30.22100 -4.70900 47.79600
C  28.09500 -4.60800 46.61300
C  27.94200 -3.17400 46.89100
O  27.52300 -2.58000 47.91500
O  28.45600 -2.41400 45.90200
C  28.45500 -0.97300 45.96700
H  21.56100 -6.14700 44.89900
H  21.97900 -11.41500 48.72500
H  27.69500 -9.73500 50.64200
H  25.52400 -3.42700 45.54100
H  23.45500 -4.65900 43.82400
H  23.01900 -2.49900 45.64700
H  22.15300 -3.83800 46.41600
H  21.91900 -3.29100 44.74000
H  25.34200 -4.81100 42.85000
H  26.75400 -5.37200 43.67700
H  27.78100 -3.72800 42.73600
H  27.01900 -2.68500 43.88200
H  18.80500 -8.04400 46.06600
H  19.26200 -8.84500 44.50700
H  19.59000 -7.14500 44.68900
H  19.90100 -11.70900 48.83100
H  20.61700 -12.51800 47.30100
H  18.93600 -12.53100 47.68700
H  24.37700 -12.48700 49.48300
H  25.27600 -10.62600 51.62800
H  21.97700 -11.68200 50.95500
H  23.19800 -11.65000 52.08900
H  22.85700 -13.17100 51.25600
H  27.18200 -12.31500 50.10000
H  25.98400 -13.24800 50.84900
H  26.88900 -11.50600 52.90900
H  28.29700 -12.41100 52.22300
H  26.94500 -13.26100 52.89200
H  29.65300 -7.92000 50.97700
H  30.51600 -6.91600 49.91700
H  30.43600 -8.65200 49.58000
H  28.42500 -4.69100 45.57700
H  29.00400 -0.41500 45.20800
H  28.86600 -0.56200 46.88900
H  27.40100 -0.69400 45.96100

