158

Mg 45.73000 4.72200 47.43300
C  43.52000 7.37400 46.58700
C  43.26300 2.42200 46.65000
C  48.05200 2.16300 47.74600
C  48.30700 7.01100 47.56200
N  43.60000 4.92700 46.85400
C  42.95700 6.06500 46.34700
C  41.47700 5.83700 45.95500
C  41.44200 4.25600 46.09400
C  42.88000 3.81500 46.52100
C  40.34900 3.72100 47.05000
C  41.39000 6.22200 44.40600
C  40.55500 7.45900 44.09600
H  41.11700 8.43600 43.02200
N  45.59400 2.53600 47.27300
C  44.51800 1.79400 46.93600
C  44.91500 0.39600 46.90300
C  46.35100 0.35500 47.17800
C  46.70700 1.75000 47.44400
C  43.93300 -0.66600 46.51900
C  47.14800 -0.97400 47.21200
O  46.58200 -2.04500 46.94100
C  48.68400 -1.02000 47.48600
N  47.79600 4.65500 47.76400
C  48.53900 3.48300 47.90400
C  50.02000 3.74800 48.09000
C  50.07400 5.26700 48.08600
C  48.63200 5.69800 47.75600
C  50.65800 3.16500 49.41600
C  51.13200 5.91900 47.12800
C  52.13200 6.90100 47.79300
N  45.94900 6.84900 47.24400
C  47.06000 7.58900 47.31000
C  46.68100 9.01200 47.21500
C  45.29300 8.96200 46.86800
C  44.84800 7.63700 46.91000
C  47.61500 10.17100 47.23800
C  44.14900 9.77400 46.54200
O  44.09800 10.93000 46.31700
C  42.97400 8.79900 46.37800
C  41.99600 9.16400 47.42700
O  41.72900 8.51800 48.38700
O  41.14500 10.11200 46.90000
C  39.87200 10.11500 47.54700
H  42.44300 1.70000 46.64200
H  48.84400 1.42400 47.88200
H  49.06500 7.79100 47.46900
H  40.78200 6.35000 46.61800
H  41.18400 3.83300 45.12300
H  39.42000 3.43400 46.55900
H  40.19000 4.56300 47.72400
H  40.65400 2.99800 47.80700
H  40.95000 5.39700 43.84600
H  42.38600 6.38400 43.99400
H  40.37200 8.05300 44.99100
H  39.58700 7.14200 43.70700
H  44.09100 -1.53900 47.15200
H  44.07500 -0.92800 45.47000
H  42.89100 -0.39400 46.68300
H  49.12100 -2.00200 47.30400
H  48.88100 -0.68700 48.50500
H  49.19700 -0.24900 46.91100
H  50.49900 3.32600 47.20700
H  50.13300 5.57600 49.13000
H  49.84100 2.60600 49.87300
H  51.06700 3.84000 50.16900
H  51.40800 2.51000 48.97300
H  50.73400 6.51700 46.30800
H  51.70400 5.14800 46.61300
H  53.08900 6.49000 47.47200
H  52.04200 7.01200 48.87300
H  51.98000 7.86300 47.30200
H  47.65500 10.53200 48.26600
H  47.26200 11.02600 46.66100
H  48.62300 9.88000 46.94400
H  42.65600 8.79000 45.33600
H  39.98500 10.69800 48.46100
H  39.51400 9.11900 47.81000
H  39.11400 10.58300 46.91900
Mg 53.50800 25.78200 45.87300
C  50.75500 27.65600 44.76100
C  52.16800 23.08800 44.16200
C  56.51200 24.15800 46.13100
C  54.96200 28.68600 46.92500
N  51.87100 25.52600 44.27700
C  50.83100 26.39000 44.16300
C  49.70400 25.75000 43.23000
C  49.96200 24.27700 43.58300
C  51.43900 24.27400 44.03500
C  49.01700 23.67900 44.66700
C  49.87100 26.05000 41.72400
C  48.66500 25.92500 40.75600
H  48.83800 25.27900 39.33000
N  54.20700 23.82600 45.35700
C  53.47400 22.87600 44.72100
C  54.21200 21.65800 44.70100
C  55.42600 21.95400 45.29900
C  55.41800 23.36600 45.67200
C  53.60300 20.36900 44.09600
C  56.58400 21.00400 45.37400
O  56.44900 19.91200 44.84200
C  57.90200 21.25800 46.03500
N  55.48000 26.31300 46.22800
C  56.49900 25.52500 46.33700
C  57.78800 26.20200 46.89100
C  57.31400 27.67700 46.96200
C  55.78300 27.60100 46.64300
C  58.52800 25.64000 48.18700
C  58.14300 28.65100 46.08400
C  58.38400 30.03400 46.64800
N  52.93700 27.80700 45.92100
C  53.55500 28.83800 46.55100
C  52.73900 29.95300 46.58300
C  51.57600 29.56400 45.91700
C  51.78200 28.22500 45.47500
C  53.02000 31.32500 47.20800
C  50.25200 29.99800 45.45800
O  49.62700 31.04500 45.62100
C  49.73900 28.78500 44.63400
C  49.66500 29.32900 43.27400
O  50.43300 30.04500 42.71600
O  48.40500 29.03400 42.77300
C  48.06200 29.62200 41.50700
H  51.57800 22.23800 43.81400
H  57.50000 23.69100 46.12500
H  55.42300 29.55000 47.40800
H  48.75200 26.05600 43.66500
H  49.80300 23.73700 42.65000
H  49.57400 22.95400 45.26100
H  48.18800 23.12000 44.23200
H  48.56000 24.42200 45.32100
H  50.66800 25.38900 41.38300
H  50.33800 27.01400 41.52300
H  48.27100 26.91300 40.51800
H  47.86000 25.35300 41.21800
H  53.94000 20.08100 43.10000
H  52.52900 20.41500 43.91500
H  53.68100 19.60000 44.86500
H  58.44300 20.34300 46.27600
H  57.73900 21.86700 46.92400
H  58.52100 21.80600 45.32500
H  58.41000 26.02200 46.01400
H  57.41900 28.02700 47.98900
H  58.30500 24.58500 48.34700
H  58.30000 26.20300 49.09200
H  59.60100 25.80700 48.08700
H  57.55600 28.71800 45.16800
H  59.05800 28.18200 45.72300
H  59.43300 30.32600 46.68600
H  58.01800 30.08800 47.67400
H  57.72400 30.68400 46.07400
H  52.11000 31.56400 47.75800
H  53.35400 32.08500 46.50200
H  53.78900 31.19600 47.97000
H  48.75700 28.49400 45.00800
H  47.08200 29.30400 41.15300
H  48.78400 29.61000 40.69000
H  47.74600 30.62900 41.77900

