158

Mg 48.09100 45.07100 42.81600
C  44.68900 44.77100 42.84600
C  48.40100 41.80300 42.32300
C  51.43400 45.46900 42.69900
C  47.76900 48.58800 42.92500
N  46.72300 43.46000 42.62000
C  45.34800 43.53100 42.64100
C  44.68200 42.22900 42.55100
C  45.87200 41.22700 42.31500
C  47.10500 42.21900 42.49600
C  45.75600 39.92300 43.24300
C  43.57000 41.95000 41.56200
C  43.89800 42.15700 40.12600
H  44.24700 41.01600 39.20400
N  49.71500 43.84500 42.49100
C  49.64600 42.54700 42.40400
C  50.93600 41.96900 42.35200
C  51.88200 43.00800 42.38300
C  51.03600 44.18300 42.47900
C  51.18100 40.51400 42.02400
C  53.39800 42.85900 42.20500
O  53.98000 41.78200 42.37700
C  54.34300 44.05100 41.98500
N  49.43500 46.81200 42.54600
C  50.78000 46.67100 42.72200
C  51.41000 48.04500 42.88200
C  50.21600 49.04300 42.66800
C  49.04500 48.08500 42.73400
C  52.20800 48.24400 44.32600
C  50.34400 49.78600 41.33900
C  50.92600 51.16500 41.36500
N  46.56600 46.46200 42.74200
C  46.60500 47.77800 42.99000
C  45.26200 48.29800 43.18300
C  44.41000 47.19000 43.00900
C  45.27200 46.08600 42.89100
C  44.90000 49.77300 43.43600
C  43.05100 46.64000 43.11000
O  41.97500 47.22700 43.31900
C  43.22300 45.09000 42.91800
C  42.50900 44.38600 44.08400
O  41.71200 43.48400 43.86100
O  42.71400 45.00600 45.30500
C  42.07100 44.39700 46.45700
H  48.44100 40.73300 42.11000
H  52.48600 45.75000 42.61700
H  47.71200 49.65900 43.12900
H  44.15400 41.99000 43.47400
H  46.02800 40.92300 41.28000
H  44.76800 39.78400 43.68000
H  46.45500 39.81200 44.07200
H  45.81300 39.07400 42.56200
H  42.65300 42.51700 41.72600
H  43.19500 40.93700 41.70600
H  44.74800 42.83800 40.07700
H  43.15400 42.72600 39.56800
H  52.01000 40.24200 42.67700
H  51.50300 40.32100 41.00000
H  50.32800 39.92200 42.35500
H  53.91600 44.61600 41.15700
H  55.33000 43.68400 41.70100
H  54.44100 44.72700 42.83500
H  52.16900 48.06900 42.09900
H  50.20900 49.70400 43.53500
H  52.13800 47.29400 44.85600
H  51.70200 48.87300 45.05800
H  53.24400 48.54600 44.17600
H  49.32800 49.79300 40.94400
H  50.96000 49.15900 40.69500
H  50.15700 51.93500 41.29800
H  51.78800 51.21200 40.70000
H  51.55600 51.37100 42.23000
H  44.72500 50.16500 42.43400
H  45.63400 50.40600 43.93300
H  44.02000 49.72600 44.07800
H  42.73200 44.84300 41.97600
H  41.11900 44.92100 46.53900
H  42.73200 44.68300 47.27500
H  42.00600 43.30900 46.49000
Mg 29.40400 59.08500 40.48200
C  26.78800 56.94200 39.30100
C  31.64300 56.92500 38.95400
C  31.70100 61.48600 41.12600
C  26.91300 61.28000 41.63300
N  29.16400 57.18900 39.21800
C  28.00400 56.56100 38.82800
C  28.38500 55.29700 37.98200
C  29.96700 55.19900 38.20800
C  30.31700 56.50800 38.84900
C  30.25100 54.04200 39.11000
C  27.93100 55.54700 36.48800
C  26.99900 54.52600 35.82000
H  27.24200 54.35100 34.31200
N  31.41100 59.14100 40.15800
C  32.13700 58.14600 39.50500
C  33.50900 58.53300 39.41400
C  33.55500 59.90600 40.00100
C  32.21000 60.23800 40.50600
C  34.55300 57.76500 38.80500
C  34.84900 60.58800 40.12100
O  35.93600 60.13400 39.66000
C  34.89900 61.90000 41.03100
N  29.33600 61.08200 41.39100
C  30.43100 61.86400 41.53500
C  30.04600 63.32100 41.93700
C  28.48400 63.15500 42.30900
C  28.20800 61.78800 41.69400
C  30.69900 63.84000 43.25600
C  27.66600 64.31300 41.75900
C  26.69300 65.01300 42.74500
N  27.29200 59.14400 40.48400
C  26.43700 60.10200 41.03200
C  25.06300 59.66800 40.96900
C  25.13500 58.41300 40.19300
C  26.54000 58.16200 39.97700
C  24.02100 60.37800 41.53300
C  24.34600 57.38300 39.50200
O  23.13400 57.23000 39.40400
C  25.43700 56.36400 38.92100
C  25.26700 54.96200 39.49800
O  25.72400 54.66900 40.57800
O  24.65600 54.06300 38.68700
C  24.46900 52.72400 39.19200
H  32.39600 56.25200 38.53800
H  32.38000 62.30900 41.35700
H  26.11500 61.95600 41.94600
H  27.80300 54.46600 38.38000
H  30.41500 55.12000 37.21800
H  30.24700 54.42900 40.12900
H  31.25900 53.65300 38.96500
H  29.61700 53.16900 38.95300
H  28.83200 55.71600 35.89900
H  27.44400 56.51200 36.34700
H  25.95300 54.81200 35.92400
H  27.14500 53.52700 36.23100
H  35.54600 57.94300 39.21900
H  34.54200 57.91800 37.72500
H  34.42200 56.68300 38.82400
H  34.26200 61.89900 41.91600
H  34.60500 62.79700 40.48700
H  35.93400 62.04500 41.34100
H  30.23500 64.02300 41.12500
H  28.31700 62.99300 43.37400
H  30.19300 63.75500 44.21800
H  30.97800 64.88900 43.14800
H  31.68700 63.38000 43.27200
H  27.05900 63.91500 40.94600
H  28.28900 65.11500 41.36400
H  26.71700 64.36600 43.62200
H  25.66200 64.99700 42.39100
H  26.95000 66.04900 42.96200
H  24.14900 60.58300 42.59500
H  23.12300 59.76600 41.45800
H  23.88600 61.28600 40.94500
H  25.33500 56.21200 37.84600
H  24.22200 52.69600 40.25300
H  25.37000 52.18000 38.90600
H  23.67100 52.14300 38.73100

