158

Mg 43.52900 4.42200 46.54100
C  41.42200 7.19500 46.32300
C  40.84100 2.39300 46.04200
C  45.50500 1.82600 45.65600
C  46.27300 6.58700 46.49200
N  41.38200 4.88100 46.14600
C  40.71600 6.00000 46.23100
C  39.22900 5.82600 46.47900
C  39.10600 4.22500 46.59200
C  40.57500 3.77900 46.28100
C  38.54500 3.70100 47.97100
C  38.28300 6.60400 45.43900
C  38.24800 6.23500 43.91900
H  38.99000 7.06100 42.98600
N  43.21700 2.29700 45.89100
C  41.97700 1.70600 45.82900
C  42.10900 0.34800 45.47600
C  43.50400 0.18500 45.16400
C  44.19900 1.46700 45.52900
C  41.02600 -0.59200 45.29900
C  44.11400 -1.10000 44.74200
O  43.44700 -2.10000 44.61600
C  45.58700 -1.20400 44.47900
N  45.59800 4.20800 46.01200
C  46.22100 3.05300 45.93000
C  47.79100 3.17400 45.98000
C  47.91200 4.59400 46.59300
C  46.52200 5.19500 46.31600
C  48.44400 2.03000 46.94100
C  49.14200 5.37200 46.07600
C  50.56100 4.98800 46.58200
N  43.85100 6.47900 46.47700
C  45.03900 7.19400 46.56900
C  44.68800 8.61300 46.58000
C  43.27300 8.63900 46.52100
C  42.85800 7.28500 46.49900
C  45.62800 9.79500 46.45100
C  42.13100 9.50900 46.62700
O  42.16000 10.72500 46.71500
C  40.94400 8.64300 46.61200
C  40.17100 8.82700 47.87700
O  40.45800 8.30500 48.94000
O  39.09800 9.64500 47.71300
C  38.24500 10.13400 48.82000
H  39.94400 1.77100 46.03200
H  46.29200 1.10500 45.42600
H  47.10500 7.26900 46.67900
H  38.88800 6.29100 47.40400
H  38.60200 3.82100 45.71400
H  39.27800 2.99300 48.35900
H  37.59100 3.21800 47.75600
H  38.45700 4.59600 48.58700
H  38.57700 7.64900 45.33800
H  37.25600 6.55400 45.80100
H  37.18700 6.10200 43.71100
H  38.74400 5.26500 43.95100
H  41.20000 -1.38500 44.57200
H  40.08000 -0.12400 45.02600
H  40.75800 -1.04700 46.25300
H  46.09600 -1.04500 45.43000
H  45.87500 -0.43400 43.76400
H  45.67600 -2.22700 44.11200
H  48.28000 3.01100 45.01900
H  48.04000 4.55100 47.67500
H  47.75600 1.20800 47.13700
H  48.75900 2.52400 47.86000
H  49.37300 1.59500 46.57200
H  48.99700 6.38600 46.45100
H  49.11000 5.32800 44.98700
H  50.89300 5.76600 47.26900
H  51.19600 5.15800 45.71300
H  50.62800 3.96100 46.94300
H  45.15200 10.77500 46.46800
H  46.23900 9.73800 45.54900
H  46.26000 9.82500 47.33800
H  40.21700 8.87100 45.83200
H  38.05700 11.20500 48.75200
H  38.64500 9.90800 49.80800
H  37.27100 9.65100 48.74900
Mg -2.55000 34.62300 26.45800
C  -4.23400 32.90600 28.81400
C  -0.97000 36.51500 28.78500
C  -0.98900 36.38000 23.89300
C  -4.34800 32.72000 23.97100
N  -2.83000 34.88600 28.56800
C  -3.39100 33.89600 29.33800
C  -3.13000 34.16500 30.84100
C  -2.36100 35.47500 30.75400
C  -1.98500 35.62200 29.29300
C  -3.01300 36.80300 31.26100
C  -2.26200 32.91700 31.36500
C  -2.60500 32.39600 32.79400
H  -1.52600 32.44000 33.96300
N  -1.12500 36.30400 26.34200
C  -0.58500 36.89500 27.47700
C  0.35800 37.87400 26.98600
C  0.32600 37.86400 25.61200
C  -0.59800 36.79000 25.22000
C  1.23500 38.75100 27.93900
C  1.11100 38.71000 24.58900
O  0.88700 38.72100 23.37900
C  2.21300 39.62400 25.18600
N  -2.59700 34.54800 24.35700
C  -1.82500 35.28100 23.50300
C  -2.11600 35.00300 22.00200
C  -2.91400 33.73000 22.11200
C  -3.36100 33.66300 23.59800
C  -2.75300 36.15100 21.32900
C  -2.27800 32.42400 21.46000
C  -1.22100 31.66300 22.26100
N  -4.11200 33.23100 26.37300
C  -4.62900 32.40500 25.35400
C  -5.62900 31.44100 25.92400
C  -5.46000 31.55000 27.29900
C  -4.53400 32.70200 27.47700
C  -6.47000 30.46200 25.17300
C  -5.87200 31.06800 28.57300
O  -6.67100 30.12800 28.82900
C  -5.09200 31.89500 29.64000
C  -6.02400 32.48400 30.66400
O  -6.74100 33.47300 30.41800
O  -6.08600 31.78600 31.82100
C  -7.01300 32.31700 32.90500
H  -0.53000 37.22500 29.48800
H  -0.54300 36.90300 23.04500
H  -4.79600 32.03400 23.25000
H  -4.04700 34.36900 31.39500
H  -1.41000 35.38300 31.27800
H  -3.55700 37.29300 30.45400
H  -2.21600 37.46500 31.59900
H  -3.69700 36.69600 32.10300
H  -1.21800 33.17800 31.53900
H  -2.26800 32.10800 30.63500
H  -3.00600 31.38600 32.71700
H  -3.48100 32.98500 33.06400
H  1.16000 38.38500 28.96300
H  0.92400 39.79000 27.83500
H  2.26900 38.62200 27.61900
H  1.76700 40.28700 25.92800
H  2.69600 40.27600 24.45800
H  2.91400 38.92800 25.64600
H  -1.15100 34.73900 21.57100
H  -3.82200 33.94500 21.54800
H  -1.85700 36.54900 20.85300
H  -3.03200 36.95800 22.00600
H  -3.59500 35.91300 20.67900
H  -1.79400 32.75800 20.54300
H  -3.13000 31.77800 21.24700
H  -1.61800 30.64800 22.26900
H  -1.12500 32.01300 23.28900
H  -0.22900 31.88100 21.86500
H  -7.31500 30.26200 25.83200
H  -5.85800 29.57000 25.30700
H  -6.77100 30.93000 24.23600
H  -4.44100 31.17900 30.14100
H  -7.72000 31.57000 33.26600
H  -7.54400 33.20300 32.55700
H  -6.44500 32.61900 33.78500

