158

Mg 53.16500 24.27700 44.83600
C  50.73400 26.55500 43.77800
C  51.08000 21.78300 43.40800
C  55.67900 22.13300 45.09600
C  55.04200 26.83400 46.11400
N  51.19500 24.24400 43.65100
C  50.47900 25.30900 43.29500
C  49.21900 24.91800 42.51000
C  49.19800 23.34300 42.81500
C  50.64900 23.11200 43.22400
C  48.29700 22.89500 44.03300
C  49.28500 25.27700 40.91000
C  50.71700 25.45900 40.29200
H  50.77500 26.07200 38.90900
N  53.40800 22.23900 44.35000
C  52.32100 21.34300 43.90200
C  52.81000 20.02800 44.03200
C  54.15600 20.09000 44.48000
C  54.52100 21.47000 44.60800
C  52.09300 18.82800 43.44800
C  54.98200 18.86700 44.77700
O  54.54300 17.75400 44.57200
C  56.42100 18.92100 45.35900
N  55.18700 24.50000 45.42900
C  56.04700 23.44600 45.46200
C  57.51400 23.92700 45.75900
C  57.14300 25.38100 46.33300
C  55.70100 25.66200 45.91900
C  58.29000 23.00900 46.73200
C  58.08400 26.53100 45.84200
C  57.85600 27.29800 44.51100
N  52.94100 26.29300 44.97800
C  53.72500 27.18300 45.66700
C  53.07700 28.51900 45.67100
C  51.85500 28.30600 44.97100
C  51.82700 26.95500 44.53100
C  53.60600 29.81800 46.31700
C  50.65200 28.92500 44.50800
O  50.25200 30.08200 44.67700
C  49.90600 27.81300 43.75800
C  49.64100 28.16600 42.32300
O  50.50700 28.32900 41.48800
O  48.28800 28.27700 42.15100
C  47.89500 28.93700 40.90500
H  50.37700 20.97700 43.18900
H  56.51500 21.43700 45.20000
H  55.62000 27.66600 46.52300
H  48.29600 25.39500 42.84200
H  49.06600 22.71000 41.93700
H  47.58900 23.68800 44.27500
H  48.94800 22.66600 44.87600
H  47.66800 22.04200 43.77600
H  48.69400 26.16600 40.69000
H  48.90600 24.53000 40.21300
H  51.19200 24.48100 40.36000
H  51.24200 26.13800 40.96400
H  52.70600 18.23700 42.76700
H  51.25600 19.10100 42.80500
H  51.70500 18.14700 44.20600
H  56.85700 17.92600 45.44500
H  56.27000 19.33800 46.35500
H  56.98600 19.61400 44.73600
H  57.99900 23.98100 44.78400
H  57.13600 25.32200 47.42100
H  59.01100 23.64300 47.24900
H  58.88900 22.24400 46.23900
H  57.58500 22.50900 47.39600
H  59.10500 26.15400 45.79300
H  58.06500 27.20000 46.70200
H  57.82300 28.36800 44.71800
H  56.96100 27.01900 43.95500
H  58.72700 27.14500 43.87300
H  53.24600 29.72900 47.34200
H  53.19000 30.68900 45.81100
H  54.68100 29.86200 46.14400
H  49.03300 27.57600 44.36700
H  48.16800 28.23200 40.12000
H  48.25900 29.96100 40.83000
H  46.80500 28.96200 40.89700
Mg -6.44700 25.80700 25.57500
C  -4.45400 27.04600 28.11200
C  -7.65000 23.47500 27.77400
C  -8.03400 24.37200 22.95900
C  -4.80500 28.03100 23.31000
N  -6.14100 25.41300 27.68700
C  -5.30300 26.08500 28.54200
C  -5.56100 25.56000 29.98400
C  -6.26100 24.16300 29.80400
C  -6.74700 24.34000 28.33600
C  -5.36000 22.87300 29.98400
C  -6.41000 26.60600 30.79300
C  -6.28300 26.53500 32.37400
H  -5.67900 25.30400 33.09200
N  -7.77100 24.15000 25.39700
C  -8.10900 23.32800 26.43900
C  -9.03800 22.30700 25.94300
C  -9.17200 22.54700 24.51800
C  -8.25600 23.66400 24.20800
C  -9.78600 21.40300 26.91100
C  -9.98900 21.88000 23.41800
O  -10.03100 22.21500 22.24100
C  -10.96800 20.72900 23.78900
N  -6.32400 26.11600 23.47600
C  -7.20100 25.45200 22.59900
C  -6.85900 25.83000 21.15900
C  -6.20000 27.20500 21.32800
C  -5.72400 27.14300 22.79900
C  -6.00900 24.73700 20.31500
C  -7.28200 28.39700 21.27400
C  -7.50500 29.03300 19.88500
N  -4.91100 27.19800 25.66200
C  -4.36000 28.07500 24.67000
C  -3.37900 28.94200 25.30400
C  -3.40100 28.53800 26.62200
C  -4.32100 27.48400 26.79000
C  -2.62300 30.02100 24.64800
C  -2.78500 28.84600 27.92700
O  -1.86900 29.61800 28.13800
C  -3.52100 27.94100 29.00000
C  -2.56900 27.23800 29.84800
O  -1.74400 26.48900 29.34900
O  -2.74500 27.55400 31.11200
C  -1.89700 26.81800 32.01600
H  -7.82000 22.72500 28.54900
H  -8.46400 23.96500 22.04100
H  -4.63000 28.85000 22.60900
H  -4.66200 25.37400 30.57200
H  -7.00000 24.22200 30.60300
H  -5.22300 22.52100 28.96100
H  -6.04500 22.20200 30.50200
H  -4.40400 23.07000 30.47000
H  -7.40800 26.34000 30.44600
H  -6.23700 27.62300 30.44100
H  -7.31100 26.51700 32.73500
H  -5.94700 27.46300 32.83700
H  -9.21400 21.35500 27.83700
H  -10.04300 20.46600 26.41600
H  -10.76000 21.87500 27.03700
H  -11.64900 20.66100 22.94000
H  -11.46300 21.04100 24.70800
H  -10.45100 19.80800 24.05800
H  -7.75200 25.89000 20.53600
H  -5.46300 27.34600 20.53700
H  -5.11500 25.22500 19.92600
H  -6.46600 24.35200 19.40300
H  -5.84900 23.78500 20.82100
H  -6.86000 29.21300 21.86100
H  -8.27100 28.14200 21.65500
H  -6.88200 29.91300 19.72500
H  -8.55500 29.32600 19.85800
H  -7.41300 28.34200 19.04700
H  -3.29000 30.77200 24.22400
H  -2.24800 29.45800 23.79300
H  -1.81500 30.44300 25.24500
H  -4.12400 28.66500 29.54700
H  -2.33000 25.95600 32.52300
H  -1.81400 27.48900 32.87100
H  -0.86300 26.61900 31.73400

