158

Mg 24.18800 -5.09300 45.72200
C  26.07300 -2.41900 44.57500
C  21.63400 -3.97600 43.74100
C  22.71900 -8.12700 46.03800
C  27.16500 -6.48300 47.09000
N  23.88700 -3.41800 44.38700
C  24.75000 -2.36100 44.14000
C  24.10500 -1.36800 43.21800
C  22.58300 -1.70600 43.28400
C  22.68300 -3.15700 43.79400
C  21.80100 -0.88100 44.20100
C  24.76800 -1.18700 41.76800
C  25.22400 -2.44400 41.11400
H  26.02900 -2.29800 39.71000
N  22.33800 -5.95200 45.04000
C  21.44400 -5.28700 44.27000
C  20.36600 -6.13500 44.07000
C  20.51600 -7.30200 44.90600
C  21.91100 -7.18900 45.38600
C  19.21600 -5.61200 43.27100
C  19.48900 -8.50000 45.06500
O  18.44400 -8.51700 44.44700
C  19.82100 -9.57500 46.04100
N  24.87400 -7.05300 46.37400
C  23.99700 -8.11600 46.46700
C  24.57500 -9.22700 47.32900
C  25.95200 -8.64300 47.80500
C  26.01200 -7.29600 47.07200
C  23.66900 -9.66500 48.55500
C  27.08100 -9.54500 47.26400
C  28.51500 -9.46000 47.95500
N  26.13700 -4.52800 45.98400
C  27.18900 -5.18900 46.55300
C  28.32900 -4.33800 46.50900
C  27.94600 -3.26000 45.77200
C  26.58500 -3.38100 45.43600
C  29.72200 -4.60500 46.98100
C  28.43400 -2.01100 45.15600
O  29.45600 -1.36600 45.25200
C  27.22700 -1.54800 44.23600
C  27.08000 -0.03800 44.34200
O  26.43200 0.59100 45.16100
O  27.89100 0.53100 43.37100
C  27.86900 1.98800 43.29800
H  20.77800 -3.69800 43.12300
H  22.27500 -9.12000 46.13200
H  28.02300 -6.90500 47.61800
H  24.26400 -0.37400 43.63500
H  22.20700 -1.58800 42.26700
H  22.26000 -0.90900 45.19000
H  20.85400 -1.41800 44.24900
H  21.69100 0.18900 44.02400
H  25.61400 -0.50400 41.68800
H  23.87800 -0.93600 41.19200
H  24.33000 -3.05200 40.97800
H  25.83800 -3.01900 41.80700
H  18.87500 -4.69900 43.75900
H  18.31600 -6.22600 43.24000
H  19.57600 -5.60100 42.24300
H  19.02000 -10.09000 46.57200
H  20.38300 -9.07700 46.83100
H  20.29300 -10.34500 45.43100
H  24.69000 -10.02100 46.59100
H  26.07000 -8.45800 48.87300
H  22.88300 -8.95000 48.80000
H  24.25100 -9.83200 49.46100
H  23.14100 -10.57600 48.27600
H  27.14600 -9.21800 46.22700
H  26.88600 -10.61800 47.25400
H  29.19800 -9.05300 47.20900
H  28.93200 -10.37500 48.37600
H  28.44200 -8.66600 48.69800
H  29.77200 -4.24400 48.00800
H  30.42100 -4.00900 46.39400
H  29.81500 -5.68900 46.90700
H  27.56200 -1.68400 43.20800
H  26.90000 2.45900 43.45800
H  28.23600 2.37500 42.34700
H  28.57200 2.20900 44.10100
Mg 52.88700 24.05700 45.57600
C  50.19100 26.12900 44.55600
C  51.17100 21.38500 44.24800
C  55.81600 22.31000 45.47900
C  54.45500 26.75100 46.91300
N  50.89700 23.83800 44.46300
C  49.91900 24.76100 44.21600
C  48.78200 24.20500 43.39600
C  48.94800 22.63100 43.65600
C  50.40600 22.61100 44.18700
C  48.12700 21.95400 44.81400
C  48.66300 24.67900 41.95500
C  49.85900 25.11000 41.14300
H  51.18500 24.40400 41.47200
N  53.47200 22.18300 44.86300
C  52.59700 21.20600 44.39400
C  53.35100 20.01400 44.09200
C  54.68500 20.28000 44.34500
C  54.74600 21.63800 44.94800
C  52.71500 18.83500 43.47600
C  55.74800 19.22300 44.17500
O  55.51000 18.11200 43.60100
C  57.11000 19.38700 44.68200
N  55.02100 24.64800 45.81600
C  55.87100 23.58800 46.08400
C  57.04400 24.01800 46.83400
C  56.67700 25.51700 47.25000
C  55.28700 25.65400 46.70200
C  57.56700 23.08700 47.89500
C  57.74500 26.54600 46.61600
C  58.49300 27.40600 47.72500
N  52.44800 26.04600 45.75700
C  53.17400 27.02600 46.36800
C  52.36600 28.18300 46.58600
C  51.20000 27.90700 45.80300
C  51.32700 26.56600 45.35100
C  52.75700 29.40200 47.45900
C  49.98700 28.43900 45.32700
O  49.51700 29.58100 45.39000
C  49.36800 27.35500 44.32900
C  49.29500 27.91000 42.95300
O  50.30800 28.32100 42.34000
O  48.01300 28.00700 42.51000
C  47.88300 28.60100 41.20400
H  50.65200 20.54900 43.77400
H  56.68300 21.66600 45.63600
H  54.95200 27.42100 47.61800
H  47.90100 24.57000 43.92300
H  48.70700 22.09600 42.73700
H  48.66500 21.37000 45.56200
H  47.25300 21.43500 44.41900
H  47.81700 22.79500 45.43400
H  47.83000 25.37800 41.88700
H  48.35800 23.78700 41.40800
H  49.89900 26.17600 41.36800
H  49.75800 25.01900 40.06200
H  53.31000 17.92600 43.38600
H  52.18300 19.10100 42.56300
H  51.92700 18.59900 44.19100
H  57.68200 18.51700 44.36000
H  56.96500 19.30900 45.76000
H  57.58300 20.34300 44.46100
H  57.92800 24.05500 46.19800
H  56.60900 25.65700 48.32900
H  57.13800 22.08500 47.88900
H  57.27700 23.52300 48.85100
H  58.64700 22.96700 47.81300
H  57.23400 27.24500 45.95500
H  58.55900 26.09200 46.05200
H  58.62100 28.45200 47.44400
H  59.46700 26.97900 47.96400
H  57.90500 27.36700 48.64200
H  51.87100 29.76200 47.98100
H  53.20200 30.17400 46.83200
H  53.55400 29.25600 48.18800
H  48.38200 27.27700 44.78800
H  47.06900 28.07500 40.70400
H  48.67700 28.42200 40.47900
H  47.45900 29.60600 41.20100

