158

Mg 46.86200 25.01500 28.45800
C  47.74200 27.47700 30.90800
C  46.37500 22.89900 30.94100
C  46.42400 22.71600 26.08800
C  48.33200 27.18200 25.94700
N  46.84700 25.27100 30.66100
C  47.28600 26.30100 31.49100
C  47.13300 25.96300 32.98700
C  46.93000 24.39700 32.95500
C  46.67900 24.11900 31.41800
C  48.05700 23.53200 33.60300
C  45.87700 26.74300 33.70700
C  46.14000 27.29000 35.15000
H  44.96000 27.06300 36.14300
N  46.26300 23.13600 28.51600
C  46.17400 22.37600 29.64300
C  45.74300 21.01200 29.24500
C  45.64100 20.99500 27.80800
C  46.12100 22.32900 27.40100
C  45.40300 19.94800 30.29800
C  45.04200 19.90800 26.97600
O  44.93400 20.07200 25.77400
C  44.69500 18.55700 27.61100
N  47.49500 24.94300 26.26200
C  47.02700 23.89400 25.58400
C  47.39900 24.07300 24.11400
C  47.71200 25.56600 24.00100
C  47.86600 25.95100 25.50000
C  48.41400 22.98600 23.62200
C  46.55300 26.52600 23.36600
C  46.76000 27.42400 22.15600
N  47.84200 26.97100 28.39600
C  48.36600 27.62900 27.29900
C  48.94300 28.91500 27.77600
C  48.64500 28.94900 29.19100
C  48.04100 27.74300 29.49100
C  49.60000 30.01600 26.97200
C  48.75300 29.73300 30.38600
O  49.17500 30.90000 30.60700
C  48.17500 28.79400 31.55800
C  49.11900 28.61000 32.69600
O  50.26700 28.26500 32.50300
O  48.66700 29.07500 33.96100
C  49.35900 28.93700 35.19500
H  46.23400 22.22000 31.78500
H  46.19300 21.96400 25.33100
H  48.76100 27.91100 25.25600
H  48.02900 26.25700 33.53400
H  45.97400 24.18400 33.43300
H  47.78300 22.97600 34.50000
H  48.99200 24.08500 33.69400
H  48.19600 22.75600 32.85100
H  45.03700 26.04900 33.69900
H  45.70900 27.59600 33.05000
H  46.14200 28.37800 35.08600
H  47.01400 26.89500 35.66800
H  46.09600 19.13600 30.07800
H  44.36300 19.62800 30.22200
H  45.48700 20.23500 31.34600
H  43.86800 18.54600 28.32100
H  45.53800 18.12500 28.15000
H  44.40300 17.93500 26.76500
H  46.50900 23.90900 23.50600
H  48.63800 25.56500 23.42700
H  48.65200 22.42900 24.52800
H  49.27800 23.45300 23.14900
H  47.98800 22.23900 22.95300
H  46.15800 27.16900 24.15300
H  45.72500 25.86800 23.10400
H  46.44900 28.46000 22.28900
H  46.26800 26.98400 21.28800
H  47.83400 27.41000 21.97200
H  49.29900 31.02000 27.27000
H  49.38000 29.77600 25.93100
H  50.67300 29.97400 27.15700
H  47.31000 29.26700 32.02300
H  50.12700 28.16700 35.12600
H  48.65500 28.64300 35.97300
H  49.80000 29.91500 35.39000
Mg -2.01100 35.36500 26.40900
C  -3.11300 33.62100 29.27300
C  -0.53700 37.74100 28.37500
C  -1.11100 37.04300 23.65000
C  -3.68900 32.91800 24.44400
N  -1.91600 35.64500 28.57800
C  -2.38700 34.80500 29.61800
C  -1.85500 35.27700 30.97900
C  -1.18900 36.71100 30.70800
C  -1.17300 36.72500 29.12700
C  -1.94900 37.95500 31.35000
C  -0.98200 34.25900 31.70900
C  -1.36800 33.78600 33.14400
H  -0.29500 33.70000 34.29300
N  -1.06800 37.20800 26.05600
C  -0.56900 38.00900 27.02700
C  0.00700 39.11400 26.43600
C  -0.05100 38.95200 25.02200
C  -0.72500 37.64100 24.81700
C  0.67500 40.24500 27.24700
C  0.38900 39.93000 23.87100
O  0.20900 39.59500 22.72000
C  1.00600 41.27000 24.10000
N  -2.42500 35.11300 24.31300
C  -1.88400 35.88500 23.40300
C  -1.91300 35.25400 22.05000
C  -2.73700 33.91100 22.21500
C  -2.97900 33.94300 23.77200
C  -2.46700 36.04900 20.82400
C  -2.04300 32.73700 21.53300
C  -1.04600 31.93800 22.39000
N  -3.15900 33.61000 26.71200
C  -3.80500 32.76500 25.80800
C  -4.53000 31.79400 26.55100
C  -4.23400 32.08200 27.89200
C  -3.34100 33.10900 27.93700
C  -5.41200 30.77500 25.92100
C  -4.54200 31.65900 29.21300
O  -5.31200 30.81600 29.63600
C  -3.70600 32.54000 30.19000
C  -4.61000 33.00700 31.22200
O  -5.54200 33.76900 31.03100
O  -4.21300 32.45500 32.49500
C  -5.12800 32.77300 33.62900
H  0.02400 38.42700 29.01300
H  -0.86100 37.50200 22.69100
H  -4.26500 32.16900 23.89500
H  -2.72200 35.42700 31.62200
H  -0.17200 36.88800 31.05700
H  -2.61500 37.57800 32.12700
H  -2.57300 38.40500 30.57800
H  -1.33300 38.82500 31.57500
H  -0.02000 34.74900 31.86000
H  -0.88900 33.34600 31.12100
H  -1.61500 32.74300 32.94200
H  -2.26600 34.34300 33.41000
H  1.75100 40.20200 27.07800
H  0.58800 40.25500 28.33300
H  0.38000 41.17500 26.76100
H  1.57100 41.66400 23.25500
H  1.72900 41.24000 24.91600
H  0.15200 41.89600 24.35600
H  -0.85100 35.01200 22.01200
H  -3.66400 34.07100 21.66400
H  -1.84300 36.06300 19.93000
H  -2.47400 37.10900 21.07700
H  -3.49500 35.80300 20.55600
H  -1.64900 33.07800 20.57500
H  -2.85600 32.02000 21.41400
H  -1.38300 30.91300 22.54800
H  -0.94000 32.42300 23.36000
H  -0.09000 31.90000 21.86800
H  -5.28300 30.44300 24.89100
H  -6.38900 31.25700 25.94200
H  -5.42400 29.90900 26.58300
H  -3.02400 31.78000 30.56900
H  -6.05800 33.26400 33.34400
H  -4.57800 33.36200 34.36300
H  -5.40000 31.79900 34.03700

