158

Mg 48.77200 44.55100 43.00600
C  45.24200 44.58000 42.86400
C  48.77000 41.16200 42.75300
C  52.14500 44.66800 43.00300
C  48.68000 48.07600 42.60300
N  47.14500 43.07400 42.72300
C  45.80900 43.27600 42.75300
C  45.00500 41.97200 42.76000
C  46.20600 40.90300 42.82600
C  47.48500 41.73700 42.86800
C  46.07000 40.00900 44.08400
C  43.96500 41.62700 41.64400
C  43.99500 42.39000 40.36200
H  44.47100 41.70300 39.12100
N  50.22800 43.11400 42.85800
C  50.01800 41.75600 42.85100
C  51.27800 41.07200 42.69300
C  52.28200 42.04200 42.78400
C  51.60800 43.36100 42.88000
C  51.49200 39.60000 42.46000
C  53.77500 41.65100 42.70700
O  54.24700 40.53700 42.57300
C  54.68400 42.73800 42.77600
N  50.16500 46.13400 42.82100
C  51.50200 45.89600 43.01700
C  52.25500 47.27000 43.30100
C  51.25800 48.26500 42.85900
C  49.92700 47.52900 42.74000
C  52.71400 47.44800 44.82400
C  51.63200 48.90500 41.53100
C  52.12100 50.32400 41.50700
N  47.27400 46.10600 42.75200
C  47.41500 47.47400 42.66500
C  46.04000 48.09000 42.74300
C  45.15500 47.00500 42.88500
C  45.95400 45.82000 42.83500
C  45.69000 49.58600 42.84100
C  43.77900 46.63500 43.08400
O  42.73900 47.23300 43.34600
C  43.77200 45.01600 42.99600
C  43.12500 44.49900 44.21300
O  42.09700 43.82700 44.20900
O  43.83500 44.89000 45.32900
C  43.60800 44.06200 46.46300
H  48.71100 40.08900 42.56200
H  53.22600 44.80500 43.08500
H  48.65400 49.16700 42.57300
H  44.56300 41.99400 43.75600
H  46.22100 40.26200 41.94400
H  46.35600 38.98100 43.86000
H  45.03100 39.83100 44.36400
H  46.68000 40.35500 44.91800
H  42.99900 41.79300 42.12100
H  43.89200 40.56300 41.41700
H  44.43800 43.38300 40.44100
H  42.91700 42.50200 40.24400
H  52.05500 39.08700 43.24000
H  51.88500 39.36300 41.47200
H  50.48000 39.21900 42.32700
H  54.54500 43.35300 41.88700
H  55.70000 42.37800 42.61300
H  54.53700 43.19700 43.75400
H  53.19700 47.24800 42.75300
H  51.02900 49.09000 43.53400
H  52.55400 48.45100 45.22000
H  53.75800 47.13800 44.77600
H  52.28300 46.72100 45.51300
H  50.85500 48.78700 40.77500
H  52.46800 48.32300 41.14300
H  51.31700 51.03700 41.32600
H  52.86400 50.55600 40.74400
H  52.54100 50.62900 42.46600
H  44.65700 49.78900 43.12600
H  45.82700 49.90600 41.80800
H  46.44100 50.00000 43.51300
H  43.11000 44.86100 42.14400
H  44.61100 43.88600 46.85000
H  43.01700 43.16000 46.30000
H  42.94100 44.62900 47.11300
Mg 48.44400 34.58400 27.27800
C  46.19200 33.48800 29.79800
C  49.29100 37.28400 29.22500
C  49.76300 36.03400 24.57600
C  46.93000 32.12200 25.13600
N  47.79200 35.26300 29.30400
C  46.92500 34.67100 30.14500
C  46.97500 35.41000 31.49600
C  47.62900 36.79900 31.11100
C  48.35000 36.45300 29.86600
C  46.61400 37.95400 30.87300
C  47.83700 34.54000 32.52000
C  47.28700 34.37800 33.92600
H  48.22500 34.87900 35.04300
N  49.46100 36.31300 26.97900
C  49.74600 37.28400 27.86800
C  50.55900 38.22700 27.20900
C  50.75300 37.92500 25.85900
C  49.94700 36.71900 25.74500
C  51.07500 39.46600 27.91000
C  51.45400 38.65700 24.77400
O  51.54400 38.14500 23.66200
C  52.17800 40.01800 25.09900
N  48.30000 34.14300 25.24700
C  49.05600 34.87800 24.32900
C  48.76000 34.37700 22.87400
C  48.16300 33.00900 23.18600
C  47.76400 33.08000 24.60300
C  47.84200 35.38400 22.13800
C  49.06900 31.76500 22.86200
C  50.15700 31.35100 23.83500
N  47.08200 32.96000 27.46500
C  46.62200 32.02000 26.50400
C  45.74600 31.00400 27.15900
C  45.50600 31.62100 28.42400
C  46.35500 32.75900 28.51400
C  45.20400 29.75100 26.52100
C  44.70800 31.48200 29.54700
O  43.89300 30.59100 29.80000
C  45.12100 32.67300 30.52400
C  45.55300 32.01600 31.80900
O  46.50200 31.26600 32.06600
O  44.55100 32.21200 32.74600
C  44.75000 31.77400 34.17900
H  49.48500 38.18600 29.80900
H  50.17400 36.40200 23.63400
H  46.66100 31.27100 24.50700
H  45.99900 35.55600 31.95800
H  48.37500 37.21800 31.78700
H  46.76100 38.80600 31.53600
H  45.57300 37.65900 31.00100
H  46.59400 38.31700 29.84500
H  48.87600 34.86600 32.55800
H  48.04200 33.59100 32.02400
H  47.18100 33.33700 34.23300
H  46.28800 34.81200 33.98600
H  50.34500 40.21500 27.59900
H  52.10000 39.60900 27.56800
H  51.12700 39.27900 28.98200
H  51.41300 40.61900 25.58900
H  52.60000 40.45500 24.19400
H  53.01100 39.77400 25.75800
H  49.65300 34.21000 22.27100
H  47.29700 32.90200 22.53300
H  47.74900 36.36400 22.60600
H  46.87900 34.91000 21.95000
H  48.27700 35.51700 21.14700
H  49.50700 32.10600 21.92500
H  48.44800 30.90000 22.62600
H  49.78200 30.42700 24.27600
H  50.40200 32.00900 24.66800
H  51.14200 31.20100 23.39300
H  45.87600 28.94500 26.81600
H  45.19800 29.85900 25.43600
H  44.20200 29.68500 26.94600
H  44.30500 33.36600 30.72700
H  45.35900 30.87000 34.20600
H  43.70100 31.58800 34.40700
H  45.13500 32.60900 34.76400

