158

Mg 42.71900 4.22200 47.32400
C  40.99100 7.18400 46.97100
C  39.71500 2.47400 47.06100
C  44.38600 1.15300 47.22900
C  45.74800 5.85500 46.86200
N  40.67000 4.74100 46.91600
C  40.17700 6.04900 46.82200
C  38.69100 6.03700 46.53100
C  38.22200 4.60300 46.92700
C  39.64900 3.86100 46.99900
C  37.44300 4.63400 48.36400
C  38.28900 6.41400 45.05300
C  39.36100 6.13400 43.92500
H  38.91100 6.35800 42.48500
N  42.12300 2.14300 47.18400
C  40.86600 1.67200 47.12200
C  40.82200 0.23800 47.17600
C  42.13600 -0.19300 47.16200
C  43.00900 1.06500 47.21400
C  39.46400 -0.61800 47.32000
C  42.55400 -1.62100 47.08600
O  41.75000 -2.48900 47.17000
C  43.95500 -2.03800 47.07100
N  44.81700 3.53700 47.10900
C  45.19200 2.25900 47.10700
C  46.72300 2.14900 47.03100
C  47.17900 3.64400 46.95800
C  45.82900 4.41100 46.97700
C  47.38300 1.23600 48.08700
C  48.06400 3.85200 45.71800
C  49.51900 4.14500 46.15700
N  43.31700 6.16800 47.07000
C  44.58600 6.70700 46.91400
C  44.41800 8.18500 46.90000
C  43.02500 8.37200 47.00900
C  42.42100 7.12100 47.01800
C  45.55200 9.18500 46.84100
C  41.94500 9.35500 46.96700
O  42.04400 10.58600 46.91200
C  40.60500 8.60200 46.99300
C  39.86800 8.82600 48.25900
O  39.78800 8.05800 49.21300
O  39.20900 10.01800 48.13900
C  38.58000 10.52100 49.36400
H  38.77200 1.92900 47.14000
H  44.93200 0.20800 47.26700
H  46.70200 6.38500 46.83700
H  38.12600 6.72300 47.16200
H  37.70600 4.00700 46.17500
H  37.02100 3.67600 48.66500
H  36.70200 5.42900 48.28400
H  38.18900 4.79600 49.14200
H  37.97300 7.45000 44.93200
H  37.40500 5.84400 44.76500
H  39.75500 5.11700 43.91300
H  40.20100 6.82700 43.95600
H  38.65400 -0.38900 46.62700
H  39.17000 -0.35100 48.33500
H  39.58900 -1.70000 47.31500
H  44.47800 -1.55100 46.24900
H  43.96300 -3.10400 46.84500
H  44.44100 -1.72100 47.99400
H  46.86900 1.76200 46.02300
H  47.68300 3.84100 47.90400
H  46.68800 0.84500 48.83000
H  48.29300 1.62900 48.54100
H  47.79700 0.40500 47.51600
H  47.68300 4.74600 45.22500
H  48.17700 3.03900 45.00100
H  49.59900 5.23200 46.13400
H  50.18900 3.65200 45.45300
H  49.73500 3.93300 47.20400
H  46.06800 9.22500 47.80100
H  45.04400 10.11800 46.59700
H  46.30000 9.03800 46.06200
H  39.99800 9.01400 46.18700
H  37.51800 10.32900 49.20900
H  38.82900 11.56500 49.55500
H  38.87700 9.93200 50.23100
Mg 36.72500 49.75900 24.66200
C  36.32600 48.03600 27.71200
C  35.92400 52.68800 26.25800
C  36.71100 51.34800 21.66400
C  37.18100 46.74600 23.17400
N  35.91200 50.22800 26.76000
C  36.14200 49.43300 27.84000
C  35.85500 50.19900 29.11600
C  35.63900 51.63900 28.64900
C  35.82200 51.53900 27.05600
C  34.30200 52.32100 29.08600
C  37.06900 50.09400 30.18200
C  36.68100 49.88300 31.75200
H  35.19100 49.77500 32.13100
N  36.32000 51.74900 24.04100
C  36.10700 52.79000 24.89700
C  36.28600 54.04000 24.14100
C  36.30000 53.63700 22.74100
C  36.45500 52.19500 22.76500
C  36.49900 55.44700 24.75900
C  36.34700 54.44200 21.48800
O  36.47000 54.02900 20.34700
C  36.05100 55.95900 21.67800
N  36.66600 49.11800 22.68700
C  36.81200 49.96700 21.57200
C  37.00100 49.17300 20.31100
C  37.42600 47.76200 20.91300
C  37.06500 47.86900 22.40500
C  35.73800 49.22700 19.39500
C  38.80600 47.45300 20.47200
C  39.13800 45.96600 19.96400
N  36.64400 47.80600 25.23400
C  37.00000 46.66000 24.52600
C  36.99400 45.52600 25.40900
C  36.82300 46.06200 26.65500
C  36.51500 47.43100 26.52500
C  37.41200 44.13700 24.95500
C  36.90000 45.71400 28.09100
O  37.10000 44.68000 28.68800
C  36.44700 46.97900 28.80900
C  35.19900 46.68900 29.45200
O  34.07500 46.60600 28.95000
O  35.43400 46.44700 30.73500
C  34.28100 45.83200 31.49500
H  35.95200 53.56700 26.90600
H  36.83400 51.83500 20.69400
H  37.58800 45.83700 22.72800
H  34.87000 49.86700 29.44500
H  36.44400 52.31400 28.94100
H  34.43800 52.75800 30.07500
H  33.50000 51.58800 29.17500
H  33.91900 53.16100 28.50600
H  37.57300 51.06000 30.20600
H  37.88200 49.43400 29.88100
H  37.20400 50.70000 32.24900
H  37.23300 49.03100 32.14900
H  35.56400 56.00200 24.68900
H  37.21800 55.96700 24.12600
H  36.82400 55.35600 25.79600
H  36.87100 56.67500 21.73800
H  35.24800 56.14100 22.39300
H  35.56200 56.24200 20.74600
H  37.87300 49.63500 19.84800
H  36.69100 47.04000 20.55600
H  36.10000 49.79000 18.53400
H  34.87900 49.75900 19.80300
H  35.29100 48.27900 19.09800
H  39.36400 47.67700 21.38100
H  39.21800 48.20000 19.79300
H  39.86700 45.59700 20.68500
H  39.57000 45.98000 18.96300
H  38.26600 45.31800 20.04400
H  36.69300 43.60800 24.33000
H  37.79100 43.47400 25.73300
H  38.31700 44.37200 24.39400
H  37.13800 47.29000 29.59300
H  33.86000 44.92200 31.06800
H  33.46400 46.50000 31.76900
H  34.76200 45.48000 32.40800

