158

Mg 1.90600 -2.33600 44.20300
C  5.30300 -1.40600 43.87100
C  0.95500 0.39900 42.52600
C  -1.15000 -3.73900 43.62400
C  3.02200 -5.54500 45.25100
N  3.04800 -0.76700 43.17500
C  4.40200 -0.49900 43.35000
C  4.74800 0.91300 42.86000
C  3.31400 1.59700 42.74200
C  2.34200 0.37700 42.87300
C  2.90200 2.69500 43.68600
C  5.66000 0.93100 41.65000
C  5.51100 -0.08200 40.56000
H  5.15000 0.54200 39.15600
N  0.10600 -1.70500 43.31900
C  -0.06500 -0.57900 42.63500
C  -1.44700 -0.37300 42.21700
C  -2.13600 -1.50600 42.68400
C  -1.07200 -2.34100 43.18200
C  -1.95600 0.83000 41.40200
C  -3.61800 -1.65500 42.61200
O  -4.32600 -0.81500 42.06200
C  -4.34000 -2.86700 43.14900
N  1.05800 -4.38900 44.45100
C  -0.24200 -4.63400 44.21300
C  -0.57900 -6.01600 44.67700
C  0.73700 -6.58800 45.17800
C  1.68900 -5.43400 45.04000
C  -1.85800 -6.02900 45.66500
C  1.16500 -7.81900 44.39900
C  2.02300 -8.90300 45.18500
N  3.81300 -3.30900 44.60800
C  4.08100 -4.60000 45.01800
C  5.55300 -4.75400 45.15900
C  6.07200 -3.52900 44.81100
C  5.01700 -2.65700 44.38700
C  6.21700 -5.91300 45.70400
C  7.27100 -2.71300 44.71600
O  8.44500 -2.93000 44.96900
C  6.81200 -1.36000 44.07800
C  7.10400 -0.27900 45.09300
O  6.38800 -0.20400 46.06100
O  8.14700 0.52000 44.80200
C  8.26500 1.79300 45.57400
H  0.53900 1.35600 42.20400
H  -2.14300 -4.18300 43.52200
H  3.39600 -6.47000 45.69400
H  5.30500 1.39500 43.66300
H  3.08400 1.99300 41.75300
H  3.82800 3.10400 44.09000
H  2.31700 2.37400 44.54800
H  2.53400 3.53200 43.09200
H  6.70200 0.88100 41.96700
H  5.44700 1.94900 41.32300
H  4.81100 -0.85800 40.87100
H  6.47900 -0.57700 40.48800
H  -2.59900 0.33600 40.67300
H  -1.16400 1.32100 40.83700
H  -2.60500 1.49600 41.97100
H  -5.40800 -2.76600 43.33900
H  -3.81600 -2.99600 44.09600
H  -4.20200 -3.75700 42.53500
H  -0.97200 -6.45400 43.75900
H  0.75500 -6.87400 46.23000
H  -1.73200 -6.60000 46.58500
H  -2.66900 -6.54700 45.15300
H  -1.98400 -4.95900 45.82800
H  1.71800 -7.55800 43.49700
H  0.28500 -8.42300 44.17500
H  2.85900 -9.18300 44.54500
H  1.39700 -9.76000 45.43200
H  2.39200 -8.48500 46.12200
H  6.31700 -6.71400 44.97200
H  5.82000 -6.35000 46.62100
H  7.23100 -5.60800 45.96100
H  7.40700 -1.22500 43.17500
H  7.29000 2.25900 45.71000
H  8.83700 2.51000 44.98500
H  8.84300 1.58500 46.47400
Mg 27.51100 50.46900 26.05300
C  25.64900 51.23700 28.83000
C  29.86100 48.98500 28.23900
C  29.32500 49.60500 23.41000
C  25.15600 51.90100 23.97100
N  27.78300 50.25700 28.29100
C  26.82700 50.61900 29.21400
C  27.11900 50.21600 30.62900
C  28.53400 49.70300 30.45600
C  28.75300 49.53100 28.87000
C  29.70900 50.43300 31.06500
C  26.15200 49.31600 31.39700
C  25.67600 49.81200 32.77300
H  25.39900 48.86600 33.89300
N  29.40700 49.55000 25.87200
C  30.19500 49.01900 26.86500
C  31.38500 48.34200 26.25000
C  31.21900 48.44400 24.82000
C  29.93700 49.20200 24.61500
C  32.48700 47.64400 27.04900
C  32.06000 47.76600 23.67500
O  31.69900 47.72300 22.48600
C  33.27900 47.06400 24.05300
N  27.32400 50.83900 23.95400
C  28.21400 50.40900 23.09700
C  27.81200 50.79200 21.68200
C  26.34100 51.36200 21.79000
C  26.26100 51.35000 23.33600
C  28.75000 51.63100 20.78500
C  25.22800 50.38500 21.19300
C  23.89400 51.05900 20.64800
N  25.81100 51.49800 26.26700
C  24.93700 52.02900 25.37400
C  23.83400 52.62300 26.08000
C  24.01400 52.27600 27.39800
C  25.23000 51.62100 27.47200
C  22.65900 53.20200 25.48900
C  23.43400 52.31400 28.75700
O  22.31300 52.73900 29.11600
C  24.45400 51.65400 29.73200
C  24.85900 52.71600 30.71100
O  25.66600 53.60600 30.47400
O  24.13200 52.48400 31.84600
C  24.30900 53.40600 33.00000
H  30.47100 48.41800 28.94600
H  29.86100 49.25900 22.52300
H  24.47900 52.35300 23.24300
H  27.21500 51.21700 31.04900
H  28.56200 48.73900 30.96300
H  29.62300 51.52000 31.05000
H  30.60600 50.15200 30.51200
H  29.80000 50.27000 32.13900
H  26.57600 48.34300 31.64300
H  25.31000 49.13900 30.72800
H  24.66200 50.13600 32.53600
H  26.29600 50.63600 33.12800
H  32.39100 46.56400 26.93100
H  32.27500 47.80500 28.10600
H  33.48900 48.00600 26.81900
H  33.86400 47.80200 24.60200
H  33.77000 46.73900 23.13500
H  32.97300 46.23000 24.68500
H  27.70100 49.80600 21.23100
H  26.35100 52.39300 21.43700
H  28.60300 51.12400 19.83100
H  29.80900 51.74300 21.01800
H  28.27100 52.58700 20.57200
H  25.02700 49.57500 21.89300
H  25.62200 49.89800 20.30100
H  23.79800 50.66600 19.63600
H  23.81100 52.14500 20.60700
H  22.99800 50.68700 21.14600
H  22.69600 54.14200 26.04000
H  21.73700 52.65800 25.69400
H  22.90600 53.32100 24.43400
H  23.98700 50.78500 30.19500
H  24.66100 54.34900 32.58100
H  25.03500 53.00000 33.70600
H  23.34000 53.51500 33.48600

