158

Mg 17.24500 -2.81200 27.35600
C  16.47100 -0.80900 30.22000
C  19.38500 -4.66900 29.59400
C  18.39800 -4.48900 24.78800
C  15.75900 -0.51400 25.35300
N  17.97700 -2.63900 29.66500
C  17.44100 -1.78900 30.56700
C  17.85900 -2.17900 32.03300
C  18.86200 -3.40500 31.74000
C  18.67200 -3.59200 30.24200
C  20.35700 -3.20700 32.26100
C  16.65300 -2.49300 32.95100
C  16.56800 -1.70700 34.24400
H  17.80900 -1.24800 35.08900
N  18.61900 -4.40700 27.20000
C  19.37300 -4.96500 28.20600
C  20.18300 -6.10700 27.64800
C  19.94700 -6.02500 26.23000
C  18.93800 -4.99100 26.01100
C  21.13700 -6.95000 28.49800
C  20.47500 -6.89400 25.13400
O  20.19600 -6.81300 23.97500
C  21.32900 -8.06600 25.54200
N  17.11900 -2.52800 25.39200
C  17.63200 -3.37700 24.54700
C  17.45700 -2.92600 23.13500
C  16.37900 -1.68200 23.25700
C  16.45800 -1.51400 24.73800
C  18.84200 -2.51700 22.52700
C  14.95200 -2.04200 22.78800
C  14.17000 -0.92200 22.11800
N  16.21900 -1.03700 27.69100
C  15.66500 -0.24900 26.71900
C  14.87800 0.78500 27.38500
C  15.10600 0.54200 28.81300
C  16.00800 -0.53200 28.91700
C  14.07900 1.84100 26.71700
C  14.83000 1.09500 30.19100
O  14.11800 2.02800 30.58100
C  15.80100 0.25800 31.12700
C  16.60200 1.33200 31.73100
O  17.71300 1.64300 31.35100
O  15.93700 2.00300 32.72600
C  16.66000 2.94900 33.60400
H  20.01500 -5.28500 30.23900
H  18.61200 -5.14000 23.93700
H  15.20000 0.15000 24.69000
H  18.40700 -1.28500 32.33200
H  18.41700 -4.27100 32.23000
H  20.49500 -2.39900 32.98000
H  20.95300 -2.98400 31.37600
H  20.64500 -4.10600 32.80500
H  16.45400 -3.54300 33.16200
H  15.74600 -2.19600 32.42300
H  15.98300 -2.27600 34.96700
H  16.11900 -0.72300 34.11300
H  22.13000 -6.97300 28.04900
H  20.86700 -8.00400 28.56100
H  21.26400 -6.76100 29.56400
H  20.87100 -8.76500 26.24100
H  22.24500 -7.68200 25.99000
H  21.65600 -8.66900 24.69500
H  16.91300 -3.73100 22.64000
H  16.72000 -0.79000 22.73100
H  19.61400 -2.79400 23.24500
H  18.89900 -1.44100 22.35800
H  19.03000 -2.97700 21.55700
H  14.34300 -2.38500 23.62500
H  15.06700 -2.93600 22.17600
H  14.77200 -0.01500 22.06400
H  13.22100 -0.74900 22.62600
H  13.98200 -1.06400 21.05400
H  13.92100 2.65300 27.42700
H  13.09100 1.39900 26.58800
H  14.40600 2.17800 25.73300
H  15.18200 -0.11000 31.94600
H  17.66100 2.56600 33.80200
H  16.08200 3.31200 34.45300
H  16.79600 3.89500 33.08100
Mg -9.14500 18.42800 42.79100
C  -5.59300 18.18600 42.94200
C  -8.77300 21.73500 42.30000
C  -12.46800 18.49200 42.05500
C  -9.26100 14.88800 42.72000
N  -7.28800 19.77800 42.55100
C  -5.95200 19.46500 42.65600
C  -5.05600 20.72400 42.67200
C  -6.08800 21.82100 42.64900
C  -7.45500 21.08800 42.39600
C  -5.95500 22.75000 43.90900
C  -4.08200 20.82100 41.47400
C  -4.67600 20.13600 40.26400
H  -4.03300 20.13700 38.82800
N  -10.46200 20.01200 42.33800
C  -10.14700 21.27400 42.16200
C  -11.33500 21.98500 41.83300
C  -12.43900 21.08600 41.74300
C  -11.82400 19.81900 42.13100
C  -11.26900 23.45300 41.52900
C  -13.82600 21.34600 41.35200
O  -14.16600 22.46400 41.01300
C  -14.92500 20.33700 41.38500
N  -10.59200 16.91200 42.17200
C  -11.91100 17.21500 42.11600
C  -12.83000 16.02000 42.26900
C  -11.71900 14.84200 42.31500
C  -10.40900 15.58700 42.32400
C  -13.86700 16.06300 43.42300
C  -11.60400 13.70600 41.20000
C  -12.84800 12.71600 41.10600
N  -7.73600 16.83400 42.89500
C  -7.95900 15.47400 42.92100
C  -6.66900 14.78100 43.17800
C  -5.73000 15.80800 43.27500
C  -6.46600 17.02300 43.07900
C  -6.41100 13.28300 43.03900
C  -4.31000 16.10000 43.41700
O  -3.34400 15.40400 43.67700
C  -4.16100 17.69500 43.30600
C  -3.85200 18.21600 44.68800
O  -4.52100 18.15900 45.70000
O  -2.51100 18.65000 44.77700
C  -2.08500 18.85800 46.17300
H  -8.68300 22.80900 42.12400
H  -13.53600 18.33700 41.88900
H  -9.37500 13.80400 42.66300
H  -4.46100 20.67900 43.58400
H  -5.92900 22.59000 41.89300
H  -5.42200 23.64300 43.58400
H  -5.58100 22.11100 44.70900
H  -6.97300 22.97400 44.22700
H  -3.13700 20.29900 41.62400
H  -3.88900 21.86000 41.20400
H  -5.73400 20.38900 40.19700
H  -4.61800 19.06500 40.45600
H  -11.90900 24.03800 42.19000
H  -11.58800 23.44800 40.48700
H  -10.27400 23.89200 41.45600
H  -15.09700 19.93800 42.38500
H  -14.74700 19.53400 40.67000
H  -15.82900 20.89900 41.14700
H  -13.37300 16.02200 41.32400
H  -11.84200 14.34000 43.27500
H  -14.34700 15.08500 43.40300
H  -14.61200 16.84600 43.28600
H  -13.28300 16.33700 44.30200
H  -10.77400 13.01600 41.35300
H  -11.49900 14.14800 40.20900
H  -12.75400 11.88700 41.80800
H  -12.92800 12.35000 40.08200
H  -13.74900 13.29700 41.30000
H  -5.72800 12.92200 43.80800
H  -6.07500 13.05200 42.02900
H  -7.40200 12.82900 43.04800
H  -3.31500 17.97400 42.67700
H  -2.59500 19.68400 46.66800
H  -1.02100 19.08600 46.24000
H  -2.13500 17.92200 46.73000

