158

Mg 46.37800 24.48600 28.44300
C  46.72300 26.86500 31.15900
C  46.04200 22.11000 30.98600
C  46.24100 22.32400 26.04300
C  47.57500 26.92700 26.24800
N  46.16900 24.49200 30.80800
C  46.51100 25.57100 31.66400
C  46.46900 25.10500 33.16100
C  46.18400 23.54800 32.99200
C  46.22900 23.36600 31.47400
C  47.19000 22.66400 33.90100
C  45.45500 25.86600 34.02900
C  45.01000 25.19900 35.37500
H  45.80700 25.62900 36.59900
N  46.08600 22.51500 28.47300
C  45.93700 21.73300 29.61100
C  45.74100 20.33900 29.15600
C  45.70900 20.40100 27.69800
C  45.97400 21.80000 27.35800
C  45.66200 19.16100 30.10900
C  45.43100 19.25100 26.76100
O  45.58300 19.34900 25.58400
C  44.99800 18.01400 27.30900
N  46.79000 24.70100 26.39200
C  46.64100 23.61100 25.58800
C  47.03700 23.91000 24.21500
C  47.54000 25.42300 24.24600
C  47.32900 25.72700 25.70400
C  48.04500 22.89900 23.55400
C  46.84100 26.43600 23.30300
C  45.34300 26.79800 23.64100
N  46.93900 26.43000 28.55800
C  47.38500 27.26300 27.61900
C  47.58400 28.58400 28.13100
C  47.34900 28.43100 29.53500
C  46.95700 27.11000 29.75600
C  48.01400 29.84500 27.33000
C  47.41400 29.16100 30.79000
O  47.66500 30.32900 31.06300
C  46.92900 28.20700 31.93000
C  48.06400 27.95200 32.85400
O  49.01300 27.23900 32.59900
O  47.87000 28.70500 33.99900
C  48.92600 28.61700 35.03500
H  46.07700 21.32100 31.74100
H  46.18000 21.55500 25.27100
H  48.06800 27.62300 25.56600
H  47.42000 25.30100 33.65800
H  45.18100 23.35000 33.37000
H  47.95100 23.20200 34.46500
H  47.77300 21.92500 33.35100
H  46.52300 22.17100 34.60900
H  44.61900 26.22100 33.42700
H  45.95100 26.75800 34.40900
H  45.31000 24.15300 35.32400
H  43.94700 25.31600 35.58700
H  45.87800 18.24500 29.56000
H  44.65700 19.10200 30.52700
H  46.41200 19.36700 30.87300
H  45.88800 17.51700 27.69700
H  44.65800 17.42600 26.45700
H  44.20500 18.20400 28.03300
H  46.12500 23.90500 23.61900
H  48.60700 25.56500 24.07800
H  48.72600 23.27600 22.79100
H  47.55000 22.09700 23.00700
H  48.73400 22.46600 24.27800
H  46.82200 26.06200 22.28000
H  47.43000 27.34600 23.42200
H  45.30400 27.87300 23.81400
H  45.02000 26.14300 24.45000
H  44.66600 26.61200 22.80800
H  47.57200 30.68600 27.86300
H  47.54700 29.76300 26.34800
H  49.10200 29.87200 27.28700
H  46.08300 28.60400 32.49100
H  48.59800 29.36700 35.75400
H  49.89300 28.82600 34.57700
H  49.12100 27.61600 35.42100
Mg -11.64700 39.33500 42.69500
C  -10.06500 36.36500 41.59100
C  -9.12900 40.96700 41.19900
C  -13.39200 42.13100 43.13500
C  -14.38000 37.39800 43.65200
N  -9.84800 38.62600 41.44400
C  -9.30800 37.43900 41.20100
C  -8.01600 37.49000 40.40800
C  -7.57800 39.03100 40.59100
C  -8.92600 39.58000 41.10800
C  -6.47000 39.26800 41.68200
C  -8.18800 37.05500 38.90100
C  -7.09500 36.09300 38.34000
H  -6.03900 36.73300 37.48700
N  -11.23000 41.35100 42.37700
C  -10.17100 41.78100 41.64800
C  -10.25000 43.21700 41.56900
C  -11.51700 43.59800 42.14800
C  -12.09500 42.32900 42.62100
C  -9.07400 44.07300 41.13000
C  -11.97800 45.00000 42.34700
O  -11.40000 45.98100 41.94100
C  -13.20000 45.37500 43.28400
N  -13.52200 39.70200 43.39000
C  -14.04500 40.95500 43.47900
C  -15.37400 40.95600 44.31200
C  -15.74300 39.42600 44.10800
C  -14.47100 38.76700 43.66600
C  -15.06300 41.39000 45.74700
C  -17.04900 38.96200 43.26200
C  -18.27200 38.32200 44.03200
N  -12.23100 37.24300 42.59800
C  -13.32100 36.67900 43.08600
C  -13.15700 35.25500 42.99100
C  -11.95000 35.09700 42.38600
C  -11.38900 36.35300 42.23300
C  -14.07900 34.25200 43.53900
C  -11.03100 34.11600 41.92400
O  -10.99900 32.90400 41.93300
C  -9.76600 34.90600 41.41200
C  -8.55100 34.39600 42.13800
O  -8.26100 34.55400 43.30200
O  -7.78800 33.74400 41.25000
C  -6.58500 33.07400 41.80200
H  -8.47700 41.64000 40.63900
H  -14.02200 43.01900 43.22700
H  -15.20700 36.91100 44.17300
H  -7.26500 36.85700 40.88100
H  -7.27400 39.50700 39.66000
H  -5.56100 39.72900 41.29400
H  -6.19400 38.26400 42.00600
H  -6.82200 39.85400 42.53100
H  -8.10000 37.96100 38.30000
H  -9.13800 36.55500 38.71100
H  -7.77400 35.41800 37.82000
H  -6.57200 35.45900 39.05600
H  -8.09600 43.60000 41.21500
H  -9.09000 44.92400 41.81100
H  -9.17700 44.38600 40.09200
H  -14.14500 45.28000 42.74900
H  -13.14500 46.39900 43.65400
H  -13.14900 44.72400 44.15700
H  -16.14100 41.55400 43.82100
H  -15.76400 39.06900 45.13800
H  -14.12500 41.94200 45.80300
H  -15.03300 40.63900 46.53600
H  -15.72100 42.17000 46.13100
H  -16.72000 38.25300 42.50300
H  -17.39000 39.80600 42.66300
H  -18.26500 38.43500 45.11600
H  -18.38500 37.25700 43.82800
H  -19.19900 38.84400 43.79700
H  -13.56600 33.29400 43.62300
H  -14.91800 34.21600 42.84400
H  -14.48200 34.56600 44.50200
H  -9.65500 34.70500 40.34600
H  -5.76600 33.79400 41.78900
H  -6.33800 32.25000 41.13300
H  -6.72500 32.73100 42.82700

