158

Mg 7.09200 2.87500 27.91900
C  8.62000 1.90000 30.75700
C  5.27800 5.24400 29.82200
C  5.40000 3.78500 25.13800
C  8.60100 0.40000 26.12000
N  6.80300 3.35100 30.05900
C  7.71100 2.93000 31.05000
C  7.56700 3.74100 32.34700
C  6.42700 4.77500 32.02000
C  6.05500 4.34100 30.56900
C  5.16000 4.79300 32.95000
C  8.80000 4.38800 33.02600
C  9.10300 3.82400 34.41100
H  8.76000 4.75000 35.56600
N  5.64400 4.36500 27.54100
C  5.08100 5.24400 28.38600
C  4.36100 6.20600 27.59100
C  4.23000 5.66500 26.30300
C  5.13800 4.56900 26.28300
C  3.58400 7.34200 28.20700
C  3.50700 6.22500 25.13700
O  3.46600 5.55700 24.13000
C  2.80900 7.48000 25.06700
N  6.95100 2.16800 25.96100
C  6.21400 2.68300 25.01400
C  6.26000 1.78400 23.69600
C  7.65300 1.07300 23.89000
C  7.73600 1.17000 25.40900
C  5.00500 0.84200 23.58000
C  8.90300 1.67200 23.04300
C  10.16000 2.11000 23.83000
N  8.34800 1.38200 28.33600
C  8.86200 0.42600 27.50800
C  9.72900 -0.48700 28.22600
C  9.67900 0.11700 29.50900
C  8.73800 1.18100 29.55500
C  10.56800 -1.60500 27.76300
C  10.28100 0.04500 30.80400
O  11.11600 -0.70800 31.23900
C  9.57100 1.18600 31.64400
C  8.87700 0.55600 32.72500
O  7.76900 0.03400 32.66400
O  9.71800 0.50000 33.83500
C  9.13800 -0.07100 35.09600
H  4.78400 6.07000 30.33800
H  5.00100 3.91900 24.13100
H  9.08100 -0.37500 25.51800
H  7.09300 3.02600 33.01900
H  6.87400 5.76900 32.00000
H  4.31900 4.34300 32.42100
H  4.83900 5.76700 33.31900
H  5.32700 4.27800 33.89600
H  8.74600 5.47700 33.01400
H  9.66300 4.11200 32.42000
H  10.18500 3.70300 34.46200
H  8.70500 2.83500 34.63900
H  2.54900 7.20000 27.89500
H  3.85700 8.36000 27.92900
H  3.61100 7.32800 29.29600
H  2.03900 7.46000 25.83900
H  2.32800 7.48900 24.08900
H  3.50900 8.30200 25.21300
H  6.37100 2.54200 22.92100
H  7.55100 0.04600 23.53900
H  4.35300 1.04100 24.43000
H  5.25600 -0.21600 23.65500
H  4.39100 0.95400 22.68600
H  8.53100 2.51600 22.46200
H  9.29100 0.84200 22.45300
H  9.80800 2.60100 24.73800
H  10.74600 2.89500 23.35200
H  10.70200 1.17200 23.94900
H  11.26600 -1.31300 26.97900
H  9.91700 -2.42600 27.46100
H  11.24200 -1.90300 28.56600
H  10.30200 1.88800 32.04300
H  8.78900 0.69200 35.79100
H  9.95900 -0.60900 35.57000
H  8.34600 -0.76300 34.80800
Mg 47.48200 16.44800 28.61100
C  45.43300 16.67500 31.34900
C  50.05400 17.85500 30.53100
C  49.31800 17.07300 25.76500
C  44.90900 15.27200 26.66600
N  47.64500 17.25300 30.66400
C  46.72100 17.04400 31.64100
C  47.31000 17.27100 33.02300
C  48.76900 17.83300 32.76100
C  48.82300 17.71400 31.18300
C  48.81400 19.32900 33.23900
C  47.21600 16.05900 33.99000
C  47.08700 16.48100 35.46400
H  47.15800 17.97800 35.95400
N  49.44300 17.33000 28.18100
C  50.34500 17.72800 29.14200
C  51.58000 18.22100 28.46800
C  51.32500 18.17600 27.05800
C  49.94100 17.55200 26.95200
C  52.72200 18.83900 29.31200
C  52.10800 18.66900 25.87100
O  51.71300 18.54400 24.74900
C  53.45400 19.20500 26.05300
N  47.28600 15.86000 26.53000
C  48.13900 16.22000 25.53200
C  47.60800 15.78700 24.14300
C  46.19800 15.18300 24.45600
C  46.09300 15.46700 25.95300
C  47.40600 16.92000 23.12800
C  45.88000 13.79300 23.95000
C  45.26900 13.67600 22.59600
N  45.58600 16.12700 28.83700
C  44.60000 15.57800 28.01000
C  43.29300 15.43700 28.71500
C  43.59400 15.85600 30.07100
C  44.94300 16.30900 30.05300
C  42.01200 14.88000 28.09400
C  43.12400 15.96700 31.45000
O  42.01700 15.71600 31.97000
C  44.30300 16.46300 32.35200
C  43.98100 17.67100 33.02700
O  43.97500 18.83500 32.70400
O  43.57700 17.30100 34.29100
C  42.77800 18.26300 35.10900
H  50.83100 18.26000 31.18200
H  49.75100 17.20400 24.77100
H  44.14300 14.82500 26.03000
H  46.70100 18.08700 33.41300
H  49.52100 17.25900 33.30200
H  48.42000 19.37200 34.25400
H  48.21400 19.85400 32.49500
H  49.87300 19.58700 33.28400
H  48.13500 15.47800 33.90600
H  46.37400 15.42000 33.72400
H  47.74100 15.82500 36.03900
H  46.07000 16.17200 35.70600
H  52.63700 18.59800 30.37200
H  52.55000 19.91100 29.21100
H  53.69900 18.55000 28.92400
H  54.01000 18.42100 26.56700
H  53.41100 20.14800 26.59800
H  54.11100 19.38000 25.20000
H  48.33100 15.08100 23.73600
H  45.39800 15.80300 24.05100
H  46.38300 17.24400 22.93400
H  47.67300 16.38700 22.21600
H  48.03300 17.80800 23.20200
H  45.28200 13.32400 24.73100
H  46.78700 13.19400 23.86600
H  45.36100 14.60100 22.02800
H  44.18300 13.73900 22.66300
H  45.65100 12.82800 22.02800
H  41.91900 15.35900 27.11900
H  41.19300 15.28500 28.68900
H  41.95300 13.79900 27.96600
H  44.40300 15.66200 33.08400
H  43.45100 19.05800 35.43300
H  42.50200 17.71800 36.01200
H  41.94100 18.73200 34.59200

