158

Mg 49.65300 34.80300 26.97200
C  47.50800 33.88400 29.54800
C  50.04800 37.93200 28.45200
C  51.47200 35.81100 24.28200
C  48.91500 31.68200 25.31700
N  48.75900 35.88600 28.71600
C  48.10900 35.18900 29.76400
C  48.17100 36.02600 31.09900
C  48.59900 37.49900 30.56500
C  49.12200 37.12700 29.16300
C  47.37500 38.49000 30.47200
C  49.17300 35.35500 32.07400
C  48.64900 35.27000 33.51700
H  47.57900 36.21900 34.06900
N  50.75500 36.53800 26.44200
C  50.73700 37.73700 27.17900
C  51.61800 38.70200 26.53800
C  52.06900 38.07100 25.36700
C  51.40800 36.74900 25.29200
C  51.80600 40.12100 27.09100
C  53.10000 38.65200 24.42500
O  53.43500 38.02900 23.42900
C  53.67900 39.95000 24.60700
N  49.88300 33.99600 24.99000
C  50.78900 34.60700 24.11100
C  51.22100 33.65200 22.95000
C  50.44700 32.32200 23.31300
C  49.72700 32.61900 24.64100
C  50.86200 34.19400 21.57700
C  51.42800 31.05200 23.37400
C  51.34200 30.08700 22.21800
N  48.42700 33.10900 27.29000
C  48.29200 31.89000 26.57800
C  47.27900 31.08000 27.27300
C  47.00500 31.80700 28.47300
C  47.72500 33.00800 28.46300
C  46.83600 29.69500 26.87800
C  46.23500 31.74200 29.66500
O  45.36000 30.94500 29.91300
C  46.66100 32.95000 30.54200
C  47.49400 32.38600 31.59200
O  48.63000 31.97700 31.46800
O  46.72200 32.23200 32.69000
C  47.34600 31.63200 33.90800
H  50.08300 38.94900 28.84800
H  52.15000 36.11200 23.48100
H  48.75600 30.72100 24.82200
H  47.19000 35.99900 31.57400
H  49.45600 37.91900 31.09300
H  47.48900 39.23600 29.68500
H  47.35700 39.14400 31.34400
H  46.44000 37.95400 30.30900
H  50.11800 35.89000 32.17100
H  49.53300 34.37500 31.76200
H  49.55100 35.34400 34.12400
H  48.27600 34.25500 33.65600
H  51.21900 40.72800 26.40300
H  52.83800 40.47200 27.10400
H  51.45000 40.24500 28.11400
H  53.14000 40.89700 24.59300
H  54.41100 40.02700 23.80300
H  54.22400 39.97100 25.55100
H  52.28000 33.40400 23.01800
H  49.78600 32.21000 22.45300
H  51.71400 33.80500 21.02000
H  51.02000 35.27200 21.53400
H  49.90700 33.87100 21.16200
H  51.22600 30.50600 24.29500
H  52.44100 31.44100 23.47300
H  50.87400 29.15900 22.54500
H  52.27800 29.87400 21.70100
H  50.62000 30.49400 21.51100
H  45.85800 29.63000 27.35500
H  47.46600 28.94700 27.36000
H  46.83200 29.57300 25.79500
H  45.71800 33.33600 30.92900
H  47.04400 30.58600 33.85600
H  46.85200 32.13600 34.74000
H  48.41300 31.84000 33.98800
Mg -10.87900 38.56900 40.84500
C  -9.34500 35.59200 39.93600
C  -8.49500 40.36300 39.28100
C  -12.83500 41.35000 41.12300
C  -13.64000 36.60500 42.08500
N  -9.12700 38.03900 39.76000
C  -8.64700 36.79500 39.48000
C  -7.44000 36.74100 38.49700
C  -7.07000 38.33900 38.55100
C  -8.37200 38.98500 39.19300
C  -5.87500 38.73500 39.56400
C  -7.77700 36.19900 37.04200
C  -6.75700 35.29000 36.20500
H  -6.43100 35.57600 34.70500
N  -10.66600 40.59000 40.33700
C  -9.54300 41.11900 39.76300
C  -9.55300 42.56100 39.73800
C  -10.80700 42.94900 40.23400
C  -11.49000 41.63400 40.66200
C  -8.42800 43.37700 39.11900
C  -11.35800 44.33600 40.36000
O  -10.63500 45.24200 40.03800
C  -12.76700 44.70000 40.77000
N  -12.97900 38.87600 41.43200
C  -13.52100 40.14400 41.43900
C  -15.07300 40.03600 41.71400
C  -15.32100 38.48800 41.87500
C  -13.87000 37.95200 41.83100
C  -15.51600 41.06700 42.83600
C  -16.32900 37.91800 40.80700
C  -15.81100 37.42700 39.46200
N  -11.35100 36.51600 41.05900
C  -12.43700 35.90200 41.65500
C  -12.12400 34.45600 41.77100
C  -10.91800 34.26400 41.08200
C  -10.53700 35.57100 40.69200
C  -12.98700 33.47700 42.54000
C  -9.80900 33.36600 40.71600
O  -9.64400 32.18600 41.08200
C  -8.91300 34.09400 39.77700
C  -7.44600 33.81900 40.11800
O  -6.70000 34.57800 40.81300
O  -7.02500 32.78000 39.37500
C  -5.65500 32.35300 39.65800
H  -7.64800 40.85300 38.79600
H  -13.44600 42.25500 41.08900
H  -14.42800 35.98400 42.51700
H  -6.55800 36.23500 38.88900
H  -6.68300 38.73500 37.61300
H  -5.90000 37.96100 40.33100
H  -5.96900 39.66500 40.12500
H  -4.93700 38.60600 39.02500
H  -8.02600 37.02300 36.37300
H  -8.74400 35.69700 37.04900
H  -7.06800 34.25500 36.34900
H  -5.84400 35.30200 36.80000
H  -8.75900 44.24900 38.55500
H  -7.82000 42.88100 38.36300
H  -7.75700 43.73500 39.90100
H  -12.84900 44.37200 41.80600
H  -13.54200 44.15500 40.23100
H  -12.86000 45.78600 40.73900
H  -15.57500 40.40600 40.82000
H  -15.71000 38.34100 42.88200
H  -16.19100 41.87900 42.56500
H  -14.56600 41.51000 43.13200
H  -15.92700 40.61600 43.74000
H  -17.06400 38.67000 40.52100
H  -16.82200 37.02900 41.20300
H  -14.72700 37.38800 39.56800
H  -15.99200 38.23900 38.75700
H  -16.22900 36.49300 39.08700
H  -12.68500 32.44100 42.38600
H  -14.05300 33.64200 42.38700
H  -12.62900 33.52300 43.56900
H  -9.01300 33.87700 38.71400
H  -5.58700 31.26900 39.55900
H  -5.32600 32.61900 40.66300
H  -4.91500 32.68500 38.92900

