158

Mg 17.15700 -1.77900 27.69800
C  16.33600 0.18500 30.42600
C  19.04200 -3.79500 29.84700
C  18.35900 -3.46500 25.07300
C  15.81900 0.68600 25.56400
N  17.66500 -1.77000 29.89400
C  17.07900 -0.94400 30.82500
C  17.57900 -1.34200 32.20400
C  18.56000 -2.52200 31.97300
C  18.39600 -2.72800 30.46000
C  20.07400 -2.17400 32.27000
C  16.42500 -1.65100 33.19200
C  16.42100 -0.77600 34.49000
H  17.78000 -0.48000 35.18700
N  18.34300 -3.46800 27.52700
C  18.97300 -4.23800 28.49000
C  19.50700 -5.47500 27.86000
C  19.37800 -5.28400 26.44400
C  18.62400 -4.05600 26.34700
C  19.85300 -6.67100 28.67700
C  19.88800 -6.16400 25.33100
O  19.60500 -6.01500 24.12600
C  20.71700 -7.32900 25.68200
N  16.97000 -1.51300 25.60000
C  17.71900 -2.25600 24.82500
C  17.66700 -1.64000 23.40900
C  16.52600 -0.51700 23.51400
C  16.37700 -0.44300 24.98900
C  19.11600 -1.04100 22.87400
C  15.16100 -1.00100 22.93200
C  14.21100 -0.05900 22.25000
N  16.16800 0.03100 27.89700
C  15.66000 0.91700 26.97700
C  14.93800 1.98800 27.68100
C  15.24400 1.76800 29.02800
C  16.00500 0.54600 29.12600
C  14.22900 3.10300 27.11300
C  15.05200 2.23000 30.34600
O  14.41100 3.17900 30.75900
C  15.87300 1.29000 31.33800
C  16.90100 2.10600 32.05500
O  17.99500 2.39200 31.68400
O  16.42300 2.62100 33.25500
C  17.24500 3.49700 34.09700
H  19.56800 -4.38500 30.60100
H  18.95400 -3.73800 24.19900
H  15.40000 1.42400 24.87700
H  18.06800 -0.49300 32.68200
H  18.32600 -3.44200 32.50900
H  20.35000 -1.23700 32.75500
H  20.76800 -2.20900 31.43000
H  20.39300 -2.95900 32.95600
H  16.41700 -2.72700 33.36500
H  15.50500 -1.48200 32.63200
H  15.94700 -1.27200 35.33700
H  15.76100 0.08700 34.40100
H  19.39300 -6.71600 29.66500
H  20.93300 -6.53200 28.64700
H  19.72300 -7.66300 28.24400
H  21.54900 -7.07800 26.34100
H  21.05000 -7.77200 24.74400
H  20.10800 -8.11800 26.12500
H  17.35800 -2.44600 22.74300
H  16.78400 0.42100 23.02200
H  19.77000 -1.04900 23.74600
H  19.08200 -0.02400 22.48400
H  19.71900 -1.61700 22.17200
H  14.47400 -1.52000 23.60100
H  15.45000 -1.66000 22.11400
H  13.23200 -0.15700 22.71900
H  14.13200 -0.22400 21.17600
H  14.55400 0.95600 22.44900
H  13.49600 2.65600 26.44300
H  14.82000 3.83800 26.56600
H  13.71200 3.62300 27.91900
H  15.17500 0.76200 31.98800
H  17.74900 2.93800 34.88500
H  16.41900 4.12300 34.43300
H  17.91100 4.05900 33.44100
Mg 44.39800 2.61000 46.94600
C  42.48500 5.43700 47.08900
C  41.55600 0.64800 46.62200
C  46.38200 -0.12800 46.62800
C  47.23100 4.63900 46.84700
N  42.31200 2.98400 46.65900
C  41.74600 4.23700 46.81300
C  40.25900 4.11800 46.59900
C  39.85400 2.66900 46.58500
C  41.33400 2.03200 46.61700
C  39.06700 2.21800 47.84800
C  39.86300 4.71500 45.20500
C  38.59100 5.56900 45.15200
H  37.80400 5.43400 43.80800
N  43.97100 0.51800 46.81000
C  42.75500 -0.06400 46.74000
C  42.94800 -1.53000 46.61200
C  44.38100 -1.75300 46.45800
C  44.95700 -0.40300 46.65500
C  41.79800 -2.49700 46.38000
C  45.00800 -3.24900 46.24400
O  44.35600 -4.31200 46.27900
C  46.53300 -3.40700 46.09500
N  46.47100 2.29400 46.72400
C  47.06000 1.09300 46.58800
C  48.59700 1.11700 46.39500
C  48.86700 2.68600 46.43100
C  47.44300 3.28300 46.76300
C  49.31700 0.32500 47.50700
C  49.52000 3.44400 45.21200
C  50.98900 3.75300 45.41500
N  44.82400 4.62900 46.83400
C  46.02800 5.36300 46.90600
C  45.75400 6.74500 47.07200
C  44.36300 6.79600 47.13600
C  43.83900 5.51100 47.07800
C  46.74800 7.88700 46.99100
C  43.26600 7.74900 47.23300
O  43.23300 8.93700 47.35100
C  41.92800 6.80700 47.32500
C  41.15900 6.96800 48.60100
O  41.54800 6.95200 49.75400
O  39.85700 7.10200 48.27000
C  38.96700 7.40200 49.38100
H  40.65300 0.07000 46.41200
H  47.08500 -0.96100 46.56400
H  48.08700 5.31100 46.94700
H  39.69600 4.60800 47.39400
H  39.33000 2.36200 45.68000
H  38.25300 2.92600 48.00000
H  39.71500 2.23800 48.72400
H  38.62800 1.22700 47.73200
H  39.78800 3.87200 44.51800
H  40.64700 5.35100 44.79600
H  38.86800 6.60900 45.32600
H  38.01900 5.15000 45.97900
H  41.58700 -2.61500 45.31700
H  40.88600 -1.97700 46.67500
H  41.81000 -3.42200 46.95700
H  46.97400 -2.99700 47.00400
H  46.99300 -2.75000 45.35600
H  46.87900 -4.40800 45.83900
H  48.87800 0.76000 45.40400
H  49.40600 2.96700 47.33600
H  48.77900 0.41800 48.45000
H  50.33500 0.69600 47.63100
H  49.33800 -0.68200 47.08800
H  49.04500 4.39200 44.95900
H  49.33200 2.76900 44.37700
H  51.28300 3.81700 46.46300
H  51.07000 4.74100 44.96100
H  51.39100 2.87900 44.90300
H  47.71500 7.59900 46.57900
H  46.87800 8.22600 48.01900
H  46.32300 8.63900 46.32700
H  41.22800 7.07300 46.53300
H  39.37100 8.20000 50.00200
H  38.76300 6.46700 49.90300
H  38.04700 7.78700 48.94000

