158

Mg 0.60300 7.64200 26.75200
C  1.42900 9.76900 29.55300
C  0.67100 5.03100 29.04100
C  -0.23100 5.58600 24.31100
C  1.13100 10.29100 24.63200
N  1.01900 7.45400 29.06100
C  1.21700 8.42300 29.94600
C  1.11700 7.93700 31.47600
C  1.24000 6.40900 31.21500
C  0.86500 6.26300 29.69500
C  2.66100 5.77200 31.55100
C  -0.28500 8.42400 32.01900
C  -0.47700 8.33900 33.54300
H  0.60500 7.62700 34.32100
N  0.18200 5.52800 26.63200
C  0.26200 4.65500 27.67000
C  0.06100 3.29100 27.20600
C  -0.27400 3.42700 25.84400
C  -0.18700 4.85500 25.53500
C  0.09200 2.04300 28.07800
C  -0.34000 2.41200 24.71700
O  -0.52500 2.68700 23.49900
C  -0.19300 0.95200 25.15400
N  0.54900 7.89700 24.77500
C  0.09800 6.89800 23.97200
C  0.12300 7.41100 22.52000
C  0.35200 8.96900 22.58600
C  0.76200 9.13400 24.06500
C  1.04900 6.71900 21.55100
C  -0.93900 9.79500 22.22300
C  -0.78900 11.23800 21.71700
N  1.22400 9.55900 26.95200
C  1.31600 10.52500 26.02400
C  1.59500 11.76800 26.68400
C  1.67400 11.47800 28.02400
C  1.43000 10.15000 28.17600
C  1.64000 13.07200 25.95900
C  2.00900 12.05600 29.33500
O  2.44700 13.16900 29.66500
C  1.69400 10.92000 30.38700
C  2.84400 10.90600 31.31000
O  3.86500 10.28000 31.17800
O  2.59700 11.73700 32.34000
C  3.42800 11.77200 33.51500
H  0.67900 4.20000 29.74900
H  -0.60100 5.14400 23.38400
H  1.32400 11.18600 24.03700
H  2.03800 8.28500 31.94400
H  0.49400 5.94900 31.86400
H  3.35700 6.43100 32.07000
H  3.09400 5.49400 30.59000
H  2.68600 4.77700 31.99400
H  -1.06100 7.74100 31.67300
H  -0.56600 9.40200 31.62700
H  -1.42400 7.81600 33.67100
H  -0.51400 9.31900 34.01900
H  -0.83000 1.46500 28.01000
H  0.32000 2.24200 29.12500
H  0.89100 1.36900 27.76700
H  -0.92300 0.67400 25.91300
H  0.83900 0.83000 25.48200
H  -0.12400 0.23400 24.33600
H  -0.87600 7.15200 22.17100
H  1.18600 9.19900 21.92300
H  1.86800 7.34900 21.20400
H  0.57900 6.10900 20.78000
H  1.62500 5.95800 22.07800
H  -1.56100 9.82000 23.11900
H  -1.35200 9.22400 21.39200
H  -0.94600 11.28100 20.64000
H  0.24200 11.53200 21.91500
H  -1.48400 11.79600 22.34400
H  1.27400 12.96000 24.93800
H  2.63400 13.51900 25.96700
H  0.91000 13.67400 26.49900
H  0.78900 11.07400 30.97600
H  4.19500 12.51800 33.30600
H  3.80100 10.78000 33.77100
H  2.68900 12.01700 34.27800
Mg 24.22100 -4.78700 45.48100
C  26.34400 -2.47000 44.02800
C  21.75600 -3.65500 43.45000
C  22.40600 -7.56300 46.08600
C  26.92100 -6.27800 47.04200
N  24.14400 -3.32700 43.82600
C  25.04000 -2.40800 43.53800
C  24.66000 -1.53900 42.32200
C  23.05100 -1.76600 42.37600
C  22.94100 -2.97600 43.33600
C  22.16700 -0.55800 42.82500
C  25.34000 -2.12200 41.04500
C  26.14800 -1.15500 40.20200
H  25.74400 -1.21500 38.66800
N  22.25300 -5.42200 45.02400
C  21.40800 -4.81300 44.13500
C  20.12300 -5.53400 44.05500
C  20.28200 -6.63100 44.90400
C  21.68700 -6.55800 45.42400
C  18.95700 -4.99200 43.33100
C  19.21400 -7.61000 45.19900
O  18.13900 -7.64100 44.70300
C  19.40300 -8.67700 46.28600
N  24.69100 -6.75200 46.42600
C  23.69700 -7.64000 46.59900
C  24.24800 -8.91600 47.32900
C  25.64100 -8.41500 47.84200
C  25.79700 -7.12700 47.01000
C  23.40600 -9.37300 48.54300
C  26.83500 -9.36000 47.62500
C  27.90300 -9.49300 48.72300
N  26.22800 -4.43500 45.59800
C  27.19600 -5.04200 46.35800
C  28.43300 -4.25800 46.26500
C  28.16800 -3.21200 45.39700
C  26.82300 -3.38700 45.02900
C  29.61100 -4.48300 47.12200
C  28.60500 -1.95800 44.78200
O  29.64300 -1.39500 44.92100
C  27.46600 -1.63700 43.73800
C  27.10400 -0.25800 44.02500
O  26.43000 0.14300 44.99400
O  27.58900 0.54600 43.02000
C  27.39500 1.96700 43.17200
H  20.96100 -3.23600 42.83100
H  21.87900 -8.51700 46.01600
H  27.73200 -6.72500 47.62000
H  24.75800 -0.46100 42.45300
H  22.73200 -2.12600 41.39800
H  21.37900 -0.42100 42.08500
H  22.70900 0.38000 42.70800
H  21.76200 -0.64100 43.83300
H  24.59800 -2.63700 40.43600
H  25.94900 -2.98800 41.30300
H  27.18200 -1.43500 40.40200
H  26.08200 -0.16500 40.65200
H  19.36200 -4.47000 42.46300
H  18.47000 -4.21500 43.91900
H  18.23800 -5.76300 43.05700
H  19.92600 -9.58000 45.97200
H  18.41200 -8.97300 46.63000
H  19.90400 -8.34000 47.19300
H  24.23900 -9.71900 46.59200
H  25.52500 -8.04100 48.86000
H  23.78400 -9.16000 49.54300
H  23.44200 -10.45500 48.42000
H  22.38900 -9.04900 48.32100
H  27.31500 -9.07100 46.68900
H  26.46500 -10.36300 47.41500
H  28.91000 -9.40700 48.31400
H  27.90700 -10.53800 49.03200
H  27.80500 -8.79900 49.55800
H  30.12000 -5.20300 46.48200
H  29.25700 -4.79700 48.10400
H  30.27100 -3.61700 47.18200
H  27.79900 -1.82600 42.71700
H  27.28100 2.33000 42.15100
H  28.21000 2.52100 43.63800
H  26.53900 2.24800 43.78600

