158

Mg -1.98100 16.98000 27.23700
C  -2.51500 14.86800 29.93500
C  -2.64300 19.61500 29.18700
C  -1.85900 18.95500 24.36300
C  -2.14000 14.16300 25.03100
N  -2.46800 17.22700 29.29200
C  -2.48100 16.21400 30.24900
C  -2.63400 16.84700 31.73300
C  -2.75100 18.40800 31.44500
C  -2.73600 18.42700 29.86500
C  -4.04600 19.07300 31.94600
C  -1.51200 16.31000 32.70100
C  -1.18000 17.29300 33.86000
H  -0.41300 16.68100 35.07100
N  -2.17900 18.99300 26.84500
C  -2.41000 19.93900 27.82300
C  -2.23600 21.28500 27.22300
C  -2.02200 21.11100 25.81000
C  -1.96600 19.60400 25.60700
C  -2.44900 22.59900 28.00300
C  -1.75000 22.20500 24.84200
O  -1.42800 21.97600 23.73700
C  -1.69700 23.72800 25.26400
N  -2.09500 16.61800 25.01500
C  -1.92200 17.62300 24.07100
C  -2.05000 17.12500 22.61000
C  -1.99100 15.59100 22.81600
C  -2.04100 15.43200 24.34300
C  -3.34100 17.63300 21.81800
C  -0.69900 14.88100 22.16600
C  0.70500 15.23900 22.65300
N  -2.14500 14.90600 27.37600
C  -2.20100 13.88900 26.45600
C  -2.38700 12.66700 27.11300
C  -2.54600 12.90400 28.49200
C  -2.33900 14.31800 28.57400
C  -2.54500 11.33900 26.38900
C  -2.70900 12.33700 29.81600
O  -2.85600 11.18000 30.15500
C  -2.76900 13.61900 30.82800
C  -1.64900 13.31000 31.85000
O  -0.45900 13.57100 31.64400
O  -2.04100 12.82300 33.08800
C  -1.08400 12.75600 34.23600
H  -2.65600 20.43900 29.90300
H  -1.85600 19.63400 23.50800
H  -2.31000 13.26900 24.42900
H  -3.56300 16.42200 32.11300
H  -1.83600 18.90900 31.76300
H  -3.68900 19.91400 32.54100
H  -4.66400 18.38700 32.52400
H  -4.73600 19.46300 31.19700
H  -0.59100 16.08500 32.16500
H  -1.85300 15.44200 33.26500
H  -2.01500 17.94900 34.10500
H  -0.48500 17.98700 33.38500
H  -1.71600 23.37500 27.78100
H  -2.45300 22.35400 29.06500
H  -3.42800 22.96700 27.69600
H  -1.77000 24.39600 24.40600
H  -0.74200 23.90000 25.76000
H  -2.56300 23.97700 25.87700
H  -1.11500 17.33900 22.09200
H  -2.90700 15.14200 22.43100
H  -3.89100 18.12600 22.62000
H  -3.88800 16.79800 21.38100
H  -3.09600 18.28000 20.97500
H  -0.89800 15.12000 21.12200
H  -0.93400 13.81600 22.16100
H  0.68700 16.15700 23.24000
H  1.47400 15.25300 21.88000
H  1.08400 14.43800 23.28700
H  -2.73600 11.51100 25.33000
H  -3.21000 10.62300 26.87200
H  -1.55900 10.87500 26.38100
H  -3.66200 13.61300 31.45400
H  -0.53800 13.69800 34.30200
H  -0.33400 11.98400 34.06800
H  -1.52900 12.50300 35.19800
Mg 24.39600 -4.72900 45.64800
C  26.50700 -2.32700 44.41300
C  22.05500 -3.84600 43.06100
C  22.71800 -7.47300 46.33000
C  27.08700 -5.91000 47.77200
N  24.27500 -3.21100 43.90300
C  25.25700 -2.38300 43.67700
C  24.86900 -1.58500 42.38200
C  23.33800 -1.83200 42.25100
C  23.18200 -3.04400 43.08900
C  22.38900 -0.72000 42.78500
C  25.60300 -2.16200 41.03800
C  26.54700 -1.18200 40.42900
H  26.32700 -1.06300 38.94600
N  22.57900 -5.47600 44.89800
C  21.82800 -4.98800 43.87400
C  20.64500 -5.84200 43.81400
C  20.80200 -6.89900 44.70300
C  22.07100 -6.62700 45.39000
C  19.41800 -5.45200 42.92400
C  19.73900 -8.02200 44.91100
O  18.74900 -8.17900 44.20500
C  19.77900 -8.90400 46.16600
N  24.92900 -6.53000 46.79000
C  23.94000 -7.37000 46.94500
C  24.42800 -8.55000 47.79000
C  25.63700 -7.97800 48.54000
C  25.96200 -6.73800 47.66000
C  23.39500 -9.18100 48.84900
C  26.79700 -9.06800 48.74000
C  27.37400 -9.39000 50.11300
N  26.39200 -4.13000 46.18100
C  27.37300 -4.71500 46.99900
C  28.62600 -3.95500 46.90300
C  28.33900 -3.00000 45.85200
C  26.93900 -3.19500 45.44800
C  29.98300 -4.30700 47.66900
C  28.85100 -1.96000 45.08100
O  29.96100 -1.51300 45.07800
C  27.71000 -1.50100 44.08300
C  27.51000 -0.05000 44.31300
O  27.57300 0.51300 45.38700
O  27.50700 0.71600 43.10100
C  27.73200 2.14000 43.30000
H  21.31700 -3.68400 42.27300
H  22.17100 -8.35900 46.65800
H  27.87700 -6.07100 48.50800
H  25.21200 -0.57400 42.60000
H  23.00800 -2.01400 41.22800
H  22.96000 0.02000 43.34500
H  21.63700 -1.05700 43.49900
H  21.92600 -0.14700 41.98200
H  24.87300 -2.43900 40.27700
H  26.12500 -3.08100 41.30300
H  27.58400 -1.48800 40.56500
H  26.50000 -0.15700 40.79900
H  19.09400 -6.31300 42.33900
H  19.54100 -4.67400 42.17100
H  18.55100 -5.19100 43.53100
H  20.33700 -9.83500 46.06800
H  18.78600 -9.33200 46.30800
H  19.95400 -8.24900 47.01900
H  24.77600 -9.34300 47.12800
H  25.31000 -7.62800 49.51900
H  23.81400 -9.65400 49.73700
H  22.81000 -9.94900 48.34400
H  22.76600 -8.36800 49.21200
H  27.64300 -8.55900 48.27800
H  26.63700 -10.02400 48.24200
H  26.83000 -8.81300 50.86100
H  28.41300 -9.07100 50.20200
H  27.19700 -10.42800 50.39400
H  30.59200 -5.08200 47.20400
H  29.82100 -4.64300 48.69300
H  30.53300 -3.37600 47.81000
H  28.10400 -1.76600 43.10200
H  28.56200 2.29400 43.99000
H  26.93800 2.71500 43.77500
H  27.94000 2.57400 42.32200

