158

Mg 41.02200 8.95100 29.37600
C  42.81500 10.07000 32.11700
C  38.39400 7.94500 31.44700
C  39.33900 7.69800 26.72000
C  43.82700 9.62700 27.41900
N  40.71900 8.95400 31.56500
C  41.52300 9.61600 32.45600
C  40.77600 9.66300 33.76600
C  39.48300 8.82500 33.58600
C  39.46400 8.55600 32.07200
C  39.52200 7.47000 34.39800
C  40.49100 11.09400 34.27500
C  39.90800 11.11200 35.71500
H  40.77800 11.72900 36.70800
N  39.16500 7.89800 29.12200
C  38.14200 7.69600 30.09000
C  36.93300 7.09000 29.53800
C  37.15900 7.07000 28.09600
C  38.64800 7.54500 27.90900
C  35.70600 6.67400 30.41100
C  36.12700 6.68800 26.95700
O  36.47300 6.54800 25.77900
C  34.74500 6.51600 27.29200
N  41.54500 8.50100 27.41100
C  40.68500 8.08400 26.49100
C  41.31600 7.99000 25.07100
C  42.56800 8.99900 25.28800
C  42.66700 9.04800 26.81500
C  41.62600 6.60700 24.53700
C  42.48800 10.40000 24.70400
C  43.43100 10.78400 23.53500
N  42.90800 9.78000 29.63000
C  43.99700 9.90500 28.74500
C  45.13500 10.49200 29.40900
C  44.61100 10.65200 30.72400
C  43.34300 10.10800 30.79800
C  46.45300 10.96500 28.75100
C  45.01100 11.07500 32.02000
O  45.97600 11.71100 32.36900
C  43.86300 10.74600 32.93900
C  44.28300 9.90900 34.10100
O  44.96800 8.88700 34.12100
O  43.82700 10.40000 35.26300
C  44.23300 9.64900 36.49700
H  37.58400 7.73200 32.14700
H  38.83000 7.35500 25.81700
H  44.59600 9.88300 26.68700
H  41.52000 9.17100 34.39300
H  38.53600 9.32700 33.78800
H  39.96800 6.70500 33.76200
H  38.46600 7.40900 34.66200
H  40.01500 7.59100 35.36300
H  39.67200 11.47400 33.66500
H  41.39500 11.69000 34.15800
H  39.59100 10.09100 35.92600
H  39.03600 11.76300 35.78500
H  34.73200 6.87400 29.96400
H  35.67400 6.99400 31.45300
H  35.71200 5.59200 30.28400
H  34.62100 5.65300 27.94700
H  34.18700 6.31100 26.37900
H  34.41500 7.49800 27.63000
H  40.58900 8.45000 24.40200
H  43.49200 8.52600 24.95600
H  42.69900 6.42200 24.58200
H  41.17900 6.57600 23.54300
H  41.09400 5.82700 25.08200
H  42.50500 11.21800 25.42500
H  41.53000 10.55600 24.20800
H  43.60900 9.81600 23.06600
H  44.36100 11.12300 23.99200
H  43.02200 11.60500 22.94700
H  46.28600 12.03000 28.59400
H  46.72500 10.42400 27.84500
H  47.26800 10.69200 29.42100
H  43.36200 11.60200 33.39200
H  44.36400 8.60500 36.21300
H  43.43800 9.85800 37.21400
H  45.16200 10.01000 36.93800
Mg 16.30300 52.53800 26.78300
C  18.27300 51.14300 29.35300
C  13.73600 52.94800 28.98000
C  14.76800 53.96900 24.30100
C  18.96200 51.46800 24.58100
N  15.97400 52.02700 28.97800
C  16.94300 51.60700 29.87400
C  16.43300 51.87900 31.25600
C  14.92800 52.19900 31.10700
C  14.78900 52.29000 29.57100
C  13.98000 51.21600 31.80400
C  17.28600 53.00800 31.97800
C  17.46100 52.86000 33.51100
H  16.50000 53.60600 34.46900
N  14.45400 53.34400 26.59200
C  13.51200 53.36600 27.63700
C  12.36200 54.11500 27.22100
C  12.56200 54.39900 25.82500
C  13.99400 53.97000 25.49900
C  11.14000 54.37200 28.11000
C  11.65300 55.14900 24.82500
O  12.10100 55.55000 23.72900
C  10.29200 55.35800 25.25400
N  16.76200 52.54800 24.66800
C  16.00700 53.39500 23.92600
C  16.74200 53.64700 22.62100
C  18.05000 52.77400 22.67500
C  17.92700 52.17000 24.01600
C  15.97800 53.40000 21.25300
C  19.47400 53.45100 22.45000
C  20.43400 52.62900 21.69700
N  18.15300 51.54100 26.85000
C  19.05800 51.10100 25.87500
C  20.12500 50.28800 26.43900
C  19.90300 50.38500 27.80900
C  18.68600 51.08200 27.97000
C  21.22100 49.52000 25.77100
C  20.38100 50.04400 29.13300
O  21.31800 49.28300 29.37800
C  19.44000 50.66500 30.13800
C  19.17700 49.56900 31.18600
O  18.68300 48.49200 30.96400
O  19.50000 49.96300 32.44500
C  19.05100 49.20400 33.60500
H  13.07000 53.17700 29.81400
H  14.21800 54.55800 23.56400
H  19.66600 50.99800 23.89000
H  16.62900 50.99700 31.86500
H  14.75900 53.20900 31.48000
H  13.48900 50.54900 31.09600
H  13.19300 51.81500 32.26000
H  14.51600 50.75300 32.63400
H  16.75000 53.94700 31.84100
H  18.22200 53.11200 31.43000
H  18.44800 53.21000 33.81400
H  17.42200 51.80600 33.78400
H  10.32000 53.88200 27.58400
H  10.98300 55.41800 28.37500
H  11.34500 54.00400 29.11500
H  10.15600 55.90200 26.18900
H  9.80600 54.38600 25.33600
H  9.84500 55.79900 24.36300
H  16.98400 54.70600 22.53700
H  17.96600 51.93600 21.98300
H  16.35200 52.57900 20.64100
H  16.02300 54.28000 20.61100
H  14.92600 53.18500 21.44000
H  19.86800 53.79900 23.40500
H  19.43000 54.41300 21.94000
H  19.95900 51.84700 21.10500
H  21.16500 52.26400 22.41800
H  21.05800 53.08900 20.93200
H  21.64000 49.97800 24.87600
H  20.70300 48.60600 25.47900
H  21.97100 49.39100 26.55100
H  19.92400 51.53100 30.59100
H  17.99800 49.45300 33.73400
H  19.49400 49.54500 34.54100
H  18.97400 48.11800 33.54500

