158

Mg 2.40200 -2.00000 44.35300
C  5.79800 -0.91300 44.03500
C  1.44000 0.74900 42.46700
C  -0.61000 -3.21100 44.18800
C  3.66200 -5.04100 45.61100
N  3.49900 -0.24100 43.39800
C  4.83700 -0.01500 43.44700
C  5.22100 1.25500 42.56500
C  3.79200 1.80700 42.31200
C  2.82100 0.75500 42.81300
C  3.36100 3.22800 42.73500
C  6.02700 0.85400 41.24500
C  7.13200 1.88500 40.80700
H  6.56300 3.08700 39.99100
N  0.57700 -1.22500 43.55200
C  0.37900 -0.12300 42.82500
C  -1.01300 0.05100 42.47200
C  -1.66800 -1.09900 43.10700
C  -0.59000 -1.93600 43.65700
C  -1.55800 1.31700 41.79900
C  -3.17200 -1.38900 43.01300
O  -3.90200 -0.62400 42.34500
C  -3.81300 -2.32600 43.86700
N  1.68200 -3.79000 44.85300
C  0.33600 -4.08400 44.73700
C  0.01200 -5.53900 45.10300
C  1.41500 -6.02700 45.63900
C  2.33500 -4.88500 45.33600
C  -1.17300 -5.62800 46.10300
C  1.97600 -7.28200 44.90200
C  2.56800 -8.44900 45.76400
N  4.31800 -2.87200 44.82000
C  4.62900 -4.09500 45.35000
C  6.08200 -4.03100 45.69900
C  6.56900 -2.80300 45.22600
C  5.48600 -2.14000 44.62000
C  6.87300 -5.23400 46.30200
C  7.74400 -1.96600 45.03700
O  8.88600 -2.11300 45.37300
C  7.34400 -0.74200 44.16100
C  7.64600 0.48800 44.92800
O  7.31900 0.72700 46.09100
O  8.37300 1.37500 44.14700
C  8.81200 2.62900 44.74900
H  1.18200 1.62600 41.87000
H  -1.60800 -3.65100 44.23200
H  4.06600 -5.91800 46.11900
H  5.91200 1.89400 43.11400
H  3.61000 1.69600 41.24300
H  4.23300 3.78300 43.08200
H  2.74600 3.28400 43.63200
H  2.92800 3.76100 41.88800
H  5.33300 0.73000 40.41400
H  6.68000 -0.01400 41.33800
H  7.95000 1.29700 40.39100
H  7.54700 2.34000 41.70600
H  -1.74900 1.05100 40.76000
H  -0.94600 2.21200 41.90100
H  -2.51800 1.66400 42.18100
H  -4.87300 -2.14600 43.68600
H  -3.46800 -2.37300 44.90000
H  -3.52400 -3.35000 43.63400
H  -0.21500 -6.08700 44.18800
H  1.46900 -6.20700 46.71200
H  -0.95800 -5.09300 47.02700
H  -1.29100 -6.64200 46.48400
H  -2.09100 -5.32200 45.60100
H  2.62700 -6.79100 44.17800
H  1.16500 -7.75000 44.34500
H  3.64100 -8.57500 45.61700
H  2.19500 -9.46300 45.62000
H  2.38500 -8.35000 46.83400
H  6.79000 -6.12300 45.67700
H  6.57300 -5.26800 47.34900
H  7.92200 -4.93800 46.31100
H  7.83000 -0.67800 43.18800
H  9.62200 2.90300 44.07400
H  9.35700 2.42400 45.67100
H  8.23100 3.51500 45.00600
Mg -11.84900 15.65300 42.03300
C  -8.92400 13.81800 41.94400
C  -10.13900 18.29000 40.69100
C  -14.78700 17.23300 40.94800
C  -13.64500 12.76100 42.74100
N  -9.73600 15.97300 41.37900
C  -8.70600 15.09900 41.49000
C  -7.44900 15.63100 40.86600
C  -7.82600 17.12400 40.82000
C  -9.31100 17.16700 40.97000
C  -7.08100 17.97600 41.88600
C  -7.24300 14.93200 39.46200
C  -5.87400 14.38500 39.16400
H  -5.08800 14.80900 38.00700
N  -12.37400 17.50500 41.10500
C  -11.50100 18.44300 40.73100
C  -12.17100 19.63100 40.20600
C  -13.54500 19.26700 40.06000
C  -13.62600 17.92500 40.69500
C  -11.41000 20.89600 39.84600
C  -14.54100 19.94400 39.18000
O  -14.34500 21.02400 38.61600
C  -15.80800 19.13200 38.76800
N  -13.93300 15.11700 41.90000
C  -15.01800 15.94900 41.51700
C  -16.35200 15.17800 41.51100
C  -15.92100 13.76300 41.98300
C  -14.37500 13.86400 42.18400
C  -17.45900 15.84100 42.39100
C  -16.36600 12.60600 41.10700
C  -17.84200 12.14500 41.42700
N  -11.44500 13.67900 42.49000
C  -12.23600 12.60900 42.82900
C  -11.41800 11.49500 43.10500
C  -10.09700 11.87100 42.71000
C  -10.15700 13.25200 42.33400
C  -11.93900 10.07200 43.54100
C  -8.66300 11.46600 42.72900
O  -8.10300 10.53000 43.18400
C  -7.87600 12.71100 42.13600
C  -6.80100 13.12300 43.02600
O  -6.97000 13.40600 44.21000
O  -5.60400 13.28700 42.38200
C  -4.62000 14.15200 43.11400
H  -9.61000 19.21800 40.46300
H  -15.70300 17.78300 40.72100
H  -14.24300 11.86900 42.94200
H  -6.61700 15.48200 41.55500
H  -7.61900 17.56200 39.84300
H  -6.42600 17.38900 42.53000
H  -7.86000 18.54400 42.39500
H  -6.44200 18.70600 41.38900
H  -7.42600 15.57900 38.60400
H  -8.01400 14.16400 39.39100
H  -5.84600 13.30100 39.06200
H  -5.19100 14.60400 39.98500
H  -12.02600 21.76600 39.62000
H  -10.75300 20.77700 38.98500
H  -10.69000 21.21800 40.59900
H  -15.57800 18.08800 38.55000
H  -15.90700 19.44500 37.72800
H  -16.70300 19.42500 39.31700
H  -16.73500 15.12700 40.49200
H  -16.29600 13.53000 42.97900
H  -18.37200 15.82000 41.79600
H  -17.12600 16.82600 42.71700
H  -17.64200 15.27000 43.30100
H  -15.87100 11.67800 41.39300
H  -16.26300 12.79400 40.03800
H  -17.87300 11.51000 42.31300
H  -18.45000 11.67800 40.65200
H  -18.33600 13.06500 41.73800
H  -11.90500 9.32200 42.75200
H  -12.97800 10.16000 43.86000
H  -11.31000 9.79200 44.38600
H  -7.55800 12.31500 41.17200
H  -3.83200 13.55100 43.56800
H  -4.98600 14.88900 43.82800
H  -4.01700 14.64700 42.35200

