158

Mg 50.68200 47.28400 43.70300
C  47.46900 47.57400 42.19100
C  50.90100 44.10400 42.25100
C  53.79100 47.22900 44.51800
C  50.67500 50.80700 44.10600
N  49.42000 46.09900 42.18300
C  48.06000 46.32200 41.97500
C  47.25300 45.17100 41.28100
C  48.41600 44.11200 41.38700
C  49.64100 44.78200 42.02600
C  47.94700 42.75100 42.04100
C  46.81700 45.61900 39.83700
C  45.38200 45.25500 39.42000
H  45.25200 44.13400 38.34400
N  52.23000 45.89200 43.40000
C  52.09400 44.60500 42.90800
C  53.42100 43.89400 43.05400
C  54.27800 44.86500 43.70600
C  53.48300 46.07300 43.88900
C  53.71700 42.53100 42.49700
C  55.81100 44.65700 44.00500
O  56.35900 43.61100 43.68700
C  56.65700 45.80100 44.46900
N  51.97700 48.86600 44.13100
C  53.16000 48.45800 44.66500
C  53.88700 49.62000 45.47900
C  53.01600 50.85800 45.12300
C  51.82300 50.14500 44.39700
C  53.95000 49.39100 47.01800
C  53.61000 51.93400 44.10200
C  53.09900 53.34800 44.34000
N  49.30300 48.86000 43.49200
C  49.46600 50.23400 43.61100
C  48.23000 50.86700 43.28000
C  47.44900 49.88100 42.71000
C  48.15700 48.71200 42.80500
C  48.00000 52.35900 43.38500
C  46.14900 49.65000 42.18700
O  45.20600 50.42400 42.05900
C  46.09400 48.14300 41.82100
C  44.99200 47.53200 42.60400
O  44.91900 47.42500 43.79100
O  44.00400 47.15500 41.67000
C  42.69400 46.62000 42.21600
H  51.08800 43.06600 41.97000
H  54.68800 47.24900 45.14000
H  50.67600 51.83700 44.46800
H  46.44200 44.96500 41.98000
H  48.69000 43.83800 40.36800
H  46.92800 42.41700 41.84700
H  48.14400 42.78700 43.11200
H  48.56900 41.87200 41.87200
H  47.31500 44.97300 39.11400
H  47.03300 46.64800 39.54900
H  44.87600 46.14800 39.05200
H  44.89900 44.97000 40.35500
H  54.38500 41.91300 43.09700
H  54.14500 42.66000 41.50300
H  52.82900 41.90900 42.37900
H  57.68900 45.54400 44.70800
H  56.33700 45.95100 45.50000
H  56.52200 46.65500 43.80500
H  54.90000 49.76900 45.10700
H  52.70900 51.39800 46.01900
H  54.87500 48.85200 47.22100
H  53.00800 48.90900 47.28000
H  54.05400 50.34300 47.53800
H  53.38800 51.81500 43.04200
H  54.69500 51.88500 44.19400
H  52.37700 53.46900 45.14700
H  52.74400 53.78200 43.40500
H  53.80600 54.08500 44.72100
H  46.91800 52.49300 43.41700
H  48.49500 53.04200 42.69400
H  48.35800 52.75300 44.33600
H  45.93400 48.10500 40.74400
H  42.34200 45.88700 41.49000
H  42.02000 47.46500 42.36400
H  42.74800 46.14000 43.19300
Mg 6.41700 55.52700 40.85100
C  5.06500 52.19800 40.48800
C  9.27400 54.45800 39.43500
C  7.52900 58.74200 40.82200
C  3.29100 56.58200 41.76200
N  6.91200 53.66800 39.79000
C  6.32000 52.41500 39.87800
C  7.10900 51.46400 39.01900
C  8.56100 51.98400 39.22900
C  8.25100 53.44600 39.55400
C  9.53900 51.40900 40.28700
C  6.55800 51.75500 37.57300
C  6.52500 50.45700 36.71700
H  6.09200 50.77800 35.28600
N  8.21100 56.50100 40.28900
C  9.25200 55.83800 39.71100
C  10.31700 56.82300 39.45100
C  9.91800 58.09300 39.98300
C  8.51200 57.84700 40.35000
C  11.69000 56.45500 38.91700
C  10.68700 59.39100 40.17100
O  11.80600 59.45200 39.69800
C  10.17700 60.60600 40.90000
N  5.54900 57.47600 41.12200
C  6.20700 58.61400 41.26000
C  5.23800 59.79900 41.60200
C  3.84300 59.09500 41.81500
C  4.24600 57.63600 41.58300
C  5.68400 60.51600 42.82300
C  2.67400 59.61200 40.91800
C  1.49900 60.35200 41.66700
N  4.42300 54.62100 41.09400
C  3.32000 55.16900 41.54500
C  2.34400 54.13300 41.67500
C  2.87300 52.92000 41.31100
C  4.21300 53.24100 40.99400
C  0.85400 54.41800 42.03400
C  2.79900 51.45200 41.16700
O  1.92700 50.66000 41.48900
C  4.26500 50.96200 40.66900
C  4.26200 50.04600 39.54000
O  3.60700 50.24500 38.53700
O  4.91900 48.91800 39.77400
C  4.76000 47.84600 38.80500
H  10.26200 54.12600 39.10900
H  7.84900 59.78600 40.81700
H  2.35400 57.05600 42.06200
H  6.92800 50.42800 39.30400
H  9.00500 51.90800 38.23600
H  9.14500 50.55200 40.83200
H  9.76400 52.20200 41.00100
H  10.48700 51.26900 39.76700
H  7.15500 52.53400 37.09900
H  5.54900 52.16400 37.63200
H  5.92700 49.62800 37.09700
H  7.55500 50.10300 36.76600
H  12.07600 57.33400 38.40100
H  11.46100 55.73800 38.12900
H  12.41300 56.06500 39.63400
H  10.95900 61.30500 41.19600
H  9.77800 60.24200 41.84700
H  9.37200 61.05900 40.32000
H  5.18800 60.51500 40.78200
H  3.50200 59.18900 42.84600
H  4.89400 60.93800 43.44300
H  6.22100 61.41300 42.51500
H  6.29000 59.90600 43.49300
H  2.27100 58.77300 40.35100
H  3.00000 60.26300 40.10700
H  1.11800 61.17200 41.05800
H  1.89700 60.73200 42.60800
H  0.66000 59.69100 41.88900
H  0.74100 55.13300 42.84800
H  0.44900 53.50900 42.47900
H  0.19500 54.63500 41.19400
H  4.53300 50.44100 41.58800
H  5.77100 47.55100 38.52500
H  4.37200 48.24900 37.86900
H  4.06000 47.17100 39.29700

