158

Mg 40.50500 9.67500 30.62600
C  42.48200 11.06800 33.19700
C  38.40200 8.38400 33.00500
C  38.82300 8.31100 28.10100
C  43.09900 10.67900 28.33500
N  40.42700 9.80300 32.76100
C  41.30700 10.41500 33.63600
C  40.80800 10.33800 35.10100
C  39.46600 9.55600 35.04400
C  39.42000 9.21900 33.54000
C  39.50600 8.31600 36.02200
C  40.55000 11.75300 35.82300
C  41.18600 11.82800 37.24100
H  40.51000 12.54100 38.35200
N  38.85100 8.59200 30.53700
C  38.11000 8.15500 31.64700
C  36.97600 7.36600 31.17300
C  36.97700 7.48900 29.73800
C  38.30700 8.13800 29.41800
C  36.07300 6.67900 32.14600
C  35.95500 6.95400 28.75500
O  36.04600 6.94300 27.50000
C  34.62800 6.40900 29.31000
N  40.98700 9.34700 28.57400
C  40.04000 8.87000 27.66600
C  40.52700 9.07100 26.20800
C  41.89100 9.84700 26.31700
C  42.02200 9.95200 27.83500
C  40.50000 7.85500 25.29500
C  41.99400 11.06900 25.49300
C  41.06600 12.18200 25.89200
N  42.40700 10.62600 30.65100
C  43.32100 10.89200 29.68000
C  44.44300 11.60800 30.31100
C  44.20700 11.66300 31.64500
C  42.90900 11.09600 31.79500
C  45.56200 12.33000 29.71200
C  44.60600 12.21200 32.98900
O  45.57400 12.90100 33.31500
C  43.53600 11.78500 33.98100
C  44.17100 10.99900 34.99500
O  44.36000 9.82300 35.03100
O  44.52400 11.78900 36.03100
C  45.38500 11.22800 37.02000
H  37.63200 8.08500 33.72000
H  38.19300 7.81500 27.36000
H  43.76800 11.23700 27.67600
H  41.57900 9.75200 35.60100
H  38.68600 10.27000 35.30900
H  39.66700 7.37300 35.50000
H  38.56900 8.34100 36.57800
H  40.36800 8.39000 36.68500
H  39.51700 12.02300 36.04400
H  41.00000 12.51400 35.18500
H  42.21300 12.16000 37.08900
H  41.34000 10.85000 37.69600
H  35.48700 5.85800 31.73300
H  35.40100 7.41000 32.59600
H  36.74700 6.26400 32.89600
H  33.86500 6.35400 28.53300
H  34.39300 7.26400 29.94500
H  34.74200 5.53200 29.94800
H  39.87100 9.74300 25.65600
H  42.65000 9.14900 25.96400
H  40.14200 6.94600 25.77900
H  41.45800 7.58500 24.85100
H  39.75600 8.10100 24.53700
H  41.89000 10.92200 24.41800
H  43.04100 11.37100 25.53000
H  40.45700 11.73900 26.67900
H  40.26400 12.25400 25.15800
H  41.39300 13.17600 26.19600
H  46.45600 11.97600 30.22600
H  45.36500 13.39600 29.82700
H  45.73900 12.13600 28.65400
H  43.00800 12.60900 34.46100
H  44.86700 10.40200 37.50800
H  45.60000 12.05000 37.70300
H  46.35200 11.00800 36.56800
Mg 50.22300 44.88100 42.38500
C  47.01900 45.44900 40.66400
C  50.05300 41.54300 41.31200
C  53.57000 44.36900 42.93300
C  50.61400 48.18000 42.73800
N  48.74600 43.69600 41.06500
C  47.48600 44.12800 40.57200
C  46.68800 42.88400 40.17000
C  47.56100 41.59900 40.48000
C  48.85900 42.29700 41.06200
C  46.78500 40.49200 41.32000
C  46.11000 42.92600 38.69300
C  46.83700 43.65200 37.51000
H  47.20500 42.82700 36.26100
N  51.63800 43.18600 42.27100
C  51.34100 41.96800 41.71000
C  52.57500 41.16600 41.60600
C  53.59800 41.93300 42.18900
C  52.95300 43.25900 42.44500
C  52.61400 39.80300 41.13000
C  55.06500 41.51500 42.40200
O  55.35400 40.36100 42.19100
C  56.13000 42.46000 42.78900
N  51.80000 46.08000 42.94200
C  53.03900 45.62900 43.28200
C  53.98700 46.83700 43.52900
C  52.99400 47.99100 43.79700
C  51.72800 47.42400 43.12200
C  55.02900 46.67800 44.64300
C  53.49900 49.36500 43.27100
C  53.46400 50.38700 44.34700
N  48.95700 46.50800 42.01000
C  49.29600 47.80500 42.17700
C  48.17000 48.59900 41.90200
C  47.23900 47.78900 41.27400
C  47.77900 46.47800 41.30200
C  48.14000 50.15000 42.03800
C  45.91300 47.69000 40.70900
O  45.00700 48.50100 40.58400
C  45.77800 46.10000 40.18100
C  44.47000 45.53100 40.68400
O  43.53200 45.24400 39.98100
O  44.32000 45.63900 42.06100
C  43.14700 45.03700 42.65700
H  50.01800 40.46900 41.11900
H  54.64000 44.29900 43.14300
H  50.77400 49.25900 42.77700
H  45.82800 42.88500 40.84100
H  47.93700 41.15100 39.56100
H  45.90900 40.80400 41.88900
H  47.46700 40.16700 42.10600
H  46.43300 39.68000 40.68400
H  45.03300 43.08800 38.63100
H  46.10900 41.88300 38.37500
H  47.69500 44.24200 37.83200
H  46.19100 44.42800 37.10000
H  53.47400 39.61700 40.48700
H  51.67400 39.54600 40.64400
H  52.66900 39.07500 41.93900
H  56.11300 43.35200 42.16400
H  57.12300 42.01000 42.78600
H  55.89000 42.66500 43.83200
H  54.43200 46.95900 42.54200
H  52.88300 47.94800 44.88100
H  54.80400 45.73900 45.15000
H  54.98400 47.44200 45.42000
H  56.01200 46.61300 44.17600
H  52.98900 49.58700 42.33400
H  54.52300 49.15200 42.96300
H  52.77500 49.93500 45.06100
H  53.00800 51.33500 44.06400
H  54.47700 50.61300 44.68000
H  47.43000 50.54300 41.31000
H  49.11900 50.61300 41.91300
H  47.73200 50.35500 43.02800
H  45.82600 46.03800 39.09400
H  43.11100 45.27800 43.72000
H  43.10800 43.97000 42.44200
H  42.22000 45.46400 42.27600

