158

Mg 24.79400 -4.49900 46.14300
C  26.90200 -2.28400 44.48000
C  22.35500 -3.79100 43.72400
C  22.98300 -7.16900 47.15200
C  27.52600 -5.75900 47.99400
N  24.65600 -3.18700 44.39000
C  25.60300 -2.37000 43.91300
C  25.13600 -1.49600 42.75200
C  23.60400 -1.74200 42.86200
C  23.47000 -2.99200 43.68500
C  22.73500 -0.68500 43.50500
C  25.76600 -1.87700 41.41800
C  26.32500 -0.74700 40.40600
H  26.26200 -1.15100 38.93800
N  22.94400 -5.33600 45.56900
C  22.09700 -4.91900 44.54700
C  20.89800 -5.67300 44.55800
C  21.03800 -6.75300 45.50600
C  22.34300 -6.48900 46.11100
C  19.80300 -5.44800 43.65000
C  19.98400 -7.83700 45.79800
O  19.00400 -8.04300 45.07100
C  20.17400 -8.91200 46.81100
N  25.24600 -6.37500 47.32800
C  24.25900 -7.16500 47.76800
C  24.78000 -8.22600 48.75800
C  26.26700 -7.78500 49.04600
C  26.41700 -6.60400 48.01000
C  23.90900 -8.55400 50.00100
C  27.31000 -8.91300 48.94500
C  28.45200 -8.79500 49.96500
N  26.76600 -4.10600 46.35700
C  27.73800 -4.61900 47.20500
C  28.94400 -3.87300 47.06900
C  28.72100 -3.04500 45.98800
C  27.38600 -3.15600 45.58100
C  30.30300 -4.13600 47.64300
C  29.30200 -2.06600 45.15000
O  30.41600 -1.62600 45.19300
C  28.24700 -1.54500 44.09600
C  28.12600 -0.07600 44.24100
O  27.43100 0.40600 45.09700
O  28.83300 0.56800 43.30500
C  28.91400 2.02900 43.39600
H  21.55100 -3.42400 43.08200
H  22.52700 -8.08900 47.52400
H  28.25400 -5.89400 48.79700
H  25.34000 -0.45400 42.99600
H  23.08500 -1.96200 41.92900
H  21.91700 -0.39900 42.84400
H  23.24400 0.24000 43.77500
H  22.31700 -1.09200 44.42600
H  25.06100 -2.41800 40.78600
H  26.64800 -2.48300 41.62400
H  27.36600 -0.52500 40.64400
H  25.69200 0.12500 40.57100
H  18.88700 -5.05400 44.08800
H  19.49700 -6.33300 43.09200
H  20.07600 -4.81800 42.80300
H  19.36100 -9.63700 46.76600
H  20.42500 -8.59000 47.82200
H  21.08800 -9.42000 46.50500
H  24.81500 -9.18800 48.24700
H  26.23700 -7.31800 50.03000
H  23.39200 -7.64400 50.30500
H  24.54300 -8.82200 50.84600
H  23.20500 -9.35900 49.79000
H  27.79400 -8.88400 47.96900
H  26.82300 -9.88600 49.01100
H  28.48500 -7.97100 50.67800
H  29.40600 -8.64600 49.46000
H  28.53100 -9.74100 50.50200
H  30.90300 -4.79700 47.01700
H  30.21200 -4.68300 48.58200
H  30.74300 -3.16600 47.87400
H  28.70900 -1.73000 43.12600
H  28.84300 2.56400 42.44900
H  29.75800 2.30700 44.02800
H  28.08800 2.28100 44.06100
Mg 49.21800 35.54600 27.72700
C  46.63600 34.19400 29.85400
C  49.42700 38.12500 29.96800
C  50.97400 37.20600 25.38400
C  48.21700 33.07100 25.35200
N  48.23700 35.95800 29.83700
C  47.28300 35.30500 30.49200
C  46.88100 36.06200 31.79100
C  47.60400 37.42300 31.62800
C  48.45000 37.20700 30.39000
C  46.67300 38.61100 31.56000
C  47.42000 35.38100 33.07400
C  48.64300 34.49900 33.11900
H  49.92800 35.20000 33.60400
N  50.24700 37.28800 27.72000
C  50.30200 38.15600 28.76600
C  51.22100 39.20900 28.42600
C  51.59200 39.03600 27.08400
C  50.94700 37.76400 26.63500
C  51.45200 40.44500 29.31000
C  52.26900 39.91200 26.04300
O  52.41400 39.68100 24.85700
C  52.62100 41.37000 26.47400
N  49.35600 35.26000 25.64200
C  50.25600 36.09500 24.90600
C  50.49500 35.52900 23.53600
C  49.79600 34.14200 23.54200
C  49.07100 34.12000 24.91400
C  49.93400 36.39000 22.45400
C  50.67300 32.89000 23.30100
C  50.61200 32.28400 21.86600
N  47.80500 33.94000 27.60000
C  47.57700 33.00900 26.57200
C  46.54400 32.09700 26.98500
C  46.15800 32.50900 28.27700
C  46.92700 33.63900 28.58600
C  46.02400 30.91600 26.18600
C  45.21400 32.20100 29.36600
O  44.42700 31.22400 29.47200
C  45.46600 33.36800 30.46500
C  46.04900 32.63600 31.56400
O  47.05800 31.82000 31.60500
O  45.17600 32.88100 32.58700
C  45.39900 32.14900 33.82400
H  49.63700 38.97800 30.61600
H  51.52100 37.65300 24.55100
H  47.89000 32.27200 24.68400
H  45.79500 36.11900 31.86000
H  48.28200 37.58100 32.46700
H  45.62700 38.30600 31.54900
H  46.90700 39.18000 30.66000
H  46.69200 39.23100 32.45600
H  46.66500 34.71700 33.49400
H  47.50400 36.22600 33.75800
H  48.93400 34.09900 32.14800
H  48.42600 33.67800 33.80300
H  52.50400 40.70200 29.43500
H  50.80000 40.45400 30.18400
H  51.00100 41.25700 28.74000
H  51.73300 42.00100 26.43700
H  53.38000 41.55300 25.71400
H  53.15000 41.42200 27.42500
H  51.57600 35.50500 23.40500
H  49.03400 34.10400 22.76400
H  50.69600 37.09200 22.11700
H  49.03400 36.91800 22.76700
H  49.65700 35.79400 21.58500
H  50.22400 32.20700 24.02200
H  51.71200 33.14500 23.50800
H  50.70400 31.22200 22.09700
H  51.47400 32.56800 21.26100
H  49.75700 32.59100 21.26400
H  45.28400 30.32600 26.72700
H  46.93800 30.34600 26.02200
H  45.59000 31.29900 25.26200
H  44.67400 34.10200 30.61600
H  45.64600 31.08900 33.77300
H  44.42100 32.13300 34.30400
H  46.19000 32.62900 34.40200

