158

Mg 2.39600 -2.19200 44.18500
C  5.91400 -1.55100 43.80000
C  1.71500 0.48300 42.17400
C  -0.66900 -3.45600 43.65600
C  3.33600 -5.32200 45.61000
N  3.74800 -0.83400 43.04900
C  5.11400 -0.65800 43.11400
C  5.48200 0.55500 42.33200
C  4.04700 1.40300 42.10900
C  3.08100 0.25500 42.44200
C  3.85600 2.62400 43.13100
C  6.18500 0.09000 40.99700
C  7.50600 0.83400 40.64600
H  7.46000 1.69100 39.33900
N  0.71500 -1.44100 43.13700
C  0.63700 -0.29300 42.42700
C  -0.67600 -0.13600 41.99600
C  -1.49700 -1.23500 42.41600
C  -0.51600 -2.12600 43.10700
C  -1.12900 1.02200 41.18500
C  -2.89900 -1.50900 42.03700
O  -3.52900 -0.71000 41.37000
C  -3.69300 -2.74800 42.48100
N  1.51500 -4.08700 44.41200
C  0.22700 -4.38700 44.19000
C  -0.22500 -5.82900 44.61800
C  1.13500 -6.43600 45.07300
C  2.03400 -5.21900 45.12600
C  -1.22000 -5.94600 45.84900
C  1.70200 -7.69200 44.23400
C  1.61400 -9.09400 45.01300
N  4.23400 -3.15400 44.86400
C  4.45200 -4.43300 45.44900
C  5.83100 -4.53000 45.86900
C  6.43900 -3.45100 45.27400
C  5.40600 -2.63300 44.62000
C  6.52800 -5.65600 46.64300
C  7.70700 -2.67500 45.07100
O  8.83300 -2.90000 45.51100
C  7.37300 -1.38900 44.11700
C  7.70800 -0.12600 44.86000
O  7.07900 0.16700 45.83100
O  8.69600 0.60500 44.33100
C  9.00700 1.88900 44.94600
H  1.71300 1.49800 41.76900
H  -1.65100 -3.93000 43.59100
H  3.62600 -6.28900 46.02600
H  6.21700 1.08400 42.93900
H  4.01500 1.69700 41.06000
H  2.88400 2.71000 43.61600
H  3.99500 3.56000 42.59000
H  4.55500 2.62200 43.96600
H  5.37100 0.19800 40.28000
H  6.29500 -0.99300 41.04600
H  8.31100 0.10000 40.61300
H  7.76000 1.60100 41.37800
H  -1.66500 0.76100 40.27200
H  -0.24900 1.58300 40.87200
H  -1.64000 1.72600 41.84100
H  -4.74200 -2.64600 42.20600
H  -3.58300 -2.80300 43.56500
H  -3.29100 -3.60200 41.93500
H  -0.58000 -6.42600 43.77800
H  1.11500 -6.85100 46.08000
H  -1.37700 -5.03100 46.42100
H  -0.90100 -6.76500 46.49400
H  -2.20100 -6.30300 45.53500
H  2.73900 -7.63500 43.90300
H  1.16300 -7.84700 43.30000
H  1.01000 -8.92600 45.90500
H  2.56900 -9.43300 45.41500
H  1.16000 -9.86000 44.38500
H  7.61200 -5.54400 46.68500
H  6.38300 -6.62000 46.15600
H  6.33400 -5.72700 47.71300
H  7.94400 -1.31800 43.19200
H  8.10300 2.42500 45.23600
H  9.58300 2.43500 44.19900
H  9.64200 1.72800 45.81700
Mg 6.87800 54.38200 40.25500
C  7.02100 50.72400 39.70000
C  10.15000 54.42800 39.61700
C  6.60000 57.70000 40.43900
C  3.37100 53.92700 40.43000
N  8.46100 52.67700 39.43000
C  8.27000 51.34800 39.42700
C  9.60500 50.70000 39.11100
C  10.66500 51.84700 39.49600
C  9.72100 53.08500 39.44900
C  11.42800 51.68300 40.85200
C  9.78300 50.29200 37.65800
C  9.31800 51.18200 36.51000
H  7.83700 51.11300 36.09900
N  8.21500 55.85600 40.03100
C  9.53400 55.67400 39.71600
C  10.18500 57.00500 39.81100
C  9.18700 57.91900 40.12600
C  7.90300 57.20600 40.18900
C  11.60600 57.24000 39.64000
C  9.42900 59.42700 40.40100
O  10.55500 59.91700 40.40700
C  8.27200 60.30600 40.72800
N  5.21300 55.63400 40.18800
C  5.36100 56.92100 40.54800
C  4.02200 57.60200 40.93300
C  2.99000 56.48300 40.71100
C  3.91000 55.23700 40.46300
C  4.01100 58.42400 42.34100
C  2.10300 56.76400 39.55300
C  0.60500 56.44300 39.83200
N  5.41700 52.71200 40.12900
C  4.09300 52.73200 40.26500
C  3.61200 51.38200 40.37000
C  4.75500 50.55300 40.23900
C  5.83500 51.40200 39.99800
C  2.30400 50.92200 40.70000
C  5.24400 49.24600 40.30700
O  4.62400 48.26100 40.70000
C  6.67500 49.24200 39.72600
C  6.61100 48.60000 38.24400
O  5.66400 48.63900 37.48800
O  7.74800 47.75500 38.00600
C  7.76000 47.06500 36.68200
H  11.22300 54.43500 39.41400
H  6.40900 58.72200 40.77200
H  2.28600 53.80500 40.43800
H  9.63700 49.82300 39.75700
H  11.37200 52.11800 38.71300
H  11.59500 52.62000 41.38300
H  12.39000 51.36100 40.45400
H  11.00900 50.84800 41.41200
H  9.36300 49.31400 37.42200
H  10.86600 50.18300 37.58800
H  9.83000 50.82800 35.61500
H  9.60600 52.22400 36.64900
H  11.66600 58.14300 39.03300
H  12.06200 56.38800 39.13600
H  12.12400 57.33300 40.59500
H  8.59000 61.28000 41.09800
H  7.87200 59.92300 41.66700
H  7.55200 60.39600 39.91400
H  3.98100 58.43200 40.22600
H  2.47500 56.22100 41.63500
H  3.62600 59.44100 42.26100
H  5.04800 58.43700 42.67800
H  3.45700 57.95400 43.15300
H  2.40400 56.17500 38.68700
H  2.22400 57.78100 39.18100
H  0.51400 55.89600 40.77100
H  0.09700 55.95400 39.00200
H  0.10000 57.40200 39.94600
H  1.89800 50.73900 39.70600
H  1.78400 51.74300 41.19400
H  2.33000 50.01900 41.31100
H  7.36700 48.68700 40.35900
H  8.02600 46.02000 36.83800
H  8.57500 47.54200 36.13700
H  6.84300 47.25400 36.12300

