158

Mg -2.53600 18.09100 26.23100
C  -2.87300 15.92900 28.88100
C  -3.32100 20.68400 28.28500
C  -2.73200 20.16500 23.53500
C  -2.35100 15.27600 24.03300
N  -3.12400 18.28000 28.36200
C  -3.17100 17.20700 29.29300
C  -3.43300 17.71200 30.75900
C  -3.45300 19.29600 30.46800
C  -3.33800 19.47400 28.92100
C  -4.72400 20.00000 31.01400
C  -2.40100 17.21800 31.75000
C  -2.29700 17.82700 33.16300
H  -2.13000 16.90100 34.40500
N  -2.85500 20.19900 25.90500
C  -3.12900 21.02700 26.92900
C  -3.21600 22.35800 26.35600
C  -3.39900 22.19600 24.95900
C  -2.94700 20.81300 24.71900
C  -3.36000 23.56900 27.23300
C  -3.73600 23.22400 23.96600
O  -3.73900 22.88000 22.80700
C  -4.08000 24.64300 24.27600
N  -2.41400 17.76600 24.07400
C  -2.42200 18.80400 23.19200
C  -2.54400 18.36000 21.74000
C  -2.47000 16.77300 21.89300
C  -2.45900 16.55700 23.44100
C  -3.73200 18.91900 20.92500
C  -1.30200 16.20700 21.03300
C  -1.71400 15.82700 19.64100
N  -2.48600 16.07400 26.36600
C  -2.36800 15.08600 25.40600
C  -2.12400 13.81700 26.13100
C  -2.42600 14.09000 27.50900
C  -2.57900 15.45100 27.55600
C  -1.83300 12.45300 25.48800
C  -2.60300 13.52200 28.80600
O  -2.63300 12.37500 29.15200
C  -2.70900 14.68700 29.78100
C  -1.39300 14.65500 30.45500
O  -0.34000 15.14400 30.00200
O  -1.48900 14.03600 31.62900
C  -0.24000 13.71000 32.34500
H  -3.49100 21.45300 29.04100
H  -2.76100 20.77100 22.62700
H  -2.28100 14.39900 23.38600
H  -4.43300 17.42200 31.08200
H  -2.58200 19.77100 30.91800
H  -5.38000 19.29800 31.52900
H  -5.40000 20.38100 30.24900
H  -4.33200 20.74400 31.70800
H  -1.39100 17.18000 31.34000
H  -2.81100 16.26100 32.07200
H  -3.16200 18.47500 33.30700
H  -1.43100 18.49000 33.16800
H  -4.39400 23.72900 27.54000
H  -3.00900 24.49100 26.76900
H  -2.68300 23.44600 28.07800
H  -4.20400 25.13600 23.31200
H  -3.17700 25.13800 24.63400
H  -4.92000 24.91500 24.91500
H  -1.60400 18.61000 21.24900
H  -3.45800 16.51100 21.51400
H  -3.30000 19.33100 20.01300
H  -4.26300 19.65400 21.52900
H  -4.43800 18.15400 20.60000
H  -1.04200 15.30400 21.58500
H  -0.50500 16.94700 20.96400
H  -1.28800 14.84400 19.43900
H  -1.16600 16.48500 18.96600
H  -2.78200 15.88000 19.43000
H  -1.08800 12.62900 24.71200
H  -2.72900 11.93800 25.14200
H  -1.41400 11.91700 26.34100
H  -3.55800 14.51100 30.44200
H  -0.40100 12.63200 32.36800
H  -0.28200 14.24100 33.29600
H  0.70700 13.83600 31.82100
Mg 48.70700 34.00500 26.57900
C  47.17300 32.69400 29.47200
C  49.13000 36.92500 28.29900
C  49.45500 35.52900 23.60300
C  47.62700 31.09600 24.80900
N  48.29400 34.62100 28.70700
C  47.73000 33.92900 29.71100
C  47.89200 34.71100 31.00500
C  47.97000 36.17700 30.46700
C  48.67400 35.89100 29.06100
C  46.55700 36.83500 30.41100
C  49.03400 34.24400 31.89000
C  48.88800 34.12800 33.47300
H  47.80300 34.91400 34.21000
N  49.34700 35.87000 26.05200
C  49.45100 36.93500 26.90000
C  50.08200 38.09900 26.16900
C  50.18300 37.67900 24.80300
C  49.59400 36.35300 24.71700
C  50.62200 39.31900 26.81000
C  50.76500 38.36200 23.52500
O  50.75600 37.83100 22.37300
C  51.48500 39.73200 23.69400
N  48.59100 33.40400 24.56200
C  48.96500 34.24600 23.52900
C  48.85700 33.48900 22.13000
C  48.29700 32.01800 22.56400
C  48.13300 32.22400 24.07600
C  48.06500 34.24200 20.97900
C  49.28900 30.99100 22.20000
C  50.58500 30.81200 22.97500
N  47.77200 32.18900 26.96000
C  47.41400 31.09900 26.18100
C  46.85800 30.01700 27.03600
C  46.59800 30.63500 28.31300
C  47.16100 31.98300 28.19900
C  46.41400 28.68300 26.58700
C  46.04900 30.44800 29.54400
O  45.40200 29.47600 29.97900
C  46.24600 31.86000 30.28300
C  46.60200 31.48700 31.74000
O  47.76500 31.32200 32.20400
O  45.43000 31.24600 32.41000
C  45.47400 31.12700 33.84500
H  49.22600 37.89400 28.79400
H  49.92300 35.75700 22.64300
H  47.28400 30.24900 24.21100
H  46.96100 34.46800 31.51600
H  48.72600 36.72300 31.03200
H  46.58300 37.75300 30.99800
H  45.82600 36.08300 30.71000
H  46.30400 36.97100 29.36000
H  49.87300 34.90300 31.66700
H  49.40500 33.28500 31.52700
H  49.83600 34.57600 33.77100
H  49.02400 33.09900 33.80600
H  51.70400 39.21500 26.72200
H  50.41800 39.49300 27.86600
H  50.26000 40.22700 26.32900
H  50.76900 40.50800 23.96600
H  51.86700 39.96600 22.70000
H  52.30900 39.64000 24.40100
H  49.86700 33.29500 21.76600
H  47.36000 31.79200 22.05500
H  47.74400 35.24900 21.24800
H  47.19300 33.62600 20.75600
H  48.58700 34.30400 20.02400
H  49.46900 31.12800 21.13300
H  48.70200 30.08100 22.31700
H  50.63200 31.02600 24.04300
H  51.44200 31.29600 22.50700
H  50.83600 29.75100 22.95400
H  45.33600 28.55300 26.48900
H  46.86400 27.94000 27.24500
H  46.64300 28.56600 25.52800
H  45.30800 32.40300 30.39900
H  45.73300 32.11000 34.23800
H  46.18700 30.40000 34.23400
H  44.46100 30.77500 34.04100

