158

Mg 53.89500 23.68600 43.43300
C  51.14300 25.76100 42.82500
C  52.20300 21.12000 42.03900
C  56.89100 22.01600 43.18700
C  55.76800 26.52500 44.63200
N  51.92000 23.53500 42.55800
C  50.96400 24.50200 42.49200
C  49.66200 23.93400 41.79100
C  49.93800 22.36500 41.84800
C  51.42600 22.29100 42.18000
C  49.12800 21.52800 42.87000
C  49.27100 24.49900 40.35100
C  50.46600 24.73100 39.31400
H  50.07700 25.19000 37.88500
N  54.35300 21.78500 42.79700
C  53.54000 20.88500 42.27400
C  54.25200 19.61400 42.08400
C  55.65200 19.82300 42.44200
C  55.68500 21.30800 42.76800
C  53.53000 18.39900 41.48500
C  56.70300 18.67900 42.46500
O  56.25700 17.52800 42.40000
C  58.11000 18.90100 42.63900
N  56.01400 24.28200 43.69900
C  57.06000 23.32000 43.56000
C  58.46100 23.96100 43.96100
C  58.06100 25.39600 44.44400
C  56.49200 25.42600 44.24900
C  59.15300 23.10700 45.10200
C  58.88800 26.52600 43.66200
C  60.29900 26.84200 44.20400
N  53.56800 25.72800 43.82700
C  54.39500 26.76100 44.33100
C  53.55400 27.99400 44.47800
C  52.32000 27.70400 43.87400
C  52.38900 26.28900 43.40500
C  53.91600 29.25900 45.13400
C  50.96800 28.18200 43.51300
O  50.53200 29.30100 43.71000
C  50.13300 26.95200 42.95200
C  49.69000 27.36000 41.60100
O  50.40100 27.80900 40.63500
O  48.30000 27.46600 41.68000
C  47.75900 28.19900 40.59500
H  51.66600 20.20000 41.80100
H  57.70400 21.28900 43.13200
H  56.40100 27.33100 45.01100
H  48.93800 24.19300 42.56300
H  49.84700 21.82100 40.90800
H  48.13500 21.42000 42.43400
H  48.83000 22.07800 43.76300
H  49.61500 20.60000 43.17200
H  48.63200 25.36200 40.16100
H  48.60000 23.76500 39.90500
H  51.11300 23.85400 39.32300
H  51.02500 25.57500 39.71700
H  53.80700 18.30100 40.43500
H  52.44700 18.35400 41.59100
H  53.80600 17.44400 41.93000
H  58.50900 19.20600 43.60600
H  58.46500 19.67200 41.95400
H  58.58800 17.98600 42.29200
H  59.14900 23.97300 43.11600
H  58.27500 25.46500 45.51000
H  59.84400 22.46000 44.56200
H  58.33900 22.57400 45.59300
H  59.66000 23.66600 45.88800
H  58.28300 27.43200 43.63100
H  58.89300 26.20800 42.61900
H  61.10000 26.28600 43.71700
H  60.24600 26.60200 45.26600
H  60.56400 27.90000 44.20700
H  53.26200 29.46100 45.98200
H  53.87200 30.01100 44.34600
H  54.93400 29.14000 45.50600
H  49.26100 26.73500 43.56800
H  46.71100 28.34000 40.85800
H  47.75000 27.58200 39.69700
H  48.22300 29.18500 40.56200
Mg 16.33600 51.28800 27.08200
C  18.42400 50.32100 29.70000
C  13.99900 52.25600 29.40500
C  14.49200 52.49800 24.62300
C  18.85200 50.27000 24.78600
N  16.32200 51.42600 29.33800
C  17.23200 50.89000 30.16000
C  16.80400 51.14400 31.60400
C  15.25100 51.18900 31.55100
C  15.14100 51.60000 29.98500
C  14.62200 49.80200 31.89000
C  17.55100 52.37900 32.24400
C  17.77500 52.46600 33.70400
H  16.93000 51.60400 34.61800
N  14.45900 52.26800 27.00900
C  13.71300 52.66500 28.07700
C  12.65200 53.50200 27.57300
C  12.68800 53.50500 26.10900
C  13.86700 52.69400 25.88900
C  11.63400 54.14100 28.43900
C  11.77900 54.02400 25.03500
O  11.99200 53.93300 23.83900
C  10.53100 54.87800 25.38100
N  16.56100 51.14800 24.93100
C  15.68500 51.79000 24.15600
C  16.13100 51.76300 22.65300
C  17.67600 51.49000 22.88000
C  17.72100 50.89700 24.26900
C  15.39800 50.67900 21.70400
C  18.71800 52.66700 22.81700
C  19.93900 52.36400 21.92400
N  18.26000 50.41000 27.14600
C  19.18900 50.06800 26.14400
C  20.34800 49.38300 26.82000
C  20.12400 49.58300 28.21300
C  18.83300 50.15500 28.33300
C  21.57800 48.73200 26.25100
C  20.72000 49.37000 29.53000
O  21.79000 48.79900 29.78400
C  19.62600 49.77400 30.55300
C  19.29000 48.65100 31.41500
O  18.87600 47.53100 30.95600
O  19.33400 48.90600 32.69500
C  18.94600 47.80700 33.55200
H  13.13800 52.47100 30.04100
H  13.94300 52.75700 23.71500
H  19.70900 49.97800 24.17500
H  17.12400 50.22400 32.09300
H  14.83100 51.97300 32.18000
H  15.37300 49.02400 32.02800
H  14.13800 49.47900 30.96800
H  13.99400 49.82800 32.78000
H  16.90800 53.21500 31.97200
H  18.49100 52.56500 31.72500
H  17.73500 53.49800 34.05300
H  18.80800 52.12900 33.79700
H  12.02200 55.13400 28.66600
H  11.65700 53.72400 29.44600
H  10.61600 54.11000 28.05100
H  10.75100 55.52500 26.22900
H  9.81000 54.10200 25.64200
H  10.15200 55.54900 24.61000
H  16.08100 52.75500 22.20300
H  18.07400 50.61000 22.37500
H  15.85100 49.68800 21.69900
H  15.31600 51.20100 20.75100
H  14.37700 50.39200 21.95600
H  19.10800 52.82000 23.82300
H  18.28200 53.57400 22.39900
H  19.89600 51.36500 21.49100
H  20.84000 52.34300 22.53700
H  20.04400 53.15600 21.18200
H  21.34500 48.55300 25.20200
H  21.83200 47.87600 26.87600
H  22.24900 49.58800 26.31900
H  20.00800 50.58500 31.17300
H  17.86000 47.78700 33.64300
H  19.32400 48.19800 34.49800
H  19.46100 46.89100 33.26500

