158

Mg -11.66300 38.29800 42.26000
C  -9.43600 35.76800 41.18700
C  -9.74300 40.47800 40.76300
C  -14.30500 40.28300 42.41100
C  -13.69100 35.64500 43.73100
N  -9.90500 38.05000 40.91300
C  -9.14100 36.99800 40.64000
C  -7.93200 37.34100 39.72200
C  -7.90000 38.91000 39.88400
C  -9.24100 39.21700 40.59300
C  -6.69900 39.36100 40.78200
C  -8.11400 36.73100 38.24200
C  -6.96700 35.76300 37.76300
H  -5.88600 36.37000 36.76100
N  -11.96500 40.19300 41.72600
C  -10.96500 40.94500 41.24000
C  -11.47900 42.28400 40.97600
C  -12.88900 42.27800 41.27700
C  -13.15300 40.86100 41.81500
C  -10.66100 43.42300 40.53700
C  -13.82800 43.37200 41.13100
O  -13.44900 44.46600 40.77300
C  -15.26500 43.28600 41.50600
N  -13.86100 37.93700 42.84300
C  -14.66200 38.99300 42.85700
C  -16.02000 38.63200 43.62600
C  -15.83500 37.15700 44.02200
C  -14.39500 36.88500 43.57100
C  -16.37200 39.59200 44.84200
C  -16.91500 36.12900 43.54800
C  -17.22600 34.94200 44.48300
N  -11.62900 36.13300 42.42200
C  -12.39300 35.26400 43.19700
C  -11.77300 33.95200 43.19100
C  -10.60500 34.13900 42.37400
C  -10.55700 35.41300 41.97300
C  -12.16500 32.61600 43.95400
C  -9.45100 33.45600 41.83700
O  -9.09300 32.26300 42.06100
C  -8.65700 34.47400 40.98400
C  -7.25500 34.58800 41.50300
O  -6.80000 35.47800 42.19000
O  -6.56400 33.46700 40.98800
C  -5.12000 33.73900 40.98600
H  -9.07300 41.19400 40.28300
H  -15.12600 40.98800 42.55500
H  -14.27000 34.93100 44.31900
H  -7.03600 36.94200 40.19700
H  -7.83100 39.44500 38.93700
H  -6.29300 40.35400 40.59400
H  -5.85800 38.68200 40.64000
H  -7.03100 39.25500 41.81500
H  -8.03300 37.62000 37.61800
H  -9.09000 36.24700 38.20000
H  -7.36500 34.84700 37.32600
H  -6.42300 35.45900 38.65700
H  -9.61000 43.15600 40.42500
H  -10.81900 44.28000 41.19200
H  -11.00100 43.75500 39.55600
H  -15.73800 42.37500 41.14000
H  -15.80100 44.11600 41.04500
H  -15.34300 43.42100 42.58500
H  -16.79700 38.77600 42.87500
H  -15.76800 37.05100 45.10500
H  -15.39700 39.96400 45.15400
H  -16.91700 38.96000 45.54400
H  -17.03200 40.38900 44.50000
H  -16.53600 35.61700 42.66400
H  -17.85700 36.65800 43.40400
H  -17.02800 34.07200 43.85900
H  -18.26500 34.96800 44.81100
H  -16.66100 34.90700 45.41500
H  -12.93600 32.94000 44.65300
H  -11.30100 32.26800 44.52000
H  -12.53400 31.87900 43.24000
H  -8.67900 34.19800 39.93000
H  -4.80400 34.10200 40.00700
H  -4.59400 32.82000 41.24600
H  -4.86000 34.52900 41.69000
Mg 0.28300 43.70600 26.06900
C  2.35500 43.66300 28.97000
C  -2.40600 42.82100 28.01900
C  -1.38200 42.81000 23.38000
C  3.22500 44.16000 24.18100
N  0.04700 43.14600 28.27600
C  0.93000 43.43000 29.25800
C  0.20000 43.41900 30.60400
C  -1.21000 42.90900 30.30900
C  -1.21300 42.96200 28.76100
C  -1.52200 41.46600 30.80700
C  0.27100 44.82600 31.29800
C  1.01600 44.87000 32.67900
H  0.87300 43.72400 33.67900
N  -1.71600 43.27800 25.70200
C  -2.67700 42.86700 26.60400
C  -3.95400 42.63500 25.94500
C  -3.57300 42.57700 24.54100
C  -2.16300 42.86700 24.54200
C  -5.29500 42.54500 26.73700
C  -4.46300 42.14000 23.34100
O  -4.01200 42.11100 22.19100
C  -5.97800 41.82700 23.62400
N  0.82200 43.63600 23.98400
C  -0.10300 43.25800 23.16600
C  0.52000 43.07200 21.81200
C  1.95500 43.77600 21.93400
C  2.04500 43.87700 23.41200
C  0.63300 41.53600 21.36600
C  1.97300 45.16800 21.24700
C  1.67300 46.47700 22.03000
N  2.41300 43.88300 26.43400
C  3.43100 44.06000 25.57100
C  4.64300 44.37000 26.35400
C  4.25600 44.13800 27.66400
C  2.90100 43.86700 27.67400
C  5.91600 44.97100 25.84700
C  4.76700 44.10300 29.01700
O  5.89200 44.31800 29.46500
C  3.49500 44.03400 29.99800
C  3.77600 42.89400 30.89400
O  3.55400 41.68600 30.64600
O  4.42800 43.27900 32.08700
C  4.84200 42.14700 33.03200
H  -3.33300 42.53200 28.51800
H  -1.83900 42.41700 22.46900
H  4.17700 44.22400 23.65000
H  0.58000 42.72000 31.34900
H  -2.02400 43.55300 30.64200
H  -2.33500 41.44300 31.53200
H  -0.62100 41.04900 31.25700
H  -1.97700 40.92100 29.98000
H  -0.67800 45.32700 31.48900
H  0.83000 45.45800 30.60700
H  0.78300 45.75400 33.27100
H  2.08500 44.92700 32.47500
H  -6.15400 42.94000 26.19400
H  -5.15400 42.84400 27.77600
H  -5.41300 41.46900 26.86200
H  -6.13300 41.10300 24.42400
H  -6.43000 41.53100 22.67700
H  -6.47400 42.73400 23.96700
H  -0.15200 43.52300 21.08200
H  2.71300 43.08200 21.57200
H  0.23800 40.87100 22.13400
H  1.67400 41.26400 21.19000
H  0.15700 41.25300 20.42800
H  1.23800 45.21600 20.44300
H  3.00400 45.22800 20.90000
H  1.02000 46.39100 22.89900
H  1.32100 47.14900 21.24800
H  2.53000 46.96900 22.49100
H  6.51300 45.51700 26.57700
H  5.71800 45.64900 25.01700
H  6.50300 44.16500 25.40600
H  3.36900 44.92900 30.60800
H  5.92600 42.13000 33.14400
H  4.48400 41.16900 32.70800
H  4.40600 42.39800 33.99900

