158

Mg -1.52700 17.27000 26.16200
C  -1.83300 14.94500 28.86500
C  -2.05100 19.77800 28.32600
C  -1.46900 19.24000 23.49800
C  -1.55200 14.37700 23.96300
N  -2.19900 17.28800 28.42100
C  -1.97100 16.34100 29.30200
C  -2.01600 16.82300 30.68200
C  -2.18100 18.37500 30.52800
C  -2.19300 18.52400 29.02300
C  -3.51000 18.99200 31.03300
C  -0.81400 16.24200 31.62400
C  -0.45000 17.17100 32.78200
H  -0.28300 16.55900 34.19100
N  -1.76400 19.29600 25.90200
C  -1.81200 20.18500 26.97100
C  -1.78000 21.50500 26.40400
C  -1.45500 21.33800 25.01300
C  -1.59100 19.93500 24.72200
C  -2.10400 22.72300 27.30300
C  -1.10200 22.39700 23.97000
O  -0.81900 22.06000 22.79500
C  -0.98700 23.88300 24.44800
N  -1.52000 16.88600 24.06100
C  -1.52700 17.89100 23.15700
C  -1.61800 17.37200 21.65000
C  -1.35400 15.82800 21.93600
C  -1.53200 15.68000 23.41200
C  -3.01200 17.73100 20.83100
C  -0.03100 15.24200 21.37600
C  1.20000 15.67100 22.22200
N  -1.65000 15.10000 26.32300
C  -1.63800 14.10500 25.31100
C  -1.70300 12.79100 25.93300
C  -1.72100 13.02800 27.30000
C  -1.77400 14.47600 27.49400
C  -1.75700 11.43700 25.27400
C  -1.83600 12.43100 28.62900
O  -1.80000 11.26400 28.92600
C  -1.87300 13.59300 29.64300
C  -0.82800 13.34500 30.63700
O  0.39200 13.52800 30.48100
O  -1.31100 12.76300 31.80200
C  -0.31000 12.44300 32.86100
H  -2.10000 20.63700 28.99900
H  -1.58500 19.83700 22.59000
H  -1.44600 13.53000 23.28200
H  -2.89700 16.35100 31.11900
H  -1.39700 18.99400 30.96400
H  -4.24100 18.68400 30.28500
H  -3.41500 20.07200 31.13700
H  -3.72500 18.60200 32.02800
H  0.06600 16.16400 30.98500
H  -1.11400 15.28700 32.05600
H  -1.21600 17.92900 32.94300
H  0.52200 17.62600 32.59200
H  -1.37100 23.50900 27.12000
H  -1.97400 22.63500 28.38100
H  -3.13300 23.03700 27.12400
H  -0.02300 24.03000 24.93400
H  -1.90000 24.25500 24.91400
H  -0.94700 24.39500 23.48700
H  -0.74500 17.63500 21.05200
H  -2.20900 15.29700 21.51600
H  -3.40100 18.66300 21.24200
H  -3.75300 16.93900 20.93900
H  -2.86300 17.93800 19.77100
H  0.23300 15.75800 20.45200
H  -0.13000 14.17500 21.17700
H  0.96100 16.47800 22.91400
H  2.02000 15.99200 21.58000
H  1.54100 14.84800 22.85000
H  -0.86300 11.00200 24.82700
H  -2.50800 11.42700 24.48500
H  -2.15600 10.84300 26.09600
H  -2.84100 13.59300 30.14500
H  0.72600 12.27900 32.56400
H  -0.64500 11.55000 33.38900
H  -0.34300 13.28400 33.55400
Mg 46.94400 24.37600 27.75700
C  47.76400 26.75400 30.31900
C  46.38700 22.06600 30.28400
C  46.49600 22.08000 25.35000
C  47.90600 26.76700 25.42400
N  47.00400 24.45600 30.05000
C  47.22700 25.58900 30.88600
C  47.15500 25.16300 32.38200
C  46.67800 23.65400 32.31400
C  46.73300 23.37000 30.77100
C  47.52900 22.67700 33.06400
C  46.21200 26.09700 33.20300
C  46.65700 26.43200 34.66400
H  45.59400 26.35500 35.73500
N  46.48000 22.28200 27.78400
C  46.29500 21.56000 28.94800
C  45.92600 20.24300 28.46400
C  46.07400 20.17900 27.08400
C  46.35100 21.52800 26.63400
C  45.64000 19.03300 29.41300
C  45.87900 19.02800 26.17000
O  46.16600 19.02600 24.94400
C  45.20300 17.75000 26.58800
N  47.29000 24.38700 25.74600
C  46.84400 23.44400 24.94400
C  46.79200 23.85500 23.45000
C  47.27400 25.41500 23.49100
C  47.56900 25.50300 24.97900
C  47.76200 23.07900 22.50700
C  46.23200 26.47400 23.08900
C  44.86000 26.61500 23.86100
N  47.77100 26.26700 27.81000
C  48.12900 27.13100 26.75300
C  48.62000 28.35200 27.28500
C  48.57700 28.25200 28.68600
C  47.93200 27.02400 28.91300
C  49.16900 29.56400 26.58000
C  48.69300 28.90200 29.90900
O  48.99800 30.03600 30.21700
C  48.24200 28.02900 31.00300
C  49.28100 27.81400 32.15600
O  50.23600 27.07600 32.07700
O  49.02500 28.59100 33.26300
C  50.07500 28.33400 34.26000
H  45.99300 21.48100 31.11800
H  46.32500 21.37000 24.53900
H  48.12000 27.59800 24.74800
H  48.18500 25.29100 32.71400
H  45.67600 23.61800 32.74200
H  46.90500 22.16200 33.79500
H  48.36800 23.21200 33.50900
H  47.96900 21.84500 32.51400
H  45.29200 25.51500 33.26400
H  46.00400 27.06400 32.74700
H  47.15500 27.39400 34.77700
H  47.47400 25.74600 34.88600
H  46.23500 18.16800 29.11800
H  44.59000 18.74800 29.35800
H  45.85300 19.14700 30.47600
H  45.78300 17.18500 27.31700
H  45.19900 17.11100 25.70400
H  44.19600 18.02200 26.90600
H  45.73400 23.80000 23.19200
H  48.20200 25.66200 22.97500
H  47.35300 23.12800 21.49800
H  47.71000 22.03700 22.82200
H  48.78400 23.45600 22.48300
H  45.96400 26.19200 22.07100
H  46.75500 27.41000 22.89300
H  44.75100 25.98600 24.74400
H  44.01300 26.50700 23.18300
H  44.66800 27.58000 24.32800
H  48.62400 30.49600 26.72900
H  49.31700 29.45200 25.50600
H  50.18100 29.70800 26.95700
H  47.46700 28.69500 31.38400
H  50.13000 27.30400 34.61100
H  49.78200 28.89000 35.15100
H  51.07700 28.67500 33.99900

