158

Mg 46.64200 25.52700 28.62000
C  47.90500 27.50900 31.18900
C  45.75000 23.09000 31.21700
C  45.84000 23.28700 26.29800
C  48.13400 27.54700 26.40000
N  46.76600 25.35300 30.90000
C  47.23800 26.38000 31.68700
C  47.01000 26.05500 33.15600
C  46.45400 24.58600 33.18300
C  46.30000 24.30600 31.67600
C  47.24900 23.46600 33.97200
C  46.04800 27.17600 33.79100
C  46.50000 27.84300 35.11800
H  45.42900 28.02900 36.19700
N  45.76100 23.49600 28.73900
C  45.54100 22.66100 29.85900
C  44.82100 21.55200 29.36300
C  44.62700 21.59600 27.93700
C  45.46600 22.79100 27.59900
C  44.29600 20.49300 30.42700
C  43.96400 20.72800 26.94500
O  43.94800 20.96100 25.76100
C  43.18700 19.53400 27.49400
N  46.92000 25.45100 26.57500
C  46.47300 24.43800 25.78000
C  46.75400 24.71900 24.31800
C  47.34900 26.14600 24.33000
C  47.55300 26.43100 25.84300
C  47.64200 23.67000 23.60900
C  46.38600 27.15500 23.68400
C  46.99700 28.33600 23.00400
N  47.83100 27.20800 28.74600
C  48.36000 27.93000 27.70200
C  48.93400 29.13700 28.17500
C  48.83600 29.08700 29.56700
C  48.10300 27.83900 29.88300
C  49.55400 30.18600 27.35700
C  49.12200 29.77800 30.88200
O  49.77200 30.80700 31.12400
C  48.51200 28.70200 31.92300
C  49.45100 28.28400 32.99200
O  50.28000 27.41800 32.81200
O  49.45700 29.05700 34.13900
C  50.48500 29.03700 35.23200
H  45.61300 22.33400 31.99300
H  45.61100 22.73600 25.38300
H  48.47600 28.15700 25.56200
H  48.02100 26.11500 33.55900
H  45.43000 24.58200 33.55700
H  47.81500 22.87500 33.25100
H  46.64600 22.75600 34.53700
H  48.01400 23.86400 34.63900
H  45.17200 26.59000 34.06600
H  45.64500 27.89800 33.08100
H  46.88900 28.83000 34.86500
H  47.28900 27.21700 35.53300
H  44.75200 20.52300 31.41700
H  44.25400 19.46700 30.06200
H  43.26200 20.71100 30.69400
H  42.33500 19.90700 28.06300
H  43.79300 18.84100 28.07800
H  42.80900 19.00300 26.62000
H  45.81600 24.75300 23.76400
H  48.32100 26.16500 23.83700
H  47.44600 22.72900 24.12300
H  48.70300 23.88900 23.72600
H  47.33200 23.63900 22.56500
H  45.84700 27.70200 24.45800
H  45.60400 26.69600 23.08000
H  46.39900 28.40900 22.09500
H  48.07200 28.34200 22.82600
H  46.93900 29.26900 23.56400
H  49.32700 31.13900 27.83500
H  49.22300 30.24600 26.32100
H  50.63600 30.05700 27.31400
H  47.70300 29.29500 32.35000
H  50.20000 28.42900 36.09100
H  50.53000 30.08800 35.51500
H  51.46500 28.76600 34.84000
Mg 27.35100 50.81500 26.41800
C  25.48100 51.72100 29.29400
C  29.94700 49.82200 28.52100
C  29.03700 50.06900 23.73200
C  24.65300 52.08900 24.44400
N  27.67800 50.93800 28.66900
C  26.78000 51.27800 29.64100
C  27.33000 51.07900 31.09400
C  28.81900 50.63200 30.75600
C  28.80200 50.40500 29.19600
C  29.86600 51.75900 31.16500
C  26.51500 50.13600 32.04600
C  25.86200 50.84000 33.27100
H  26.53600 50.62100 34.53400
N  29.23200 50.11100 26.10500
C  30.13400 49.63500 27.12900
C  31.33000 49.21000 26.43300
C  31.13100 49.35500 25.03600
C  29.72100 49.89300 24.88700
C  32.46400 48.57700 27.20100
C  32.13600 48.95000 23.91300
O  31.89400 49.00700 22.68700
C  33.51700 48.47600 24.26900
N  26.95400 51.21300 24.37400
C  27.68900 50.53200 23.46100
C  27.11400 50.61500 21.98400
C  25.69700 51.13800 22.33600
C  25.80600 51.62900 23.76900
C  28.11600 51.46500 21.10600
C  24.61000 50.03600 22.29100
C  23.51400 50.16900 21.22400
N  25.55100 51.80300 26.74300
C  24.48600 52.20700 25.86000
C  23.45200 52.73800 26.62300
C  23.78600 52.50200 27.97500
C  25.04100 51.86100 27.98000
C  22.19000 53.42200 26.02600
C  23.24300 52.60500 29.31600
O  22.17600 53.12900 29.67700
C  24.33900 52.14500 30.20900
C  24.74600 53.26600 31.12600
O  25.52200 54.14900 30.84200
O  23.97600 53.14200 32.33200
C  24.25100 54.11600 33.33600
H  30.75700 49.49000 29.17300
H  29.57100 49.70800 22.85000
H  23.70900 52.22500 23.91200
H  27.19900 52.10700 31.43100
H  29.22300 49.78600 31.31100
H  30.16600 52.30100 30.26900
H  30.80700 51.38000 31.56300
H  29.40500 52.40600 31.91200
H  27.25300 49.46600 32.48700
H  25.73400 49.70000 31.42300
H  24.80000 50.59900 33.21400
H  25.97100 51.92000 33.16800
H  32.37900 47.50200 27.03800
H  32.38000 48.77200 28.27000
H  33.42500 48.93900 26.83600
H  34.00800 48.12200 23.36200
H  33.42500 47.61700 24.93400
H  33.94100 49.27300 24.88000
H  27.02700 49.61400 21.56200
H  25.46200 51.90900 21.60300
H  29.04700 51.69900 21.62200
H  27.69200 52.39000 20.71500
H  28.41500 50.84000 20.26400
H  24.08000 49.92600 23.23700
H  25.12700 49.09400 22.10900
H  23.65000 51.14800 20.76300
H  22.52000 50.31200 21.64800
H  23.56200 49.40700 20.44700
H  22.53700 54.35300 25.57700
H  21.39800 53.60300 26.75300
H  21.62100 52.83200 25.30900
H  24.03800 51.26400 30.77600
H  25.30700 54.38700 33.34200
H  23.99700 53.86900 34.36700
H  23.80400 55.09200 33.14800

