158

Mg 24.36200 -4.67100 46.25400
C  26.41800 -2.23100 44.98500
C  21.81000 -3.66300 44.16600
C  22.70300 -7.63900 46.85600
C  26.97300 -5.73200 48.47100
N  24.22200 -3.24200 44.54700
C  25.18500 -2.27800 44.25000
C  24.66600 -1.29600 43.16800
C  23.07700 -1.53600 43.36200
C  23.03300 -2.90900 44.08500
C  22.37100 -0.37400 44.14000
C  25.34900 -1.73100 41.80700
C  25.53100 -0.59600 40.79100
H  25.76100 -0.92300 39.32400
N  22.54900 -5.44800 45.65000
C  21.59900 -4.88400 44.84200
C  20.43300 -5.68900 44.67500
C  20.67000 -6.82900 45.54600
C  22.03300 -6.65600 46.11000
C  19.25700 -5.31200 43.80400
C  19.61700 -7.88700 45.82300
O  18.55600 -7.83400 45.24100
C  19.84300 -8.97300 46.84400
N  24.69100 -6.42900 47.48300
C  23.88800 -7.52500 47.62600
C  24.55300 -8.62700 48.44300
C  25.78700 -7.86600 49.10500
C  25.87400 -6.57600 48.27900
C  23.67400 -9.37200 49.48000
C  27.08600 -8.62400 49.33500
C  27.57900 -8.79500 50.77000
N  26.24700 -4.05600 46.73100
C  27.16800 -4.47600 47.70600
C  28.33400 -3.59800 47.68900
C  28.09600 -2.74700 46.57800
C  26.80400 -3.05500 46.07100
C  29.56600 -3.54700 48.71400
C  28.70600 -1.62900 45.82000
O  29.77200 -1.01400 45.83000
C  27.58700 -1.28400 44.76300
C  27.23000 0.16500 45.05900
O  26.23000 0.53600 45.69300
O  28.13800 1.07000 44.35000
C  27.68800 2.47300 44.20100
H  20.88400 -3.20600 43.81200
H  22.34000 -8.66700 46.78900
H  27.79600 -5.98500 49.14200
H  24.87900 -0.25000 43.38700
H  22.70900 -1.48400 42.33800
H  22.07500 -0.62100 45.16000
H  21.50300 -0.06900 43.55500
H  23.01700 0.48200 44.33300
H  24.82100 -2.55300 41.32300
H  26.30100 -2.14000 42.14500
H  26.32300 0.05300 41.16500
H  24.64900 0.04500 40.79300
H  19.19100 -6.03000 42.98700
H  19.23100 -4.29100 43.42200
H  18.35600 -5.32100 44.41700
H  18.86700 -9.41900 47.03700
H  20.20100 -8.53100 47.77400
H  20.60400 -9.54300 46.31000
H  24.91000 -9.36300 47.72400
H  25.40600 -7.58400 50.08600
H  23.46800 -10.41100 49.22600
H  22.72500 -8.83800 49.52500
H  24.05600 -9.28800 50.49800
H  27.83700 -8.13500 48.71500
H  27.06900 -9.62100 48.89400
H  28.43500 -8.15200 50.97900
H  27.77100 -9.84400 50.99300
H  26.84100 -8.38200 51.45800
H  30.44500 -3.85900 48.15000
H  29.36900 -4.38300 49.38500
H  29.83700 -2.60500 49.18900
H  27.96600 -1.27300 43.74100
H  27.22000 2.83700 45.11600
H  27.11100 2.79100 43.33200
H  28.70700 2.84200 44.08900
Mg 30.71500 58.71200 40.23400
C  28.00900 56.86800 39.18500
C  32.92600 56.22800 39.10700
C  33.22500 60.77700 40.70100
C  28.31600 61.32400 41.13500
N  30.51000 56.88900 39.23000
C  29.29200 56.31800 38.98300
C  29.46600 54.94600 38.31000
C  30.95100 54.58100 38.58300
C  31.51200 55.98100 38.90500
C  31.21400 53.56700 39.74200
C  29.22500 55.00700 36.73200
C  28.12600 54.13200 36.23400
H  27.69600 54.30000 34.77200
N  32.87700 58.50200 39.89600
C  33.54400 57.47700 39.36600
C  34.97500 57.73500 39.48600
C  35.09600 59.02200 40.06700
C  33.68400 59.52200 40.20800
C  36.02300 56.67000 39.18000
C  36.37700 59.62900 40.62500
O  37.47000 59.10900 40.37900
C  36.57100 61.00000 41.48400
N  30.71500 60.82000 40.73800
C  31.95900 61.35000 40.97900
C  31.82300 62.82100 41.42500
C  30.26900 62.93600 41.82500
C  29.67100 61.64400 41.12700
C  32.80100 63.29900 42.57000
C  29.50900 64.17400 41.39700
C  28.52700 64.58400 42.51300
N  28.53500 59.07800 40.23200
C  27.76300 60.09700 40.69000
C  26.36100 59.77700 40.57800
C  26.35500 58.49700 39.95500
C  27.72800 58.13700 39.81500
C  25.21400 60.65000 40.82300
C  25.52200 57.39400 39.43100
O  24.34600 57.14900 39.27000
C  26.65600 56.31300 38.95000
C  26.40200 55.00100 39.71400
O  26.90800 54.62800 40.76800
O  25.39800 54.37300 39.13500
C  25.19400 52.98400 39.61000
H  33.47800 55.29300 38.98700
H  34.08300 61.44500 40.80100
H  27.69400 62.10600 41.57400
H  28.76400 54.22300 38.72400
H  31.48800 54.16100 37.73200
H  30.40600 52.90200 40.04700
H  31.54900 54.17200 40.58500
H  31.96200 52.85700 39.39100
H  30.07900 54.77100 36.09600
H  28.96600 56.04000 36.49900
H  27.17600 54.28200 36.74600
H  28.38500 53.08800 36.41300
H  37.00300 57.14200 39.10400
H  35.83500 56.12000 38.25700
H  36.12200 56.02400 40.05200
H  35.63600 61.01000 42.04400
H  36.71000 61.89900 40.88400
H  37.33100 60.89000 42.25800
H  31.89600 63.35400 40.47700
H  30.38400 62.81100 42.90200
H  33.68500 63.73800 42.10800
H  33.01600 62.42100 43.17900
H  32.16600 64.03300 43.06800
H  28.89000 64.08400 40.50400
H  30.23000 64.98900 41.34700
H  28.71900 65.60500 42.84300
H  28.43700 63.89500 43.35300
H  27.55600 64.62500 42.02000
H  25.45200 61.61800 41.26400
H  24.49100 60.19400 41.50000
H  24.66700 60.84900 39.90200
H  26.42700 56.15800 37.89600
H  24.35800 52.64900 38.99700
H  24.80800 52.93000 40.62800
H  25.99800 52.28000 39.39400

