158

Mg 36.24200 49.19700 24.80900
C  36.33200 47.45600 27.77300
C  34.86000 51.96600 26.42900
C  35.58900 50.59800 21.82400
C  37.00600 46.16400 23.17700
N  35.45500 49.61300 26.86600
C  35.73600 48.78200 27.94300
C  35.30500 49.49800 29.25200
C  34.66800 50.87300 28.74200
C  35.12100 50.84500 27.26500
C  33.19200 51.05400 29.11800
C  36.53400 49.73000 30.23100
C  36.34900 49.34600 31.71000
H  34.92300 49.28500 32.35700
N  35.51500 51.09300 24.20900
C  34.98100 52.10200 24.97300
C  34.71500 53.32000 24.21700
C  34.91600 52.92800 22.84100
C  35.41000 51.51500 22.89900
C  34.35400 54.62100 24.87500
C  34.82400 53.72400 21.55100
O  35.21400 53.30900 20.44800
C  34.24300 55.03300 21.56700
N  36.11900 48.42900 22.84500
C  35.93700 49.24100 21.81200
C  35.85400 48.30500 20.55800
C  36.63700 47.07700 20.91000
C  36.46400 47.15600 22.36800
C  34.42600 48.05700 20.05300
C  38.10700 46.85000 20.43800
C  39.15500 47.97600 20.71500
N  36.61100 47.19200 25.29000
C  36.99800 46.10400 24.56200
C  37.39100 45.03400 25.48400
C  37.11300 45.50000 26.75300
C  36.67200 46.80700 26.53700
C  37.86800 43.68800 25.04300
C  37.25400 45.21400 28.21300
O  37.59100 44.23000 28.86900
C  36.68600 46.40400 28.89100
C  35.53800 45.85600 29.69300
O  34.40800 45.60400 29.29800
O  36.01800 45.74200 31.01900
C  35.06500 45.08200 31.90400
H  34.47500 52.79400 27.02800
H  35.23800 50.90400 20.83600
H  37.41700 45.25100 22.74200
H  34.49000 48.89100 29.64700
H  35.24200 51.71000 29.13900
H  32.65700 50.10800 29.20100
H  32.64800 51.58200 28.33500
H  33.18200 51.50800 30.10900
H  36.90800 50.75300 30.18900
H  37.39500 49.14700 29.90500
H  36.93100 50.10800 32.22900
H  36.90000 48.41900 31.86800
H  33.29600 54.88100 24.89400
H  34.76100 55.41500 24.24900
H  34.55000 54.66400 25.94600
H  34.05200 55.45500 20.58100
H  35.06400 55.62800 21.96700
H  33.35400 54.92100 22.18700
H  36.38200 48.75400 19.71700
H  36.13700 46.17200 20.56300
H  33.64800 48.74200 20.39000
H  34.11200 47.03400 20.25700
H  34.48300 48.15800 18.96900
H  37.96600 46.78900 19.35900
H  38.53700 45.88000 20.68700
H  38.77500 48.91300 21.12300
H  39.60300 48.07300 19.72600
H  39.92800 47.66600 21.41800
H  37.34400 43.29800 24.17000
H  37.75800 42.93600 25.82400
H  38.90100 43.80800 24.71500
H  37.51600 46.78600 29.48500
H  34.81400 44.09800 31.50700
H  34.17000 45.67200 32.09900
H  35.53600 45.05300 32.88700
Mg -1.67700 33.91400 27.89500
C  -3.62400 32.10100 30.31700
C  -0.22700 35.73300 30.49600
C  -0.28200 35.90000 25.52600
C  -3.39700 32.05900 25.49700
N  -1.80500 33.84600 30.18100
C  -2.74000 33.11200 30.88700
C  -2.46600 33.25000 32.39900
C  -1.49600 34.50700 32.43200
C  -1.11700 34.75400 30.93900
C  -2.10500 35.76600 33.10400
C  -1.84200 31.95700 33.12400
C  -2.72000 31.36900 34.22400
H  -2.10200 31.33400 35.57400
N  -0.32500 35.48200 27.95100
C  0.09400 36.13100 29.13100
C  1.06100 37.15000 28.74000
C  0.97100 37.20400 27.24000
C  0.11300 36.15300 26.84000
C  1.87400 38.06800 29.66900
C  1.70700 38.21500 26.27300
O  1.50700 38.28100 25.05200
C  2.76000 39.22700 26.71500
N  -1.92000 34.08100 25.86500
C  -1.18300 34.90000 25.06100
C  -1.48100 34.69600 23.57400
C  -2.11600 33.24600 23.71200
C  -2.59100 33.16600 25.09500
C  -2.40800 35.76000 22.96700
C  -1.06100 32.09000 23.40500
C  -1.55900 30.82200 22.68100
N  -3.28900 32.41600 27.88800
C  -3.77700 31.68900 26.77900
C  -4.60100 30.56100 27.24000
C  -4.55000 30.71300 28.65600
C  -3.74000 31.81300 28.99000
C  -5.35300 29.64900 26.38000
C  -5.08800 30.26600 29.89700
O  -5.93100 29.41200 30.17000
C  -4.56700 31.16300 31.03200
C  -5.67100 31.85300 31.83700
O  -6.16100 32.90600 31.53600
O  -5.94300 31.17000 32.96800
C  -6.95200 31.63600 33.92300
H  0.31800 36.33600 31.22600
H  0.23100 36.52200 24.79000
H  -3.89800 31.51800 24.69200
H  -3.43400 33.45700 32.85600
H  -0.74000 34.15600 33.13500
H  -1.93300 36.67400 32.52500
H  -1.78600 35.85600 34.14200
H  -3.17700 35.57000 33.10400
H  -0.83300 32.07700 33.51800
H  -1.60400 31.19700 32.38000
H  -3.10400 30.36700 34.03500
H  -3.54200 32.08200 34.27400
H  2.89600 37.71400 29.80800
H  1.44300 38.04900 30.67000
H  1.89000 39.12400 29.40000
H  2.38000 39.91800 27.46800
H  2.98500 39.90400 25.89100
H  3.62300 38.74400 27.17400
H  -0.60900 34.86700 22.94300
H  -3.02600 33.18900 23.11400
H  -2.77000 36.44000 23.73900
H  -3.22000 35.22800 22.47100
H  -2.00400 36.47700 22.25200
H  -0.53400 31.84800 24.32800
H  -0.33900 32.53800 22.72100
H  -1.45300 29.96700 23.34900
H  -0.97300 30.65500 21.77800
H  -2.63900 30.88200 22.55000
H  -5.09700 28.73000 26.90700
H  -4.89500 29.58600 25.39300
H  -6.40000 29.95400 26.35200
H  -3.96100 30.54800 31.69700
H  -6.64700 32.56700 34.40200
H  -7.24000 30.96900 34.73500
H  -7.85600 31.85800 33.35600

