158

Mg 41.79700 41.07100 26.28800
C  40.95300 43.40500 28.79800
C  42.65900 38.75700 28.55400
C  43.00200 39.20300 23.72000
C  40.91100 43.63300 23.83300
N  41.83600 41.15000 28.36900
C  41.41200 42.14600 29.25200
C  41.39900 41.67500 30.77300
C  41.96000 40.26800 30.65200
C  42.13000 40.00200 29.08700
C  43.26600 39.91700 31.44800
C  39.92100 41.86500 31.43500
C  39.76300 42.82700 32.62200
H  39.07000 42.32900 33.86300
N  42.76500 39.28000 26.17900
C  42.97800 38.42200 27.20500
C  43.74700 37.27700 26.76200
C  43.80100 37.32100 25.35400
C  43.16300 38.64700 25.05000
C  44.35000 36.21700 27.69300
C  44.39900 36.36000 24.26800
O  44.42800 36.62300 23.06700
C  44.89300 35.00200 24.70600
N  42.10400 41.48900 24.06000
C  42.51200 40.42100 23.30200
C  42.29400 40.80800 21.81600
C  41.31900 42.06400 21.78600
C  41.39400 42.42300 23.27300
C  43.66900 40.98900 21.19000
C  39.90200 41.66200 21.26200
C  38.88300 41.15300 22.28200
N  41.16300 43.07800 26.29700
C  40.83300 43.96900 25.23500
C  40.31300 45.22100 25.78600
C  40.37900 45.03300 27.25000
C  40.96500 43.76300 27.42200
C  39.78300 46.36000 25.03800
C  40.09000 45.69800 28.54300
O  39.69600 46.83100 28.74900
C  40.43600 44.62100 29.62700
C  41.49400 45.11300 30.52800
O  42.68600 44.96000 30.33400
O  40.94800 45.73400 31.55800
C  41.88100 46.17700 32.63400
H  42.71400 38.10800 29.43000
H  43.15300 38.56500 22.84700
H  40.63700 44.32000 23.03000
H  42.08800 42.14100 31.47700
H  41.20800 39.51300 30.88100
H  44.07700 40.04100 30.73100
H  43.21400 38.92000 31.88500
H  43.45000 40.61600 32.26300
H  39.61400 40.86700 31.74800
H  39.25200 42.11900 30.61300
H  39.10300 43.63700 32.31200
H  40.76000 43.23800 32.77900
H  44.31200 35.21900 27.25700
H  43.70700 36.24100 28.57300
H  45.39500 36.48600 27.84500
H  45.63000 35.12100 25.50100
H  45.42200 34.48700 23.90500
H  44.07500 34.45500 25.17600
H  41.87000 39.94300 21.30600
H  41.70300 42.94200 21.26700
H  43.82500 42.00200 20.82100
H  43.87400 40.23300 20.43200
H  44.38700 40.88200 22.00400
H  40.06400 40.90000 20.50100
H  39.47700 42.46100 20.65500
H  39.30900 40.84300 23.23600
H  38.28100 40.29700 21.97700
H  38.18200 41.95600 22.51000
H  39.26700 45.94600 24.17100
H  40.52100 47.04000 24.61300
H  39.03400 46.82100 25.68300
H  39.48100 44.35700 30.08100
H  42.08400 47.22200 32.40400
H  42.78500 45.57400 32.72400
H  41.35600 46.20400 33.58900
Mg 16.29100 51.82000 26.21900
C  18.02200 50.33400 29.02200
C  13.99600 52.92200 28.44800
C  14.81100 53.29800 23.68000
C  18.80900 50.55800 24.18500
N  16.01400 51.51100 28.48500
C  16.90500 51.09000 29.40900
C  16.46000 51.44400 30.89000
C  15.03300 51.99600 30.63700
C  15.00200 52.14300 29.10200
C  13.95600 50.98300 31.10400
C  17.46800 52.53900 31.41200
C  17.68600 52.43200 32.88600
H  16.82800 51.51700 33.73100
N  14.59700 53.02300 26.03800
C  13.79800 53.30700 27.05600
C  12.64700 54.16300 26.45300
C  12.77200 54.08000 25.02900
C  14.08600 53.45100 24.84600
C  11.66900 54.89000 27.30800
C  11.98200 54.72900 23.90000
O  12.38500 54.73700 22.73800
C  10.63200 55.37600 24.22600
N  16.71500 51.88200 24.18700
C  15.97600 52.62300 23.29500
C  16.50000 52.44300 21.83600
C  17.89200 51.76700 22.08100
C  17.79900 51.40500 23.58400
C  15.58700 51.63100 20.83400
C  19.05100 52.76000 21.73700
C  20.33800 52.14800 21.11900
N  17.93700 50.64600 26.47500
C  18.88800 50.22000 25.53900
C  19.89600 49.37300 26.15900
C  19.53300 49.43300 27.54300
C  18.40200 50.22000 27.67700
C  21.14000 48.86900 25.48200
C  19.98600 48.97700 28.77900
O  20.92200 48.30400 29.10700
C  19.10500 49.70800 29.81500
C  18.75700 48.71900 30.86500
O  18.14200 47.70100 30.57000
O  19.29400 49.06200 32.06400
C  19.11800 48.04800 33.15000
H  13.25500 53.35700 29.12100
H  14.44500 53.73300 22.74800
H  19.59900 50.26700 23.48900
H  16.39100 50.50100 31.43100
H  14.85000 52.96600 31.10000
H  13.37100 51.48600 31.87400
H  14.32600 50.02600 31.47200
H  13.29700 50.76400 30.26500
H  17.23200 53.59500 31.27600
H  18.38000 52.35500 30.84400
H  17.49200 53.41600 33.31300
H  18.74800 52.22900 33.02400
H  11.93900 55.94500 27.25100
H  11.67700 54.52200 28.33400
H  10.68400 54.68200 26.89100
H  9.97700 55.54000 23.37000
H  10.71200 56.30200 24.79600
H  10.16200 54.56200 24.77700
H  16.56000 53.39300 21.30500
H  18.08600 50.89900 21.45200
H  16.09100 51.54500 19.87100
H  14.63400 52.13100 20.66300
H  15.30000 50.67800 21.27900
H  19.40000 53.16200 22.68800
H  18.87100 53.59700 21.06300
H  20.34900 51.05800 21.08500
H  21.17500 52.55600 21.68600
H  20.43100 52.53000 20.10300
H  22.01000 49.51500 25.60400
H  20.93700 48.79500 24.41400
H  21.42500 47.90000 25.89300
H  19.72100 50.47600 30.28300
H  18.07300 48.01600 33.45900
H  19.78400 48.39800 33.93800
H  19.49200 47.05300 32.90600

