158

Mg 46.95900 25.54200 28.91900
C  47.64900 27.55700 31.66000
C  46.19700 22.90100 31.16600
C  46.95900 23.41900 26.34500
C  48.26500 28.12200 26.85600
N  46.82000 25.34300 31.09200
C  47.05200 26.37700 31.99900
C  46.71500 26.00700 33.38100
C  46.53000 24.47100 33.24000
C  46.55800 24.17800 31.76400
C  47.40500 23.54000 34.03100
C  45.62200 26.74600 34.15800
C  45.73800 26.62100 35.75000
H  44.40300 26.33400 36.50000
N  46.47600 23.50500 28.68200
C  46.10300 22.65400 29.71000
C  45.80100 21.35500 29.07500
C  46.11200 21.47100 27.65700
C  46.53800 22.88300 27.49000
C  45.29200 20.23800 29.90800
C  45.97300 20.41500 26.54900
O  46.36700 20.57100 25.42000
C  45.47800 19.01500 26.90700
N  47.62000 25.73900 26.91200
C  47.41300 24.72500 26.00700
C  47.92500 25.03800 24.55500
C  47.99200 26.56700 24.70700
C  47.95300 26.86100 26.26100
C  49.19800 24.25600 24.23800
C  46.84600 27.26300 23.90900
C  45.49100 27.29000 24.64900
N  47.86800 27.44100 29.15800
C  48.20100 28.44200 28.24000
C  48.60800 29.64500 28.97200
C  48.42000 29.32300 30.29000
C  47.95900 28.02000 30.37400
C  49.19300 30.93000 28.28800
C  48.46200 29.87100 31.62500
O  48.80100 30.95000 32.04300
C  47.97300 28.70300 32.63000
C  49.03800 28.31100 33.57500
O  50.15900 27.95500 33.18300
O  48.59400 28.20300 34.90300
C  49.63500 27.65700 35.72000
H  45.92000 22.16600 31.92500
H  46.93300 22.78100 25.45900
H  48.50000 28.91800 26.14700
H  47.63600 26.10900 33.95500
H  45.50800 24.20200 33.50700
H  48.13700 24.14800 34.56200
H  48.00100 22.84000 33.44600
H  46.86200 22.99900 34.80600
H  44.64700 26.42000 33.79500
H  45.68100 27.82100 33.98800
H  46.16700 27.50500 36.22200
H  46.40300 25.76500 35.85700
H  45.99700 19.40700 29.92400
H  44.32800 19.85700 29.57100
H  45.08200 20.61200 30.91000
H  45.81600 18.60500 27.85800
H  45.70100 18.26600 26.14700
H  44.39300 18.93300 26.85200
H  47.20500 24.79900 23.77200
H  48.97900 26.81500 24.31600
H  49.34000 23.78200 23.26600
H  49.40900 23.56100 25.05100
H  49.97500 25.02000 24.21900
H  46.72000 26.74500 22.95800
H  47.20700 28.28600 23.80200
H  45.34800 28.26900 25.10700
H  45.51100 26.59700 25.49000
H  44.61700 27.16300 24.01000
H  49.71700 30.69000 27.36200
H  49.85100 31.43000 28.99900
H  48.40500 31.62500 27.99800
H  47.07600 29.08300 33.11900
H  50.67000 27.99900 35.73500
H  49.74500 26.62000 35.40300
H  49.20000 27.68700 36.71900
Mg 6.56800 55.97300 42.23400
C  5.80700 52.53500 42.38800
C  9.79700 54.98700 41.01400
C  7.21900 59.07500 41.38400
C  3.19900 56.72800 42.70900
N  7.63200 53.97400 41.73700
C  7.08100 52.71900 41.86800
C  8.11900 51.65800 41.45300
C  9.45100 52.46500 41.40600
C  8.96600 53.90700 41.34300
C  10.52800 52.12500 42.46000
C  7.78800 50.78600 40.22600
C  7.34200 51.53100 38.99800
H  6.16400 50.87800 38.25400
N  8.25900 56.88200 41.43800
C  9.45200 56.35200 41.03900
C  10.31000 57.35500 40.56600
C  9.59200 58.60100 40.67200
C  8.31400 58.25000 41.24000
C  11.74800 57.06300 40.20500
C  10.20900 59.94000 40.38700
O  11.32600 60.07100 39.91500
C  9.43500 61.21700 40.64100
N  5.35300 57.64400 42.01600
C  5.96700 58.85400 41.89600
C  4.95000 59.95800 42.27100
C  3.52000 59.22400 42.33800
C  4.08200 57.73200 42.37000
C  5.23200 60.59500 43.66400
C  2.63600 59.55300 41.09400
C  1.61100 60.65700 41.40400
N  4.81800 54.94900 42.55400
C  3.51800 55.39000 42.87200
C  2.74200 54.25800 43.24700
C  3.55700 53.16100 43.19300
C  4.84600 53.56700 42.67600
C  1.35800 54.42300 43.70100
C  3.58900 51.73900 43.37000
O  2.75500 50.94700 43.84900
C  5.05500 51.26000 42.96100
C  4.81900 50.14100 42.13600
O  4.09000 50.07600 41.18800
O  5.62100 49.09600 42.55900
C  5.81200 47.88200 41.75800
H  10.81300 54.68100 40.75800
H  7.20300 60.12400 41.08200
H  2.16000 56.97400 42.94000
H  8.05800 50.96700 42.29400
H  9.91900 52.17800 40.46400
H  10.11900 51.41300 43.17700
H  10.93000 52.99600 42.97900
H  11.44000 51.71100 42.02900
H  7.00300 50.06500 40.45200
H  8.73700 50.32700 39.94700
H  8.18800 51.79600 38.36300
H  7.08200 52.53800 39.32300
H  11.91200 56.99300 39.13000
H  12.11100 56.14000 40.65700
H  12.26800 57.88500 40.69800
H  9.01000 61.23000 41.64400
H  8.56500 61.25300 39.98500
H  10.02300 62.12100 40.47900
H  4.92400 60.81700 41.60100
H  3.10500 59.50600 43.30600
H  4.52600 61.38800 43.90900
H  6.21300 61.05200 43.54000
H  5.23500 59.82000 44.43100
H  2.01100 58.69000 40.86700
H  3.10500 59.77100 40.13500
H  0.56600 60.36900 41.28700
H  1.78300 61.40400 40.63000
H  1.52500 61.08200 42.40400
H  0.60300 54.65300 42.95000
H  1.27800 55.14500 44.51400
H  0.99700 53.51100 44.17600
H  5.68900 50.90900 43.77500
H  6.82000 47.84200 41.34500
H  5.08600 47.71200 40.96300
H  5.64200 47.00600 42.38300

