158

Mg 41.07200 42.13000 27.64700
C  39.97500 44.55000 30.12000
C  41.61500 39.97300 30.11300
C  42.39700 40.16900 25.26500
C  40.51700 44.64200 25.26200
N  41.01500 42.41000 29.89600
C  40.37500 43.36400 30.63600
C  40.42100 42.97900 32.14100
C  41.00300 41.44000 32.02700
C  41.22200 41.25700 30.56900
C  42.30700 41.25400 32.86900
C  39.10100 43.17400 32.95200
C  38.90600 42.13100 34.17500
H  38.24800 42.57300 35.41700
N  41.93800 40.31100 27.69800
C  42.07100 39.54600 28.81400
C  42.57700 38.23000 28.43900
C  42.89300 38.31000 27.04500
C  42.37400 39.64100 26.56400
C  42.99100 37.19800 29.44400
C  43.54200 37.30400 26.11400
O  43.73000 37.50500 24.91500
C  44.07400 36.02400 26.66500
N  41.40800 42.41000 25.50500
C  41.84700 41.38500 24.77600
C  41.96800 41.85200 23.32300
C  41.10000 43.18800 23.30900
C  40.95600 43.48500 24.75300
C  43.43400 41.96900 22.83900
C  39.76900 43.05900 22.49400
C  38.87200 41.92700 23.03200
N  40.50900 44.11400 27.61400
C  40.26400 44.97800 26.60100
C  39.85700 46.26400 27.14100
C  39.56200 46.04300 28.46800
C  40.07600 44.82300 28.73900
C  39.57200 47.63500 26.43200
C  39.03600 46.68600 29.60500
O  38.57200 47.79200 29.75300
C  39.30800 45.74400 30.75600
C  40.23300 46.46000 31.69800
O  41.38800 46.75200 31.38700
O  39.69600 46.61500 32.93700
C  40.64200 47.11100 33.90200
H  41.71800 39.24800 30.92300
H  42.96400 39.51900 24.59600
H  40.35200 45.35000 24.44700
H  41.08900 43.65600 32.67200
H  40.17500 40.82800 32.38300
H  43.18700 41.37000 32.23700
H  42.41200 40.26100 33.30700
H  42.35900 41.92300 33.72700
H  38.25400 43.21600 32.26800
H  39.04600 44.19800 33.32100
H  39.79600 41.57400 34.46800
H  38.37800 41.33300 33.65300
H  42.86000 37.63100 30.43600
H  44.01300 36.81900 29.46700
H  42.34100 36.32900 29.34300
H  44.96600 36.37700 27.18100
H  44.25200 35.42200 25.77400
H  43.43800 35.34100 27.22800
H  41.50900 41.13800 22.63900
H  41.69000 44.05200 23.00100
H  43.43900 41.49900 21.85500
H  44.13500 41.51100 23.53600
H  43.74200 42.99100 22.61700
H  40.00600 42.76600 21.47100
H  39.18700 43.97800 22.55900
H  38.19900 41.56900 22.25300
H  38.18100 42.30700 23.78400
H  39.43800 41.13800 23.52800
H  39.78300 47.57500 25.36400
H  40.23000 48.39600 26.85100
H  38.56500 48.00300 26.62500
H  38.32500 45.45000 31.12400
H  40.95200 48.14100 33.72000
H  41.54200 46.51100 33.76600
H  40.45900 46.88600 34.95200
Mg -8.56500 40.38400 43.43300
C  -7.39700 37.26300 42.26000
C  -5.96400 41.91300 41.85300
C  -10.05600 43.36100 43.92300
C  -11.38600 38.64600 44.69400
N  -6.86200 39.61400 42.26600
C  -6.48400 38.33800 41.93600
C  -5.22700 38.31800 41.05100
C  -4.79400 39.75800 41.16000
C  -5.93300 40.49000 41.86000
C  -3.45500 39.89300 41.86900
C  -5.43400 37.64600 39.62800
C  -4.63800 36.47300 39.23900
H  -3.69000 36.59400 38.03300
N  -8.03900 42.40100 43.01600
C  -6.94800 42.81700 42.33000
C  -6.99700 44.29700 42.19600
C  -8.20700 44.70700 42.83700
C  -8.79500 43.46100 43.29500
C  -5.95300 45.06100 41.41200
C  -8.71800 46.20900 42.88700
O  -8.26200 47.11800 42.18900
C  -9.79300 46.55800 43.86100
N  -10.55100 40.95600 43.99900
C  -10.84200 42.27200 44.25500
C  -12.25800 42.36500 44.85400
C  -12.62300 40.84000 45.25500
C  -11.55000 40.04200 44.44300
C  -12.40600 43.28100 46.09600
C  -14.08500 40.43800 44.88200
C  -14.72200 39.48500 45.98800
N  -9.25100 38.36900 43.59700
C  -10.39400 37.81900 44.15400
C  -10.31900 36.40200 44.21300
C  -9.19300 36.11100 43.42900
C  -8.54800 37.37600 43.07900
C  -11.36900 35.46100 44.79100
C  -8.51800 35.07500 42.76800
O  -8.67400 33.83800 42.72800
C  -7.28800 35.73600 41.93900
C  -6.08000 35.06000 42.33000
O  -5.45100 35.28700 43.33900
O  -5.68100 34.15200 41.36900
C  -4.46500 33.40500 41.60400
H  -5.11600 42.43200 41.39900
H  -10.64800 44.25600 44.12900
H  -12.24300 38.28500 45.26600
H  -4.50400 37.74600 41.63100
H  -4.77900 40.17600 40.15400
H  -2.66900 39.46200 41.24800
H  -3.50500 39.29700 42.78000
H  -3.02300 40.87100 42.08300
H  -5.14300 38.32600 38.82700
H  -6.48800 37.43200 39.45200
H  -5.29500 35.63200 39.01300
H  -4.04100 36.11000 40.07500
H  -6.40300 45.89100 40.86700
H  -5.43600 44.40300 40.71300
H  -5.18600 45.49800 42.05100
H  -9.82400 47.63100 44.04600
H  -9.69000 46.06400 44.82700
H  -10.75500 46.28400 43.42800
H  -12.91400 42.78900 44.09400
H  -12.39000 40.59200 46.29100
H  -13.10300 44.11400 46.00400
H  -11.43900 43.75300 46.27000
H  -12.82800 42.75500 46.95200
H  -13.99500 39.84400 43.97300
H  -14.78700 41.24200 44.66000
H  -14.21300 39.58400 46.94700
H  -14.55500 38.45000 45.68800
H  -15.81000 39.55200 45.96900
H  -11.94300 35.10300 43.93700
H  -11.96700 35.79800 45.63800
H  -10.67600 34.72900 45.20600
H  -7.51900 35.62000 40.88000
H  -4.78200 32.42900 41.97200
H  -3.89600 33.73600 42.47300
H  -3.90400 33.05800 40.73600

