158

Mg 17.08800 -1.49300 28.95700
C  15.78500 0.73900 31.46600
C  19.32200 -2.68400 31.33900
C  18.47200 -3.19100 26.58200
C  15.07700 0.34200 26.55400
N  17.55300 -1.02400 31.11100
C  16.81900 -0.22900 31.89800
C  17.22300 -0.40000 33.39300
C  18.66100 -1.06500 33.22300
C  18.55500 -1.66100 31.80200
C  19.85400 -0.17400 33.42100
C  16.24100 -1.38800 34.13000
C  16.23600 -1.26900 35.76100
H  17.54100 -0.79200 36.41300
N  18.61500 -2.86900 28.98000
C  19.39500 -3.23700 30.03400
C  20.32400 -4.26700 29.57600
C  20.06300 -4.43800 28.14500
C  18.98000 -3.51900 27.84600
C  21.30900 -4.96100 30.53200
C  20.61900 -5.41400 27.15300
O  20.29600 -5.45100 25.99300
C  21.59300 -6.54400 27.63100
N  16.90400 -1.43000 26.93100
C  17.58600 -2.23500 26.12700
C  17.16500 -2.22800 24.66200
C  16.09000 -1.11800 24.68700
C  16.00100 -0.67500 26.15900
C  18.34900 -2.01400 23.66100
C  14.65300 -1.48100 24.11900
C  13.93100 -0.40100 23.23500
N  15.74000 0.27600 28.96300
C  15.06900 0.84100 27.92000
C  14.33900 2.02300 28.43700
C  14.42500 1.90000 29.86200
C  15.38100 0.86200 30.07200
C  13.51700 3.00700 27.58800
C  14.08500 2.44100 31.08500
O  13.16400 3.18400 31.36900
C  14.91900 1.76800 32.26300
C  15.65100 2.86800 32.99100
O  16.26600 3.77700 32.49700
O  15.32800 2.65800 34.30700
C  16.10800 3.51000 35.18800
H  19.94700 -3.13600 32.11200
H  18.78100 -3.76700 25.70700
H  14.54000 0.87100 25.76300
H  17.22300 0.58000 33.86900
H  18.84300 -1.93900 33.84800
H  20.60700 -0.18200 32.63200
H  20.28300 -0.58200 34.33700
H  19.48900 0.84800 33.52100
H  16.66100 -2.35500 33.85100
H  15.26900 -1.21000 33.67100
H  16.02600 -2.28800 36.08600
H  15.42700 -0.56400 35.94900
H  22.28000 -4.46600 30.51300
H  21.52900 -5.95100 30.13500
H  20.91900 -5.16500 31.52900
H  22.41500 -6.01600 28.11500
H  21.94200 -7.12000 26.77500
H  21.04200 -7.26700 28.23300
H  16.80600 -3.23800 24.46100
H  16.48800 -0.33200 24.04500
H  18.41800 -2.74400 22.85400
H  19.35600 -2.04900 24.07700
H  18.26700 -1.11500 23.05100
H  14.07200 -1.74500 25.00200
H  14.79600 -2.38100 23.52200
H  13.00900 -0.21800 23.78700
H  13.77000 -0.61800 22.17900
H  14.48800 0.53100 23.14500
H  12.54100 2.54800 27.42400
H  13.94700 3.12600 26.59300
H  13.34900 3.89200 28.20100
H  14.15900 1.31800 32.90200
H  15.55200 4.40800 35.45700
H  17.06500 3.78000 34.74100
H  16.27600 2.96900 36.11900
Mg 47.27600 15.81100 28.08300
C  45.20700 15.75800 31.04400
C  49.53500 17.73700 29.71800
C  48.78700 16.34700 25.14100
C  44.57300 14.38800 26.38500
N  47.29100 16.66800 30.15800
C  46.47600 16.43100 31.18600
C  47.11200 16.97100 32.55400
C  48.43300 17.65300 32.04400
C  48.46900 17.27000 30.55800
C  48.54100 19.18400 32.22200
C  47.28100 15.79900 33.54500
C  46.95900 16.06200 35.01100
H  47.17300 17.52200 35.47300
N  49.03700 16.76100 27.51800
C  49.79700 17.55100 28.33000
C  50.94500 18.03000 27.61800
C  50.78200 17.63000 26.23800
C  49.47600 16.88900 26.27900
C  52.06800 18.78200 28.27400
C  51.62700 17.88300 25.01800
O  51.32500 17.41300 23.99700
C  52.90800 18.65200 25.12500
N  46.64600 15.67100 26.04900
C  47.54200 15.75900 25.04000
C  46.97600 15.23400 23.74600
C  45.79400 14.27000 24.24400
C  45.65100 14.85100 25.65400
C  46.52100 16.30100 22.66200
C  46.16300 12.74500 24.21100
C  45.79600 11.99700 22.90300
N  45.28500 15.30700 28.56300
C  44.34600 14.65100 27.73600
C  43.10500 14.40200 28.56200
C  43.45700 14.78500 29.89700
C  44.70400 15.40200 29.81500
C  41.82200 13.83800 28.04600
C  42.90400 14.90800 31.25500
O  41.76800 14.64300 31.63800
C  44.10900 15.43700 32.10100
C  43.66700 16.70700 32.74100
O  43.70500 17.82200 32.23900
O  43.33600 16.44200 34.05400
C  42.87600 17.57700 34.85700
H  50.10200 18.44500 30.32600
H  49.26500 16.37000 24.15900
H  43.86800 13.74400 25.85600
H  46.36000 17.69500 32.86800
H  49.33500 17.22500 32.48300
H  47.63600 19.42500 32.78000
H  48.47200 19.59800 31.21600
H  49.45500 19.49100 32.73200
H  48.34600 15.57600 33.60200
H  46.68500 14.95400 33.19900
H  47.59200 15.36500 35.56000
H  45.91200 15.76100 34.99800
H  51.95800 18.93800 29.34700
H  52.19500 19.75200 27.79200
H  52.98500 18.22600 28.07900
H  52.80900 19.39700 25.91400
H  53.05200 19.17800 24.18100
H  53.67800 17.94900 25.44100
H  47.69400 14.59000 23.23800
H  44.85300 14.42400 23.71700
H  46.62800 17.30500 23.07200
H  45.51500 16.17500 22.26200
H  47.23400 16.11900 21.85800
H  45.68500 12.31700 25.09300
H  47.24600 12.62800 24.22300
H  45.22700 11.15100 23.28900
H  46.59200 11.65900 22.24000
H  45.16900 12.57300 22.22200
H  41.47400 13.00800 28.66100
H  41.85800 13.47600 27.01800
H  41.05900 14.61200 28.13200
H  44.37800 14.63400 32.78800
H  41.82200 17.83000 34.75100
H  43.40400 18.52200 34.73000
H  43.10700 17.40700 35.90900

