158

Mg 25.93500 0.77300 29.03200
C  27.99200 0.43600 31.89700
C  23.29100 1.15900 31.10300
C  24.01200 0.94800 26.20400
C  28.62600 -0.23000 27.03800
N  25.69100 0.61700 31.24200
C  26.66200 0.60900 32.24600
C  26.08000 0.88100 33.61800
C  24.53500 0.88300 33.37100
C  24.46800 0.89300 31.82900
C  23.70600 -0.19400 34.21100
C  26.70100 2.17500 34.26900
C  26.16200 2.73200 35.65800
H  27.05700 2.74300 36.90300
N  23.91300 1.10200 28.70500
C  23.00600 1.30000 29.70800
C  21.70900 1.56000 29.06900
C  21.89000 1.44500 27.65800
C  23.32400 1.13500 27.43500
C  20.39900 1.73500 29.82500
C  20.87200 1.64400 26.51900
O  21.23400 1.52800 25.35000
C  19.43800 1.87800 26.84700
N  26.26700 0.37500 26.93200
C  25.35600 0.58300 25.98500
C  25.91200 0.39600 24.61100
C  27.41000 0.09900 24.85900
C  27.45200 0.00600 26.37400
C  25.22100 -0.66800 23.81200
C  28.29500 1.19400 24.24100
C  29.67300 0.73800 23.74900
N  27.90800 0.22200 29.35000
C  28.89600 -0.19100 28.49400
C  30.21300 -0.32500 29.16500
C  29.81800 -0.13000 30.51200
C  28.44200 0.20300 30.59600
C  31.51700 -0.69300 28.49700
C  30.32900 -0.24600 31.85900
O  31.48400 -0.41900 32.27300
C  29.20100 0.20600 32.79900
C  28.98300 -0.86100 33.85300
O  28.35900 -1.89300 33.62500
O  29.57200 -0.60700 35.04700
C  29.29700 -1.61200 36.17400
H  22.46700 1.35500 31.79100
H  23.61000 1.18900 25.21800
H  29.47500 -0.56900 26.44000
H  26.31700 0.06300 34.29800
H  24.24600 1.91100 33.58900
H  22.85400 -0.51900 33.61300
H  23.32500 0.08600 35.19400
H  24.23900 -1.10500 34.48400
H  26.73400 2.94600 33.50000
H  27.75200 1.96100 34.46000
H  25.18700 2.29000 35.86200
H  25.81900 3.75900 35.53500
H  20.09000 2.76100 29.62600
H  20.47600 1.74900 30.91300
H  19.72600 0.89200 29.67300
H  19.50900 2.62900 27.63300
H  18.96800 1.09000 27.43700
H  18.89100 2.20700 25.96400
H  25.74200 1.32600 24.06900
H  27.72500 -0.87500 24.48400
H  24.65500 -0.22800 22.99200
H  24.57500 -1.11700 24.56700
H  25.92600 -1.46800 23.58700
H  28.33100 2.04700 24.91800
H  27.82300 1.47200 23.29900
H  30.36300 1.35000 24.33000
H  29.76800 0.94900 22.68300
H  29.93600 -0.30500 23.92500
H  31.61600 -0.19500 27.53300
H  31.63700 -1.77200 28.39100
H  32.33400 -0.33200 29.12300
H  29.63000 1.06700 33.31200
H  29.93100 -1.56900 37.05900
H  29.34500 -2.67800 35.95100
H  28.30800 -1.45800 36.60700
Mg 41.24900 8.37400 29.47700
C  43.32800 9.80200 32.02800
C  39.42900 6.96700 31.67900
C  39.48100 7.36900 26.77400
C  43.69800 9.58800 27.14600
N  41.46300 8.29200 31.61500
C  42.20500 9.04300 32.49900
C  41.71200 8.87900 33.90800
C  40.68000 7.72500 33.78000
C  40.43300 7.70300 32.24300
C  41.10200 6.29800 34.34300
C  41.24200 10.22400 34.47500
C  41.13600 10.16600 36.05600
H  41.57900 11.35600 36.89600
N  39.60800 7.35400 29.25100
C  39.01900 6.78400 30.31900
C  37.90800 6.03600 29.77400
C  37.72600 6.37300 28.44000
C  38.99600 7.02800 28.06500
C  37.08600 5.15800 30.63500
C  36.67900 5.94900 27.46100
O  36.84500 6.20200 26.25400
C  35.38600 5.24100 27.75300
N  41.64700 8.24100 27.36200
C  40.68200 7.89300 26.43000
C  41.30600 7.73500 25.07600
C  42.41900 8.89200 25.13200
C  42.65300 8.86700 26.62900
C  41.85100 6.31100 24.66400
C  41.94400 10.30400 24.71800
C  42.98800 10.88800 23.76400
N  43.18100 9.36300 29.55100
C  44.01900 9.82000 28.53200
C  45.14000 10.48500 29.10800
C  44.85200 10.55500 30.43800
C  43.69100 9.88100 30.68700
C  46.24000 11.02200 28.25800
C  45.31400 11.12300 31.72200
O  46.23500 11.84800 31.96500
C  44.26700 10.72000 32.77100
C  45.00500 9.87600 33.75800
O  45.63100 8.88600 33.55200
O  44.73400 10.43900 34.99900
C  45.53000 9.81600 36.07000
H  38.78100 6.36600 32.32100
H  38.93200 7.14500 25.85700
H  44.33700 10.10000 26.42300
H  42.43000 8.45100 34.60700
H  39.74200 8.03700 34.24100
H  42.08600 6.33500 34.81100
H  41.18000 5.48200 33.62300
H  40.28800 6.00200 35.00400
H  40.21200 10.30800 34.13000
H  41.75800 11.08600 34.05200
H  41.67200 9.31500 36.47600
H  40.06500 10.04100 36.21200
H  37.83700 4.51800 31.10000
H  36.38400 4.63800 29.98300
H  36.44700 5.63400 31.37900
H  34.96500 5.46000 28.73400
H  35.62800 4.17800 27.76800
H  34.62500 5.56000 27.04100
H  40.65600 8.13000 24.29400
H  43.34300 8.56400 24.65600
H  41.55200 5.57100 25.40700
H  42.93900 6.23900 24.64100
H  41.34600 6.09600 23.72300
H  41.79100 10.96200 25.57300
H  40.99700 10.20200 24.18900
H  43.68200 10.14800 23.36600
H  43.51500 11.73800 24.19700
H  42.47200 11.24300 22.87300
H  45.85400 11.43000 27.32400
H  46.93500 10.25200 27.92400
H  46.71500 11.81100 28.84000
H  43.87200 11.65700 33.16600
H  45.30900 10.30000 37.02100
H  46.58000 9.60300 35.87000
H  45.16800 8.79200 36.16100

