158

Mg 36.12100 0.90300 29.73300
C  33.72100 2.49400 31.84600
C  38.31400 1.12000 32.36100
C  38.37500 -0.28800 27.61100
C  33.66400 1.08100 27.11500
N  35.99800 1.74000 31.83800
C  34.97300 2.23500 32.51300
C  35.26100 2.40200 33.99100
C  36.78600 2.40300 34.03800
C  37.04000 1.76600 32.61000
C  37.62000 3.75200 34.15600
C  34.46700 1.41600 34.89600
C  33.61000 2.04800 36.02000
H  34.21800 3.14200 36.95900
N  38.11000 0.42100 29.99300
C  38.84700 0.61500 31.12700
C  40.15700 0.16800 30.90100
C  40.23300 -0.26100 29.55400
C  38.86600 0.02400 28.95500
C  41.24100 0.20400 31.98800
C  41.46000 -0.68400 28.78500
O  41.40900 -0.98700 27.60700
C  42.82800 -0.83300 29.49100
N  36.08000 0.63200 27.64300
C  37.10900 0.01300 27.05000
C  36.77000 -0.27000 25.56000
C  35.28600 0.09700 25.44700
C  34.97800 0.71200 26.79600
C  37.76100 0.45000 24.64100
C  34.46300 -1.07200 25.07000
C  34.18900 -2.12300 26.20400
N  34.16400 1.62400 29.45700
C  33.24200 1.58700 28.37300
C  31.98200 2.22700 28.79700
C  32.06200 2.54700 30.14700
C  33.42700 2.15100 30.50200
C  30.68800 2.37800 27.97800
C  31.40400 3.10500 31.31300
O  30.24300 3.54100 31.45400
C  32.46300 3.10500 32.45000
C  32.67800 4.49800 32.89300
O  33.55300 5.30100 32.64300
O  31.72500 4.76400 33.86200
C  31.95500 6.03400 34.61400
H  38.92400 1.03100 33.26300
H  39.14300 -0.66800 26.93400
H  32.86700 0.91000 26.38900
H  34.89600 3.39200 34.26400
H  37.18400 1.73300 34.79900
H  38.11300 4.00600 33.21800
H  38.40300 3.78900 34.91200
H  36.98900 4.57400 34.49200
H  35.08100 0.70800 35.45300
H  33.88800 0.77000 34.23700
H  33.31300 1.17900 36.60700
H  32.69200 2.46500 35.60400
H  41.51800 -0.74800 32.43900
H  40.89800 0.78300 32.84600
H  42.11800 0.73500 31.61800
H  43.16500 0.11500 29.91000
H  43.59100 -1.38000 28.93700
H  42.63300 -1.36900 30.42000
H  36.80200 -1.35900 25.51500
H  35.18700 0.87000 24.68500
H  38.08000 -0.27200 23.88900
H  38.60500 0.80000 25.23500
H  37.37800 1.30700 24.08700
H  35.08700 -1.53500 24.30500
H  33.59500 -0.68400 24.53600
H  35.01000 -2.79800 26.44200
H  33.37900 -2.73400 25.80700
H  33.82400 -1.60000 27.08800
H  30.64900 3.01900 27.09700
H  29.91900 2.75400 28.65300
H  30.31400 1.42800 27.59800
H  32.02500 2.48100 33.22900
H  31.10300 6.26600 35.25400
H  31.97200 6.92800 33.99100
H  32.82600 5.97900 35.26700
Mg 15.42800 51.68900 25.77500
C  17.63500 50.48400 28.41100
C  13.38200 52.68800 28.04700
C  13.80500 52.71200 23.19700
C  17.96700 50.22100 23.50900
N  15.63700 51.60500 27.93500
C  16.55100 51.26300 28.83900
C  16.15000 51.52000 30.32500
C  14.72600 52.09600 30.05300
C  14.58500 52.08400 28.57000
C  13.59100 51.39900 30.82600
C  17.18300 52.47100 31.05500
C  16.55900 53.13500 32.31100
H  15.95200 52.24000 33.36800
N  13.78600 52.68900 25.63700
C  12.93700 52.94800 26.72100
C  11.66600 53.33500 26.18500
C  11.74700 53.22100 24.77100
C  13.11700 52.84100 24.44400
C  10.55100 53.76800 27.05600
C  10.69500 53.38200 23.73100
O  10.89600 53.41000 22.51700
C  9.24900 53.57100 24.09500
N  15.93900 51.60300 23.62000
C  14.99500 52.15200 22.78900
C  15.33900 51.79500 21.33000
C  16.78600 51.14900 21.42000
C  16.93100 50.97000 22.94100
C  14.35600 50.78100 20.67900
C  18.01900 51.90800 20.80200
C  18.71300 51.26600 19.62500
N  17.39200 50.58100 25.90500
C  18.23400 50.06700 24.90700
C  19.36300 49.41900 25.50200
C  19.08600 49.50800 26.87100
C  17.92900 50.26900 27.07500
C  20.44500 48.84900 24.79300
C  19.57500 49.05700 28.16900
O  20.58800 48.36300 28.37800
C  18.74100 49.83200 29.28000
C  18.19100 48.91000 30.27300
O  17.46700 47.90500 29.99600
O  18.64900 49.19900 31.55100
C  18.12600 48.45600 32.64400
H  12.61000 53.09000 28.70700
H  13.20700 52.90600 22.30400
H  18.65500 49.78300 22.78400
H  16.05500 50.71300 31.05200
H  14.70700 53.14300 30.35700
H  13.90800 50.62100 31.52100
H  12.90700 50.83700 30.19100
H  13.06300 52.18300 31.36900
H  17.44100 53.22300 30.30800
H  17.95900 51.86300 31.51900
H  15.83100 53.91500 32.08800
H  17.39400 53.65400 32.78100
H  9.95500 54.61900 26.72800
H  10.85000 53.90400 28.09600
H  9.81800 52.96600 26.97400
H  8.66100 53.41900 23.19000
H  9.23600 54.59900 24.45600
H  8.91000 52.88200 24.86900
H  15.48200 52.75400 20.83100
H  16.66300 50.13400 21.04200
H  13.82200 51.24800 19.85200
H  13.74300 50.36700 21.47900
H  14.84200 49.93400 20.19400
H  18.75500 51.98200 21.60300
H  17.71300 52.91200 20.50700
H  18.76700 51.90100 18.74100
H  17.97600 50.54400 19.27600
H  19.70600 50.98400 19.97500
H  20.14000 47.92800 24.29600
H  21.25600 48.74600 25.51500
H  20.73700 49.62600 24.08700
H  19.24800 50.67000 29.76000
H  18.90900 47.79800 33.02100
H  17.23700 47.88800 32.36900
H  17.75900 49.12800 33.41900

