158

Mg 2.39000 -1.28100 44.69300
C  5.45600 0.07800 43.81500
C  0.87300 1.03600 42.53900
C  -0.51600 -2.88900 45.24500
C  4.10700 -3.80000 46.39100
N  3.13200 0.34000 43.24300
C  4.47400 0.77700 43.21400
C  4.62000 1.89000 42.11000
C  3.13800 2.27200 41.85800
C  2.25900 1.14500 42.54400
C  2.69500 3.70100 42.31000
C  5.39000 1.37100 40.85100
C  6.62800 2.13200 40.47800
H  6.79900 2.47700 39.02100
N  0.40700 -0.91300 44.11700
C  0.00900 0.03700 43.19200
C  -1.36500 -0.06000 43.16000
C  -1.84400 -1.16800 43.92700
C  -0.61200 -1.76700 44.50000
C  -2.16800 0.94400 42.31400
C  -3.39100 -1.48700 44.19400
O  -4.23700 -0.85700 43.54700
C  -3.85400 -2.63400 45.05500
N  1.88200 -3.07200 45.66900
C  0.64300 -3.55600 45.75100
C  0.55500 -4.98300 46.26700
C  2.03000 -5.34100 46.42600
C  2.79100 -4.02100 46.04200
C  -0.14800 -5.15000 47.63000
C  2.63500 -6.60400 45.73400
C  3.45600 -7.63600 46.63000
N  4.31800 -1.75900 45.11800
C  4.82300 -2.79000 45.79600
C  6.25800 -2.66300 45.90100
C  6.58600 -1.55300 45.12900
C  5.39400 -1.05000 44.63100
C  7.11100 -3.60900 46.68200
C  7.64300 -0.67100 44.65200
O  8.87000 -0.69500 44.76200
C  6.95400 0.42900 43.76600
C  7.19500 1.77800 44.39200
O  6.76400 2.15800 45.47500
O  7.90000 2.62100 43.61300
C  8.40500 3.88900 44.11600
H  0.34700 1.72600 41.87600
H  -1.49400 -3.36700 45.32700
H  4.65300 -4.70400 46.66800
H  5.20900 2.63500 42.64400
H  3.06000 2.14100 40.77900
H  3.61600 4.28300 42.34200
H  2.34000 3.68500 43.34000
H  1.98000 4.07000 41.57400
H  4.80400 1.40700 39.93300
H  5.62800 0.33800 41.10500
H  7.52000 1.61000 40.82500
H  6.70800 3.01300 41.11400
H  -1.98700 0.62300 41.28900
H  -1.79200 1.96600 42.35900
H  -3.25400 0.86400 42.37100
H  -3.49800 -3.62900 44.79000
H  -4.94300 -2.58500 45.06400
H  -3.57500 -2.53000 46.10400
H  0.03100 -5.51900 45.47600
H  2.23300 -5.42300 47.49300
H  -0.50300 -4.17900 47.97600
H  0.36900 -5.66400 48.44100
H  -1.04800 -5.74000 47.45500
H  3.27200 -6.21200 44.94200
H  1.80500 -7.21500 45.37900
H  3.69200 -7.50600 47.68600
H  4.46500 -7.71300 46.22700
H  2.91800 -8.58300 46.58900
H  7.60500 -4.35400 46.05900
H  6.50500 -4.15900 47.40200
H  7.93900 -3.11100 47.18700
H  7.43300 0.42100 42.78700
H  9.48000 3.80200 43.96300
H  8.25500 4.04700 45.18400
H  8.05700 4.81200 43.65000
Mg -12.12000 16.99700 41.83600
C  -9.05700 15.35400 41.33900
C  -10.87500 19.81800 40.35400
C  -15.35000 18.13400 41.45700
C  -13.47900 14.01200 43.06500
N  -10.21100 17.49800 40.92100
C  -9.06800 16.70200 40.88800
C  -7.93300 17.45200 40.23500
C  -8.40300 18.92200 40.27200
C  -9.94900 18.74700 40.43500
C  -7.77900 19.81200 41.32800
C  -7.71500 16.84000 38.78700
C  -6.23700 16.90400 38.23500
H  -5.82500 17.78000 37.01200
N  -13.02100 18.84800 41.13400
C  -12.31500 19.83000 40.63500
C  -13.21300 20.91800 40.41800
C  -14.54100 20.50800 40.72600
C  -14.39600 19.08700 41.06400
C  -12.69000 22.29600 39.97700
C  -15.73900 21.46500 40.84100
O  -15.67900 22.64700 40.47200
C  -17.14500 20.97000 41.31500
N  -14.19900 16.14700 42.09900
C  -15.31600 16.90500 42.01700
C  -16.54400 16.15600 42.52900
C  -15.91600 14.91900 43.20800
C  -14.36600 15.00400 42.78500
C  -17.44100 16.96500 43.50100
C  -16.65700 13.58100 42.93800
C  -17.30500 12.70800 43.95700
N  -11.47100 15.09600 42.15100
C  -12.13300 13.96100 42.71500
C  -11.24900 12.85700 42.78000
C  -10.02900 13.35800 42.24700
C  -10.21300 14.70300 41.87400
C  -11.56900 11.58800 43.42000
C  -8.61500 13.06700 41.91300
O  -7.95500 12.02400 42.00400
C  -7.89200 14.33600 41.28200
C  -6.79000 14.76600 42.13200
O  -6.80300 14.76800 43.32000
O  -5.79200 15.20700 41.33000
C  -4.72800 15.91300 42.05700
H  -10.37000 20.73800 40.05000
H  -16.37400 18.51400 41.46900
H  -14.03000 13.19200 43.52900
H  -7.07000 17.23200 40.86300
H  -8.18100 19.40400 39.31900
H  -7.24200 20.59000 40.78600
H  -7.07500 19.25800 41.94800
H  -8.59000 20.29100 41.87800
H  -8.44900 17.35900 38.17200
H  -8.03400 15.80800 38.64400
H  -5.85200 15.90100 38.05100
H  -5.64300 17.20900 39.09600
H  -13.10600 23.17300 40.47300
H  -12.89600 22.38800 38.91100
H  -11.61000 22.39900 40.07600
H  -17.87000 21.77900 41.40300
H  -16.97600 20.51100 42.28900
H  -17.71600 20.31200 40.66000
H  -17.09900 15.84600 41.64400
H  -15.93800 14.99200 44.29500
H  -17.28900 18.04200 43.57200
H  -17.37900 16.57000 44.51500
H  -18.46800 16.81100 43.17100
H  -15.97600 12.90900 42.41500
H  -17.45600 13.67300 42.20200
H  -17.59500 13.37800 44.76500
H  -16.68800 11.94600 44.43400
H  -18.33400 12.37300 43.82500
H  -11.11600 10.89100 42.71500
H  -12.65700 11.57300 43.48500
H  -11.08100 11.45200 44.38500
H  -7.58600 14.14500 40.25400
H  -4.76600 16.96600 41.77800
H  -3.74900 15.44300 41.96000
H  -4.89500 15.96000 43.13300

