158

Mg 0.34500 8.62200 26.55800
C  1.06100 10.68200 29.48400
C  0.82700 5.89000 28.55700
C  0.14500 6.74900 23.80200
C  0.86500 11.44800 24.64400
N  0.85700 8.33100 28.86100
C  0.99200 9.29300 29.81800
C  1.11000 8.56700 31.18600
C  1.25900 7.02800 30.88000
C  0.97900 7.05500 29.35000
C  2.62200 6.39500 31.27400
C  -0.17600 9.02900 31.94100
C  -0.09400 8.94400 33.49500
H  1.23100 8.41800 34.14800
N  0.34400 6.66700 26.26800
C  0.50300 5.68300 27.21500
C  0.19900 4.37700 26.60700
C  0.09300 4.56300 25.16800
C  0.13700 6.08200 25.03800
C  0.19600 3.08200 27.38200
C  0.09400 3.55000 24.01600
O  0.19000 3.87100 22.84700
C  0.07400 2.10900 24.20800
N  0.48100 9.01000 24.53100
C  0.37300 8.08200 23.57600
C  0.53400 8.67500 22.17700
C  0.33800 10.17100 22.50900
C  0.62100 10.21400 23.96900
C  1.94300 8.24700 21.56200
C  -1.16600 10.72300 22.26900
C  -1.44300 11.98700 21.62500
N  0.92000 10.61800 26.90600
C  1.08000 11.70100 26.02100
C  1.38100 12.87600 26.72900
C  1.38400 12.51200 28.09600
C  1.01400 11.15500 28.20600
C  1.63500 14.22700 26.15500
C  1.60400 13.05700 29.35500
O  2.02500 14.18500 29.60600
C  1.30900 11.88300 30.40600
C  2.43800 11.72100 31.31300
O  3.67200 11.64000 31.06100
O  1.92200 11.77500 32.55700
C  2.88900 12.31600 33.51400
H  0.95700 5.01300 29.19400
H  0.14000 6.13400 22.89900
H  1.05400 12.36200 24.07800
H  1.99600 9.01400 31.63500
H  0.53600 6.35600 31.34400
H  2.53500 5.55800 31.96700
H  3.20900 7.18800 31.73600
H  3.14400 6.01400 30.39600
H  -1.01500 8.37500 31.70400
H  -0.53900 9.99500 31.58900
H  -0.85500 8.23800 33.82700
H  -0.26500 9.95000 33.88000
H  -0.08400 3.38300 28.39200
H  1.17300 2.60500 27.30500
H  -0.49900 2.42800 26.85700
H  -0.76800 1.65700 24.73100
H  0.98800 1.82700 24.73200
H  0.08000 1.64000 23.22400
H  -0.25300 8.17700 21.61100
H  1.03900 10.77100 21.92900
H  1.82500 7.44100 20.83700
H  2.76200 8.09600 22.26500
H  2.37900 9.02000 20.93000
H  -1.58800 10.79400 23.27100
H  -1.71500 9.93000 21.76000
H  -0.99900 12.12500 20.64000
H  -1.17200 12.74700 22.35800
H  -2.46500 11.99100 21.24500
H  0.71700 14.80400 26.26800
H  1.82900 14.18800 25.08300
H  2.42500 14.81700 26.61900
H  0.41600 12.23800 30.92000
H  3.14200 11.46500 34.14700
H  2.42300 12.99000 34.23300
H  3.79600 12.73100 33.07700
Mg 8.62200 4.45000 27.58600
C  10.12000 2.72000 30.24700
C  6.70500 6.20600 29.77000
C  7.18200 5.94400 24.92200
C  10.22000 2.32800 25.43700
N  8.41000 4.42300 29.73600
C  9.11500 3.67200 30.67800
C  8.69000 3.89600 32.14900
C  7.51400 4.90200 31.89200
C  7.53300 5.25000 30.40300
C  6.12400 4.33000 32.33400
C  9.86100 4.43200 32.94700
C  9.61800 5.08300 34.38700
H  10.09400 4.38200 35.66100
N  7.17900 5.99300 27.35300
C  6.57200 6.64100 28.41400
C  5.68600 7.61300 27.88300
C  5.81600 7.57900 26.44700
C  6.73500 6.48600 26.15800
C  4.80800 8.54800 28.81500
C  5.03300 8.38200 25.43600
O  5.16500 8.09300 24.26300
C  4.10800 9.49900 25.82400
N  8.52000 4.07100 25.47500
C  7.94700 4.88200 24.58200
C  8.24200 4.47300 23.12800
C  9.33100 3.38700 23.35100
C  9.37000 3.21500 24.84200
C  6.90000 4.01700 22.41500
C  10.63000 3.51000 22.52500
C  11.15300 2.25700 21.79600
N  9.88100 2.88500 27.78300
C  10.43600 2.09600 26.77900
C  11.31500 1.10900 27.36700
C  11.23900 1.30400 28.74600
C  10.38200 2.41500 28.90200
C  12.04900 0.07100 26.65400
C  11.66600 0.89200 30.00100
O  12.38600 -0.04200 30.31500
C  10.90000 1.74300 31.11400
C  10.21900 0.90600 31.99500
O  9.21300 0.29400 31.66800
O  10.77300 0.94300 33.26300
C  10.11500 0.07400 34.34100
H  6.15800 6.83800 30.47300
H  6.78000 6.55500 24.11100
H  10.72400 1.58700 24.81300
H  8.41700 2.91600 32.54000
H  7.60800 5.86400 32.39400
H  5.58600 4.98500 33.01800
H  6.26100 3.36200 32.81500
H  5.69000 4.06900 31.36900
H  10.36100 5.22300 32.38900
H  10.69400 3.73300 33.01100
H  8.53400 5.18700 34.44800
H  9.98200 6.10900 34.33300
H  5.08800 9.59800 28.73700
H  4.97500 8.29300 29.86200
H  3.75100 8.47000 28.56000
H  3.91300 10.06700 24.91400
H  4.59100 10.13300 26.56700
H  3.18500 9.02900 26.16600
H  8.54100 5.36600 22.58000
H  8.86800 2.45200 23.03400
H  7.05400 3.09000 21.86100
H  6.58900 4.74700 21.66800
H  6.10500 3.96100 23.15800
H  11.38800 3.86800 23.22100
H  10.45000 4.12300 21.64100
H  10.49700 2.30500 20.92600
H  10.89700 1.39700 22.41500
H  12.17700 2.39900 21.45200
H  11.43100 -0.78900 26.39700
H  12.75100 -0.35000 27.37300
H  12.69400 0.49700 25.88600
H  11.62200 2.32500 31.68700
H  9.25700 -0.47500 33.95300
H  9.85300 0.78000 35.12900
H  10.79600 -0.69300 34.71000

