158

Mg 35.28000 3.17800 29.43900
C  33.16100 4.13900 32.14000
C  37.85300 2.73900 31.64000
C  37.15200 2.00200 26.89700
C  32.68000 3.92200 27.18800
N  35.49900 3.51600 31.61100
C  34.52000 3.88800 32.54200
C  35.07500 3.85800 33.94400
C  36.64900 3.75800 33.67900
C  36.68200 3.30100 32.18200
C  37.47500 5.05100 33.91500
C  34.46100 2.81500 34.91100
C  34.17600 3.29600 36.30400
H  35.05700 4.39100 36.87100
N  37.22700 2.35700 29.29100
C  38.09900 2.23900 30.31700
C  39.34500 1.59400 29.83400
C  39.09100 1.26000 28.44500
C  37.70400 1.80900 28.15600
C  40.51100 1.16800 30.66200
C  39.96000 0.41300 27.47700
O  39.61100 0.22400 26.35600
C  41.35700 -0.23700 27.88400
N  35.02000 3.06500 27.45400
C  35.94500 2.64000 26.58300
C  35.46200 2.61600 25.13800
C  33.94000 2.88300 25.29300
C  33.86000 3.38800 26.67600
C  36.24800 3.68900 24.37300
C  32.84400 1.84600 24.97500
C  31.64500 2.39100 24.23700
N  33.37600 3.89700 29.57700
C  32.37600 4.03300 28.55300
C  31.15900 4.43000 29.13000
C  31.43600 4.46300 30.52900
C  32.80800 4.13400 30.73700
C  29.87500 4.66300 28.41400
C  30.83600 4.75800 31.79700
O  29.68200 5.11700 32.12000
C  31.92600 4.39000 32.94200
C  31.97100 5.62700 33.88000
O  32.46800 6.71700 33.68600
O  31.31200 5.40300 35.04500
C  31.23000 6.57400 35.98800
H  38.63500 2.54900 32.37700
H  37.62500 1.62400 25.98900
H  31.86400 4.00000 26.46700
H  34.77200 4.85000 34.28100
H  37.07800 3.03500 34.37300
H  36.80700 5.90400 34.03500
H  38.01000 5.25800 32.98800
H  38.14500 4.97600 34.77100
H  35.09800 1.93300 34.84500
H  33.51500 2.53000 34.45100
H  34.11100 2.51000 37.05800
H  33.18000 3.73000 36.39600
H  40.59200 0.08300 30.72200
H  40.37000 1.66500 31.62200
H  41.42100 1.45700 30.13700
H  42.08800 0.56000 28.01800
H  41.47400 -0.84400 26.98600
H  41.09500 -0.77100 28.79700
H  35.61200 1.64200 24.67300
H  33.73400 3.71400 24.61900
H  37.15600 3.96600 24.90900
H  35.73500 4.65100 24.36100
H  36.45300 3.21800 23.41200
H  32.57400 1.36900 25.91700
H  33.25700 1.07100 24.32900
H  30.76600 1.99900 24.75000
H  31.67100 1.94400 23.24300
H  31.58000 3.46800 24.08200
H  29.75800 4.01500 27.54500
H  29.73600 5.68100 28.05200
H  29.01100 4.34100 28.99500
H  31.52200 3.49300 33.41300
H  30.64600 7.34000 35.47700
H  32.17800 6.77100 36.48800
H  30.47000 6.31800 36.72600
Mg -1.95500 34.31100 27.74300
C  -3.83400 32.42800 29.91800
C  -0.47200 35.91900 30.48400
C  -0.51400 36.44900 25.57200
C  -3.77100 32.88300 25.05200
N  -2.20000 34.23100 29.94800
C  -3.03900 33.33200 30.62600
C  -2.65500 33.23300 32.09600
C  -1.73900 34.45700 32.25700
C  -1.39900 34.88400 30.82800
C  -2.22600 35.67200 33.12400
C  -2.06400 31.86100 32.52200
C  -2.54700 31.27300 33.89000
H  -1.88200 31.84300 35.21900
N  -0.54600 35.83600 27.94900
C  -0.06500 36.38200 29.13000
C  0.90100 37.37300 28.76500
C  0.88000 37.51900 27.34000
C  -0.10500 36.56700 26.88300
C  1.72500 38.19800 29.76700
C  1.80400 38.44300 26.44700
O  1.79300 38.47300 25.20800
C  2.92200 39.18800 27.07400
N  -2.15800 34.57500 25.53800
C  -1.35800 35.52200 24.96900
C  -1.60500 35.53800 23.50800
C  -2.58000 34.31100 23.30700
C  -2.81600 33.82800 24.69300
C  -2.20100 36.81600 22.83400
C  -2.09800 33.20800 22.25900
C  -3.11900 32.85700 21.16200
N  -3.43600 32.96300 27.43800
C  -4.00300 32.42400 26.32200
C  -5.06100 31.45800 26.73400
C  -4.90500 31.39900 28.06400
C  -3.98000 32.33100 28.50300
C  -5.89200 30.60300 25.82200
C  -5.43700 30.64200 29.22800
O  -6.23300 29.69500 29.19100
C  -4.77200 31.35100 30.51200
C  -5.96700 31.82500 31.27800
O  -6.86200 32.40100 30.74800
O  -5.94500 31.47300 32.56500
C  -6.94300 31.93500 33.53600
H  0.00400 36.39600 31.34400
H  -0.08800 37.23400 24.94400
H  -4.38800 32.49700 24.23800
H  -3.56800 33.39600 32.66900
H  -0.70600 34.35300 32.58800
H  -1.76600 35.55400 34.10500
H  -3.31200 35.65200 33.21500
H  -1.92700 36.63000 32.69900
H  -0.99400 32.06600 32.54100
H  -2.23700 31.05100 31.81300
H  -2.56700 30.19200 33.74700
H  -3.58800 31.54800 34.05800
H  1.46100 38.13600 30.82300
H  1.64500 39.23900 29.45400
H  2.78900 37.98400 29.66200
H  2.51500 39.98400 27.69800
H  3.42300 39.79100 26.31700
H  3.53300 38.49500 27.65100
H  -0.62900 35.32600 23.07000
H  -3.57000 34.60300 22.95800
H  -2.69600 37.50600 23.51700
H  -3.03900 36.45400 22.23800
H  -1.48200 37.21400 22.11700
H  -1.79000 32.30200 22.78100
H  -1.24500 33.57500 21.68900
H  -3.18100 31.78000 21.00300
H  -2.79700 33.48300 20.33000
H  -4.09300 33.28400 21.40200
H  -5.14700 30.04300 25.25700
H  -6.45100 31.25200 25.14800
H  -6.51900 29.96100 26.44100
H  -4.22900 30.63500 31.12800
H  -6.54000 32.61900 34.28300
H  -7.16200 31.01800 34.08300
H  -7.83600 32.26300 33.00400

