158

Mg 24.38300 -7.79400 46.83300
C  26.16500 -5.12800 45.39500
C  21.68000 -7.15200 44.78900
C  23.01800 -10.70000 47.76100
C  27.39400 -8.77600 48.28300
N  24.00200 -6.34100 45.30100
C  24.94700 -5.39300 44.81300
C  24.23500 -4.58700 43.65700
C  22.69800 -4.95000 43.79200
C  22.80500 -6.24700 44.64400
C  21.78700 -3.91300 44.42800
C  24.92100 -4.77500 42.22400
C  25.39100 -3.46000 41.59800
H  24.61600 -3.00200 40.36500
N  22.53200 -8.73500 46.41600
C  21.59700 -8.32600 45.51700
C  20.45500 -9.21600 45.56800
C  20.72200 -10.15700 46.56300
C  22.11700 -9.95100 46.95100
C  19.18000 -9.04700 44.62900
C  19.75600 -11.13300 47.01800
O  18.62500 -11.09100 46.60500
C  20.07000 -12.18600 47.99400
N  25.12800 -9.48200 47.74600
C  24.37000 -10.51000 48.07000
C  25.05500 -11.64600 48.84100
C  26.45100 -11.10000 49.00100
C  26.36200 -9.73500 48.25500
C  24.42900 -12.12500 50.18800
C  27.50700 -12.05900 48.47100
C  28.77300 -12.22400 49.33200
N  26.42100 -7.06800 46.90300
C  27.45600 -7.54200 47.61100
C  28.51400 -6.58300 47.57800
C  28.10800 -5.59300 46.70800
C  26.83200 -5.99200 46.24800
C  29.72100 -6.47800 48.55400
C  28.40700 -4.38000 46.06100
O  29.48000 -3.75400 46.01700
C  27.14400 -4.03900 45.16400
C  26.66000 -2.67300 45.29800
O  26.85600 -1.84600 44.40600
O  25.79600 -2.54200 46.34800
C  25.33400 -1.24300 46.65100
H  20.86100 -6.91000 44.10800
H  22.73100 -11.69600 48.10400
H  28.25200 -9.06300 48.89500
H  24.16200 -3.52000 43.86600
H  22.24200 -5.16500 42.82600
H  22.37100 -3.00700 44.59200
H  21.52500 -4.29600 45.41400
H  20.96100 -3.61500 43.78200
H  24.18900 -5.20000 41.53700
H  25.79900 -5.42100 42.22300
H  26.40800 -3.58300 41.22700
H  25.41700 -2.58000 42.24100
H  18.48700 -8.43500 45.20600
H  18.72000 -9.97900 44.29900
H  19.42600 -8.50900 43.71400
H  20.57500 -12.98600 47.45300
H  19.17400 -12.57300 48.47900
H  20.57800 -11.68200 48.81600
H  25.00100 -12.52600 48.20000
H  26.67400 -10.83300 50.03400
H  23.42900 -11.69000 50.19700
H  24.97600 -11.76000 51.05700
H  24.34000 -13.20200 50.32800
H  27.75300 -11.81800 47.43700
H  27.08100 -13.05900 48.54400
H  29.57200 -11.66800 48.84100
H  29.13200 -13.24000 49.49300
H  28.67200 -11.71900 50.29300
H  30.38000 -7.33100 48.39200
H  29.40900 -6.53400 49.59700
H  30.20100 -5.50900 48.41600
H  27.61600 -4.05100 44.18200
H  24.37500 -1.42400 47.13700
H  25.18200 -0.48300 45.88500
H  25.94100 -0.78000 47.42900
Mg 25.73600 0.11700 28.43600
C  27.45800 -0.32300 31.56600
C  22.74400 0.23500 30.25700
C  24.14500 0.21700 25.55500
C  28.58500 -0.92500 26.81900
N  25.15400 -0.08900 30.67400
C  26.08800 -0.12000 31.75900
C  25.31300 0.15800 33.05100
C  23.78900 0.29000 32.64600
C  23.85000 0.16900 31.10900
C  22.65900 -0.66500 33.35400
C  25.80800 1.41000 33.91100
C  26.37600 1.05000 35.29000
H  25.70300 1.77400 36.49500
N  23.75600 0.25100 28.00000
C  22.68300 0.33700 28.82700
C  21.52900 0.46800 28.05100
C  21.88400 0.52200 26.71300
C  23.28700 0.31500 26.71500
C  20.13600 0.58400 28.67900
C  20.99300 0.70700 25.56900
O  21.27100 0.38300 24.43600
C  19.54000 1.01400 25.78000
N  26.32500 -0.39500 26.45200
C  25.47900 -0.06100 25.44200
C  26.16400 -0.09500 24.03600
C  27.66000 -0.28400 24.50100
C  27.55400 -0.53600 25.99500
C  25.63300 -1.24300 23.16500
C  28.73100 0.79000 24.13800
C  29.44800 0.83300 22.72500
N  27.55000 -0.52100 29.02700
C  28.67700 -0.82800 28.24200
C  29.83100 -1.02100 29.01800
C  29.36800 -0.87500 30.34600
C  28.01700 -0.58400 30.30800
C  31.27200 -1.11900 28.57800
C  29.79900 -0.87600 31.71400
O  30.93600 -1.08000 32.08400
C  28.61400 -0.43000 32.58000
C  28.46700 -1.37000 33.67300
O  27.93800 -2.45700 33.68800
O  28.83900 -0.76100 34.79400
C  28.73900 -1.54600 36.01000
H  21.81200 0.32400 30.81800
H  23.65700 0.47000 24.61200
H  29.44800 -1.19400 26.20600
H  25.31900 -0.76000 33.63900
H  23.40100 1.25900 32.96100
H  23.14200 -1.42000 33.97400
H  22.30400 -1.30000 32.54300
H  21.82000 -0.16700 33.84000
H  24.92600 2.03600 34.05300
H  26.52200 2.00100 33.33800
H  27.45700 1.15100 35.38900
H  26.23000 0.00100 35.54700
H  19.61300 1.54100 28.69400
H  20.14400 0.19800 29.69800
H  19.57000 -0.12500 28.07500
H  19.06700 0.12900 26.20500
H  19.03200 1.26400 24.84800
H  19.58200 1.82500 26.50800
H  25.94700 0.84000 23.51900
H  28.07600 -1.18400 24.04800
H  24.89300 -1.72500 23.80400
H  26.36400 -2.04000 23.02400
H  25.13700 -0.99600 22.22600
H  29.44800 0.98100 24.93600
H  28.14400 1.70400 24.05400
H  30.47100 1.16300 22.91000
H  28.91500 1.50200 22.05000
H  29.38300 -0.13900 22.23600
H  31.26700 -0.78300 27.54100
H  31.66100 -2.13700 28.58500
H  31.90000 -0.47200 29.19200
H  28.74600 0.57600 32.97700
H  29.24500 -2.50600 35.91000
H  27.74800 -1.86200 36.33600
H  29.19900 -0.98500 36.82300

