158

Mg 8.28900 2.93400 28.30600
C  9.93500 1.52800 31.06800
C  6.38400 4.81100 30.57600
C  6.61700 4.47500 25.73700
C  9.89600 0.82600 26.18600
N  7.93100 2.87800 30.52000
C  8.88500 2.39000 31.42200
C  8.59100 2.86800 32.83000
C  7.34100 3.71400 32.68500
C  7.22600 3.80700 31.11400
C  6.00700 3.29200 33.40700
C  9.85400 3.53800 33.44000
C  9.60000 4.27200 34.74500
H  10.33700 3.73100 36.01300
N  6.70500 4.47900 28.18500
C  6.09600 5.10100 29.19900
C  5.15300 6.03200 28.71600
C  5.12200 5.93400 27.28200
C  6.21700 4.95500 27.00500
C  4.22600 6.76400 29.63700
C  4.19100 6.65900 26.37500
O  4.25500 6.43800 25.16600
C  3.19100 7.66300 26.87000
N  8.38800 2.81800 26.28200
C  7.49500 3.43900 25.38800
C  7.64200 2.88400 24.00100
C  8.88000 1.88200 24.07600
C  9.02700 1.75700 25.60500
C  6.38400 2.25700 23.38100
C  10.15000 2.28900 23.33400
C  10.25700 2.02400 21.81600
N  9.67400 1.44300 28.52900
C  10.24600 0.65700 27.53600
C  11.14200 -0.21500 28.16800
C  11.14100 0.12500 29.53000
C  10.22900 1.14100 29.70400
C  11.90800 -1.28100 27.51700
C  11.75100 -0.22200 30.87200
O  12.58600 -1.04600 31.14600
C  11.04100 0.78800 31.92000
C  10.50100 0.01400 33.09900
O  9.34800 -0.45500 33.13700
O  11.39700 0.13400 34.04900
C  10.91500 -0.38700 35.33600
H  5.96000 5.53500 31.27500
H  6.09200 4.82300 24.84500
H  10.41500 0.07700 25.58400
H  8.30800 1.99000 33.40900
H  7.41900 4.76100 32.97700
H  5.97300 2.22100 33.60700
H  5.13000 3.70500 32.90900
H  6.06800 3.83500 34.35100
H  10.46200 4.03900 32.68600
H  10.50600 2.72800 33.76700
H  8.55100 4.25200 35.04000
H  10.05700 5.25400 34.62300
H  4.06200 7.80600 29.36300
H  4.74700 6.78700 30.59400
H  3.30600 6.21200 29.83100
H  2.65800 8.06400 26.00800
H  3.75400 8.46500 27.34600
H  2.46800 7.08100 27.44200
H  7.99400 3.75700 23.45200
H  8.50800 0.88100 23.85200
H  5.84600 3.08500 22.92000
H  5.71400 1.81500 24.11900
H  6.73200 1.58700 22.59500
H  11.08300 1.92300 23.76400
H  10.27400 3.37100 23.39200
H  9.26000 1.73400 21.48400
H  10.91300 1.17300 21.63100
H  10.74800 2.82400 21.26300
H  11.46400 -2.27100 27.61600
H  12.89600 -1.23800 27.97600
H  12.14900 -1.00700 26.49000
H  11.61600 1.56400 32.42400
H  10.31800 0.31400 35.91900
H  11.72900 -0.58300 36.03500
H  10.33100 -1.30700 35.28900
Mg 10.05500 47.22700 25.87800
C  8.17000 46.97900 28.92700
C  12.67200 48.56700 27.87900
C  11.91900 47.49500 23.19500
C  7.25200 46.24300 24.14800
N  10.41600 47.55200 28.15500
C  9.48900 47.40200 29.16900
C  10.01200 48.00200 30.53200
C  11.29900 48.75000 30.07800
C  11.46700 48.30400 28.63500
C  11.09900 50.27600 30.08800
C  10.21400 46.95100 31.72500
C  9.49200 47.27000 33.04300
H  9.41600 46.11400 34.13000
N  12.09800 47.87200 25.60600
C  13.02100 48.28900 26.53700
C  14.31600 48.32400 25.91500
C  14.06800 48.05100 24.53400
C  12.68500 47.80300 24.37100
C  15.54300 48.65200 26.68600
C  14.94000 48.04700 23.43400
O  14.60200 48.08900 22.24700
C  16.39100 47.91900 23.69400
N  9.54700 46.99600 23.99000
C  10.57400 47.14900 23.06800
C  10.03500 46.53600 21.75000
C  8.65000 45.91200 22.07000
C  8.49700 46.33500 23.45800
C  10.03800 47.54300 20.55900
C  8.69800 44.37700 22.01800
C  8.85800 43.56200 23.28200
N  8.07400 46.77600 26.38800
C  6.99600 46.56100 25.53400
C  5.77300 46.42200 26.28400
C  6.20400 46.55100 27.65500
C  7.57300 46.74700 27.63000
C  4.44400 46.29700 25.73600
C  5.82800 46.58200 29.07700
O  4.73600 46.59400 29.60000
C  7.06800 46.78500 30.00200
C  7.29400 45.55900 30.85400
O  7.94100 44.55400 30.52700
O  6.52000 45.68600 32.01300
C  6.48300 44.45900 32.82400
H  13.51900 48.79800 28.52800
H  12.39800 47.65900 22.22700
H  6.43800 45.75800 23.60500
H  9.21000 48.70000 30.77200
H  12.21200 48.48700 30.61400
H  10.05000 50.57000 30.10700
H  11.35800 50.77200 29.15300
H  11.65300 50.67700 30.93700
H  11.27000 46.94900 31.99500
H  9.93200 46.00500 31.26200
H  8.43600 47.50500 32.90900
H  10.00000 48.14700 33.44500
H  16.06700 49.49700 26.23900
H  16.09500 47.76800 26.36700
H  15.41200 48.75800 27.76300
H  16.79000 48.62700 24.42000
H  16.99100 47.95600 22.78500
H  16.46900 46.91500 24.11200
H  10.79000 45.78400 21.52300
H  7.80400 46.19900 21.44600
H  10.39500 48.52800 20.86000
H  8.99500 47.76700 20.33500
H  10.63600 47.05800 19.78700
H  9.42300 44.02800 21.28200
H  7.78600 44.04300 21.52400
H  8.86800 44.12200 24.21700
H  9.91400 43.29600 23.23500
H  8.22600 42.67500 23.30900
H  4.36100 47.20300 25.13500
H  3.65600 46.25200 26.48700
H  4.44200 45.44600 25.05600
H  6.99400 47.72400 30.55100
H  6.49800 44.74700 33.87600
H  7.29400 43.75100 32.65100
H  5.57400 43.88800 32.63800

