158

Mg 48.17600 34.31400 26.58100
C  46.31300 32.90100 29.09700
C  48.77400 37.13800 28.56200
C  49.32900 35.94700 23.92900
C  47.31000 31.63400 24.50800
N  47.62600 34.87400 28.52500
C  47.00700 34.07600 29.44900
C  47.22700 34.63600 30.91100
C  47.56900 36.14600 30.65000
C  47.98300 36.05400 29.14200
C  46.43800 37.20100 30.84800
C  48.32400 33.81400 31.57700
C  48.21500 33.82200 33.11300
H  47.04200 34.38400 33.95800
N  48.94600 36.26800 26.34000
C  49.15600 37.22000 27.20200
C  49.95200 38.26900 26.65900
C  50.12800 37.98100 25.29700
C  49.44200 36.67700 25.13000
C  50.31700 39.41200 27.48300
C  50.81200 38.78000 24.22600
O  50.93300 38.41700 23.06100
C  51.50200 40.05200 24.60100
N  48.15700 33.98900 24.44900
C  48.81200 34.71900 23.53300
C  48.97500 34.04500 22.17900
C  48.67400 32.52900 22.53400
C  48.01400 32.69500 23.91200
C  48.17300 34.59000 20.93700
C  49.89500 31.57900 22.50600
C  50.14400 30.78000 21.20400
N  47.08700 32.63100 26.73600
C  46.73400 31.67500 25.74500
C  45.89900 30.69300 26.38900
C  45.66200 31.18200 27.68000
C  46.39600 32.36700 27.76300
C  45.22100 29.55500 25.80000
C  44.95500 30.87400 28.87900
O  44.15000 29.95000 29.18400
C  45.26600 32.07000 29.87000
C  45.84000 31.36000 31.05100
O  46.87300 30.68700 31.04400
O  44.96600 31.41600 32.12400
C  45.31300 30.73400 33.37800
H  49.01200 37.82100 29.37900
H  49.77900 36.47600 23.08700
H  47.18000 30.77300 23.84900
H  46.26400 34.60900 31.42200
H  48.36100 36.41100 31.35000
H  45.65600 36.98200 31.57600
H  45.86000 37.26200 29.92600
H  46.92500 38.15200 31.06300
H  49.33200 34.22200 31.50600
H  48.45900 32.78100 31.25500
H  49.04900 34.30700 33.62000
H  48.12800 32.79800 33.47600
H  49.85000 40.22200 26.92300
H  51.37100 39.60800 27.29100
H  50.06800 39.42700 28.54400
H  51.96300 40.60800 23.78500
H  52.27500 39.92000 25.35800
H  50.71300 40.73500 24.91500
H  50.01200 34.15800 21.86300
H  47.87400 32.16300 21.89000
H  47.12300 34.75800 21.17700
H  48.20200 33.86900 20.12100
H  48.72600 35.48200 20.64400
H  49.73200 30.91000 23.35100
H  50.72800 32.25800 22.68700
H  50.30300 31.41900 20.33600
H  49.30100 30.11100 21.03100
H  51.08300 30.28800 21.45700
H  45.90500 28.73800 26.02900
H  45.09100 29.63100 24.72100
H  44.23800 29.43200 26.25700
H  44.33100 32.61400 30.01000
H  46.30500 30.99400 33.74700
H  45.23400 29.65000 33.29500
H  44.50400 30.93500 34.08000
Mg 9.18800 48.29500 25.66000
C  6.95200 49.00000 28.18800
C  11.79900 49.63600 27.41800
C  11.01300 47.71900 22.92500
C  6.20600 47.66300 23.64000
N  9.31600 49.41800 27.56600
C  8.28900 49.40500 28.47100
C  8.83300 49.85500 29.88100
C  10.26500 50.44200 29.51900
C  10.51300 49.73100 28.10500
C  10.51000 51.96800 29.70700
C  8.97900 48.62300 30.82900
C  8.40400 48.84500 32.26900
H  8.33200 47.56200 33.05900
N  11.17000 48.49200 25.25500
C  12.08700 48.96000 26.20600
C  13.42900 48.89100 25.60500
C  13.28100 48.25200 24.26800
C  11.80000 48.14200 24.07300
C  14.70300 49.23000 26.35900
C  14.33200 47.86200 23.33100
O  14.12500 47.49000 22.16700
C  15.74300 47.96300 23.68900
N  8.64600 47.92000 23.46900
C  9.62800 47.66300 22.63500
C  9.03800 47.25300 21.23000
C  7.54700 47.12500 21.47400
C  7.45600 47.62400 22.93200
C  9.46600 48.12700 20.00000
C  6.90700 45.67700 21.26400
C  5.93800 45.55100 20.11900
N  6.99700 48.23900 25.85600
C  5.97900 47.94000 25.03400
C  4.71900 47.89800 25.74200
C  5.05800 48.32800 27.03800
C  6.45600 48.51100 26.99200
C  3.30900 47.71400 25.16100
C  4.49800 48.60500 28.29300
O  3.34700 48.53600 28.71500
C  5.68700 48.98800 29.20600
C  5.77700 47.87300 30.14200
O  6.39200 46.87000 29.83200
O  5.13100 48.22200 31.25400
C  4.73400 47.07000 32.13200
H  12.64000 49.98700 28.01800
H  11.69500 47.42900 22.12300
H  5.30800 47.41500 23.07000
H  8.25200 50.57900 30.45200
H  11.03800 50.14200 30.22700
H  9.68800 52.40300 30.27500
H  10.56600 52.38000 28.69900
H  11.43100 52.23300 30.22600
H  10.02200 48.36700 31.01700
H  8.50300 47.75400 30.37500
H  7.39800 49.25400 32.17400
H  8.93900 49.68800 32.70600
H  15.32700 48.34200 26.46000
H  14.57500 49.58200 27.38300
H  15.28300 49.97100 25.80800
H  16.02300 48.93100 24.10300
H  16.41300 47.68800 22.87500
H  15.79700 47.23700 24.50100
H  9.41800 46.26300 20.97600
H  7.01700 47.87700 20.88900
H  8.71400 48.45400 19.28200
H  10.06200 47.45100 19.38600
H  10.11600 48.96500 20.25300
H  6.22400 45.48500 22.09100
H  7.62500 44.86100 21.18500
H  5.12800 44.93500 20.50900
H  6.43000 44.94900 19.35500
H  5.59300 46.50300 19.71600
H  2.78500 46.88500 25.63500
H  3.36900 47.51800 24.09000
H  2.82200 48.68600 25.24800
H  5.56100 49.96600 29.67100
H  4.97500 47.16100 33.19100
H  5.00100 46.08700 31.74400
H  3.65900 46.95800 31.99600

