158

Mg 1.96600 -1.18400 45.33500
C  5.23600 0.05400 44.83000
C  0.79100 1.21400 43.24500
C  -0.89300 -2.74600 45.19500
C  3.52600 -4.13900 46.70300
N  2.91600 0.48700 44.12400
C  4.25400 0.79800 44.13700
C  4.44600 2.09300 43.28600
C  2.98800 2.48000 42.90600
C  2.15100 1.37400 43.54000
C  2.56300 3.80000 43.58100
C  5.34500 1.95200 42.05400
C  6.49200 2.94500 41.83100
H  7.41200 2.50000 40.69000
N  0.09000 -0.70300 44.59700
C  -0.18100 0.34200 43.69900
C  -1.55800 0.34400 43.35400
C  -2.07500 -0.87300 44.01400
C  -0.94700 -1.50000 44.63600
C  -2.31100 1.31000 42.36800
C  -3.52300 -1.35100 43.95600
O  -4.40500 -0.81100 43.26100
C  -4.02500 -2.51200 44.68000
N  1.47200 -3.21700 45.59800
C  0.12900 -3.53400 45.65800
C  -0.09000 -4.90700 46.30400
C  1.33400 -5.37800 46.74200
C  2.17800 -4.15800 46.34500
C  -1.00600 -4.86900 47.54300
C  1.80700 -6.78100 46.20700
C  1.86100 -8.00900 47.19700
N  3.91500 -1.96900 45.66000
C  4.40000 -3.12400 46.28500
C  5.87800 -3.02900 46.44800
C  6.13400 -1.77400 45.96700
C  4.96400 -1.18700 45.50700
C  6.71700 -4.10000 47.09200
C  7.26400 -0.86700 45.74600
O  8.38000 -0.98400 46.01700
C  6.66600 0.37800 44.96300
C  6.81900 1.56200 45.84600
O  6.41700 1.69200 47.03400
O  7.46300 2.58200 45.17400
C  7.79600 3.78800 45.93800
H  0.38800 1.87600 42.47600
H  -1.85500 -3.24400 45.33000
H  3.91700 -5.06500 47.13000
H  4.95800 2.83300 43.90200
H  2.81800 2.59300 41.83500
H  1.94900 3.57100 44.45200
H  2.01000 4.40000 42.85800
H  3.45800 4.36300 43.84500
H  4.75100 2.18000 41.16900
H  5.71200 0.94400 41.85900
H  7.08500 2.99000 42.74500
H  6.05100 3.93300 41.69700
H  -1.73300 2.21400 42.17400
H  -3.34000 1.43600 42.70500
H  -2.32600 0.71500 41.45500
H  -3.69400 -2.39200 45.71200
H  -3.59800 -3.44200 44.30300
H  -5.11100 -2.42100 44.64800
H  -0.40500 -5.61300 45.53500
H  1.47500 -5.44400 47.82000
H  -1.70200 -5.69000 47.36900
H  -1.61500 -3.96600 47.58700
H  -0.44900 -4.98900 48.47200
H  2.82200 -6.64200 45.83500
H  1.17900 -7.17500 45.40800
H  1.56500 -8.94200 46.71600
H  1.14500 -7.81200 47.99500
H  2.88100 -8.05100 47.57800
H  6.18400 -5.03400 47.26800
H  7.05400 -3.82500 48.09200
H  7.60400 -4.27400 46.48400
H  7.18100 0.40500 44.00300
H  8.49300 4.34400 45.31200
H  8.43800 3.57700 46.79300
H  6.89800 4.35300 46.18800
Mg -13.03000 39.06300 41.59900
C  -11.43500 36.11500 40.25400
C  -10.53400 40.94900 40.07000
C  -14.94000 41.84700 42.07800
C  -15.71900 37.05300 42.41500
N  -11.16000 38.52900 40.23000
C  -10.73100 37.30700 39.82300
C  -9.38300 37.39200 39.04200
C  -9.22800 38.95500 38.86500
C  -10.45700 39.56500 39.71400
C  -7.84900 39.44300 39.34600
C  -9.28300 36.57600 37.64400
C  -8.09700 35.60000 37.57100
H  -7.01400 36.00100 36.60800
N  -12.69500 41.10100 41.33000
C  -11.62100 41.68800 40.70200
C  -11.75200 43.15200 40.73900
C  -12.94200 43.44300 41.40700
C  -13.57800 42.11500 41.65500
C  -10.73900 44.18800 40.13800
C  -13.38900 44.83700 41.74100
O  -12.65900 45.77100 41.50700
C  -14.80700 45.21500 42.28900
N  -15.06700 39.33600 42.10200
C  -15.62600 40.63000 42.26500
C  -17.11800 40.52900 42.64400
C  -17.22600 39.07100 43.07300
C  -15.95800 38.42400 42.47700
C  -17.67900 41.52100 43.68300
C  -18.56000 38.34700 42.62800
C  -19.25300 37.39600 43.58500
N  -13.52300 36.98200 41.43100
C  -14.61700 36.28500 41.88200
C  -14.42300 34.90300 41.84800
C  -13.21700 34.75500 41.13900
C  -12.72200 36.06300 40.92200
C  -15.24800 33.85500 42.47100
C  -12.20500 33.82500 40.67900
O  -12.03500 32.60300 40.73600
C  -11.05500 34.67700 40.06800
C  -9.84800 34.32700 40.88800
O  -8.86000 33.74600 40.51500
O  -10.01000 34.76700 42.25100
C  -8.90400 34.57900 43.19100
H  -9.86500 41.56500 39.46600
H  -15.63600 42.66600 42.26900
H  -16.60900 36.62900 42.88400
H  -8.68100 36.91400 39.72500
H  -9.33400 39.20300 37.80900
H  -7.40500 40.15300 38.64900
H  -7.12600 38.65800 39.57100
H  -7.98200 40.05400 40.23900
H  -9.15800 37.14500 36.72300
H  -10.23000 36.04900 37.52500
H  -8.40900 34.58000 37.34500
H  -7.48300 35.58100 38.47200
H  -10.02900 43.65500 39.50500
H  -10.22500 44.74900 40.91900
H  -11.30600 44.83700 39.47000
H  -15.42900 44.84100 41.47700
H  -15.02800 46.27900 42.37900
H  -15.13700 44.62700 43.14500
H  -17.66200 40.58500 41.70200
H  -17.09600 38.86200 44.13500
H  -16.96600 42.28200 44.00000
H  -18.02000 41.07200 44.61600
H  -18.54100 41.95200 43.17300
H  -18.40600 37.82000 41.68700
H  -19.26000 39.14200 42.37300
H  -19.33800 36.45400 43.04400
H  -20.20000 37.82100 43.91600
H  -18.57800 37.21800 44.42200
H  -14.62900 33.06700 42.89800
H  -15.90700 33.40000 41.73100
H  -15.81800 34.35500 43.25400
H  -10.95800 34.51100 38.99500
H  -8.57000 35.58300 43.45200
H  -8.14100 33.89800 42.81600
H  -9.25200 34.02400 44.06200

