158

Mg 54.17700 24.28100 45.32000
C  51.55700 26.55700 44.27900
C  52.22100 21.73600 43.85800
C  56.80300 22.39900 45.10200
C  55.98700 27.13200 45.96500
N  52.22800 24.18400 44.13300
C  51.37900 25.24100 43.82600
C  50.29800 24.77600 42.81600
C  50.23800 23.28500 43.08600
C  51.62300 22.98400 43.77000
C  49.15700 22.84900 44.15200
C  50.61600 25.24300 41.34300
C  50.79900 24.19200 40.21200
H  51.85600 23.13500 40.36500
N  54.38600 22.22200 44.78900
C  53.48900 21.35800 44.22000
C  54.12700 20.13700 44.07900
C  55.46800 20.30800 44.35500
C  55.64100 21.67600 44.83900
C  53.43900 18.88500 43.42400
C  56.58400 19.20500 44.26800
O  56.29500 17.99800 44.01500
C  58.04800 19.46500 44.37500
N  56.13000 24.66100 45.40200
C  57.05900 23.76200 45.36200
C  58.42100 24.26800 45.79000
C  58.17200 25.79000 45.91800
C  56.66600 25.88300 45.80300
C  59.04300 23.63600 47.03500
C  58.83100 26.55500 44.78000
C  58.10500 26.56300 43.48800
N  53.75900 26.43300 45.51200
C  54.59100 27.41000 45.82600
C  53.82900 28.64600 45.95600
C  52.67500 28.40100 45.28500
C  52.64700 27.01200 45.03000
C  54.32700 29.96800 46.33500
C  51.43000 28.90300 44.73600
O  51.02400 30.07300 44.73100
C  50.68400 27.77600 44.03600
C  50.45200 28.27700 42.63000
O  51.28200 28.86000 41.95200
O  49.20800 28.00300 42.22400
C  48.73000 28.35300 40.87500
H  51.66700 20.93200 43.36800
H  57.80000 22.00100 44.90500
H  56.57300 28.05000 46.05100
H  49.41800 25.34600 43.11200
H  50.16300 22.57800 42.25900
H  49.69200 22.39200 44.98400
H  48.38200 22.24800 43.67600
H  48.60200 23.72900 44.47900
H  51.48600 25.87800 41.17400
H  49.75200 25.84100 41.05400
H  51.10000 24.67900 39.28500
H  49.80100 23.76800 40.09600
H  53.86200 17.98200 43.86300
H  53.40300 18.88700 42.33400
H  52.41800 18.91300 43.80600
H  58.43800 20.05700 43.54600
H  58.53400 18.49600 44.48000
H  58.27000 19.93900 45.33100
H  58.93100 23.93900 44.88500
H  58.51900 26.02600 46.92400
H  60.03600 23.25200 46.80200
H  58.31600 22.88400 47.34000
H  59.26600 24.37700 47.80300
H  59.83500 26.17900 44.58700
H  58.91200 27.57800 45.14800
H  57.67200 27.55200 43.33500
H  57.30200 25.83600 43.36900
H  58.85000 26.52700 42.69300
H  55.16700 30.21100 45.68500
H  54.75900 29.86600 47.33100
H  53.48400 30.64600 46.46600
H  49.67700 27.83000 44.44900
H  49.40600 28.89300 40.21300
H  47.79300 28.91000 40.89700
H  48.42700 27.38500 40.47800
Mg 45.54500 17.35100 28.71600
C  43.55600 16.86100 31.67200
C  47.58000 19.45300 30.55800
C  46.96700 18.12300 25.93300
C  42.89400 15.67700 27.05100
N  45.51000 18.14500 30.82900
C  44.71100 17.63800 31.88200
C  45.18100 18.05700 33.19800
C  46.29700 19.06200 32.81200
C  46.57600 18.84000 31.31700
C  46.05700 20.49500 33.31700
C  45.72000 16.88700 34.10900
C  46.12100 17.07100 35.55700
H  45.72800 18.34000 36.35000
N  47.20300 18.51100 28.33000
C  47.91600 19.32400 29.17700
C  48.98900 20.02000 28.51000
C  48.78500 19.59000 27.13000
C  47.59300 18.77300 27.05400
C  49.87200 21.06900 29.20100
C  49.72400 19.85600 25.87100
O  49.49100 19.39500 24.77600
C  50.83300 20.77600 26.05300
N  44.99500 16.99900 26.74300
C  45.80200 17.39800 25.77800
C  45.27900 16.98600 24.39700
C  44.02100 16.12300 24.79100
C  43.95900 16.27100 26.28900
C  45.03700 18.16800 23.38100
C  43.96800 14.60600 24.33900
C  44.74000 13.68600 25.30700
N  43.74700 16.30700 29.16100
C  42.83000 15.67400 28.36900
C  41.92000 14.96000 29.26300
C  42.12500 15.46400 30.50400
C  43.25100 16.28500 30.41400
C  40.76300 14.07100 28.80900
C  41.62400 15.47100 31.86400
O  40.58100 14.92400 32.32200
C  42.49100 16.29000 32.68900
C  41.73500 17.39500 33.40300
O  40.72500 17.93600 33.00700
O  42.21200 17.53100 34.75800
C  41.54300 18.44400 35.64000
H  48.21800 20.15900 31.09400
H  47.50600 18.27400 24.99500
H  42.07000 15.20300 26.51300
H  44.34600 18.52300 33.72000
H  47.26400 18.83900 33.26300
H  45.09000 20.50900 33.81900
H  46.08200 21.14200 32.44000
H  46.80000 20.78700 34.05800
H  46.48400 16.40100 33.50200
H  44.92200 16.15700 34.24000
H  47.21100 17.05300 35.57900
H  45.68400 16.18400 36.01500
H  50.74400 20.62900 29.68400
H  49.36600 21.69400 29.93700
H  50.23600 21.82900 28.51100
H  51.28500 20.65400 27.03700
H  50.45200 21.77700 25.85000
H  51.61200 20.56500 25.32100
H  45.90200 16.23800 23.90600
H  43.10600 16.54800 24.38000
H  45.67500 18.98300 23.72400
H  43.99500 18.48400 23.34100
H  45.25300 17.91100 22.34400
H  44.56300 14.56400 23.42700
H  42.96500 14.31400 24.02700
H  44.08600 13.13000 25.98000
H  45.57000 14.18600 25.80600
H  45.12700 12.94100 24.61200
H  41.11200 13.39900 28.02500
H  39.93500 14.67600 28.44100
H  40.39900 13.60900 29.72700
H  42.78000 15.51500 33.39900
H  41.82100 19.43900 35.29100
H  41.99400 18.31400 36.62400
H  40.46300 18.39500 35.77400

