158

Mg 1.64000 -2.18900 43.04100
C  5.00300 -2.47200 42.40500
C  1.62100 0.82900 41.25500
C  -1.67000 -2.48600 42.74800
C  1.72500 -5.68200 44.13200
N  3.14400 -1.03000 41.86800
C  4.45200 -1.35100 41.76100
C  5.23900 -0.27600 41.01600
C  4.17200 0.84200 40.75600
C  2.89600 0.23300 41.32000
C  4.62000 2.18700 41.39100
C  5.89800 -0.75000 39.73400
C  7.02900 0.19900 39.21800
H  6.72100 1.01000 37.94800
N  0.14800 -0.97100 42.23900
C  0.39100 0.33300 41.68500
C  -0.91800 0.97300 41.45400
C  -1.84300 -0.03100 41.62800
C  -1.18500 -1.16800 42.26100
C  -1.00800 2.32300 40.79600
C  -3.30400 0.03300 41.31000
O  -3.82900 1.02500 40.75000
C  -4.10800 -1.12900 41.45200
N  0.26200 -3.98300 43.29800
C  -1.05700 -3.67300 43.28500
C  -1.95700 -4.85000 43.73500
C  -0.85800 -5.94200 44.09700
C  0.49500 -5.14900 43.88600
C  -2.93900 -4.53500 44.89100
C  -0.93100 -7.29400 43.38700
C  -0.69300 -8.50700 44.29000
N  3.10600 -3.70300 43.41400
C  3.03100 -5.03400 43.89100
C  4.35200 -5.56600 43.95500
C  5.21400 -4.56400 43.54800
C  4.35200 -3.47100 43.09700
C  4.60200 -7.07300 44.28600
C  6.55300 -4.22300 43.31200
O  7.54700 -4.80100 43.56000
C  6.48800 -2.83300 42.54100
C  7.37700 -1.81800 43.22100
O  7.07100 -1.02200 44.10700
O  8.61100 -1.85300 42.64800
C  9.63400 -0.89600 43.08200
H  1.58600 1.81900 40.79700
H  -2.74600 -2.53800 42.92700
H  1.79800 -6.72900 44.43600
H  5.97500 0.11100 41.72100
H  3.98900 1.08500 39.71000
H  3.97200 2.29800 42.26000
H  4.61700 3.00800 40.67500
H  5.61700 2.22900 41.82900
H  5.19600 -0.85700 38.90800
H  6.28800 -1.75500 39.89600
H  7.95600 -0.36600 39.12900
H  7.13700 0.97700 39.97500
H  -0.71600 2.31000 39.74600
H  -0.48300 3.07400 41.38700
H  -2.04400 2.65700 40.73900
H  -5.00500 -0.87900 40.88600
H  -4.44400 -1.29300 42.47600
H  -3.57500 -1.96000 40.99100
H  -2.53600 -5.15900 42.86500
H  -0.78400 -6.12600 45.16900
H  -2.64500 -5.04500 45.80800
H  -3.97200 -4.81600 44.68800
H  -2.89400 -3.45800 45.05200
H  -0.24500 -7.34700 42.54100
H  -1.97200 -7.41200 43.08600
H  -1.41300 -9.29700 44.07700
H  -0.70500 -8.22200 45.34200
H  0.33500 -8.78400 44.05600
H  5.43800 -7.37600 43.65600
H  3.72700 -7.68800 44.07000
H  4.99200 -7.17400 45.29900
H  6.94800 -3.07600 41.58300
H  9.69900 -0.60300 44.13000
H  9.37100 0.00200 42.52300
H  10.60300 -1.26000 42.74200
Mg 8.98100 3.43200 27.41400
C  10.84900 1.89500 29.97100
C  7.25600 5.09400 29.77400
C  7.24300 4.78300 24.94700
C  10.72000 1.34400 25.19400
N  9.04400 3.41100 29.59400
C  9.95000 2.78700 30.44200
C  9.77500 3.25400 31.85400
C  8.52300 4.17000 31.82300
C  8.27400 4.28200 30.31200
C  7.21200 3.71100 32.55000
C  11.04000 3.91400 32.43600
C  11.48400 3.38500 33.83900
H  11.54200 4.42000 34.96000
N  7.37800 4.64800 27.41700
C  6.75200 5.20400 28.44400
C  5.75700 6.08300 28.00500
C  5.81800 6.13400 26.64000
C  6.80600 5.13500 26.27100
C  4.95700 6.76200 29.03200
C  5.02000 6.93500 25.66100
O  5.24300 6.95300 24.47500
C  3.94600 7.86600 26.09200
N  8.78100 2.99600 25.38100
C  8.12700 3.80700 24.56600
C  8.39600 3.43300 23.14100
C  9.68700 2.54700 23.15200
C  9.81600 2.33800 24.67300
C  7.19600 2.77800 22.38200
C  10.93600 3.26700 22.69400
C  12.10200 2.49200 21.92200
N  10.46800 1.91300 27.49900
C  11.03200 1.14400 26.55000
C  11.97800 0.18100 27.09800
C  11.94500 0.50400 28.46200
C  11.08600 1.56400 28.62000
C  12.65000 -0.82200 26.32500
C  12.52300 0.17600 29.72500
O  13.38600 -0.66300 29.94700
C  11.89200 1.13200 30.79200
C  11.28400 0.28200 31.82900
O  10.26800 -0.33400 31.68700
O  12.04800 0.30400 32.97400
C  11.55000 -0.55100 34.15800
H  6.74400 5.61700 30.58500
H  6.74200 5.24700 24.09500
H  11.37700 0.80300 24.51100
H  9.49100 2.37000 32.42400
H  8.76100 5.15800 32.21600
H  6.40200 3.40000 31.89000
H  6.94700 4.42900 33.32600
H  7.46600 2.80500 33.09900
H  10.87800 4.98900 32.51800
H  11.93100 3.76400 31.82600
H  12.47500 2.99400 33.60500
H  10.92400 2.48500 34.09200
H  4.13000 7.36000 28.65000
H  5.56700 7.49000 29.56600
H  4.55600 6.01200 29.71500
H  4.36300 8.70300 26.65200
H  3.09100 7.28200 26.43200
H  3.54300 8.44000 25.25700
H  8.58700 4.35800 22.59600
H  9.53900 1.66000 22.53600
H  6.38800 3.24200 22.94800
H  7.16700 1.68900 22.38100
H  6.95500 3.16600 21.39200
H  11.40200 3.76000 23.54700
H  10.75800 4.15000 22.08100
H  12.27000 2.84000 20.90300
H  11.90000 1.43100 21.77400
H  13.08100 2.53600 22.40000
H  12.88800 -0.70200 25.26800
H  12.01200 -1.70400 26.27700
H  13.63200 -0.97700 26.77200
H  12.60100 1.83400 31.23000
H  11.40500 -1.62700 34.05600
H  10.52000 -0.23300 34.32200
H  11.95100 -0.27500 35.13300

