158

Mg 35.40800 3.29700 30.06200
C  33.06000 4.18400 32.53000
C  37.75800 3.08500 32.40900
C  37.56100 2.59600 27.59600
C  32.85400 3.62400 27.67200
N  35.36800 3.75500 32.15200
C  34.28500 3.97300 33.02400
C  34.72900 4.15900 34.49300
C  36.30400 4.09700 34.29000
C  36.50400 3.57600 32.88600
C  37.18800 5.32800 34.57000
C  34.06700 3.01000 35.32000
C  33.83400 3.42800 36.83700
H  34.58700 4.60300 37.50800
N  37.42000 2.93900 29.97500
C  38.19600 2.84100 31.06200
C  39.56400 2.35300 30.67100
C  39.49500 2.08500 29.29100
C  38.16300 2.58800 28.85800
C  40.58400 1.97800 31.58000
C  40.65100 1.62500 28.27800
O  40.44700 1.66000 27.07100
C  42.12500 1.47300 28.76000
N  35.34100 3.43200 27.85400
C  36.28700 2.94400 27.12100
C  35.83700 2.92300 25.60300
C  34.33400 2.95100 25.67900
C  34.14200 3.35000 27.18500
C  36.49900 3.99900 24.59700
C  33.56000 1.67100 25.22100
C  33.25300 0.55600 26.23000
N  33.43900 3.90400 29.96400
C  32.51400 3.94100 28.97900
C  31.19600 4.22600 29.47500
C  31.35000 4.38400 30.83500
C  32.73100 4.10600 31.10400
C  29.87400 4.27500 28.66300
C  30.63900 4.68700 32.09400
O  29.51800 4.90900 32.31300
C  31.76500 4.67300 33.19800
C  31.91100 6.00300 33.93200
O  32.23500 7.06500 33.42100
O  31.54300 5.76500 35.26400
C  31.48200 7.09800 36.02200
H  38.50300 2.81500 33.16000
H  38.20100 2.27500 26.77100
H  32.02700 3.58200 26.96000
H  34.30300 5.09900 34.84500
H  36.70800 3.27200 34.87600
H  36.61100 6.24300 34.70200
H  37.77300 5.52900 33.67300
H  37.75700 5.15100 35.48400
H  34.70000 2.13500 35.17200
H  33.01800 2.89800 35.04700
H  33.91700 2.55100 37.47800
H  32.77200 3.65700 36.92500
H  40.24200 1.99000 32.61500
H  41.46400 2.57600 31.34200
H  40.83200 0.93100 31.40900
H  42.33100 2.41200 29.27400
H  42.82200 1.33100 27.93400
H  42.21400 0.58300 29.38400
H  36.01900 1.92900 25.19500
H  34.00600 3.80500 25.08700
H  35.89400 4.90600 24.59400
H  36.60200 3.64200 23.57200
H  37.48100 4.30900 24.95300
H  34.01000 1.13100 24.38900
H  32.62300 2.00300 24.77300
H  33.12300 1.00800 27.21300
H  33.95700 -0.27500 26.24300
H  32.25600 0.22200 25.94400
H  29.10800 3.69300 29.17600
H  29.90000 3.79700 27.68400
H  29.46600 5.27000 28.48600
H  31.48800 3.88800 33.90200
H  31.95800 7.90300 35.46200
H  31.94800 7.02100 37.00400
H  30.46200 7.46100 36.14300
Mg 49.04700 16.88800 29.27300
C  46.90000 16.75700 31.98300
C  51.30900 18.73400 31.04500
C  50.83600 17.14900 26.44700
C  46.24500 15.62500 27.30900
N  49.02800 17.73400 31.20900
C  48.08900 17.51500 32.19100
C  48.58400 18.02700 33.51600
C  49.85300 18.82700 33.17400
C  50.13100 18.41100 31.76500
C  49.66300 20.38400 33.24700
C  48.83900 16.92000 34.53200
C  48.35800 17.24000 35.97500
H  47.78100 18.60400 36.24300
N  50.95000 17.63500 28.85800
C  51.72100 18.32000 29.76100
C  52.98300 18.70800 29.11300
C  52.92700 18.16000 27.81400
C  51.56200 17.59800 27.61500
C  54.00300 19.64400 29.84000
C  53.97000 18.12900 26.65100
O  53.82800 17.61700 25.54900
C  55.29000 18.91400 26.86200
N  48.46400 16.59900 27.14300
C  49.49400 16.79500 26.22700
C  49.00500 16.61100 24.81600
C  47.72000 15.81000 25.08100
C  47.41400 16.05300 26.60200
C  48.71500 17.77900 23.87300
C  47.87400 14.32100 24.73600
C  46.70600 13.53800 24.00200
N  47.01900 16.20700 29.57000
C  46.02400 15.70400 28.69800
C  44.92900 15.31700 29.50600
C  45.18400 15.75600 30.77600
C  46.48500 16.29900 30.73700
C  43.71100 14.62300 29.06200
C  44.64400 15.80400 32.07100
O  43.58700 15.39900 32.52900
C  45.76200 16.40800 32.98600
C  45.10400 17.63000 33.51700
O  45.08800 18.77300 32.99000
O  44.33000 17.13000 34.57800
C  43.34600 18.12400 35.07700
H  52.03700 19.38200 31.53700
H  51.38400 17.07800 25.50500
H  45.58600 15.05300 26.65200
H  47.76200 18.68800 33.79000
H  50.64300 18.77300 33.92300
H  48.62700 20.53000 33.55200
H  49.72600 20.84800 32.26200
H  50.39900 20.76400 33.95500
H  49.92300 16.83200 34.60600
H  48.41800 15.94500 34.28500
H  49.16100 16.94800 36.65000
H  47.51200 16.62100 36.27300
H  54.65400 18.99000 30.42000
H  53.49700 20.43300 30.39600
H  54.60900 20.32400 29.24200
H  55.97900 18.84100 26.02100
H  55.81700 18.43400 27.68700
H  55.05000 19.95100 27.09800
H  49.70300 15.95800 24.29200
H  46.94300 16.09500 24.37200
H  48.91400 17.52700 22.83200
H  49.42300 18.58300 24.07800
H  47.72100 18.18800 24.05100
H  48.07400 13.88700 25.71600
H  48.76200 14.18900 24.11800
H  47.06800 12.71800 23.38200
H  46.12700 14.21200 23.37100
H  46.00900 13.10800 24.72100
H  43.96600 13.79400 28.40200
H  43.00000 15.26000 28.53600
H  43.24600 14.20900 29.95700
H  46.00700 15.63800 33.71800
H  43.72600 18.99800 35.60700
H  42.61800 17.59200 35.68900
H  42.76300 18.39900 34.19800

