158

Mg 16.28700 -1.91300 27.82700
C  15.19600 0.04100 30.52200
C  18.44000 -3.52500 30.04300
C  17.24700 -3.76200 25.39100
C  14.39500 0.26500 25.68200
N  16.75400 -1.73700 30.05700
C  16.16000 -0.84900 30.96900
C  16.73600 -1.08400 32.40300
C  17.96600 -1.95200 32.13800
C  17.71800 -2.43300 30.62900
C  19.22800 -1.10500 32.20300
C  15.75700 -1.62100 33.43300
C  15.71100 -0.84600 34.78100
H  17.02700 -0.35300 35.34600
N  17.51700 -3.53700 27.74300
C  18.31900 -4.06100 28.72800
C  18.98200 -5.24600 28.18500
C  18.73500 -5.24800 26.78300
C  17.75800 -4.20100 26.56900
C  19.88500 -6.27300 28.95900
C  19.25500 -6.16200 25.69100
O  18.86100 -6.03700 24.54200
C  20.25200 -7.25200 26.01000
N  15.95900 -1.68900 25.88700
C  16.51800 -2.60300 25.04500
C  16.31400 -2.14400 23.55400
C  15.22000 -0.99700 23.69100
C  15.20200 -0.73900 25.20700
C  17.57400 -1.79400 22.67400
C  13.85300 -1.37000 23.26800
C  13.06300 -0.28900 22.44100
N  15.05300 -0.18900 28.01700
C  14.30700 0.54400 27.09600
C  13.47700 1.48300 27.73300
C  13.75700 1.30800 29.06600
C  14.71500 0.27500 29.19300
C  12.48600 2.39600 27.16100
C  13.47700 1.85700 30.40800
O  12.81800 2.83600 30.81100
C  14.39700 1.08100 31.38700
C  15.27200 2.00200 32.25000
O  16.41000 2.33700 32.00400
O  14.61000 2.35400 33.40500
C  15.34200 3.34500 34.22700
H  19.19000 -3.97100 30.70000
H  17.43200 -4.32300 24.47300
H  13.90800 0.81800 24.87600
H  16.98200 -0.15200 32.91100
H  18.23800 -2.79900 32.76800
H  19.98200 -1.41600 31.48000
H  19.64600 -1.23200 33.20100
H  18.89300 -0.06800 32.21600
H  16.01700 -2.65200 33.67400
H  14.72400 -1.59600 33.08500
H  15.20400 -1.47000 35.51800
H  15.12000 0.06600 34.69900
H  19.98500 -6.05800 30.02300
H  20.87900 -6.34700 28.51700
H  19.54000 -7.28500 28.74900
H  20.54700 -7.66100 25.04400
H  19.69600 -8.04200 26.51500
H  21.12600 -6.91000 26.56500
H  15.91200 -3.04400 23.08900
H  15.58400 -0.09000 23.20900
H  18.45900 -2.02200 23.26900
H  17.43200 -0.78200 22.29300
H  17.50800 -2.54000 21.88200
H  13.33700 -1.61900 24.19600
H  13.84800 -2.31600 22.72700
H  12.19800 -0.01000 23.04200
H  12.67800 -0.69900 21.50700
H  13.61200 0.64800 22.34700
H  12.96100 3.07200 26.45000
H  12.12400 3.07000 27.93600
H  11.60300 1.93700 26.71500
H  13.69500 0.60300 32.07100
H  15.49600 4.25500 33.64700
H  16.23900 2.97200 34.72300
H  14.62800 3.72400 34.95800
Mg -2.31800 33.74400 26.32600
C  -3.99900 32.13200 29.02100
C  -0.87200 35.81700 28.57600
C  -1.45900 35.60700 23.73800
C  -4.27400 31.73200 24.15400
N  -2.46700 34.04800 28.60400
C  -3.23000 33.25300 29.40500
C  -2.92000 33.62000 30.86500
C  -1.97600 34.87900 30.73700
C  -1.68100 34.86500 29.23100
C  -2.59900 36.22600 31.37100
C  -2.25500 32.34800 31.59800
C  -2.96100 31.92300 32.89500
H  -2.16800 31.82300 34.27400
N  -1.23300 35.42200 26.16100
C  -0.65200 36.15800 27.20300
C  0.12200 37.15400 26.67400
C  0.15300 37.01100 25.27200
C  -0.98300 36.06200 24.98400
C  0.82000 38.21500 27.57000
C  0.96700 37.58800 24.19900
O  0.87800 37.32500 23.02800
C  2.18100 38.44600 24.52200
N  -2.87000 33.72400 24.26100
C  -2.20200 34.49900 23.35800
C  -2.71300 34.12600 21.93700
C  -3.23600 32.74300 22.08400
C  -3.45800 32.67300 23.59400
C  -3.75800 35.19800 21.33200
C  -2.37900 31.68100 21.35100
C  -1.08000 31.23600 21.97600
N  -3.78300 32.34500 26.50700
C  -4.47700 31.58300 25.55700
C  -5.24500 30.51300 26.19200
C  -5.03300 30.78500 27.51500
C  -4.22900 31.91900 27.68000
C  -5.99200 29.44200 25.54100
C  -5.47000 30.19400 28.83400
O  -6.14800 29.21500 29.04700
C  -4.76200 31.14500 29.88700
C  -5.86300 31.77900 30.77600
O  -6.84500 32.41700 30.38400
O  -5.88300 31.21800 32.01500
C  -6.99800 31.57800 32.95500
H  -0.40400 36.51100 29.27800
H  -1.16700 36.26900 22.92000
H  -4.59800 30.86700 23.57000
H  -3.79400 33.98700 31.40300
H  -1.09200 34.76500 31.36400
H  -3.51600 35.95500 31.89400
H  -2.93100 36.88700 30.57000
H  -1.95100 36.77200 32.05600
H  -1.24800 32.64500 31.89200
H  -2.13100 31.54200 30.87400
H  -3.40100 30.96900 32.60500
H  -3.74300 32.62400 33.18700
H  1.69500 37.76200 28.03700
H  0.10900 38.55800 28.32200
H  1.23600 39.10100 27.09000
H  2.83900 38.52000 23.65700
H  2.71200 37.94600 25.33200
H  1.91500 39.46300 24.81000
H  -1.93900 34.17900 21.17100
H  -4.24600 32.59400 21.70000
H  -4.00900 35.93700 22.09300
H  -4.73100 34.72600 21.19300
H  -3.43000 35.70000 20.42200
H  -2.17800 31.93500 20.31000
H  -3.09000 30.85500 21.34400
H  -1.13400 30.16700 22.18100
H  -1.11600 31.72000 22.95200
H  -0.18300 31.37600 21.37200
H  -5.88300 29.37100 24.45900
H  -7.02700 29.64000 25.81800
H  -5.71400 28.47000 25.94800
H  -4.09600 30.49200 30.45100
H  -7.70800 32.27300 32.50800
H  -6.45300 32.07300 33.75900
H  -7.48700 30.66700 33.30100

