158

Mg -1.63600 17.13700 25.80800
C  -1.97900 14.81600 28.49100
C  -2.26900 19.60600 28.06500
C  -1.66100 19.48900 23.31200
C  -1.43200 14.67000 23.56200
N  -2.29200 17.15400 28.07100
C  -2.24500 16.11500 28.91300
C  -2.72500 16.53800 30.33300
C  -2.84700 18.13000 30.23300
C  -2.45400 18.36600 28.71600
C  -4.16500 18.72500 30.71700
C  -2.02800 15.97500 31.57500
C  -2.12600 16.70500 32.90000
H  -2.03200 15.99900 34.24100
N  -1.78000 19.18300 25.71800
C  -1.93000 20.02800 26.80900
C  -1.86700 21.41600 26.44400
C  -1.66500 21.38600 25.02100
C  -1.74300 19.94600 24.62500
C  -2.14200 22.60100 27.35200
C  -1.61800 22.59700 24.04100
O  -1.56600 22.61300 22.83700
C  -1.59000 23.94500 24.68700
N  -1.62800 17.03700 23.71300
C  -1.52100 18.13400 22.90600
C  -1.42800 17.68700 21.48100
C  -1.02600 16.12800 21.64400
C  -1.34700 15.95900 23.05000
C  -2.75300 17.96800 20.75500
C  0.44200 15.73300 21.21200
C  1.63200 16.36000 22.01000
N  -1.64200 15.19400 25.95500
C  -1.52700 14.21400 24.90400
C  -1.65800 12.89500 25.57400
C  -1.76200 13.09100 26.93500
C  -1.77000 14.49400 27.14200
C  -1.80800 11.59900 24.82900
C  -1.82600 12.38700 28.15600
O  -1.74100 11.19800 28.41900
C  -1.92100 13.50300 29.27500
C  -0.92000 13.39100 30.37700
O  0.25700 13.71000 30.36100
O  -1.54200 12.76100 31.44100
C  -0.75700 12.28400 32.52900
H  -2.22400 20.34400 28.86900
H  -1.50700 20.22600 22.52200
H  -1.35100 13.87000 22.82300
H  -3.75200 16.17500 30.35900
H  -2.06800 18.60100 30.83300
H  -4.65300 19.17100 29.85000
H  -3.92000 19.47200 31.47200
H  -4.75800 17.94600 31.19500
H  -0.98800 15.77900 31.31300
H  -2.55200 15.03500 31.74900
H  -2.91900 17.44800 32.98300
H  -1.24200 17.34100 32.85700
H  -2.98200 23.15400 26.93100
H  -1.23700 23.20500 27.41900
H  -2.49300 22.36300 28.35600
H  -2.54100 24.29800 25.08700
H  -1.37400 24.61700 23.85600
H  -0.89900 24.01500 25.52700
H  -0.55300 18.21300 21.09800
H  -1.69700 15.46900 21.09400
H  -3.30400 17.03300 20.64900
H  -2.57700 18.48800 19.81300
H  -3.36900 18.62600 21.36700
H  0.60000 15.96300 20.15800
H  0.62800 14.66300 21.29900
H  2.37900 15.65300 22.37000
H  1.21300 16.85800 22.88500
H  2.19000 17.09300 21.42700
H  -1.93400 11.92300 23.79600
H  -2.65400 11.02200 25.20200
H  -0.83200 11.12500 24.93100
H  -2.86900 13.53000 29.81100
H  -0.55800 13.14800 33.16200
H  0.16800 11.85600 32.14200
H  -1.28500 11.52100 33.10100
Mg 31.12600 58.45200 40.29600
C  28.18800 56.88500 39.44400
C  32.84500 55.58600 39.40200
C  33.96800 60.20100 39.86700
C  29.26600 61.38600 40.54300
N  30.60600 56.46300 39.47400
C  29.32100 56.03900 39.24800
C  29.37300 54.55100 38.83800
C  30.76000 54.13900 39.28000
C  31.48500 55.49500 39.37600
C  30.73900 53.45600 40.66100
C  29.07300 54.37600 37.31800
C  27.78000 53.77500 36.80000
H  27.04600 54.59100 35.74900
N  33.15400 57.94100 39.74300
C  33.64500 56.70600 39.43100
C  35.07500 56.78100 39.17300
C  35.40000 58.14400 39.28600
C  34.16300 58.80600 39.69000
C  35.89100 55.54000 38.81000
C  36.76000 58.75100 39.11800
O  37.72000 58.05300 38.81500
C  37.00800 60.16300 39.51800
N  31.56400 60.46800 40.27500
C  32.82000 60.96500 40.12600
C  32.77800 62.53600 40.03200
C  31.24600 62.88100 40.08300
C  30.61600 61.53500 40.44000
C  33.70600 63.36900 40.94200
C  30.60800 63.54300 38.75900
C  29.84800 64.87600 38.93800
N  29.05300 59.05800 40.22400
C  28.43700 60.25000 40.45600
C  27.03300 60.07600 40.34400
C  26.88200 58.75700 39.96000
C  28.15300 58.16600 39.95600
C  26.04900 61.18700 40.49700
C  25.94700 57.78300 39.47300
O  24.75700 57.97400 39.21200
C  26.72900 56.45000 39.26800
C  26.05600 55.45700 40.18900
O  26.13200 55.41500 41.37900
O  25.35900 54.55200 39.47200
C  24.57800 53.53900 40.18200
H  33.35500 54.63800 39.21900
H  34.74800 60.92500 39.62000
H  28.71800 62.28900 40.81800
H  28.64200 53.98400 39.41400
H  31.16800 53.51400 38.48600
H  30.01400 52.64500 40.72900
H  30.52900 54.15800 41.46700
H  31.72300 53.01000 40.81000
H  29.86000 53.77200 36.86600
H  29.26800 55.28800 36.75200
H  27.15600 53.75200 37.69300
H  28.04600 52.77900 36.44600
H  36.25400 55.79400 37.81500
H  35.36000 54.59200 38.73500
H  36.69400 55.44700 39.54200
H  36.67800 60.81900 38.71300
H  38.08800 60.30800 39.53500
H  36.69700 60.44000 40.52600
H  33.04000 62.71100 38.98800
H  31.00000 63.54100 40.91500
H  33.97300 62.70000 41.76000
H  33.18900 64.12800 41.52900
H  34.45600 63.98200 40.44200
H  29.91600 62.87800 38.24200
H  31.39400 63.78200 38.04300
H  29.94400 65.20800 39.97200
H  28.85500 64.81500 38.49300
H  30.38100 65.64100 38.37300
H  25.04700 60.84900 40.76100
H  26.04700 61.74000 39.55800
H  26.33500 61.73400 41.39500
H  26.66900 56.06700 38.24900
H  23.82200 53.83800 40.90900
H  25.29900 52.93200 40.72900
H  24.14600 52.87800 39.43100

