158

Mg -1.61400 17.76900 27.48000
C  -2.46400 15.53400 30.12400
C  -2.57400 20.32700 29.52700
C  -1.90200 19.80700 24.79900
C  -1.48000 15.04400 25.26000
N  -2.42000 17.79700 29.50300
C  -2.46500 16.83600 30.46200
C  -2.66800 17.32900 31.87700
C  -2.67600 18.92600 31.56100
C  -2.45300 19.03100 30.10600
C  -3.93600 19.64800 32.04800
C  -1.48100 17.00100 32.84200
C  -1.25700 17.99600 34.04400
H  -0.73700 17.46800 35.35100
N  -2.05700 19.80100 27.21800
C  -2.39500 20.68200 28.17400
C  -2.54100 21.99700 27.65500
C  -2.28200 21.86100 26.23800
C  -2.02800 20.47600 26.06700
C  -2.85400 23.24200 28.42300
C  -2.16800 22.99100 25.13600
O  -1.93000 22.79700 23.94000
C  -2.21700 24.37900 25.56300
N  -1.87000 17.47200 25.34400
C  -1.78600 18.51500 24.50100
C  -1.56000 18.02900 23.05400
C  -1.13900 16.51700 23.25900
C  -1.49600 16.31300 24.72400
C  -2.76800 18.16500 22.11600
C  0.38500 16.21200 22.87800
C  1.38900 16.59300 23.89200
N  -1.80200 15.57700 27.65500
C  -1.73100 14.68900 26.64500
C  -2.13700 13.42700 27.22100
C  -2.33100 13.64100 28.62900
C  -2.18500 15.01900 28.78500
C  -2.20400 12.09200 26.56000
C  -2.69700 13.09700 29.86800
O  -2.86700 11.94400 30.16700
C  -2.75400 14.26700 30.90700
C  -1.72400 13.90500 31.94500
O  -0.51800 14.19300 31.98500
O  -2.35100 13.22400 32.93900
C  -1.49000 12.57400 33.87500
H  -2.76200 21.17400 30.19000
H  -1.77100 20.54300 24.00300
H  -1.44900 14.27900 24.48100
H  -3.61700 16.96300 32.26800
H  -1.75300 19.38300 31.91700
H  -3.61700 20.46100 32.70100
H  -4.56000 18.94400 32.59800
H  -4.60600 20.12200 31.33100
H  -0.63500 17.02400 32.15400
H  -1.55200 16.03000 33.33000
H  -2.21100 18.49300 34.21700
H  -0.50100 18.71000 33.71700
H  -3.16800 23.04200 29.44700
H  -3.75900 23.63900 27.96300
H  -1.93500 23.82800 28.45200
H  -3.11300 24.65100 26.12200
H  -2.10000 25.04800 24.71000
H  -1.41700 24.61700 26.26400
H  -0.77300 18.69700 22.70300
H  -1.73100 15.82500 22.66000
H  -3.59400 18.61700 22.66500
H  -3.05300 17.21700 21.65900
H  -2.52000 18.84400 21.30000
H  0.60800 16.55600 21.86800
H  0.45000 15.12400 22.86900
H  0.86600 16.98800 24.76300
H  1.97200 17.34000 23.35400
H  2.09600 15.82300 24.20100
H  -1.26000 11.72000 26.16000
H  -2.89000 12.10900 25.71300
H  -2.61400 11.41400 27.30900
H  -3.68600 14.30500 31.47000
H  -1.37600 13.20400 34.75600
H  -0.46800 12.35700 33.56200
H  -1.85900 11.61600 34.24200
Mg 50.49200 46.87600 42.02600
C  47.38900 47.59100 40.61800
C  50.10700 43.63100 40.75500
C  53.76700 46.53000 42.39200
C  50.79400 50.36800 42.83900
N  48.97300 45.83400 40.67900
C  47.76700 46.25800 40.42600
C  46.87600 45.16500 39.82100
C  47.57900 43.81500 40.13900
C  48.99200 44.46900 40.58300
C  46.98600 42.88900 41.26500
C  46.57400 45.44200 38.24900
C  45.10800 45.22000 37.81300
H  44.96200 44.14300 36.73600
N  51.74300 45.34500 41.48200
C  51.38200 44.10000 41.03400
C  52.56200 43.26600 41.05300
C  53.63900 44.11500 41.47700
C  53.03900 45.37800 41.82100
C  52.60100 41.74900 40.54800
C  55.09200 43.60000 41.67500
O  55.33000 42.40500 41.52000
C  56.22600 44.49500 41.93800
N  52.10200 48.36000 42.51700
C  53.36700 47.83700 42.74500
C  54.27400 48.85200 43.37300
C  53.31600 50.13100 43.43700
C  51.97500 49.61700 42.95500
C  54.93500 48.53100 44.71800
C  53.90100 51.42500 42.76500
C  54.23300 52.60900 43.69500
N  49.23600 48.57900 42.09500
C  49.52600 49.88700 42.36200
C  48.40200 50.70600 42.01600
C  47.55500 49.81800 41.36700
C  48.09600 48.56100 41.41200
C  48.26500 52.15900 42.23200
C  46.21900 49.73200 40.74100
O  45.41600 50.68800 40.44200
C  46.10200 48.31600 40.18300
C  44.83000 47.75900 40.73000
O  44.65700 47.43200 41.89800
O  43.87500 47.80500 39.67900
C  42.48300 47.50600 40.11000
H  49.97200 42.56700 40.55100
H  54.75100 46.32100 42.81600
H  50.80500 51.39500 43.21000
H  45.93400 45.20300 40.36800
H  47.87600 43.35600 39.19600
H  46.47300 43.50600 42.00300
H  47.74500 42.27100 41.74400
H  46.30700 42.19600 40.76700
H  47.17900 44.76500 37.64700
H  46.92000 46.40300 37.86800
H  44.79000 46.19600 37.44600
H  44.38400 45.01400 38.60100
H  53.21000 41.08100 41.15600
H  52.97500 41.71400 39.52400
H  51.63000 41.25800 40.60900
H  56.41600 44.67200 42.99600
H  56.12700 45.43600 41.39700
H  57.09900 43.99900 41.51300
H  55.06300 49.07300 42.65400
H  53.21500 50.32900 44.50400
H  54.45800 47.82500 45.39800
H  54.86000 49.42200 45.34000
H  55.98500 48.24700 44.64000
H  53.19200 51.76600 42.01100
H  54.81200 51.25900 42.19100
H  55.22000 53.03100 43.50600
H  53.96400 52.31500 44.71000
H  53.61800 53.46900 43.43100
H  48.42900 52.69200 41.29500
H  48.99700 52.41400 42.99900
H  47.27700 52.34200 42.65300
H  46.11300 48.38500 39.09500
H  42.14700 48.22100 40.86100
H  42.25600 46.53600 40.55300
H  41.76000 47.54100 39.29400

