158

Mg 44.03500 42.81700 26.20600
C  42.63800 44.84100 28.66100
C  45.42100 40.82200 28.53000
C  45.71800 41.19400 23.80000
C  43.50600 45.51200 23.88300
N  44.09500 42.91000 28.31700
C  43.37300 43.74500 29.15900
C  43.53500 43.48100 30.65100
C  44.67100 42.39100 30.59300
C  44.87100 42.06700 29.05800
C  46.00600 42.77100 31.26500
C  42.22600 43.19000 31.50000
C  42.16400 42.44600 32.81200
H  41.44500 43.04000 34.01600
N  45.16200 41.08900 26.17300
C  45.59000 40.35700 27.25800
C  46.33100 39.23700 26.79900
C  46.47400 39.37200 25.36600
C  45.76700 40.64800 25.05300
C  46.76100 38.19100 27.78500
C  47.17300 38.45300 24.45200
O  47.24700 38.66300 23.22300
C  47.95900 37.29400 24.98800
N  44.33300 43.24200 24.11000
C  45.09100 42.39600 23.37800
C  45.15000 42.87000 21.88700
C  44.45100 44.21100 21.97000
C  44.09200 44.39100 23.39200
C  46.53800 42.86100 21.23500
C  43.15600 44.27900 21.02700
C  41.82300 43.74700 21.42200
N  43.24100 44.76200 26.20300
C  43.08800 45.71400 25.19900
C  42.24300 46.74000 25.74200
C  41.97400 46.42300 27.06300
C  42.64100 45.21500 27.32200
C  41.64200 47.95600 25.06800
C  41.36900 46.87000 28.25700
O  40.67300 47.86800 28.44700
C  41.81600 45.83000 29.34400
C  42.60700 46.59700 30.31600
O  43.61300 47.29500 30.15600
O  41.81700 46.72800 31.51900
C  42.56100 47.54100 32.60000
H  45.77400 40.07900 29.24900
H  46.19300 40.54400 23.06200
H  43.32400 46.34200 23.19800
H  44.08800 44.37700 30.93200
H  44.21100 41.47000 30.95200
H  45.91300 43.61700 31.94600
H  46.78800 42.97300 30.53200
H  46.34700 41.94800 31.89300
H  41.70300 42.65300 30.70900
H  41.64300 44.10000 31.63700
H  43.15000 42.08800 33.10700
H  41.69600 41.49700 32.55000
H  47.06600 37.23500 27.36000
H  45.96100 37.93300 28.48000
H  47.59500 38.63200 28.33200
H  48.69600 37.78700 25.62200
H  48.52600 37.06000 24.08800
H  47.31500 36.49400 25.35600
H  44.51000 42.25900 21.25000
H  45.17200 44.99800 21.74800
H  46.54300 41.94400 20.64700
H  47.41000 42.60900 21.84000
H  46.71800 43.68100 20.54000
H  43.40400 43.92200 20.02800
H  42.95600 45.34100 20.88400
H  41.90000 43.14200 22.32500
H  41.45100 43.06200 20.66000
H  41.06700 44.53300 21.44700
H  41.43300 47.78800 24.01100
H  42.47900 48.65500 25.08500
H  40.69700 48.19200 25.55800
H  40.93500 45.35500 29.77600
H  42.53500 46.88000 33.46600
H  42.04600 48.47900 32.80500
H  43.62200 47.75300 32.46800
Mg 17.46200 50.58000 26.28300
C  19.11900 49.33400 29.17900
C  14.99000 51.56100 28.39600
C  15.95600 51.48600 23.63300
C  19.96700 48.97600 24.39300
N  17.07100 50.46300 28.60900
C  17.98300 50.00600 29.55500
C  17.52400 50.27600 30.95200
C  16.06900 50.70100 30.71600
C  15.99300 50.93500 29.20300
C  15.01400 49.74000 31.24800
C  18.48100 51.27100 31.61300
C  18.86900 51.13900 33.06000
H  17.79200 50.47900 33.99100
N  15.77600 51.49400 25.99800
C  14.87300 51.81000 27.01100
C  13.74600 52.48400 26.39200
C  14.05400 52.56600 24.95400
C  15.25400 51.82900 24.80100
C  12.56400 52.96300 27.15600
C  13.21700 53.17900 23.80500
O  13.61100 53.12800 22.61900
C  11.92100 53.83000 24.06400
N  17.90300 50.24500 24.24100
C  17.04800 50.67500 23.26500
C  17.57200 50.34400 21.85300
C  18.95800 49.60400 22.19400
C  18.94700 49.57300 23.68900
C  16.69700 49.33500 21.11900
C  20.16100 50.31300 21.52400
C  20.68300 51.58800 22.18200
N  19.24700 49.42200 26.65100
C  20.10000 48.88500 25.76100
C  21.27000 48.31900 26.54500
C  20.91400 48.50700 27.89300
C  19.67200 49.14000 27.85100
C  22.45900 47.72200 25.91500
C  21.30600 48.21200 29.27000
O  22.32900 47.73500 29.68800
C  20.27100 48.73400 30.12300
C  19.81200 47.58300 30.95400
O  18.97900 46.78700 30.61300
O  20.38500 47.65700 32.21500
C  19.88900 46.77400 33.32800
H  14.24000 51.95300 29.08600
H  15.43600 51.76700 22.71500
H  20.66200 48.44700 23.73700
H  17.61500 49.40100 31.59600
H  15.86800 51.67400 31.16400
H  15.37900 48.87000 31.79400
H  14.43300 49.42100 30.38300
H  14.49100 50.39900 31.94000
H  18.04300 52.26400 31.51600
H  19.43800 51.27000 31.09200
H  19.16100 52.05900 33.56500
H  19.71800 50.45700 33.09200
H  12.44700 52.39800 28.08100
H  11.72500 52.67400 26.52400
H  12.57400 54.03900 27.33000
H  12.00200 54.67600 24.74600
H  11.20700 53.08100 24.40700
H  11.38300 54.17800 23.18300
H  17.70800 51.29700 21.34200
H  18.98500 48.59100 21.79400
H  16.39800 48.67000 21.92900
H  17.13600 48.66100 20.38400
H  15.84800 49.88400 20.71100
H  19.92300 50.44200 20.46800
H  20.97700 49.60800 21.36900
H  19.88300 52.03400 22.77200
H  21.00100 52.32100 21.44000
H  21.55000 51.35500 22.80000
H  22.68900 48.21100 24.96700
H  22.34900 46.66500 25.67400
H  23.30500 47.79700 26.59700
H  20.69900 49.47600 30.79700
H  19.68900 47.50000 34.11700
H  20.68900 46.09700 33.62800
H  18.97000 46.26300 33.04200

