158

Mg -0.47800 6.94400 26.60400
C  0.27400 8.82700 29.46000
C  -0.67100 4.15600 28.65500
C  -0.88800 4.89000 23.85600
C  -0.13700 9.73700 24.62700
N  -0.18400 6.52700 28.88100
C  -0.04200 7.46600 29.80300
C  0.07300 6.88000 31.20900
C  -0.23000 5.38800 30.95900
C  -0.32600 5.28800 29.40300
C  0.74500 4.40500 31.61200
C  -0.80200 7.57300 32.31200
C  -0.14800 7.82000 33.77600
H  1.11500 7.01600 34.14100
N  -0.73900 4.81500 26.27700
C  -0.83800 3.92400 27.29300
C  -1.15700 2.65500 26.77400
C  -1.25000 2.77300 25.38900
C  -0.87800 4.18400 25.09400
C  -1.29000 1.37300 27.67100
C  -1.70000 1.79400 24.37100
O  -1.68400 2.07500 23.20100
C  -2.21100 0.43200 24.79000
N  -0.43300 7.20100 24.51800
C  -0.70400 6.29200 23.55700
C  -0.80900 6.94600 22.16100
C  -0.74500 8.51100 22.49400
C  -0.47800 8.48900 24.01500
C  0.36600 6.52400 21.23100
C  -2.05500 9.25500 22.07200
C  -1.88200 10.27900 20.98400
N  0.03300 8.85700 26.88700
C  0.10600 9.94000 26.03400
C  0.60400 11.11600 26.72100
C  0.66000 10.69500 28.05900
C  0.31200 9.34200 28.14400
C  0.83300 12.44800 26.18200
C  1.00200 11.17100 29.35600
O  1.45800 12.21800 29.78100
C  0.56000 10.02900 30.36700
C  1.70300 9.96500 31.35300
O  2.77000 9.50600 31.16000
O  1.28200 10.61900 32.43000
C  2.27900 10.99100 33.38300
H  -0.85600 3.42500 29.44500
H  -1.12000 4.26000 22.99500
H  0.10200 10.66100 24.09800
H  1.12800 6.97900 31.46700
H  -1.24000 5.08000 31.23000
H  1.28900 3.93800 30.79000
H  0.21400 3.70600 32.25700
H  1.46200 4.90200 32.26600
H  -1.80900 7.15700 32.33900
H  -0.98900 8.60800 32.02700
H  -0.90300 7.53400 34.50800
H  0.05300 8.88000 33.93300
H  -2.33000 1.04800 27.65200
H  -0.84500 1.48300 28.66000
H  -0.64200 0.70700 27.10000
H  -1.46000 -0.25500 25.18100
H  -2.73700 -0.03700 23.95900
H  -3.11900 0.60900 25.36500
H  -1.81000 6.62500 21.87300
H  0.07300 8.92000 21.90100
H  0.15800 5.49300 20.94500
H  1.29700 6.71400 21.76500
H  0.44000 7.20100 20.37900
H  -2.50500 9.64900 22.98300
H  -2.88200 8.62400 21.74600
H  -1.04600 9.98400 20.34900
H  -1.66300 11.28700 21.33800
H  -2.72300 10.26200 20.29200
H  1.90600 12.58400 26.04200
H  0.57100 13.21100 26.91400
H  0.18800 12.68000 25.33400
H  -0.30900 10.38600 30.92100
H  3.24800 11.23300 32.94900
H  2.33400 10.16300 34.09000
H  1.87400 11.82400 33.95800
Mg 27.46100 50.95900 26.17600
C  25.20700 52.17200 28.71100
C  29.46600 49.72500 28.65500
C  29.68700 50.30900 23.73300
C  25.19500 52.45600 23.69700
N  27.21400 50.85100 28.40500
C  26.17500 51.34800 29.23900
C  26.47500 51.00800 30.73200
C  27.98400 50.38800 30.73200
C  28.24300 50.23600 29.17300
C  29.13600 51.27600 31.42900
C  25.46900 49.99100 31.25300
C  25.13100 50.14400 32.75100
H  26.21900 50.69500 33.75500
N  29.35000 50.25100 26.21100
C  30.00200 49.75000 27.32200
C  31.27200 49.23500 26.86800
C  31.34500 49.45000 25.47800
C  30.08900 50.03800 25.06400
C  32.31300 48.62000 27.87000
C  32.52700 49.10800 24.58600
O  32.48900 49.26700 23.33500
C  33.79700 48.31500 25.09100
N  27.46600 51.39800 24.03300
C  28.48800 50.93200 23.26300
C  28.23700 51.22500 21.76700
C  26.77200 51.77500 21.75600
C  26.39700 51.84900 23.22600
C  29.35600 52.03000 21.07300
C  25.75300 50.95300 20.89300
C  24.80000 51.75000 19.96200
N  25.57700 52.09000 26.09400
C  24.82900 52.68500 25.07700
C  23.69100 53.34500 25.67400
C  23.82300 53.25600 27.06800
C  24.95600 52.42900 27.27400
C  22.71200 54.14800 24.89400
C  23.23500 53.55900 28.34700
O  22.19000 54.18100 28.63700
C  24.14300 52.81600 29.45100
C  24.58200 53.84900 30.47600
O  25.39200 54.74300 30.36400
O  24.03200 53.56600 31.69400
C  24.38600 54.35100 32.91100
H  30.02200 49.16500 29.41000
H  30.26500 49.82200 22.94400
H  24.46400 52.80500 22.96600
H  26.50100 51.97300 31.23700
H  28.06400 49.41300 31.21200
H  29.74100 51.63500 30.59600
H  29.80700 50.62700 31.99300
H  28.59900 51.99400 32.04800
H  25.91500 48.99800 31.19700
H  24.53400 49.96700 30.69400
H  24.76600 49.19800 33.15100
H  24.25400 50.79100 32.74100
H  33.22300 49.21800 27.93300
H  32.58100 47.63900 27.47800
H  31.83600 48.40700 28.82600
H  34.15000 48.53700 26.09800
H  34.60900 48.52800 24.39600
H  33.63900 47.23900 25.17200
H  28.13600 50.22300 21.34900
H  26.98000 52.74100 21.29500
H  30.34600 52.08300 21.52700
H  29.09900 53.06800 20.86200
H  29.35100 51.53400 20.10200
H  25.11500 50.43300 21.60700
H  26.30800 50.26600 20.25300
H  24.98900 52.81000 20.13200
H  23.77300 51.40300 20.06800
H  25.14300 51.49600 18.95900
H  23.18400 55.10700 24.67900
H  21.80600 54.34000 25.46900
H  22.45000 53.60200 23.98800
H  23.65000 52.01800 30.00600
H  24.68300 55.37400 32.68200
H  25.31600 53.90000 33.25800
H  23.61500 54.33200 33.68100

