158

Mg 41.18700 40.74400 26.44200
C  40.38800 43.60300 28.56900
C  41.81600 39.07900 29.33100
C  42.24300 38.16600 24.59700
C  40.93400 42.90400 23.74400
N  41.04100 41.38400 28.73500
C  40.61500 42.44600 29.34800
C  40.60000 42.37700 30.83900
C  41.16800 40.94200 30.99300
C  41.34100 40.37200 29.64300
C  42.39900 40.89100 31.90600
C  39.14300 42.47000 31.33600
C  38.98000 43.17200 32.69900
H  38.23600 42.36300 33.83000
N  41.82700 38.78000 26.90500
C  42.05400 38.28600 28.14600
C  42.61000 36.95200 27.99900
C  42.56500 36.59300 26.60300
C  42.24900 37.85800 25.98400
C  43.00100 36.04600 29.22100
C  42.81400 35.29000 25.92100
O  42.88700 35.22900 24.69300
C  43.12200 34.12800 26.64200
N  41.56000 40.59800 24.54600
C  41.91600 39.38800 23.98100
C  41.97200 39.44200 22.43400
C  41.38600 40.85400 22.13300
C  41.25900 41.57000 23.52500
C  43.38600 39.08600 21.89400
C  40.03600 40.76200 21.26300
C  38.64900 41.12100 21.85400
N  40.81600 42.83900 26.30100
C  40.71700 43.52100 25.09700
C  40.43000 44.96700 25.30000
C  40.31200 45.06500 26.75000
C  40.56100 43.74600 27.27800
C  40.41000 45.97500 24.17200
C  40.03300 45.92200 27.81100
O  39.89200 47.11100 27.84700
C  40.10300 44.99500 29.09900
C  40.99400 45.55200 30.13000
O  42.18800 45.57900 30.13900
O  40.20100 46.03600 31.16500
C  40.92600 46.44900 32.40600
H  41.88700 38.56700 30.29300
H  42.47000 37.35900 23.89700
H  40.82100 43.56700 22.88400
H  41.23700 43.20900 31.14000
H  40.46600 40.26800 31.48300
H  42.57500 41.88500 32.31800
H  43.28900 40.64100 31.32800
H  42.36100 40.31900 32.83200
H  38.84600 41.45600 31.60500
H  38.45200 42.77900 30.55100
H  38.31000 44.01300 32.52100
H  39.98900 43.45300 33.00100
H  43.97200 35.67100 28.89700
H  42.27800 35.24000 29.34200
H  43.16400 36.61200 30.13800
H  42.30100 34.01400 27.35000
H  44.08400 34.24000 27.14200
H  43.07600 33.29100 25.94500
H  41.31200 38.65300 22.07200
H  42.09100 41.40300 21.50900
H  44.14800 39.59200 22.48600
H  43.55700 39.40400 20.86600
H  43.56500 38.01600 22.00300
H  39.98800 39.80800 20.73900
H  40.27100 41.42900 20.43400
H  38.81800 41.27600 22.92000
H  37.99000 40.27000 21.68400
H  38.23700 42.07300 21.52000
H  40.07800 46.90900 24.62700
H  39.75700 45.59900 23.38400
H  41.38900 46.17500 23.73800
H  39.07600 44.88200 29.44400
H  41.96100 46.72400 32.20300
H  40.84300 45.60300 33.09000
H  40.39900 47.20900 32.98200
Mg -2.02800 34.64100 26.89200
C  -3.48400 32.80000 29.57900
C  -0.83400 36.86000 29.26400
C  -1.16700 36.55800 24.35400
C  -3.90400 32.57600 24.67700
N  -2.26600 34.79700 29.21700
C  -2.78600 33.90000 30.10700
C  -2.33100 34.27300 31.55000
C  -1.62600 35.62300 31.40500
C  -1.58700 35.82600 29.90100
C  -2.32700 36.79900 32.18400
C  -1.49000 33.07700 32.23100
C  -2.30500 32.37600 33.37400
H  -1.71700 32.13300 34.78500
N  -1.08700 36.34400 26.80100
C  -0.64800 37.10000 27.91500
C  0.23200 38.14100 27.43400
C  0.16900 38.13300 26.01400
C  -0.68800 36.98800 25.63900
C  1.07400 39.07600 28.27800
C  0.76500 39.06900 24.99800
O  0.67200 38.90000 23.76800
C  1.53400 40.31000 25.50500
N  -2.60500 34.65200 24.77600
C  -1.91800 35.45700 24.01100
C  -2.29300 35.14800 22.53100
C  -2.89900 33.71100 22.59500
C  -3.11200 33.60300 24.13100
C  -3.21800 36.16200 21.93100
C  -2.14000 32.62300 21.97200
C  -0.85900 32.18100 22.66600
N  -3.35700 32.95600 26.93900
C  -4.01500 32.24100 26.02800
C  -4.65300 31.13100 26.68700
C  -4.50100 31.35500 28.07400
C  -3.68200 32.51400 28.17600
C  -5.36400 30.02600 25.96600
C  -4.85700 30.82400 29.36400
O  -5.53700 29.83700 29.58700
C  -4.27600 31.75300 30.38600
C  -5.39400 32.35800 31.22700
O  -6.14000 33.28600 30.97300
O  -5.41900 31.57300 32.37900
C  -6.53200 31.72100 33.36800
H  -0.31300 37.42400 30.04100
H  -0.95400 37.14400 23.45700
H  -4.04800 31.74500 23.98200
H  -3.34200 34.38600 31.94400
H  -0.68700 35.61500 31.95900
H  -3.04900 36.24300 32.78200
H  -2.74400 37.46600 31.43000
H  -1.57200 37.35700 32.73800
H  -0.56100 33.42800 32.68100
H  -1.25600 32.30900 31.49400
H  -2.51300 31.34900 33.07400
H  -3.25800 32.89100 33.49500
H  2.13300 39.07900 28.01700
H  1.07900 38.74100 29.31500
H  0.73900 40.11100 28.33200
H  0.77200 40.90200 26.01300
H  1.81200 40.69400 24.52400
H  2.34600 40.05200 26.18500
H  -1.35700 35.14500 21.97400
H  -3.89600 33.62900 22.16200
H  -4.20100 35.73900 21.72400
H  -2.66900 36.57900 21.08600
H  -3.41800 37.00000 22.59900
H  -1.87200 32.90800 20.95500
H  -2.82300 31.77800 22.06000
H  -0.71000 32.73400 23.59300
H  0.09200 32.39200 22.17600
H  -0.92700 31.10200 22.80100
H  -6.44000 30.17400 25.87500
H  -5.45600 29.24500 26.72100
H  -4.88400 29.79400 25.01500
H  -3.50700 31.19900 30.92400
H  -7.21100 32.57300 33.34900
H  -6.08000 31.78300 34.35800
H  -7.18300 30.85500 33.24600

