158

Mg 25.21200 2.00400 29.65200
C  27.18600 1.35600 32.35100
C  22.42000 2.45600 31.68000
C  23.15100 2.20000 26.83000
C  27.86500 1.37400 27.52200
N  24.86400 1.89500 31.76500
C  25.85100 1.75600 32.66600
C  25.37800 2.04300 34.08900
C  23.84400 2.32600 33.91600
C  23.67400 2.25200 32.35400
C  22.93500 1.27700 34.68100
C  26.13200 3.31300 34.71600
C  26.90000 3.19400 36.08400
H  26.40900 4.08400 37.22700
N  23.11200 2.29500 29.34600
C  22.17200 2.40100 30.33000
C  20.87800 2.42000 29.69700
C  21.08100 2.36600 28.27800
C  22.51900 2.25600 28.11500
C  19.54000 2.32100 30.48300
C  20.00200 2.20600 27.20900
O  20.17500 2.14100 25.98600
C  18.50300 2.16100 27.57700
N  25.43800 1.84400 27.54800
C  24.53100 2.11600 26.62000
C  25.16600 2.40100 25.20200
C  26.65500 2.24900 25.46500
C  26.66400 1.73400 26.89800
C  24.60000 1.55100 24.01900
C  27.48500 3.57600 25.38500
C  27.04700 4.72900 26.31400
N  27.13400 1.36000 29.83100
C  28.13500 1.16200 28.90600
C  29.41800 0.86400 29.55100
C  29.13600 0.92900 30.96600
C  27.72700 1.20900 31.04300
C  30.75900 0.62000 28.82500
C  29.68000 0.91700 32.34100
O  30.82400 0.85500 32.82500
C  28.41000 1.19000 33.21300
C  28.32200 0.10000 34.24500
O  27.80800 -1.00400 34.01400
O  28.82100 0.58000 35.37300
C  28.65700 -0.27000 36.54200
H  21.59200 2.80000 32.30200
H  22.53600 2.41000 25.95200
H  28.65300 1.35800 26.76600
H  25.64500 1.19800 34.72300
H  23.58500 3.33000 34.25300
H  23.56000 0.88700 35.48400
H  22.66700 0.58500 33.88200
H  22.03900 1.74100 35.09300
H  25.44200 4.15500 34.67600
H  26.87400 3.65500 33.99400
H  27.93800 3.51700 36.00000
H  26.75800 2.17300 36.43700
H  19.05500 1.34700 30.41400
H  18.85300 3.15700 30.35300
H  19.54000 2.34100 31.57300
H  18.12800 1.21300 27.96200
H  17.99900 2.18700 26.61100
H  18.20900 2.97700 28.23700
H  25.10800 3.46600 24.97300
H  27.11000 1.54500 24.76800
H  25.39800 0.89600 23.66900
H  24.25900 2.17600 23.19400
H  23.72000 1.02200 24.38700
H  27.41200 3.98400 24.37700
H  28.54700 3.40800 25.56300
H  27.71500 4.96100 27.14400
H  26.08300 4.47700 26.75700
H  26.81900 5.66900 25.81100
H  31.25200 1.58500 28.70400
H  30.48400 0.10300 27.90600
H  31.31800 -0.06500 29.46200
H  28.50800 2.18800 33.64000
H  29.56700 -0.85700 36.66200
H  27.81800 -0.96600 36.55700
H  28.56000 0.41600 37.38300
Mg 47.89100 24.93900 29.56000
C  49.08100 27.11400 32.08000
C  46.96400 22.72100 32.16000
C  47.30300 22.59300 27.29000
C  49.37400 26.90500 27.17200
N  47.94700 25.03400 31.71400
C  48.42400 26.05600 32.55900
C  48.19800 25.73400 34.02900
C  47.78600 24.21000 34.08800
C  47.53300 23.96100 32.56700
C  48.72600 23.17100 34.78800
C  47.22200 26.73500 34.80800
C  47.82300 27.27300 36.18700
H  46.82400 27.65500 37.30100
N  46.99600 22.97400 29.68500
C  46.74500 22.23700 30.89800
C  46.08200 20.96000 30.44500
C  46.22900 20.88900 29.03400
C  46.81500 22.19600 28.59700
C  45.57200 19.93800 31.42200
C  45.67200 19.85200 28.02800
O  45.84000 19.91400 26.82200
C  44.87300 18.74600 28.48000
N  48.26500 24.78300 27.48300
C  47.98200 23.68500 26.81700
C  48.58500 23.79800 25.39900
C  49.00100 25.21000 25.35700
C  48.86300 25.65100 26.72400
C  49.80300 22.78100 25.21300
C  48.26900 26.08300 24.37100
C  46.74200 26.13100 24.47600
N  48.87900 26.74900 29.55800
C  49.47900 27.42000 28.46700
C  49.92800 28.74200 29.01200
C  49.82500 28.66600 30.38800
C  49.18800 27.45400 30.71300
C  50.51400 29.92100 28.21900
C  50.20800 29.27600 31.65100
O  50.75300 30.35300 31.87500
C  49.78600 28.25100 32.77200
C  50.97000 27.90000 33.61400
O  51.89700 27.18100 33.33700
O  50.88300 28.62200 34.79200
C  51.91400 28.39600 35.74800
H  46.53600 22.11600 32.96200
H  47.10100 21.88800 26.48000
H  49.83000 27.46200 26.35100
H  49.16700 25.94900 34.47900
H  46.83100 24.16200 34.61100
H  49.38700 23.68800 35.48300
H  49.31700 22.51800 34.14600
H  48.09600 22.58700 35.45900
H  46.27200 26.30600 35.12500
H  47.09500 27.49000 34.03200
H  48.33800 28.13500 35.76400
H  48.56700 26.56300 36.55100
H  45.85800 18.89800 31.26800
H  44.49700 19.96100 31.24600
H  45.81300 20.23100 32.44400
H  45.37700 17.95200 29.03100
H  44.26800 18.25600 27.71700
H  44.08200 19.07300 29.15400
H  47.86400 23.43500 24.66700
H  50.05500 25.25300 25.08300
H  50.77400 23.25300 25.06600
H  49.60500 22.44300 24.19600
H  49.88300 21.94700 25.91000
H  48.51300 25.72800 23.37000
H  48.64600 27.10200 24.45600
H  46.28600 25.77900 23.55000
H  46.55000 27.20400 24.46400
H  46.37000 25.59100 25.34800
H  50.45600 29.61300 27.17600
H  51.55300 30.13800 28.46900
H  49.97500 30.86500 28.30000
H  49.18700 28.83100 33.47400
H  51.44300 27.72200 36.46400
H  52.07200 29.28600 36.35600
H  52.86700 28.03700 35.36100

