158

Mg 46.79500 16.81600 28.30200
C  45.38100 16.58400 31.51500
C  49.35400 18.62900 29.73000
C  47.69700 17.73700 25.22300
C  43.80700 15.53700 26.95900
N  47.22200 17.57100 30.42900
C  46.67300 17.12500 31.59900
C  47.41400 17.53800 32.84700
C  48.68500 18.22500 32.23100
C  48.37300 18.14900 30.64100
C  49.04600 19.65100 32.72800
C  47.69000 16.26100 33.78000
C  47.24600 16.32400 35.23300
H  46.97400 17.68300 35.88400
N  48.31100 17.95000 27.54300
C  49.29900 18.51100 28.27900
C  50.19100 19.15900 27.36400
C  49.68100 19.01700 26.08200
C  48.46300 18.29600 26.28000
C  51.43300 19.78000 27.84000
C  50.27400 19.53200 24.74500
O  49.89900 19.21900 23.60900
C  51.43800 20.53700 24.75300
N  45.81000 16.73500 26.33700
C  46.53100 17.02600 25.20100
C  45.71800 16.64100 23.97200
C  44.48300 15.89600 24.58700
C  44.70500 16.02900 26.05000
C  45.27000 17.86300 22.99900
C  44.46500 14.40900 24.07000
C  43.38200 14.12300 22.91300
N  44.93600 16.09100 29.04600
C  43.86600 15.61100 28.40000
C  42.84400 15.31900 29.34400
C  43.38000 15.66600 30.62800
C  44.70900 16.11100 30.37300
C  41.55000 14.63800 29.09000
C  43.09300 15.69200 32.00400
O  42.06800 15.36500 32.61600
C  44.42000 16.32400 32.70000
C  43.92700 17.51100 33.49000
O  43.63500 18.62100 33.00300
O  43.66500 17.12800 34.80700
C  42.91700 18.02500 35.62000
H  50.16600 19.13500 30.25500
H  48.10900 17.89800 24.22400
H  42.91900 15.12000 26.47900
H  46.92400 18.36500 33.36000
H  49.55900 17.58500 32.34700
H  48.41000 19.89000 33.58000
H  48.63900 20.30000 31.95300
H  50.11100 19.86500 32.82600
H  48.72600 15.92300 33.81600
H  47.17800 15.43300 33.29000
H  48.05200 15.83400 35.77900
H  46.33600 15.73200 35.33500
H  51.54500 19.67500 28.91900
H  51.34500 20.80100 27.46800
H  52.24500 19.25200 27.33900
H  52.30800 20.03000 25.16800
H  51.23900 21.35700 25.44300
H  51.65800 20.99300 23.78700
H  46.38600 15.96700 23.43600
H  43.57600 16.40800 24.26500
H  44.20200 18.08300 23.00900
H  45.49400 17.53400 21.98500
H  45.75500 18.81200 23.22800
H  44.26600 13.66300 24.83900
H  45.48900 14.18400 23.77300
H  42.68600 14.96100 22.88300
H  42.86100 13.17100 23.02000
H  43.79300 14.26900 21.91400
H  40.95900 15.41900 28.61200
H  41.15100 14.28900 30.04200
H  41.67600 13.76400 28.45000
H  44.93400 15.63500 33.37000
H  42.97300 19.03600 35.21600
H  43.35300 18.08200 36.61800
H  41.87700 17.72000 35.73900
Mg 27.37500 49.01200 26.57800
C  25.27000 50.06300 29.17700
C  29.74200 48.16900 29.04700
C  29.47400 48.19800 24.08700
C  24.86700 50.13400 24.33600
N  27.44100 49.16700 28.83600
C  26.48400 49.51200 29.69500
C  26.80000 49.29500 31.16100
C  28.39200 48.98900 31.09100
C  28.57000 48.80400 29.57500
C  29.24100 50.07800 31.82700
C  25.82300 48.27500 31.69200
C  25.33200 48.21200 33.12800
H  26.13900 48.73800 34.31600
N  29.33200 48.26300 26.63200
C  30.09800 47.92000 27.71100
C  31.33300 47.44000 27.20000
C  31.33400 47.60500 25.77700
C  30.02400 48.07000 25.41400
C  32.39000 47.01100 28.14300
C  32.42400 47.26200 24.77700
O  32.24700 47.42300 23.57100
C  33.69100 46.55700 25.13900
N  27.21600 49.21600 24.57400
C  28.12000 48.66800 23.76000
C  27.62800 48.69400 22.30800
C  26.17400 49.27200 22.41200
C  26.08500 49.60300 23.87400
C  28.58700 49.47900 21.37900
C  25.12900 48.25100 21.80600
C  24.16500 48.95400 20.83500
N  25.47300 50.05100 26.68400
C  24.54800 50.37200 25.69400
C  23.36100 51.02300 26.30100
C  23.55600 50.84700 27.69800
C  24.87500 50.28100 27.83700
C  22.20500 51.66800 25.55900
C  23.00500 50.97700 28.98700
O  21.87200 51.34800 29.39400
C  24.03700 50.45700 30.01400
C  24.26800 51.56400 31.01200
O  25.06500 52.46600 30.77100
O  23.49900 51.37600 32.13800
C  23.65500 52.41700 33.18700
H  30.52400 47.96600 29.78300
H  30.07600 48.06300 23.18600
H  24.07400 50.25200 23.59500
H  26.58300 50.19800 31.73100
H  28.50900 47.98500 31.49800
H  29.39300 49.98800 32.90300
H  28.73700 51.01900 31.61100
H  30.24300 50.03200 31.40000
H  26.43100 47.37200 31.63500
H  25.01100 48.04700 31.00200
H  25.02100 47.20100 33.39300
H  24.38600 48.75000 33.18100
H  32.69300 45.97200 28.01600
H  32.18100 47.20600 29.19500
H  33.36500 47.46800 27.97400
H  34.26500 46.59600 24.21300
H  33.54000 45.50400 25.37900
H  34.30900 47.04900 25.89000
H  27.56500 47.71800 21.82600
H  26.02100 50.20800 21.87400
H  27.97900 50.18800 20.81800
H  29.13100 48.90900 20.62600
H  29.28800 50.01900 22.01600
H  24.43200 47.99500 22.60400
H  25.52100 47.36900 21.30000
H  23.19100 48.58100 21.15300
H  24.46400 48.78500 19.80000
H  23.99400 50.02300 20.96600
H  21.37400 51.59000 26.25900
H  22.11100 51.11000 24.62700
H  22.45900 52.71700 25.40800
H  23.57100 49.59500 30.49200
H  24.54100 52.10900 33.74100
H  22.75000 52.40500 33.79400
H  23.70100 53.35100 32.62600

