158

Mg 49.28000 44.55000 42.43800
C  46.24400 45.06500 40.67900
C  49.67800 41.58800 40.70600
C  52.62200 44.60400 43.07900
C  49.08800 47.88400 43.45900
N  48.13300 43.51500 40.80200
C  46.84100 43.85300 40.37100
C  46.40900 42.79200 39.34200
C  47.26400 41.59200 39.62100
C  48.42200 42.25500 40.45300
C  46.67900 40.37800 40.38200
C  46.47800 43.32400 37.90700
C  45.28900 43.08700 36.92900
H  45.27800 43.81300 35.60800
N  50.92800 43.26600 41.91600
C  50.86100 42.06300 41.29100
C  52.16800 41.33600 41.44100
C  53.00800 42.16000 42.18000
C  52.24000 43.40500 42.43800
C  52.43200 39.88800 40.93700
C  54.37100 41.74200 42.61800
O  54.75600 40.65900 42.20800
C  55.39400 42.58700 43.12600
N  50.69200 46.01500 43.15000
C  51.97800 45.78300 43.45400
C  52.66200 46.97800 44.21200
C  51.46900 48.04500 44.36400
C  50.34500 47.31300 43.62100
C  53.33500 46.57100 45.52100
C  51.72800 49.43800 43.66100
C  51.12600 50.66100 44.35700
N  47.87200 46.14200 42.36000
C  47.92900 47.43200 42.76000
C  46.74500 48.14900 42.47100
C  46.07000 47.28000 41.64800
C  46.77100 46.07200 41.61500
C  46.50000 49.53400 42.92000
C  44.94600 47.12700 40.75900
O  44.12700 47.97800 40.48700
C  44.91500 45.72400 40.16200
C  43.59900 45.12900 40.68200
O  42.70000 44.88400 39.94000
O  43.53000 45.02500 42.07000
C  42.24800 44.84800 42.64300
H  49.89100 40.55600 40.42100
H  53.65500 44.46300 43.40300
H  48.96800 48.84500 43.96200
H  45.39300 42.40400 39.40000
H  47.66300 41.19500 38.68700
H  46.90000 40.36000 41.44900
H  46.99300 39.44000 39.92400
H  45.60800 40.30200 40.19500
H  47.31300 42.84300 37.39800
H  46.60200 44.40300 37.80800
H  44.38000 43.21900 37.51700
H  45.31700 42.00300 36.81900
H  53.32700 39.83300 40.31600
H  51.68900 39.57300 40.20500
H  52.49600 39.23300 41.80600
H  55.11800 42.93000 44.12300
H  55.63600 43.43900 42.49100
H  56.30200 41.99400 43.23900
H  53.49700 47.34100 43.61300
H  51.25800 48.12600 45.43000
H  53.04700 47.20300 46.36100
H  54.41000 46.56500 45.34400
H  53.04200 45.56600 45.82700
H  51.41000 49.39700 42.61900
H  52.81700 49.46200 43.68200
H  51.79800 51.45900 44.67300
H  50.70400 50.37900 45.32100
H  50.38200 51.10400 43.69500
H  46.35100 50.28600 42.14500
H  47.30900 49.81300 43.59500
H  45.55500 49.46000 43.45900
H  44.83500 45.81600 39.07800
H  42.30000 44.20000 43.51800
H  41.51600 44.38200 41.98300
H  41.91000 45.87100 42.80300
Mg 9.18800 48.29500 25.66000
C  6.95200 49.00000 28.18800
C  11.79900 49.63600 27.41800
C  11.01300 47.71900 22.92500
C  6.20600 47.66300 23.64000
N  9.31600 49.41800 27.56600
C  8.28900 49.40500 28.47100
C  8.83300 49.85500 29.88100
C  10.26500 50.44200 29.51900
C  10.51300 49.73100 28.10500
C  10.51000 51.96800 29.70700
C  8.97900 48.62300 30.82900
C  8.40400 48.84500 32.26900
H  8.33200 47.56200 33.05900
N  11.17000 48.49200 25.25500
C  12.08700 48.96000 26.20600
C  13.42900 48.89100 25.60500
C  13.28100 48.25200 24.26800
C  11.80000 48.14200 24.07300
C  14.70300 49.23000 26.35900
C  14.33200 47.86200 23.33100
O  14.12500 47.49000 22.16700
C  15.74300 47.96300 23.68900
N  8.64600 47.92000 23.46900
C  9.62800 47.66300 22.63500
C  9.03800 47.25300 21.23000
C  7.54700 47.12500 21.47400
C  7.45600 47.62400 22.93200
C  9.46600 48.12700 20.00000
C  6.90700 45.67700 21.26400
C  5.93800 45.55100 20.11900
N  6.99700 48.23900 25.85600
C  5.97900 47.94000 25.03400
C  4.71900 47.89800 25.74200
C  5.05800 48.32800 27.03800
C  6.45600 48.51100 26.99200
C  3.30900 47.71400 25.16100
C  4.49800 48.60500 28.29300
O  3.34700 48.53600 28.71500
C  5.68700 48.98800 29.20600
C  5.77700 47.87300 30.14200
O  6.39200 46.87000 29.83200
O  5.13100 48.22200 31.25400
C  4.73400 47.07000 32.13200
H  12.64000 49.98700 28.01800
H  11.69500 47.42900 22.12300
H  5.30800 47.41500 23.07000
H  8.25200 50.57900 30.45200
H  11.03800 50.14200 30.22700
H  9.68800 52.40300 30.27500
H  10.56600 52.38000 28.69900
H  11.43100 52.23300 30.22600
H  10.02200 48.36700 31.01700
H  8.50300 47.75400 30.37500
H  7.39800 49.25400 32.17400
H  8.93900 49.68800 32.70600
H  15.32700 48.34200 26.46000
H  14.57500 49.58200 27.38300
H  15.28300 49.97100 25.80800
H  16.02300 48.93100 24.10300
H  16.41300 47.68800 22.87500
H  15.79700 47.23700 24.50100
H  9.41800 46.26300 20.97600
H  7.01700 47.87700 20.88900
H  8.71400 48.45400 19.28200
H  10.06200 47.45100 19.38600
H  10.11600 48.96500 20.25300
H  6.22400 45.48500 22.09100
H  7.62500 44.86100 21.18500
H  5.12800 44.93500 20.50900
H  6.43000 44.94900 19.35500
H  5.59300 46.50300 19.71600
H  2.78500 46.88500 25.63500
H  3.36900 47.51800 24.09000
H  2.82200 48.68600 25.24800
H  5.56100 49.96600 29.67100
H  4.97500 47.16100 33.19100
H  5.00100 46.08700 31.74400
H  3.65900 46.95800 31.99600

