158

Mg 48.47600 34.95200 27.22800
C  46.78500 33.47400 29.91500
C  49.36700 37.61100 29.24100
C  49.72900 36.46400 24.46700
C  47.34200 32.28700 25.20500
N  48.11800 35.44300 29.33800
C  47.60600 34.57300 30.28300
C  47.79800 35.13200 31.67900
C  48.19800 36.60600 31.37700
C  48.63900 36.56700 29.90100
C  47.18300 37.71600 31.67800
C  48.95800 34.37500 32.44600
C  48.85000 34.25400 33.93600
H  47.90800 35.16000 34.78400
N  49.53300 36.76400 26.93800
C  49.79900 37.69900 27.88400
C  50.54900 38.68700 27.28400
C  50.81800 38.33100 25.98700
C  49.92900 37.23900 25.70700
C  51.12900 39.76200 28.06200
C  51.77700 38.96600 24.90100
O  51.93800 38.45100 23.81000
C  52.55100 40.15900 25.37400
N  48.34600 34.52300 25.06300
C  48.95000 35.32600 24.17500
C  48.89600 34.74200 22.74600
C  48.30100 33.32700 22.94000
C  48.03200 33.34200 24.55200
C  48.24000 35.66900 21.70200
C  49.10100 32.10300 22.42300
C  50.01300 31.43100 23.41100
N  47.14000 33.29100 27.47500
C  46.91100 32.23900 26.57600
C  46.08900 31.29000 27.25800
C  45.95300 31.77600 28.53400
C  46.64700 32.97600 28.61200
C  45.62600 29.97900 26.62000
C  45.34900 31.52100 29.75900
O  44.68200 30.54800 30.13600
C  45.80300 32.61900 30.72200
C  46.40000 31.90000 31.94600
O  47.46800 31.37200 32.02200
O  45.45300 31.81300 32.93200
C  45.87100 30.97600 34.18100
H  49.62800 38.42600 29.91900
H  50.03600 36.96000 23.54300
H  47.04400 31.40200 24.63800
H  46.87300 35.02400 32.24600
H  49.18700 36.79700 31.79300
H  46.42200 37.38300 32.38500
H  46.61500 37.90500 30.76700
H  47.71200 38.52200 32.18800
H  49.90500 34.78900 32.09900
H  48.94000 33.33100 32.13200
H  49.80300 34.19100 34.46300
H  48.41600 33.26000 34.03600
H  50.65800 40.67600 27.70300
H  52.21000 39.83200 27.94100
H  50.99400 39.78600 29.14400
H  53.18600 40.51300 24.56300
H  53.22500 40.05500 26.22500
H  51.77500 40.89800 25.57400
H  49.95400 34.59100 22.53100
H  47.29100 33.36100 22.53000
H  47.41300 35.17400 21.19200
H  49.00000 36.09600 21.04700
H  47.65600 36.49100 22.11600
H  49.68400 32.57500 21.63200
H  48.34700 31.37200 22.13100
H  50.99000 31.48000 22.93000
H  49.63200 30.42800 23.59900
H  50.12900 32.05700 24.29600
H  46.14800 29.08500 26.95900
H  45.83800 29.92100 25.55200
H  44.55500 29.81200 26.73900
H  44.95200 33.19200 31.09000
H  46.85200 31.27000 34.55400
H  45.88500 29.93300 33.86400
H  45.21700 30.85600 35.04400
Mg 27.07000 51.01000 25.37200
C  25.31100 52.20700 28.19200
C  29.66400 50.03600 27.56000
C  28.87800 49.91900 22.61100
C  24.81300 52.56700 23.30400
N  27.45100 51.10800 27.59600
C  26.50000 51.51800 28.59100
C  27.09500 51.28200 29.96500
C  28.50400 50.65000 29.72000
C  28.58400 50.66400 28.20700
C  29.75700 51.24400 30.61400
C  26.27400 50.50300 31.01000
C  26.08600 51.28700 32.37000
H  25.37800 50.50800 33.43500
N  28.92700 50.04100 25.13700
C  29.82400 49.67100 26.20700
C  30.99300 48.97300 25.61200
C  30.67200 48.92500 24.23400
C  29.45600 49.66900 23.94400
C  32.11800 48.44900 26.51300
C  31.35000 48.08400 23.28300
O  30.94600 47.85300 22.14000
C  32.48500 47.29700 23.71100
N  26.92400 51.34400 23.21000
C  27.67000 50.66200 22.29400
C  27.14200 50.87300 20.84600
C  25.76700 51.51500 21.08700
C  25.78900 51.86800 22.61700
C  28.19900 51.53400 19.94600
C  24.50400 50.81600 20.62200
C  23.40200 51.71400 20.06600
N  25.46800 52.27200 25.61200
C  24.67000 52.85300 24.65500
C  23.57200 53.53800 25.23800
C  23.78000 53.32400 26.69000
C  24.92300 52.46700 26.83200
C  22.47600 54.31200 24.55900
C  23.25000 53.58500 28.05400
O  22.28100 54.16700 28.41600
C  24.28500 52.91400 29.07000
C  24.76200 53.87200 30.04200
O  25.80400 54.54900 29.96000
O  23.86700 53.88800 31.03600
C  24.25400 54.76700 32.21900
H  30.32300 49.57200 28.29700
H  29.34500 49.52100 21.70700
H  24.03200 52.93300 22.63400
H  27.15400 52.30300 30.34100
H  28.45400 49.63000 30.10000
H  30.32100 51.83500 29.89200
H  30.42300 50.54400 31.11800
H  29.35800 51.92500 31.36500
H  26.70700 49.51300 31.15000
H  25.31400 50.29500 30.53800
H  25.60700 52.24200 32.15100
H  27.10800 51.44700 32.71300
H  32.19100 47.36200 26.50100
H  32.05400 48.81700 27.53700
H  33.07800 48.85400 26.19200
H  33.27600 48.00100 23.96800
H  32.78200 46.60300 22.92500
H  32.16700 46.65300 24.53100
H  26.97100 49.89500 20.39600
H  25.80600 52.46800 20.56100
H  28.86300 52.12900 20.57300
H  27.74300 52.22200 19.23500
H  28.69600 50.80700 19.30300
H  24.17400 50.34000 21.54500
H  24.71100 50.06500 19.85900
H  23.76200 52.74000 19.98300
H  22.52200 51.67500 20.70700
H  22.99800 51.39700 19.10400
H  22.76100 54.78800 23.62000
H  21.94400 54.98600 25.23000
H  21.80000 53.49600 24.30700
H  23.75800 52.14100 29.62900
H  24.92900 54.15800 32.82000
H  23.35100 54.96300 32.79700
H  24.76900 55.70800 32.02500

