158

Mg 48.10500 25.37100 28.64500
C  49.25100 27.71300 31.09600
C  47.27500 23.22400 30.92200
C  47.70500 23.24500 26.11500
C  49.76100 27.50400 26.22200
N  48.42200 25.38800 30.81100
C  48.69700 26.47700 31.60300
C  48.24000 26.22500 33.03800
C  47.79900 24.77200 33.00100
C  47.84900 24.38900 31.53500
C  48.54800 23.78900 33.94800
C  47.09500 27.19000 33.51100
C  47.52400 28.23100 34.59900
H  46.68200 28.43700 35.79600
N  47.52600 23.50700 28.57700
C  47.19100 22.72900 29.60800
C  46.58800 21.51700 29.10700
C  46.68300 21.54200 27.68200
C  47.36900 22.78100 27.42300
C  45.93200 20.60000 30.05500
C  46.19200 20.49000 26.65900
O  46.36800 20.54800 25.42900
C  45.36300 19.26100 27.21200
N  48.70100 25.39600 26.45600
C  48.46000 24.34400 25.67200
C  48.95300 24.50900 24.22300
C  49.64400 25.81600 24.32600
C  49.30500 26.30700 25.72300
C  49.64000 23.25200 23.57900
C  49.37700 26.80000 23.14400
C  48.22900 27.84900 23.38200
N  49.17200 27.25900 28.61400
C  49.73500 27.95900 27.54000
C  50.39900 29.14300 28.05800
C  50.16600 29.06800 29.44800
C  49.54500 27.89400 29.70800
C  50.93700 30.25100 27.22000
C  50.37900 29.83400 30.69000
O  50.85600 30.91500 30.93700
C  49.78100 28.93200 31.85500
C  50.84200 28.71500 32.80100
O  51.79000 27.97600 32.72800
O  50.65800 29.54100 33.81000
C  51.72100 29.55600 34.76600
H  46.88200 22.58900 31.71900
H  47.51400 22.48700 25.35300
H  50.26800 28.10800 25.46600
H  49.11700 26.34200 33.67600
H  46.74400 24.53400 33.13900
H  47.89900 23.36900 34.71700
H  49.38000 24.26800 34.46400
H  48.94100 22.89900 33.45600
H  46.25000 26.60100 33.86600
H  46.69800 27.78600 32.68800
H  47.40300 29.16900 34.05700
H  48.57300 28.14400 34.88500
H  46.49200 19.66600 30.00700
H  44.97700 20.32400 29.60800
H  45.86300 20.79600 31.12500
H  45.93000 18.87000 28.05700
H  45.29200 18.42800 26.51300
H  44.38500 19.69600 27.41700
H  48.03100 24.73600 23.68900
H  50.73100 25.75000 24.28500
H  49.00600 22.36600 23.54300
H  50.47100 23.13800 24.27400
H  49.93500 23.54800 22.57200
H  49.13100 26.24800 22.23700
H  50.32600 27.31700 23.00000
H  47.53200 27.67100 22.56300
H  48.54200 28.88900 23.28600
H  47.70000 27.72400 24.32700
H  50.48100 30.14200 26.23600
H  52.02200 30.16700 27.15100
H  50.61500 31.17000 27.70900
H  49.03800 29.53400 32.37900
H  52.71200 29.70600 34.33700
H  51.66100 28.70300 35.44200
H  51.47500 30.37900 35.43700
Mg 29.55300 57.99800 41.16700
C  26.74600 56.32000 39.93600
C  31.48800 55.36800 39.95800
C  32.12000 60.02300 41.26500
C  27.35400 60.83300 41.93600
N  29.12900 56.05800 40.08400
C  27.92600 55.58700 39.68600
C  28.15500 54.33100 38.91800
C  29.57000 53.76300 39.33100
C  30.09600 55.13500 39.88600
C  29.60500 52.69600 40.35100
C  28.04300 54.69500 37.41100
C  26.96200 53.86000 36.62300
H  26.24100 54.62400 35.45700
N  31.56100 57.72600 40.73700
C  32.15000 56.60000 40.21500
C  33.58400 56.80200 40.15900
C  33.78300 58.12800 40.75300
C  32.44300 58.70200 40.87600
C  34.48700 55.64200 39.72000
C  35.15700 58.64800 40.92800
O  36.24400 58.13000 40.57400
C  35.29800 60.04500 41.65000
N  29.69000 60.07300 41.52800
C  30.92600 60.66800 41.57000
C  30.84900 62.02400 42.23400
C  29.31200 62.38200 42.19200
C  28.72700 61.04700 41.88800
C  31.50900 62.09100 43.67100
C  29.03900 63.51500 41.13400
C  27.66700 64.13700 41.31400
N  27.49400 58.46100 41.08800
C  26.76300 59.60200 41.58800
C  25.38200 59.33800 41.41100
C  25.29400 58.06100 40.72700
C  26.60600 57.56500 40.58800
C  24.29500 60.37600 41.58800
C  24.41800 57.04300 40.19400
O  23.18400 57.06100 40.21800
C  25.28100 55.89900 39.56000
C  25.04300 54.59100 40.26600
O  25.26000 54.43500 41.41500
O  24.33900 53.71600 39.42700
C  23.92800 52.48700 40.05500
H  32.04600 54.46000 39.72400
H  32.94400 60.72600 41.40700
H  26.72300 61.68800 42.18700
H  27.37300 53.59300 39.09600
H  30.14700 53.44300 38.46300
H  29.71000 53.10000 41.35800
H  30.44900 52.03100 40.16900
H  28.64400 52.21900 40.15800
H  29.04200 54.57900 36.99100
H  27.73200 55.72600 37.24500
H  26.16100 53.39200 37.19700
H  27.43000 52.95000 36.25000
H  34.25500 55.03000 38.84900
H  34.43700 54.99500 40.59600
H  35.50700 56.01300 39.61700
H  34.98500 60.88000 41.02400
H  36.26300 60.29200 42.09300
H  34.64500 59.95200 42.51800
H  31.39600 62.64600 41.52600
H  28.83200 62.75700 43.09600
H  31.54900 61.07900 44.07500
H  30.82800 62.57900 44.36800
H  32.54400 62.41900 43.58300
H  29.06400 63.03300 40.15700
H  29.76300 64.31300 41.30200
H  27.10100 64.02400 40.39000
H  27.68300 65.17400 41.65000
H  27.09200 63.69500 42.12800
H  23.37800 59.83500 41.35600
H  24.47800 61.24800 40.96100
H  24.27300 60.74100 42.61500
H  25.11200 56.05400 38.49500
H  24.67900 52.06500 40.72200
H  23.55200 51.79200 39.30300
H  23.01300 52.72100 40.59900

