158

Mg 40.27500 9.39100 29.28100
C  42.25200 10.28800 32.09100
C  37.91000 8.15800 31.39000
C  38.87300 7.83100 26.55300
C  42.98700 10.25500 27.31300
N  40.13700 9.11000 31.52200
C  41.05200 9.64600 32.40500
C  40.43400 9.58200 33.82400
C  39.12400 8.74300 33.62500
C  38.99500 8.73700 32.11500
C  39.06800 7.32300 34.23000
C  40.16500 10.95800 34.49100
C  39.62900 10.86300 35.95200
H  40.49800 11.52000 37.06600
N  38.70300 8.16700 29.02600
C  37.76600 7.88200 30.01400
C  36.75400 7.00300 29.45500
C  37.01900 6.92800 28.04400
C  38.21400 7.68600 27.80800
C  35.67200 6.39300 30.35200
C  36.26700 6.11700 27.01800
O  36.69300 5.80000 25.92900
C  35.04300 5.47000 27.51500
N  40.94200 8.92000 27.25700
C  40.08900 8.50100 26.29300
C  40.66600 8.73500 24.91500
C  41.84900 9.76600 25.14900
C  41.98800 9.60500 26.68200
C  41.19700 7.36100 24.24500
C  41.58700 11.17600 24.59300
C  40.96800 12.25100 25.43300
N  42.12600 10.26900 29.56900
C  43.13600 10.54800 28.64700
C  44.23300 11.18100 29.36800
C  43.86100 11.19800 30.68000
C  42.64000 10.51300 30.78300
C  45.40900 11.83200 28.68000
C  44.27000 11.60900 32.01600
O  45.24400 12.21600 32.34600
C  43.22900 11.01800 32.98300
C  43.91600 10.10700 33.94500
O  44.12200 8.88900 33.91100
O  44.34600 10.82500 35.04600
C  44.74800 9.96300 36.20000
H  37.18800 7.74200 32.09600
H  38.26300 7.72600 25.65300
H  43.79700 10.59700 26.66600
H  41.13800 9.05100 34.46500
H  38.27300 9.23600 34.09400
H  40.00400 7.25200 34.78400
H  39.02400 6.63900 33.38300
H  38.15900 7.26700 34.83000
H  39.46000 11.47400 33.84000
H  41.12200 11.47500 34.56500
H  39.26600 9.83900 36.03700
H  38.68900 11.39700 35.81500
H  34.79000 6.99500 30.13500
H  35.75600 6.40100 31.43900
H  35.73300 5.35000 30.04000
H  35.34400 4.56100 28.03600
H  34.47100 5.15200 26.64300
H  34.39700 6.11000 28.11500
H  39.85400 9.06400 24.26600
H  42.83400 9.38000 24.88300
H  40.83300 7.27600 23.22100
H  40.75500 6.58500 24.87100
H  42.28600 7.33100 24.24800
H  40.91400 11.10700 23.73900
H  42.54600 11.54100 24.22300
H  40.43700 11.88400 26.31100
H  40.27500 12.77300 24.77300
H  41.78400 12.93100 25.68000
H  45.92200 12.46900 29.40000
H  45.05300 12.43000 27.84100
H  46.15300 11.06600 28.45900
H  42.68000 11.88000 33.36000
H  45.53400 9.26300 35.91500
H  43.90800 9.41700 36.62900
H  45.17100 10.68800 36.89500
Mg 47.55800 16.39800 28.62100
C  45.68500 16.26100 31.52100
C  49.87800 18.40600 30.28500
C  49.06600 17.14600 25.62500
C  44.76700 15.23900 26.82800
N  47.67100 17.48100 30.60800
C  46.83700 17.10900 31.67300
C  47.45700 17.55900 33.02000
C  48.72500 18.45700 32.57700
C  48.77500 18.17500 31.05400
C  48.60900 19.99600 32.92500
C  47.82900 16.32600 33.97500
C  47.12800 16.28500 35.33400
H  47.20300 17.62800 36.11000
N  49.31000 17.49200 28.03400
C  50.18700 18.12400 28.88200
C  51.33300 18.70600 28.14000
C  51.14700 18.26300 26.79000
C  49.81500 17.61600 26.76500
C  52.49800 19.37700 28.76600
C  52.06700 18.32000 25.61600
O  51.84300 17.98700 24.45300
C  53.44100 18.65100 25.80000
N  47.12600 16.00600 26.48100
C  47.79100 16.56400 25.48300
C  47.07400 16.40200 24.21200
C  45.88200 15.47100 24.51700
C  45.88700 15.58300 26.04300
C  46.57200 17.64400 23.37600
C  46.02000 13.97900 24.00500
C  44.96700 13.60600 22.90200
N  45.74600 15.68200 29.08100
C  44.65300 15.22600 28.21200
C  43.53600 14.85200 29.00700
C  43.95200 15.10200 30.34800
C  45.22500 15.76400 30.30400
C  42.30600 14.16100 28.58300
C  43.51500 15.09200 31.68200
O  42.41200 14.77300 32.12800
C  44.67700 15.73900 32.53100
C  43.93800 16.89000 33.20800
O  43.95500 18.05000 32.72000
O  43.30200 16.43200 34.40200
C  42.22700 17.34600 34.76600
H  50.65300 18.98800 30.78800
H  49.53800 17.28100 24.64900
H  43.84900 14.99900 26.28800
H  46.65000 18.15800 33.44300
H  49.64600 18.10300 33.04100
H  48.44800 20.46000 31.95200
H  49.48200 20.39200 33.44400
H  47.71100 20.27500 33.47600
H  48.91200 16.36300 34.09200
H  47.60500 15.39600 33.45300
H  47.62500 15.53700 35.95200
H  46.09300 15.95300 35.25200
H  53.19500 18.54300 28.85700
H  52.22000 19.80200 29.73100
H  52.91400 20.19400 28.17800
H  54.08900 18.45200 24.94600
H  53.73100 18.01000 26.63200
H  53.49700 19.72900 25.95200
H  47.79500 15.96900 23.51900
H  44.88700 15.78700 24.20300
H  45.48300 17.68600 23.36000
H  46.92600 17.56600 22.34800
H  46.93700 18.57800 23.80200
H  45.83500 13.30700 24.84300
H  47.03700 13.83200 23.64000
H  45.13200 12.62700 22.45400
H  44.95000 14.36800 22.12200
H  43.99900 13.54300 23.39900
H  41.47800 14.41400 29.24600
H  42.36600 13.08000 28.46200
H  42.07500 14.47100 27.56400
H  45.10700 14.99000 33.19600
H  41.38900 17.11200 34.10800
H  42.41600 18.41400 34.87300
H  41.76300 17.12900 35.72800

