158

Mg 29.11500 57.21600 41.31400
C  26.33600 55.35400 40.24100
C  31.10500 55.10300 39.61200
C  31.47500 59.70100 41.29100
C  26.67800 59.77300 42.26800
N  28.80900 55.54600 40.03100
C  27.56900 54.94200 39.74500
C  27.75300 53.66200 38.88300
C  29.31200 53.40700 38.98400
C  29.77600 54.77700 39.45600
C  29.81900 52.19200 39.88300
C  27.18300 53.76800 37.49000
C  27.55300 55.13000 36.70900
H  27.62800 55.12000 35.25600
N  30.96400 57.33400 40.77800
C  31.69800 56.34000 40.15300
C  33.09800 56.63300 40.03700
C  33.23100 57.98400 40.54400
C  31.86200 58.36500 40.95100
C  34.18800 55.70600 39.45900
C  34.50800 58.65300 40.77400
O  35.55000 58.18900 40.34200
C  34.65200 59.97700 41.52900
N  29.03900 59.47600 41.64900
C  30.21300 60.24100 41.65100
C  29.93700 61.72100 41.97000
C  28.40200 61.68400 42.32500
C  28.01200 60.15200 42.13400
C  30.81800 62.28200 43.10400
C  27.53000 62.80900 41.68700
C  26.54800 63.55500 42.57200
N  26.93600 57.48300 41.50700
C  26.15200 58.55700 41.98900
C  24.77400 58.07000 41.95200
C  24.77500 56.84500 41.27400
C  26.11900 56.53600 41.01600
C  23.58700 58.67700 42.67700
C  23.87300 55.78600 40.80100
O  22.66400 55.59300 40.83800
C  24.81300 54.86100 40.03000
C  24.57200 53.39900 40.51000
O  24.54300 53.09700 41.68600
O  24.43700 52.63500 39.41700
C  24.31800 51.21700 39.76600
H  31.85800 54.44600 39.17100
H  32.27200 60.44700 41.26900
H  25.89700 60.44400 42.63100
H  27.44600 52.69900 39.29200
H  29.80900 53.34000 38.01600
H  29.63000 51.17900 39.52900
H  29.25700 52.43500 40.78500
H  30.86600 52.29800 40.16600
H  26.09600 53.69100 37.51000
H  27.53300 52.93100 36.88500
H  28.44400 55.64100 37.07400
H  26.70400 55.76600 36.95800
H  33.93700 55.39600 38.44500
H  34.33100 54.86800 40.14100
H  35.15500 56.14200 39.21000
H  34.27800 60.81700 40.94400
H  35.71900 60.13400 41.68800
H  34.05100 59.79500 42.42000
H  30.10700 62.30700 41.06700
H  28.42600 61.87400 43.39800
H  30.42700 62.47300 44.10400
H  31.43800 63.10900 42.75800
H  31.63500 61.56500 43.17500
H  26.95700 62.39200 40.85800
H  28.13800 63.61700 41.27900
H  26.62600 63.10100 43.56000
H  25.52900 63.28200 42.29600
H  26.77800 64.62000 42.56600
H  23.95600 59.17800 43.57200
H  22.92500 57.82800 42.84200
H  23.13400 59.44000 42.04300
H  24.52100 54.88000 38.98000
H  25.00300 50.91400 40.55800
H  24.45500 50.56500 38.90400
H  23.25000 51.10600 39.95700
Mg 10.71100 47.15800 25.52500
C  8.25800 47.61000 28.08300
C  13.06300 48.34900 27.60700
C  12.81500 46.85900 22.90300
C  8.05800 46.34100 23.31300
N  10.53300 48.00800 27.59700
C  9.52100 47.98200 28.51800
C  10.05200 48.38200 29.89400
C  11.43700 49.03500 29.44500
C  11.72700 48.35400 28.16100
C  11.49000 50.58500 29.29000
C  10.06000 47.39300 31.09800
C  10.19700 48.20200 32.40000
H  9.26000 47.86900 33.50700
N  12.72100 47.50300 25.27900
C  13.52900 48.00700 26.30600
C  14.89900 47.93500 25.84100
C  14.88500 47.56600 24.44700
C  13.40400 47.33600 24.11600
C  16.03300 48.36900 26.71200
C  15.99200 47.31900 23.58700
O  15.84100 47.03800 22.37800
C  17.26500 47.29900 24.12900
N  10.45900 46.86100 23.35700
C  11.47400 46.74300 22.51200
C  11.04600 46.00700 21.19400
C  9.48500 45.86800 21.37800
C  9.32500 46.36200 22.77300
C  11.46300 46.70100 19.89200
C  8.97200 44.38300 21.20200
C  7.57000 44.40800 20.48700
N  8.63300 47.04500 25.57900
C  7.65300 46.73800 24.63800
C  6.35400 46.84900 25.21900
C  6.57400 47.09300 26.56500
C  7.96300 47.21400 26.76300
C  5.12800 46.58000 24.55000
C  5.89500 47.18900 27.86400
O  4.69700 47.09500 28.12200
C  6.96800 47.64200 28.91900
C  6.86500 46.62200 29.95300
O  7.29200 45.51200 29.80100
O  6.04600 46.97700 30.93200
C  6.15100 46.10400 32.13300
H  13.83900 48.67500 28.30200
H  13.49400 46.58800 22.09200
H  7.26600 45.96400 22.66400
H  9.35100 49.16300 30.18900
H  12.16600 48.80600 30.22200
H  12.38200 50.89500 29.83400
H  10.66100 51.08000 29.79600
H  11.71800 51.00100 28.30800
H  11.00600 46.86700 30.96900
H  9.17100 46.76500 31.04200
H  9.89700 49.23200 32.21000
H  11.26800 48.26100 32.59200
H  15.66600 48.64000 27.70200
H  16.57000 49.22100 26.29700
H  16.82400 47.63400 26.85800
H  17.16700 46.66200 25.00700
H  17.58700 48.31200 24.37200
H  17.90700 46.92300 23.33300
H  11.50000 45.01700 21.16000
H  8.91100 46.60000 20.81100
H  12.05400 45.96000 19.35400
H  12.16100 47.53900 19.87900
H  10.55500 47.00200 19.37000
H  8.75500 43.85500 22.13000
H  9.58500 43.62200 20.71900
H  7.72700 44.27400 19.41700
H  7.08900 45.38400 20.54200
H  6.92900 43.67000 20.97000
H  4.21000 46.82800 25.08200
H  5.07100 45.49500 24.45500
H  5.13300 47.06200 23.57300
H  6.82100 48.62300 29.37000
H  7.09900 45.56900 32.09700
H  5.29500 45.43300 32.06500
H  6.04600 46.78500 32.97800

