158

Mg 26.70000 49.61900 25.50200
C  24.67000 50.94400 28.22900
C  29.17600 48.92100 27.80800
C  28.41800 48.45300 23.08300
C  24.35000 51.01700 23.30400
N  26.89900 49.88400 27.71300
C  25.93200 50.35300 28.64800
C  26.40500 50.16600 30.13600
C  27.95300 49.82100 29.89900
C  28.03700 49.44000 28.40700
C  28.87600 51.03000 30.23600
C  25.60800 49.13100 31.09000
C  25.27400 49.64400 32.47100
H  26.26100 50.30700 33.37100
N  28.53500 48.72400 25.50000
C  29.42100 48.54600 26.50900
C  30.57800 47.82300 26.03600
C  30.27200 47.44600 24.66300
C  28.99100 48.16700 24.33400
C  31.81900 47.44700 27.03900
C  30.86900 46.42700 23.75400
O  30.37000 46.33800 22.62700
C  31.92300 45.53900 24.11400
N  26.42400 49.78600 23.47000
C  27.31100 49.21600 22.67500
C  27.12600 49.65000 21.17000
C  25.74100 50.41100 21.21300
C  25.41700 50.39900 22.73200
C  28.25400 50.41200 20.37300
C  24.61200 49.74300 20.28900
C  23.85000 48.48000 20.75500
N  25.00400 50.78600 25.68600
C  24.07800 51.21700 24.68300
C  23.00700 51.97300 25.26600
C  23.25900 51.90400 26.63400
C  24.42500 51.17600 26.85400
C  21.81000 52.47800 24.61500
C  22.59000 52.20900 27.88500
O  21.50800 52.68600 28.10100
C  23.60900 51.75000 28.96600
C  24.19700 52.90300 29.75100
O  25.14800 53.55800 29.40300
O  23.59900 53.15100 30.88000
C  24.12900 54.21500 31.73300
H  29.93300 48.62500 28.53800
H  28.94900 48.23600 22.15500
H  23.64700 51.41600 22.57000
H  26.19900 51.11400 30.63300
H  28.18000 49.12300 30.70400
H  29.76000 51.16800 29.61400
H  29.08200 50.78400 31.27800
H  28.30700 51.95900 30.20600
H  26.25100 48.26400 31.24200
H  24.85300 48.65100 30.46700
H  24.97600 48.69300 32.91200
H  24.38000 50.26800 32.48900
H  31.91200 48.19600 27.82500
H  32.74700 47.45100 26.46700
H  31.86600 46.46100 27.50200
H  31.69300 44.62900 23.55900
H  31.85700 45.33800 25.18300
H  32.85600 45.98900 23.77600
H  27.20600 48.69300 20.65600
H  25.84500 51.42800 20.83400
H  27.93400 50.69000 19.36800
H  29.20800 49.88800 20.33700
H  28.52700 51.32100 20.90900
H  25.19100 49.46700 19.40700
H  23.97600 50.59100 20.03300
H  23.99300 47.75300 19.95600
H  22.81100 48.76300 20.92100
H  24.18400 47.95400 21.65000
H  21.88100 53.44000 24.10700
H  20.95700 52.54200 25.29000
H  21.33000 51.80900 23.90100
H  23.12600 51.16800 29.75200
H  24.04200 55.15000 31.18000
H  25.12200 53.89300 32.04900
H  23.53800 54.15700 32.64700
Mg 6.34800 54.22700 39.46600
C  5.97200 50.79300 39.55500
C  9.66600 53.83800 38.77200
C  6.47300 57.52100 38.72500
C  2.89100 54.51100 39.83900
N  7.60800 52.49100 39.01100
C  7.25800 51.15900 39.15100
C  8.54500 50.27600 38.84200
C  9.66000 51.35700 39.03700
C  8.95800 52.69200 38.91000
C  10.60700 51.28200 40.28700
C  8.60500 49.70200 37.45100
C  8.26800 50.70300 36.35400
H  6.89100 50.57200 35.61000
N  7.87200 55.51200 38.90700
C  9.15300 55.15500 38.70400
C  9.97900 56.31000 38.42600
C  9.06900 57.45200 38.46700
C  7.72400 56.87800 38.68000
C  11.56100 56.32500 38.22200
C  9.34900 58.96100 38.48900
O  10.55500 59.32800 38.42700
C  8.43400 60.10200 38.74700
N  4.83100 55.78200 39.23300
C  5.20800 57.09100 39.00300
C  4.02000 58.05500 39.23800
C  2.80000 57.09800 39.15000
C  3.51600 55.68800 39.41900
C  4.22500 58.73900 40.61800
C  2.11500 57.05900 37.76400
C  0.60000 57.17500 37.82600
N  4.69200 52.91200 39.61800
C  3.38600 53.16300 39.90100
C  2.63500 51.91000 40.10700
C  3.61100 50.92400 39.98600
C  4.82600 51.61500 39.67300
C  1.22400 51.63100 40.58700
C  3.92700 49.50400 40.04300
O  3.18400 48.57800 40.34400
C  5.44300 49.34300 39.76500
C  5.62300 48.44900 38.61600
O  5.25100 48.68400 37.45400
O  6.37300 47.34800 39.03400
C  6.40100 46.29100 38.04700
H  10.73200 53.61000 38.70600
H  6.51400 58.59400 38.52300
H  1.81900 54.48000 40.04300
H  8.76200 49.47900 39.55200
H  10.40600 51.28100 38.24500
H  11.62600 51.63700 40.13200
H  10.64300 50.31800 40.79600
H  10.37400 51.99600 41.07700
H  7.91600 48.86100 37.36600
H  9.60000 49.29700 37.27100
H  9.13400 50.52100 35.71800
H  8.47600 51.74000 36.61800
H  12.03400 57.26700 37.94400
H  11.90900 55.57000 37.51600
H  11.94200 56.08100 39.21300
H  8.00400 60.44500 37.80600
H  9.01400 60.93000 39.15500
H  7.62400 59.90300 39.44900
H  3.99400 58.83300 38.47500
H  2.12800 57.20500 40.00100
H  4.83800 59.63200 40.50200
H  4.77800 57.99900 41.19700
H  3.36000 59.04400 41.20700
H  2.49900 56.17400 37.25800
H  2.45000 57.78700 37.02500
H  0.37300 57.74000 38.73000
H  -0.00700 56.27000 37.84300
H  0.13900 57.61200 36.94000
H  0.96300 50.58400 40.43300
H  0.49600 52.20400 40.01200
H  1.19900 51.81900 41.66000
H  5.99100 48.86100 40.57500
H  6.95600 45.43100 38.42000
H  6.78600 46.71600 37.12000
H  5.46500 45.82800 37.73500

