158

Mg 53.69000 24.32500 43.75700
C  50.91200 26.64400 43.17000
C  51.54100 21.81900 42.91100
C  56.37700 22.48200 43.28900
C  55.66500 27.07800 44.26400
N  51.58200 24.31300 42.88300
C  50.59900 25.27300 42.90100
C  49.19900 24.75700 42.69000
C  49.37000 23.26700 42.91300
C  50.94100 23.13200 43.05200
C  48.64000 22.82700 44.23100
C  48.62000 25.06900 41.27800
C  49.61200 24.83300 40.07000
H  48.95500 24.33000 38.77000
N  53.95900 22.40100 43.24800
C  52.94900 21.55300 42.90000
C  53.52800 20.23300 42.72500
C  54.97800 20.40100 42.81500
C  55.21200 21.80100 43.10400
C  52.63400 19.04100 42.46200
C  55.96100 19.38900 42.46400
O  55.60000 18.23200 42.19800
C  57.44700 19.63000 42.47700
N  55.70400 24.82400 43.54400
C  56.68100 23.85500 43.59400
C  58.14700 24.34900 43.86000
C  57.91900 25.82600 44.24100
C  56.32500 25.95700 43.94000
C  58.97900 23.48200 44.85300
C  58.70600 26.88300 43.41400
C  60.04600 27.19800 43.95500
N  53.42200 26.46800 43.85300
C  54.29900 27.39100 44.18700
C  53.63700 28.65500 44.44200
C  52.29200 28.40400 44.07600
C  52.22700 27.09200 43.66100
C  54.24600 29.94700 45.07100
C  50.91200 28.95800 44.00300
O  50.48600 30.07200 44.43900
C  50.04300 27.86600 43.33800
C  49.51200 28.40400 42.04900
O  50.13300 28.76600 41.07800
O  48.13100 28.38500 42.14600
C  47.44200 28.60200 40.88300
H  50.84100 20.98600 42.81400
H  57.29800 21.89900 43.34600
H  56.23500 27.90100 44.69900
H  48.66900 25.27000 43.49200
H  48.91500 22.67200 42.12100
H  49.29700 23.10100 45.05600
H  48.57000 21.75500 44.04700
H  47.69800 23.34300 44.42000
H  48.32500 26.11200 41.39300
H  47.62100 24.69900 41.04900
H  50.29200 24.01700 40.31500
H  50.15300 25.77200 39.95000
H  51.87300 19.26100 41.71400
H  52.15900 18.69100 43.37900
H  53.19200 18.19400 42.06400
H  57.88800 18.66400 42.23000
H  57.76000 19.80700 43.50600
H  57.70800 20.38200 41.73300
H  58.69600 24.33700 42.91800
H  58.01800 26.04200 45.30500
H  58.29400 22.83000 45.39500
H  59.65600 24.05100 45.48900
H  59.57000 22.80600 44.23500
H  58.18400 27.83200 43.29500
H  58.68100 26.44400 42.41600
H  60.28400 26.48900 44.74800
H  60.16000 28.25600 44.18900
H  60.74300 26.91400 43.16700
H  53.97900 29.94900 46.12800
H  53.74500 30.75200 44.53200
H  55.31100 30.15500 44.96900
H  49.14900 27.66000 43.92600
H  47.68500 29.61400 40.56000
H  46.36200 28.45500 40.90500
H  47.74600 27.93700 40.07400
Mg -12.12500 16.27100 42.43900
C  -9.29300 14.32500 42.30700
C  -10.50300 18.88900 40.92700
C  -15.04000 17.82500 42.19300
C  -13.91400 13.40000 43.63700
N  -10.17800 16.47400 41.58200
C  -9.12000 15.61900 41.70500
C  -7.94400 16.04400 40.97700
C  -8.26300 17.55700 40.69400
C  -9.79400 17.64400 40.99700
C  -7.41600 18.68200 41.33100
C  -7.79300 15.20400 39.65600
C  -6.44100 14.67100 39.23200
H  -5.93200 15.04000 37.82400
N  -12.71900 18.10800 41.71800
C  -11.93200 19.03900 41.16200
C  -12.70300 20.24800 40.82300
C  -14.03600 19.95600 41.28900
C  -13.99900 18.54400 41.75600
C  -12.09600 21.46500 40.17700
C  -15.23600 20.89900 41.17800
O  -15.04700 21.99100 40.68700
C  -16.55000 20.47900 41.57700
N  -14.25300 15.59300 42.74900
C  -15.24500 16.51300 42.65800
C  -16.53200 15.92400 43.19000
C  -16.21200 14.44800 43.64200
C  -14.77000 14.43800 43.28200
C  -17.18700 16.78700 44.33100
C  -17.05600 13.30300 43.02200
C  -17.37500 12.10600 43.91300
N  -11.70400 14.24800 42.90800
C  -12.50800 13.28200 43.43200
C  -11.73500 12.09100 43.72300
C  -10.43200 12.47500 43.32900
C  -10.53100 13.76800 42.79700
C  -12.29000 10.84700 44.29400
C  -9.06100 11.92800 43.15700
O  -8.49800 10.87200 43.34800
C  -8.33600 13.15800 42.48200
C  -7.14400 13.50700 43.28000
O  -7.17300 13.90100 44.43500
O  -6.04600 13.40900 42.45400
C  -4.74700 13.91600 42.98400
H  -9.99800 19.69400 40.38900
H  -16.02500 18.27400 42.05400
H  -14.44700 12.53900 44.04600
H  -7.01000 16.01200 41.53700
H  -8.26000 17.78600 39.62800
H  -8.07900 19.18700 42.03400
H  -6.96800 19.31900 40.56900
H  -6.53500 18.28000 41.83100
H  -8.11300 15.79700 38.79900
H  -8.48600 14.36600 39.58100
H  -6.40500 13.59000 39.37100
H  -5.63600 15.06500 39.85300
H  -12.80700 21.91800 39.48500
H  -11.11600 21.28800 39.73300
H  -11.89500 22.30600 40.84100
H  -16.44200 20.28300 42.64400
H  -16.93900 19.71900 40.89900
H  -17.28400 21.26400 41.39700
H  -17.27300 15.87800 42.39200
H  -16.20500 14.33000 44.72600
H  -18.16400 17.09500 43.96100
H  -16.51600 17.63900 44.44700
H  -17.40200 16.14400 45.18400
H  -16.66200 13.02000 42.04600
H  -17.96000 13.89200 42.86600
H  -18.43200 12.22200 44.15000
H  -16.82000 12.12200 44.85100
H  -17.16200 11.23700 43.29100
H  -12.25900 11.10700 45.35200
H  -11.73400 9.96100 43.98600
H  -13.32100 10.77200 43.94800
H  -7.98100 12.73000 41.54500
H  -4.77300 14.93300 43.37700
H  -4.05500 13.88700 42.14200
H  -4.36300 13.26900 43.77200

