158

Mg 49.68100 45.82300 41.31500
C  46.38300 45.90300 40.19800
C  49.89600 42.57600 40.32400
C  53.05200 46.04100 41.48000
C  49.47500 49.30200 41.87200
N  48.32800 44.50800 40.06500
C  47.04800 44.71700 39.87100
C  46.33700 43.48000 39.23800
C  47.42200 42.32200 39.62700
C  48.64500 43.15500 40.06900
C  46.98400 41.22800 40.67500
C  46.04600 43.70400 37.72200
C  44.64600 43.34100 37.23000
H  44.20200 43.92000 35.86300
N  51.21800 44.41000 41.26000
C  51.13600 43.08200 40.83500
C  52.40200 42.49900 40.83800
C  53.31700 43.58000 41.06200
C  52.52100 44.76400 41.28200
C  52.50400 40.96000 40.66000
C  54.86800 43.30900 41.11200
O  55.36600 42.23200 40.83100
C  55.82400 44.40700 41.48100
N  51.03800 47.43400 41.79800
C  52.37000 47.26200 41.79000
C  53.10700 48.56600 42.15300
C  51.93400 49.51900 42.57700
C  50.75300 48.73900 42.01700
C  54.29000 48.40500 43.07100
C  51.99500 50.95100 41.95400
C  52.54700 52.10300 42.83600
N  48.20500 47.32500 41.13900
C  48.31300 48.63600 41.41600
C  47.03500 49.24300 41.02000
C  46.19300 48.24000 40.63800
C  47.00400 47.08400 40.63800
C  46.68300 50.72700 41.30500
C  44.94000 47.92600 40.03800
O  44.01900 48.60400 39.72900
C  44.94500 46.35500 39.87400
C  43.99200 45.84600 40.84700
O  44.37800 45.40000 41.94000
O  42.66400 46.03200 40.47200
C  41.66200 45.45100 41.35900
H  49.84400 41.51900 40.05200
H  54.13500 46.17600 41.52500
H  49.34500 50.36600 42.08400
H  45.37400 43.31300 39.72200
H  47.60100 41.74800 38.71800
H  47.71200 40.95100 41.43800
H  46.72200 40.34600 40.09200
H  46.07800 41.49200 41.22000
H  46.71800 43.00700 37.22200
H  46.29100 44.71300 37.39000
H  43.93700 43.64900 37.99900
H  44.56000 42.25500 37.19800
H  53.29200 40.54200 41.28600
H  52.77000 40.72800 39.62900
H  51.63700 40.41600 41.03500
H  56.03200 45.12600 40.68900
H  56.77000 43.86900 41.54100
H  55.43100 44.83100 42.40500
H  53.55700 48.92400 41.22700
H  51.91800 49.45200 43.66500
H  54.17600 49.05600 43.93800
H  55.25000 48.67500 42.63100
H  54.39500 47.37900 43.42200
H  51.04400 51.24400 41.51000
H  52.71100 50.82500 41.14200
H  52.79400 51.62800 43.78500
H  51.86300 52.94400 42.95900
H  53.36400 52.55100 42.27100
H  46.88600 50.83900 42.36900
H  45.67900 50.98800 40.97000
H  47.42000 51.33900 40.78500
H  44.71800 46.06200 38.84900
H  41.00700 44.84000 40.73700
H  41.22100 46.32700 41.83500
H  42.05000 44.83700 42.17200
Mg -5.93800 24.98400 26.10800
C  -4.30300 26.28300 29.06800
C  -7.80600 22.95200 28.19400
C  -6.74400 23.28800 23.43500
C  -3.53200 26.76200 24.25300
N  -5.93400 24.63200 28.38900
C  -5.18000 25.24300 29.35700
C  -5.62800 24.92400 30.71300
C  -6.61100 23.70400 30.43100
C  -6.87200 23.78000 28.86500
C  -5.93700 22.27800 30.73600
C  -6.43500 26.14300 31.23900
C  -6.30100 26.45000 32.74600
H  -5.65300 25.34800 33.64200
N  -7.23500 23.47400 25.85700
C  -7.97400 22.84800 26.79000
C  -8.82000 21.91300 26.09500
C  -8.60100 21.99400 24.74700
C  -7.49300 22.89400 24.59900
C  -9.73300 21.02800 26.88100
C  -9.24200 21.19200 23.55000
O  -8.88800 21.34600 22.42200
C  -10.35400 20.25000 23.81200
N  -5.35600 25.17800 24.06900
C  -5.85500 24.31000 23.16100
C  -5.12600 24.49200 21.73600
C  -4.21000 25.72700 22.01200
C  -4.33000 25.86800 23.53500
C  -4.40300 23.21700 21.31900
C  -4.60700 27.01400 21.23700
C  -5.46300 28.02600 21.89100
N  -4.40800 26.33300 26.52100
C  -3.55200 26.95400 25.63900
C  -2.74900 27.90300 26.40800
C  -3.04500 27.69600 27.69400
C  -4.03800 26.68900 27.74900
C  -1.78500 28.87000 25.90900
C  -2.63500 28.04400 28.99000
O  -1.81700 28.86800 29.45300
C  -3.43400 27.17700 29.95700
C  -2.44500 26.46100 30.85200
O  -1.90100 25.35700 30.69200
O  -2.33100 27.16700 32.02400
C  -1.69900 26.68600 33.29200
H  -8.28400 22.25100 28.88200
H  -6.94400 22.65000 22.57200
H  -2.81200 27.34200 23.67200
H  -4.74300 24.63900 31.28100
H  -7.55500 23.89300 30.94300
H  -5.84900 21.58300 29.90100
H  -6.62800 21.86000 31.46800
H  -5.01600 22.34900 31.31400
H  -7.47700 26.04400 30.93500
H  -6.20100 27.07500 30.72300
H  -7.30100 26.57600 33.16100
H  -5.75100 27.38300 32.86800
H  -9.61200 19.96200 26.68400
H  -10.68700 21.27200 26.41400
H  -9.80400 21.23600 27.94800
H  -11.10200 20.55900 24.54300
H  -9.82200 19.36000 24.14600
H  -10.77800 20.02500 22.83300
H  -5.84700 24.82100 20.98700
H  -3.16900 25.50100 21.78100
H  -4.55300 22.39900 22.02400
H  -3.34100 23.41400 21.17100
H  -4.73900 22.90400 20.33100
H  -4.94600 26.80200 20.22300
H  -3.66800 27.50200 20.97600
H  -4.88900 28.92900 22.10100
H  -6.02800 27.73500 22.77700
H  -6.13500 28.40800 21.12200
H  -2.28500 29.83100 25.78100
H  -1.44000 28.60600 24.90900
H  -0.84600 28.87900 26.46200
H  -4.07200 27.85700 30.52100
H  -2.29700 27.11500 34.09700
H  -0.62900 26.88400 33.34800
H  -1.72400 25.59800 33.36000

