158

Mg 9.35700 3.23900 27.23000
C  10.52800 1.69000 30.16000
C  7.33800 5.17300 29.28500
C  7.57000 4.04400 24.51300
C  10.82000 0.57300 25.46700
N  9.06000 3.43500 29.49700
C  9.62900 2.64500 30.48100
C  9.27700 3.14900 31.85600
C  8.07000 4.09600 31.57300
C  8.21400 4.31000 30.04500
C  6.69400 3.57100 31.92200
C  10.56000 3.81800 32.46900
C  10.37300 4.80100 33.66500
H  10.86500 4.15600 34.97700
N  7.84900 4.55000 26.96200
C  7.20000 5.33500 27.91000
C  6.24700 6.22600 27.28500
C  6.35200 5.96400 25.89800
C  7.29400 4.81000 25.69500
C  5.32400 7.13700 28.02100
C  5.66200 6.67000 24.74400
O  5.96600 6.36300 23.57900
C  4.51500 7.54400 24.97300
N  9.11200 2.42300 25.26900
C  8.32800 2.96100 24.28500
C  8.44700 2.20200 23.02600
C  9.73500 1.31400 23.28700
C  9.98300 1.46900 24.73300
C  7.28800 1.35200 22.50000
C  11.01100 1.67600 22.53200
C  11.67700 0.49500 21.89500
N  10.56700 1.59600 27.69300
C  11.07600 0.57700 26.86000
C  11.98100 -0.28700 27.60500
C  11.79800 0.14000 28.92500
C  10.92600 1.23000 28.88800
C  12.89100 -1.20800 27.06300
C  12.22000 -0.12600 30.25500
O  12.93100 -0.99900 30.71500
C  11.33400 0.82900 31.13900
C  10.44600 -0.03400 32.01300
O  9.37400 -0.55600 31.66500
O  11.06700 -0.14700 33.22700
C  10.28900 -0.72800 34.28700
H  6.66400 5.67200 29.98400
H  6.98300 4.24200 23.61400
H  11.25700 -0.29500 24.96900
H  9.12200 2.29400 32.51300
H  8.06700 5.01000 32.16700
H  6.80700 2.56400 32.32600
H  6.09100 3.44800 31.02200
H  6.19600 4.21800 32.64400
H  11.06400 4.31900 31.64300
H  11.09500 2.92400 32.79000
H  9.34200 5.14200 33.76100
H  10.98100 5.69100 33.50500
H  5.73500 8.14100 27.91300
H  5.33500 6.85500 29.07300
H  4.27800 7.05800 27.72700
H  3.70600 7.14000 25.58100
H  4.07700 7.55400 23.97500
H  4.85600 8.56500 25.14100
H  8.58900 2.90900 22.20800
H  9.44800 0.26400 23.24200
H  6.78900 0.95500 23.38400
H  7.83600 0.57300 21.97000
H  6.68900 1.98800 21.84800
H  11.75100 2.09300 23.21500
H  10.83400 2.32700 21.67600
H  11.93800 0.72700 20.86300
H  10.95700 -0.32100 21.84700
H  12.50600 0.11900 22.49500
H  12.28100 -1.96200 26.56600
H  13.61700 -1.59200 27.77900
H  13.34500 -0.54400 26.32700
H  12.09400 1.36000 31.71200
H  9.29400 -0.31100 34.44300
H  10.76800 -0.37600 35.20100
H  10.21600 -1.81500 34.31500
Mg 30.39400 59.15800 40.57600
C  27.46100 57.57700 39.61700
C  32.10900 56.38300 39.51700
C  33.35300 60.92400 40.47800
C  28.58900 62.07500 41.06000
N  29.82000 57.23600 39.63200
C  28.57400 56.79200 39.32100
C  28.66200 55.43900 38.57200
C  30.05500 54.91700 38.89800
C  30.73500 56.23500 39.45500
C  29.95900 53.79700 39.95100
C  28.45100 55.69300 37.04900
C  27.40100 54.81700 36.39100
H  26.91100 55.16100 34.99700
N  32.43700 58.71200 40.14800
C  32.88300 57.47500 39.80100
C  34.33300 57.49400 39.54800
C  34.70600 58.84000 39.79200
C  33.46300 59.56000 40.11000
C  35.13500 56.28000 39.14600
C  36.12200 59.33800 39.66000
O  37.02600 58.53100 39.49700
C  36.46500 60.82300 39.86700
N  30.85400 61.17000 40.79000
C  32.12600 61.61000 40.72400
C  32.18800 63.09300 41.06700
C  30.71300 63.55100 41.63500
C  29.98700 62.24500 41.13000
C  33.36000 63.68200 41.97300
C  30.34300 64.98600 41.12500
C  29.98600 66.04800 42.25900
N  28.46200 59.70800 40.51100
C  27.80100 60.93900 40.72300
C  26.35800 60.86100 40.56400
C  26.16700 59.53800 40.07800
C  27.49900 58.91300 40.05300
C  25.34800 62.03300 40.60700
C  25.20500 58.49900 39.65200
O  24.00400 58.52400 39.43100
C  26.00900 57.19100 39.29000
C  25.46400 56.13300 40.15600
O  25.77100 55.82400 41.32500
O  24.47500 55.44400 39.49600
C  23.49900 54.57700 40.24900
H  32.50700 55.41800 39.19700
H  34.15400 61.65300 40.34100
H  27.98700 62.95000 41.31400
H  27.85000 54.80300 38.92400
H  30.48400 54.65400 37.93200
H  30.39300 54.12600 40.89600
H  30.45000 52.89100 39.59800
H  28.91800 53.59300 40.20000
H  29.42000 55.70800 36.55100
H  28.17800 56.73300 36.86600
H  26.53000 54.61800 37.01600
H  27.77000 53.79300 36.34700
H  34.59500 55.38700 39.45800
H  36.01900 56.22500 39.78100
H  35.26000 56.40100 38.07000
H  35.82700 61.46400 39.25900
H  37.49200 60.87500 39.50500
H  36.49200 61.18200 40.89600
H  32.43900 63.59400 40.13300
H  30.76800 63.51800 42.72400
H  32.86600 64.21400 42.78700
H  33.94500 64.40000 41.39900
H  34.10200 62.93500 42.25200
H  29.51000 64.90300 40.42600
H  31.21100 65.39700 40.61000
H  28.92800 66.30000 42.19100
H  30.58300 66.95600 42.16900
H  30.23100 65.67000 43.25100
H  24.31200 61.70200 40.68700
H  25.48300 62.71600 39.76900
H  25.57900 62.56900 41.52800
H  25.97000 56.86700 38.25000
H  22.56900 55.03400 40.58600
H  23.92700 54.13700 41.14900
H  23.27300 53.68200 39.66900

