158

Mg 49.50700 44.60400 43.60900
C  46.22700 45.24400 42.38600
C  49.05500 41.25700 42.64300
C  52.73800 44.11400 43.88600
C  49.86900 48.20600 43.93700
N  47.82200 43.43600 42.67200
C  46.63100 43.92300 42.25800
C  45.76700 42.82000 41.53200
C  46.53800 41.53100 42.01000
C  47.91700 42.09000 42.38600
C  46.01700 40.78400 43.22400
C  45.71400 42.97200 39.97700
C  44.85000 41.90100 39.31200
H  45.50000 41.17900 38.13100
N  50.77100 42.91000 43.31800
C  50.39400 41.65200 42.97700
C  51.53000 40.75200 43.08100
C  52.56300 41.53900 43.52500
C  52.03000 42.91200 43.68900
C  51.40000 39.26100 42.85600
C  54.01900 41.02900 43.77600
O  54.27500 39.82900 43.76600
C  55.14800 41.96100 44.18700
N  51.02500 45.96100 43.73000
C  52.30800 45.48400 43.97800
C  53.34000 46.68200 44.14100
C  52.37300 47.93000 44.17500
C  50.97400 47.35400 43.97900
C  54.14500 46.40100 45.43100
C  52.64300 48.99000 43.04600
C  52.53000 50.47000 43.48800
N  48.30100 46.39200 43.50300
C  48.53700 47.67900 43.71600
C  47.29800 48.43300 43.57100
C  46.37300 47.53700 43.01600
C  47.04400 46.27900 43.01200
C  47.18700 49.92100 43.79400
C  45.02900 47.41700 42.45100
O  44.13100 48.28600 42.36000
C  44.94700 45.99000 41.88500
C  43.66700 45.32400 42.07300
O  42.92900 45.05300 41.14000
O  43.35500 45.12600 43.39200
C  41.94700 44.65100 43.62200
H  48.86300 40.18500 42.55800
H  53.78900 43.95900 44.13900
H  50.09100 49.27100 44.02800
H  44.79700 42.84100 42.02800
H  46.54000 40.79900 41.20300
H  45.72000 39.78400 42.90900
H  45.10400 41.22600 43.62300
H  46.84800 40.59300 43.90300
H  46.71700 42.80300 39.58300
H  45.31900 43.91900 39.61000
H  43.90900 42.38200 39.04400
H  44.56600 41.12800 40.02500
H  52.39100 38.84800 42.67000
H  50.71800 39.00500 42.04500
H  50.91600 38.87700 43.75300
H  56.04000 41.40000 44.47000
H  54.90800 42.37700 45.16500
H  55.38000 42.78000 43.50700
H  53.84000 46.65200 43.17300
H  52.36200 48.34700 45.18200
H  53.52900 45.78200 46.08300
H  54.32600 47.26700 46.06700
H  55.08400 45.96200 45.09400
H  52.01600 48.91800 42.15700
H  53.65900 48.77100 42.71800
H  52.18000 50.61900 44.51000
H  51.75000 50.87300 42.84100
H  53.45200 51.04900 43.44200
H  47.16200 50.38300 42.80700
H  47.96100 50.37500 44.41200
H  46.25400 50.16100 44.30300
H  44.99500 46.08400 40.80000
H  41.18500 45.42700 43.55200
H  41.88700 44.25400 44.63500
H  41.72400 43.87200 42.89300
Mg -11.69900 39.05800 41.79800
C  -9.92000 36.25900 40.64500
C  -9.32700 41.06100 40.50000
C  -13.77200 41.67000 42.45400
C  -14.26300 36.78200 42.71600
N  -10.01300 38.66000 40.47100
C  -9.41100 37.48200 40.18400
C  -8.11700 37.71900 39.36800
C  -7.82800 39.21400 39.59300
C  -9.12600 39.66600 40.26500
C  -6.50100 39.61300 40.21200
C  -8.20800 37.06700 37.96200
C  -6.96700 36.13600 37.65600
H  -6.08000 36.55600 36.58000
N  -11.49100 41.10100 41.59500
C  -10.43300 41.71100 41.05200
C  -10.61900 43.14700 41.27500
C  -11.87000 43.39000 41.87000
C  -12.49900 41.99900 41.97900
C  -9.56600 44.09400 40.81500
C  -12.35000 44.71100 42.30500
O  -11.67500 45.71000 41.97500
C  -13.58600 45.02000 42.99900
N  -13.79900 39.16900 42.20100
C  -14.38300 40.39200 42.50200
C  -15.79500 40.16000 43.01000
C  -16.03400 38.62200 42.74000
C  -14.60200 38.11700 42.52000
C  -16.18400 40.64600 44.46900
C  -17.00100 38.23200 41.62000
C  -18.10100 37.32500 42.09600
N  -12.16900 36.87400 41.65900
C  -13.09100 36.16200 42.32300
C  -12.73200 34.76400 42.34300
C  -11.54000 34.70200 41.64300
C  -11.15600 36.03000 41.28700
C  -13.48700 33.62500 43.04500
C  -10.45900 33.82100 41.14000
O  -10.34500 32.63200 41.12700
C  -9.43400 34.82100 40.36000
C  -8.13600 34.56200 40.99600
O  -7.80200 34.99900 42.11700
O  -7.34700 33.78700 40.10400
C  -6.07000 33.38100 40.60800
H  -8.42400 41.62400 40.25400
H  -14.36300 42.55100 42.71500
H  -14.84000 36.03000 43.25800
H  -7.42600 37.08300 39.92200
H  -7.82400 39.83400 38.69600
H  -6.61200 40.21000 41.11700
H  -5.96500 40.27600 39.53300
H  -5.89000 38.75500 40.49400
H  -8.24300 37.77600 37.13500
H  -9.13700 36.50500 38.06100
H  -7.41300 35.14500 37.57100
H  -6.39400 35.99400 38.57200
H  -8.59100 43.72400 41.13200
H  -9.73100 45.14800 41.03900
H  -9.65500 44.17500 39.73100
H  -14.45300 44.53900 42.54700
H  -13.92500 46.05600 43.00300
H  -13.54300 44.62800 44.01600
H  -16.48100 40.64700 42.31700
H  -16.45300 38.31600 43.69900
H  -15.33700 41.13400 44.95100
H  -16.56400 39.77100 44.99700
H  -17.00400 41.36300 44.42300
H  -16.43500 37.66600 40.88000
H  -17.51000 39.13500 41.28300
H  -19.03900 37.76600 42.43500
H  -17.74500 36.70400 42.91800
H  -18.34500 36.80100 41.17200
H  -13.01300 32.64600 42.96700
H  -14.51900 33.56100 42.69900
H  -13.48900 33.85300 44.11100
H  -9.51000 34.48000 39.32700
H  -5.75600 34.03700 41.41900
H  -5.28800 33.35500 39.84900
H  -6.22700 32.37500 40.99600

