158

Mg 46.44100 17.65300 28.31300
C  44.96300 16.92500 31.49300
C  48.90400 19.36800 29.89100
C  47.69400 18.20700 25.38900
C  43.81900 15.78000 26.83600
N  46.79200 18.09500 30.36300
C  46.08500 17.69600 31.45600
C  46.82800 18.04400 32.76400
C  47.83300 19.12100 32.25800
C  47.86900 18.85400 30.68100
C  47.36000 20.53600 32.47300
C  47.42100 16.82400 33.46700
C  47.56100 16.86400 35.01800
H  47.26200 18.14700 35.79400
N  48.11200 18.64300 27.71700
C  49.08400 19.26500 28.51700
C  50.17100 19.73500 27.65700
C  49.79000 19.48100 26.33300
C  48.49300 18.71700 26.44400
C  51.40600 20.30700 28.19300
C  50.50200 19.88700 24.99200
O  49.99100 19.73700 23.92200
C  51.86600 20.63000 25.04200
N  45.89800 16.92500 26.44700
C  46.52000 17.50600 25.37300
C  45.80200 17.24300 24.03500
C  44.44300 16.49800 24.46200
C  44.72200 16.35800 25.99500
C  45.70900 18.54200 23.24100
C  44.14500 15.09700 23.83500
C  44.20700 15.10900 22.26600
N  44.71300 16.59600 29.00000
C  43.75000 15.90200 28.21700
C  42.73200 15.34300 29.11800
C  43.21100 15.77100 30.44300
C  44.39500 16.49500 30.28800
C  41.65100 14.33900 28.72000
C  42.92600 15.64800 31.87000
O  42.02700 15.05000 32.48800
C  44.06600 16.40800 32.60400
C  43.48300 17.47000 33.38900
O  43.13200 18.52900 32.86000
O  43.45300 17.15700 34.66000
C  42.95700 18.14900 35.60100
H  49.52400 20.08500 30.43200
H  48.06500 18.44100 24.38900
H  43.01600 15.33300 26.24600
H  46.14500 18.59700 33.40900
H  48.82000 19.02200 32.71100
H  48.19500 21.19700 32.24300
H  47.04600 20.52700 33.51700
H  46.51500 20.73000 31.81200
H  48.41400 16.58800 33.08500
H  46.75800 15.99400 33.22300
H  48.59000 16.55200 35.19900
H  46.97500 16.02300 35.39000
H  51.27500 20.71800 29.19400
H  51.80000 21.09400 27.55000
H  52.19800 19.57300 28.34100
H  51.78900 21.62900 25.47100
H  52.16400 20.66700 23.99400
H  52.63700 20.06800 25.56900
H  46.48200 16.56100 23.52500
H  43.62600 17.21900 24.42900
H  45.88400 19.33600 23.96700
H  44.71600 18.72200 22.83000
H  46.37300 18.53200 22.37600
H  43.11400 14.87000 24.10900
H  44.86500 14.35700 24.18400
H  44.54800 16.12100 22.05000
H  43.29600 14.78500 21.76300
H  45.06100 14.55800 21.87300
H  40.72300 14.87900 28.53200
H  41.59900 13.71400 29.61200
H  41.94300 13.71300 27.87700
H  44.67300 15.70900 33.17900
H  42.07200 17.68900 36.04100
H  42.75700 19.16200 35.25100
H  43.67900 18.39400 36.38000
Mg 36.22800 49.44100 24.58600
C  36.62400 47.62600 27.53500
C  34.95600 52.06800 26.46300
C  35.44500 50.99600 21.68200
C  37.50500 46.84100 22.81900
N  35.67000 49.74600 26.80700
C  36.10700 48.88900 27.76400
C  35.82800 49.54300 29.15100
C  35.25700 50.91100 28.80500
C  35.33800 50.94100 27.27400
C  33.88800 51.29600 29.39000
C  37.14600 49.47900 30.04400
C  36.86700 49.45500 31.54400
H  35.43300 49.41700 32.12200
N  35.32200 51.24400 24.10400
C  34.92700 52.13100 25.03400
C  34.56800 53.35300 24.36300
C  34.55800 53.04500 22.96600
C  35.13000 51.71200 22.83000
C  34.38500 54.65200 25.06000
C  34.25300 53.99400 21.76900
O  34.33600 53.63200 20.60200
C  33.63200 55.33000 22.05600
N  36.30400 48.88100 22.48500
C  36.05900 49.77300 21.48900
C  36.43400 49.23600 20.15500
C  36.97700 47.73400 20.52700
C  36.93500 47.77900 22.01400
C  35.26000 49.15800 19.15200
C  38.37800 47.47200 19.86800
C  39.62600 48.26400 20.43800
N  36.95200 47.60600 24.99300
C  37.48300 46.69400 24.19500
C  38.01700 45.58300 25.01600
C  37.56100 45.89400 26.32100
C  37.01500 47.16800 26.27700
C  38.69700 44.34200 24.51900
C  37.59300 45.41400 27.61200
O  38.01500 44.37800 28.08000
C  36.84100 46.49100 28.44700
C  35.58800 45.97200 29.01400
O  34.63500 45.51600 28.33100
O  35.66200 46.02700 30.37700
C  34.53000 45.34400 31.04300
H  34.59300 52.93100 27.02500
H  35.18400 51.55000 20.77800
H  38.06600 45.99300 22.42100
H  35.02200 48.93200 29.55700
H  35.95400 51.69000 29.11700
H  33.30800 51.91800 28.70700
H  34.02700 51.79600 30.34800
H  33.40200 50.36500 29.68300
H  37.51200 50.47800 29.80800
H  37.83900 48.69600 29.73400
H  37.29900 50.41100 31.83900
H  37.41100 48.63600 32.01500
H  33.33000 54.78700 25.29800
H  34.82700 55.48800 24.51800
H  35.02200 54.59200 25.94300
H  34.48300 55.93600 22.36900
H  32.89400 55.05700 22.81100
H  33.06000 55.57300 21.16100
H  37.31600 49.76600 19.79400
H  36.28700 46.95600 20.19900
H  35.28500 50.14400 18.68700
H  34.34200 49.04500 19.72900
H  35.42100 48.26100 18.55300
H  38.38800 47.72200 18.80700
H  38.67600 46.42700 19.94800
H  39.41100 49.14900 21.03700
H  40.16100 48.69100 19.59000
H  40.28700 47.62300 21.02100
H  37.96000 43.69600 24.04300
H  39.28200 44.01800 25.38100
H  39.30400 44.47100 23.62300
H  37.50100 46.63200 29.30300
H  34.33200 44.38600 30.56300
H  33.64300 45.96000 30.89000
H  34.84900 45.16800 32.07000

