158

Mg 43.64700 42.07300 26.39000
C  42.47600 44.24900 28.84100
C  44.41000 39.77200 28.73500
C  44.69500 39.97800 23.85000
C  43.35000 44.66100 24.02800
N  43.30000 42.01800 28.53400
C  42.80600 43.04100 29.32600
C  42.82500 42.53600 30.76900
C  43.61100 41.19200 30.75100
C  43.86000 41.00000 29.28500
C  44.95700 41.03600 31.62200
C  41.35000 42.43800 31.39200
C  41.26600 41.96500 32.86800
H  40.42900 42.80500 33.93500
N  44.46300 40.11800 26.33300
C  44.58400 39.32300 27.38600
C  45.38100 38.20000 26.99400
C  45.48800 38.22300 25.54100
C  44.77400 39.43400 25.13400
C  46.01500 37.26000 28.04700
C  46.13400 37.25300 24.57200
O  46.09300 37.30600 23.33800
C  46.77200 36.03700 25.07200
N  44.11900 42.29500 24.23600
C  44.38300 41.26800 23.44000
C  44.41000 41.70300 21.96400
C  43.73600 43.06700 22.00400
C  43.75800 43.40700 23.49600
C  45.83500 41.63300 21.34000
C  42.23200 43.05600 21.47600
C  41.01400 42.78900 22.46100
N  43.02900 44.07300 26.37600
C  43.02100 44.99800 25.35700
C  42.37100 46.20400 25.86200
C  42.09100 45.96700 27.23900
C  42.69400 44.70700 27.47200
C  42.10100 47.50400 25.10400
C  41.49900 46.53100 28.45900
O  40.88800 47.55200 28.64900
C  41.79900 45.41500 29.53800
C  42.62900 46.11800 30.60100
O  43.45100 47.01000 30.43600
O  42.25000 45.63300 31.78300
C  42.83300 46.31000 32.94800
H  44.55000 39.03600 29.52900
H  44.92900 39.31600 23.01300
H  43.22000 45.50900 23.35300
H  43.48900 43.29300 31.18800
H  43.05500 40.36300 31.19000
H  44.93600 40.22300 32.34800
H  45.07400 41.97700 32.15900
H  45.79800 40.83000 30.96000
H  40.79300 41.68500 30.83400
H  40.84000 43.40000 31.35900
H  42.24700 41.78100 33.30500
H  40.76600 41.01800 33.07100
H  46.72100 37.82700 28.65400
H  46.48600 36.39700 27.57600
H  45.28300 36.89300 28.76600
H  47.52800 36.32800 25.80200
H  47.27900 35.56600 24.23000
H  46.00500 35.37400 25.47100
H  43.76900 40.97700 21.46200
H  44.38300 43.81100 21.53800
H  46.47000 42.50800 21.48200
H  45.71500 41.35800 20.29200
H  46.41900 40.87300 21.86000
H  42.18900 42.26700 20.72600
H  41.99400 44.03000 21.04900
H  41.39400 42.59800 23.46400
H  40.51800 41.86900 22.15100
H  40.31900 43.62700 22.50900
H  41.16800 47.39500 24.55200
H  42.91000 47.67100 24.39300
H  42.07000 48.32400 25.82200
H  40.84600 45.11500 29.97400
H  43.83100 46.70400 32.75400
H  42.96400 45.68700 33.83300
H  42.28700 47.17900 33.31500
Mg 5.49900 53.65200 41.95500
C  4.79100 50.24900 41.07900
C  8.55100 53.28600 40.62800
C  5.77800 56.92600 42.10700
C  2.12100 53.93100 42.82600
N  6.53100 51.94900 40.87800
C  6.11400 50.65700 40.69800
C  7.23700 49.84700 40.08100
C  8.49100 50.84600 40.15000
C  7.80200 52.14900 40.49700
C  9.53900 50.38800 41.26700
C  6.91300 49.36400 38.69500
C  6.40400 50.45400 37.74300
H  7.35700 50.75200 36.57100
N  6.96300 54.91900 41.51200
C  8.22800 54.58200 41.05900
C  9.11600 55.75300 41.14700
C  8.30600 56.78800 41.68900
C  6.94300 56.20900 41.80300
C  10.59900 55.70300 40.90300
C  8.82200 58.20100 42.10900
O  10.01700 58.53700 42.00900
C  7.87000 59.19300 42.76200
N  4.03700 55.22200 42.39700
C  4.45600 56.51100 42.36300
C  3.27900 57.46100 42.38000
C  2.02300 56.55200 42.61400
C  2.75700 55.14100 42.65800
C  3.33000 58.80000 43.26500
C  1.03600 56.68700 41.54000
C  -0.43100 56.82000 42.06100
N  3.84000 52.32000 42.24100
C  2.55500 52.61400 42.63100
C  1.79600 51.38800 42.59000
C  2.65100 50.43600 42.10200
C  3.87400 51.05200 41.76200
C  0.39700 51.06500 43.07200
C  2.74700 49.02000 41.72300
O  1.95500 48.16600 41.74100
C  4.20900 48.84500 41.19100
C  4.04300 48.05500 39.94100
O  3.48800 48.54000 38.96000
O  4.78500 46.92900 39.96100
C  4.84100 46.17400 38.69900
H  9.60400 53.03900 40.47900
H  5.89500 58.01200 42.09200
H  1.08200 54.07100 43.13100
H  7.35300 49.00300 40.76000
H  8.90500 51.12000 39.18000
H  9.82700 51.19300 41.94300
H  10.42000 49.95600 40.79400
H  9.29100 49.56900 41.94300
H  6.36500 48.42200 38.72000
H  7.84700 49.07100 38.21500
H  6.23200 51.40400 38.24800
H  5.45900 50.14300 37.29800
H  10.76200 56.09700 39.90000
H  11.00800 54.69500 40.97400
H  11.20300 56.22000 41.65000
H  8.36500 60.03200 43.25100
H  7.44400 58.56500 43.54400
H  7.16700 59.57900 42.02300
H  3.31200 57.81100 41.34800
H  1.80300 56.65100 43.67800
H  4.14000 58.55500 43.95200
H  2.37700 59.03700 43.73800
H  3.60700 59.70200 42.71900
H  1.12800 55.81100 40.89900
H  1.18200 57.55000 40.89100
H  -0.95700 57.75600 41.87300
H  -0.41400 56.58900 43.12600
H  -1.14300 56.12100 41.62300
H  -0.12100 50.61800 42.22400
H  -0.07400 52.02700 43.27700
H  0.38300 50.34700 43.89200
H  4.65900 48.11500 41.86400
H  4.81000 46.77000 37.78700
H  4.04800 45.42900 38.76900
H  5.73600 45.55400 38.65100

