158

Mg 48.83900 35.37000 28.37200
C  46.70700 33.93500 30.75500
C  49.12300 38.11600 30.54900
C  50.56000 37.03100 26.06200
C  47.92800 32.92600 26.17400
N  48.01800 35.95800 30.38200
C  47.36500 35.04800 31.22100
C  47.30000 35.61000 32.66100
C  47.47500 37.10300 32.35200
C  48.25600 37.09600 31.05300
C  46.05000 37.79300 32.30500
C  48.41100 34.80500 33.39600
C  49.32600 35.52900 34.45900
H  48.69900 36.19200 35.68500
N  49.88500 37.34900 28.35800
C  49.81700 38.31600 29.36900
C  50.69100 39.34600 28.90200
C  51.12200 39.07800 27.53400
C  50.49800 37.79300 27.24100
C  51.12200 40.51800 29.92500
C  51.96300 39.84400 26.68300
O  52.08400 39.56600 25.49800
C  52.54300 41.19100 27.11200
N  49.04600 35.07900 26.37400
C  50.00600 35.81300 25.67200
C  50.54100 34.99500 24.40400
C  49.64200 33.79900 24.41000
C  48.86100 33.85200 25.73900
C  50.49500 35.77500 23.07300
C  50.34700 32.47400 24.28700
C  50.71300 32.15300 22.84400
N  47.60300 33.63000 28.43600
C  47.27800 32.67800 27.41700
C  46.45000 31.69900 27.97600
C  46.14800 32.14100 29.29400
C  46.85800 33.32600 29.54700
C  45.95800 30.49700 27.35900
C  45.37600 31.82800 30.50800
O  44.68200 30.83300 30.79300
C  45.57400 33.13900 31.39300
C  45.69000 32.73300 32.79500
O  46.43800 31.95000 33.30600
O  44.74000 33.38800 33.55100
C  44.77000 33.07200 34.96700
H  49.33600 38.87100 31.30900
H  51.20300 37.44800 25.28400
H  47.70300 32.19300 25.39700
H  46.29900 35.32200 32.98100
H  48.03200 37.61300 33.13800
H  45.24000 37.08200 32.46100
H  45.79400 38.42800 31.45700
H  46.02600 38.49500 33.13900
H  49.17200 34.30300 32.79900
H  47.91500 34.07200 34.03300
H  49.84400 36.32600 33.92500
H  50.13800 34.87600 34.77700
H  52.20100 40.59400 30.05800
H  50.92000 40.25100 30.96200
H  50.64600 41.49200 29.81200
H  51.75200 41.92400 27.27400
H  53.21700 41.44400 26.29300
H  53.29900 40.96300 27.86300
H  51.56700 34.72800 24.65600
H  48.89700 33.86600 23.61700
H  51.51600 36.00800 22.77000
H  50.03000 36.72400 23.34100
H  49.86500 35.29200 22.32600
H  49.71500 31.71400 24.74600
H  51.26300 32.25400 24.83500
H  50.36400 32.85200 22.08400
H  50.54900 31.09900 22.62000
H  51.80200 32.19000 22.81500
H  46.70000 29.70800 27.47700
H  45.62400 30.82900 26.37600
H  45.06700 30.23500 27.92900
H  44.65000 33.71500 31.37100
H  44.72200 32.01600 35.23600
H  44.10800 33.69200 35.57000
H  45.75000 33.39500 35.32000
Mg 9.48000 47.40000 26.77300
C  7.64700 47.32300 29.81900
C  12.20700 48.68900 28.55500
C  10.99400 47.44800 23.92900
C  6.45200 46.42700 25.13800
N  9.90400 47.83100 28.84900
C  8.99500 47.69300 29.92000
C  9.63600 48.10700 31.24400
C  10.77900 48.99400 30.70100
C  11.01600 48.49300 29.30500
C  10.43800 50.49900 30.68900
C  10.04100 46.92700 32.10100
C  9.56500 47.07100 33.60700
H  9.32300 45.83000 34.49000
N  11.39000 47.99500 26.32600
C  12.37400 48.44100 27.12600
C  13.53500 48.50100 26.27300
C  13.24800 48.09700 24.95700
C  11.81000 47.89200 25.01600
C  14.85200 49.08500 26.85500
C  14.19900 47.92800 23.65200
O  13.86600 47.57500 22.50900
C  15.64000 48.21500 23.78000
N  8.75500 46.92800 24.77800
C  9.63600 47.02100 23.78500
C  9.01700 46.62100 22.40100
C  7.57600 46.09600 22.90200
C  7.55100 46.56700 24.31500
C  9.12400 47.83400 21.43600
C  7.33700 44.59200 22.78500
C  8.24900 43.52000 23.40900
N  7.37700 47.09900 27.30400
C  6.26900 46.70900 26.52100
C  5.07300 46.74900 27.29500
C  5.58300 46.94900 28.65900
C  6.99700 47.12600 28.54300
C  3.69200 46.45500 26.76700
C  5.22900 46.99200 30.00900
O  4.12300 46.92800 30.62100
C  6.61500 47.11100 30.83600
C  6.61800 45.77200 31.59800
O  7.06600 44.69000 31.15100
O  5.97900 45.97600 32.73900
C  5.61200 44.75100 33.46100
H  13.09400 48.93000 29.14500
H  11.50500 47.43700 22.96400
H  5.51900 46.18000 24.62800
H  8.99100 48.80500 31.77900
H  11.71800 48.82800 31.22900
H  11.15400 51.19500 31.12500
H  9.52300 50.66900 31.25700
H  10.23800 50.83400 29.67100
H  11.12500 46.81400 32.06200
H  9.67300 46.01400 31.63500
H  8.68500 47.70500 33.71100
H  10.47600 47.48100 34.04300
H  14.83400 49.35200 27.91200
H  15.14300 49.94800 26.25700
H  15.64300 48.33900 26.78100
H  15.94900 47.88500 24.77300
H  15.81600 49.29000 23.76300
H  16.15900 47.60800 23.03800
H  9.53700 45.83900 21.84800
H  6.78000 46.61400 22.36800
H  9.39500 48.72600 22.00100
H  8.19500 48.04100 20.90500
H  9.90700 47.66100 20.69800
H  7.27900 44.36100 21.72200
H  6.32900 44.26900 23.04400
H  8.69100 44.00500 24.27900
H  8.91100 43.15700 22.62300
H  7.72400 42.65500 23.81400
H  3.27700 47.17400 26.06100
H  2.98600 46.22200 27.56400
H  3.68400 45.52100 26.20500
H  6.56600 47.96600 31.50900
H  5.59600 44.95400 34.53200
H  6.33300 43.95900 33.25500
H  4.62000 44.43000 33.14400

