158

Mg 2.22100 -0.77200 44.32100
C  5.41900 0.31300 43.54100
C  0.88900 1.90400 42.65300
C  -0.74600 -2.45400 44.05400
C  3.64700 -3.84400 45.43500
N  3.09400 0.96600 43.32400
C  4.38700 1.14300 42.99500
C  4.61900 2.42500 42.21900
C  3.19800 3.00600 42.09400
C  2.31800 1.90000 42.67100
C  3.05600 4.46800 42.63600
C  5.41700 2.32200 40.83900
C  5.88000 3.66700 40.30100
H  5.45800 4.04400 38.87800
N  0.26700 -0.25700 43.63400
C  -0.02300 0.94800 43.09300
C  -1.46800 0.95200 42.84100
C  -1.96900 -0.38400 43.14900
C  -0.79400 -1.13400 43.56500
C  -2.11200 2.00700 42.05400
C  -3.47900 -0.90100 43.02100
O  -4.37500 -0.05500 42.90800
C  -4.02200 -2.33600 43.20000
N  1.65600 -2.93300 44.52700
C  0.30500 -3.20100 44.57400
C  0.07100 -4.73500 45.04000
C  1.49000 -5.10300 45.57400
C  2.32800 -3.90900 45.15800
C  -1.08100 -4.91400 46.05400
C  1.94200 -6.51000 45.16000
C  1.23800 -7.70300 45.76500
N  4.14100 -1.58600 44.67200
C  4.57900 -2.75800 45.13200
C  6.00300 -2.77000 45.29900
C  6.41600 -1.55900 44.72100
C  5.27400 -0.87800 44.28300
C  6.80000 -3.91400 45.95200
C  7.52900 -0.75900 44.38400
O  8.73000 -0.94100 44.62700
C  6.93100 0.54400 43.65500
C  7.21700 1.73800 44.60800
O  7.02400 1.81400 45.79300
O  7.75500 2.77900 43.86800
C  8.28400 3.92700 44.64600
H  0.50700 2.80600 42.16900
H  -1.67500 -3.01800 43.94500
H  4.17300 -4.65500 45.94300
H  5.27900 3.11200 42.74800
H  3.10100 3.13000 41.01500
H  3.10400 5.22000 41.84900
H  3.76100 4.81500 43.39100
H  2.04600 4.65400 43.00100
H  4.77300 1.81800 40.11800
H  6.33800 1.74400 40.92400
H  6.96900 3.68700 40.25100
H  5.53300 4.53800 40.85700
H  -2.16700 1.69400 41.01100
H  -1.60800 2.96000 42.21000
H  -3.14300 2.07200 42.40100
H  -5.08700 -2.37600 42.97200
H  -3.88000 -2.73100 44.20600
H  -3.50600 -2.93500 42.44900
H  -0.12300 -5.22400 44.08500
H  1.55800 -5.03200 46.66000
H  -1.88200 -5.43500 45.53000
H  -1.54400 -3.95800 46.29700
H  -0.82100 -5.40200 46.99400
H  3.01700 -6.63600 45.29100
H  1.77700 -6.62100 44.08800
H  1.85500 -8.49600 46.18800
H  0.82200 -8.18100 44.87800
H  0.53300 -7.44200 46.55400
H  6.46400 -4.15200 46.96100
H  7.82600 -3.54700 45.90300
H  6.79400 -4.79700 45.31300
H  7.54600 0.77000 42.78400
H  9.11000 4.40500 44.12100
H  8.73800 3.60200 45.58200
H  7.44600 4.55700 44.94300
Mg -10.93700 16.75700 40.22900
C  -7.57700 16.26000 40.40000
C  -10.44900 20.13200 40.29700
C  -14.29400 17.18400 39.48700
C  -11.37400 13.29500 39.88800
N  -9.15300 17.99300 40.23500
C  -7.86100 17.64900 40.35500
C  -6.99300 18.81400 40.19600
C  -7.91300 19.95100 40.75900
C  -9.29600 19.37300 40.43600
C  -7.72100 20.29200 42.25800
C  -6.47700 19.10400 38.83300
C  -5.04400 18.69900 38.50700
H  -4.83000 18.01300 37.17400
N  -12.17900 18.43500 39.99400
C  -11.79000 19.76200 40.01900
C  -12.83000 20.61600 39.56100
C  -13.97800 19.79200 39.37300
C  -13.53500 18.38700 39.64500
C  -12.58800 22.04900 39.11400
C  -15.36600 20.23800 38.84700
O  -15.51800 21.40600 38.59300
C  -16.59600 19.35900 38.79600
N  -12.53800 15.44100 39.56600
C  -13.86500 15.85700 39.53300
C  -14.85900 14.66200 39.48500
C  -13.85900 13.45100 39.72900
C  -12.50100 14.10100 39.74000
C  -16.08000 14.75500 40.38600
C  -13.97100 12.41600 38.57500
C  -14.07700 10.88400 38.95000
N  -9.72100 15.06600 40.11900
C  -10.03800 13.72800 39.98500
C  -8.83300 12.96000 39.97600
C  -7.83500 13.90200 40.15800
C  -8.40900 15.20000 40.23300
C  -8.63600 11.54400 39.97300
C  -6.41300 14.10100 40.25800
O  -5.55000 13.29300 40.37700
C  -6.20400 15.62500 40.44500
C  -5.51300 15.71800 41.76800
O  -5.73100 15.02900 42.74100
O  -4.67700 16.75700 41.76000
C  -4.05300 16.99400 43.04900
H  -10.20500 21.19300 40.37500
H  -15.37600 17.21700 39.34600
H  -11.51700 12.21300 39.92300
H  -6.14200 18.68900 40.86600
H  -7.86500 20.90700 40.23800
H  -8.66100 20.31600 42.81000
H  -7.26000 21.27900 42.24800
H  -7.05400 19.62800 42.80800
H  -6.60600 20.16700 38.62500
H  -7.17000 18.62000 38.14500
H  -4.52200 18.12100 39.27100
H  -4.47300 19.62800 38.51700
H  -13.08200 22.74400 39.79400
H  -13.03700 22.10100 38.12200
H  -11.51600 22.23600 39.06100
H  -17.55600 19.86900 38.87200
H  -16.62800 18.67400 39.64400
H  -16.61800 18.92300 37.79800
H  -15.24000 14.64000 38.46400
H  -13.98600 12.86800 40.64000
H  -16.06700 13.84000 40.97700
H  -16.97500 14.69900 39.76600
H  -16.09400 15.67000 40.97900
H  -13.30600 12.58600 37.72800
H  -14.83500 12.79500 38.02900
H  -13.50400 10.19700 38.32700
H  -15.14000 10.65900 38.86300
H  -13.83200 10.74500 40.00400
H  -7.89900 11.20900 40.70200
H  -8.32500 11.17200 38.99700
H  -9.53400 11.12400 40.42600
H  -5.49600 16.06600 39.74400
H  -3.83500 16.06000 43.56700
H  -4.71000 17.55200 43.71600
H  -3.13900 17.53200 42.79500

