158

Mg 49.51000 45.04400 42.04600
C  46.36600 46.00800 40.67100
C  48.96100 41.91200 40.49000
C  52.77000 44.50100 42.02300
C  49.94600 48.41200 42.82500
N  47.78700 44.08900 40.74000
C  46.68200 44.66800 40.32800
C  45.74800 43.76800 39.51200
C  46.49700 42.35800 39.71500
C  47.83500 42.76400 40.35900
C  45.60300 41.34200 40.54300
C  45.66500 44.32400 38.05000
C  44.29500 44.30900 37.38800
H  44.21000 44.00500 35.89800
N  50.60900 43.34200 41.43000
C  50.24100 42.24200 40.86600
C  51.35500 41.25700 41.08900
C  52.43600 41.95400 41.56200
C  51.98300 43.34400 41.60900
C  51.17500 39.76300 40.78400
C  53.74700 41.28900 41.84200
O  53.97700 40.08900 41.66800
C  54.94000 42.05700 42.29000
N  51.19300 46.35900 42.16200
C  52.44200 45.89000 42.19900
C  53.44700 46.95700 42.71900
C  52.47900 48.17200 43.05700
C  51.08900 47.59000 42.66400
C  54.32200 46.50800 43.88900
C  52.76400 49.58800 42.45400
C  53.11000 50.71300 43.46200
N  48.38300 46.83100 41.97600
C  48.68500 48.05600 42.45900
C  47.51200 48.92900 42.44200
C  46.51500 48.16700 41.70000
C  47.16500 46.92200 41.39600
C  47.39200 50.36900 42.86500
C  45.21300 48.22400 41.08400
O  44.43800 49.19700 41.03200
C  45.07300 46.81300 40.33900
C  43.80500 46.16500 40.81700
O  42.74100 45.94700 40.23100
O  43.96000 45.92000 42.17600
C  42.90600 45.35600 42.97900
H  48.86100 40.85800 40.22200
H  53.84800 44.43900 41.85600
H  50.02600 49.41400 43.25300
H  44.77700 43.74100 40.00500
H  46.65400 41.77100 38.81000
H  44.58400 41.72800 40.49700
H  46.00100 41.18500 41.54500
H  45.51900 40.33700 40.12800
H  46.29900 43.66500 37.45700
H  46.18900 45.27800 37.98500
H  43.85500 45.28100 37.60900
H  43.67200 43.61100 37.94800
H  52.03800 39.14400 41.03100
H  50.96500 39.73700 39.71500
H  50.27600 39.33900 41.23100
H  54.57300 42.76100 43.03800
H  55.18600 42.58300 41.36700
H  55.76100 41.45000 42.67000
H  54.02700 47.19300 41.82700
H  52.29100 48.12700 44.13000
H  53.93800 46.91300 44.82500
H  55.24900 47.06300 43.73800
H  54.33700 45.41900 43.92700
H  51.98400 50.05500 41.85200
H  53.58900 49.48300 41.74900
H  53.23700 50.32700 44.47400
H  52.29400 51.41800 43.62300
H  54.01400 51.19300 43.08800
H  48.13900 50.40200 43.65800
H  46.38300 50.61000 43.20000
H  47.60400 50.91600 41.94700
H  45.08800 47.01300 39.26700
H  42.73800 46.13100 43.72700
H  43.30000 44.48400 43.50100
H  41.98700 45.13700 42.43600
Mg 41.74600 40.80600 26.45500
C  41.13100 43.06400 29.02500
C  43.10400 38.58700 28.81800
C  42.38800 38.37700 24.04200
C  41.10000 43.20700 24.14300
N  42.09400 40.83800 28.62400
C  41.58200 41.80100 29.43700
C  41.56700 41.31500 30.90500
C  42.48300 39.99900 30.85100
C  42.58300 39.79700 29.34600
C  43.83600 40.20700 31.62400
C  40.20600 41.09400 31.58400
C  40.02400 41.94100 32.90300
H  39.45000 41.24200 34.18100
N  42.59000 38.77400 26.40200
C  43.02400 38.04000 27.52000
C  43.53800 36.74400 27.13000
C  43.32400 36.70100 25.74500
C  42.65400 37.94700 25.34200
C  44.12000 35.72500 28.05600
C  43.76100 35.61500 24.79500
O  43.35100 35.55600 23.61500
C  44.50800 34.50100 25.28900
N  41.88300 40.85500 24.37600
C  42.06100 39.70900 23.55300
C  42.09000 40.14700 22.07500
C  41.44700 41.58300 22.15500
C  41.45900 41.97600 23.64700
C  43.50800 40.12000 21.49300
C  39.97500 41.69500 21.70600
C  38.95100 40.75400 22.40000
N  41.25800 42.78900 26.59200
C  41.01100 43.63400 25.48600
C  40.55800 44.88300 25.99900
C  40.53900 44.71000 27.41500
C  41.07300 43.38800 27.70300
C  40.28100 46.13700 25.19600
C  40.17600 45.29500 28.68500
O  39.79700 46.42400 28.93500
C  40.50800 44.24300 29.86500
C  41.41300 44.86600 30.88100
O  42.64600 44.77100 30.82000
O  40.68000 45.51100 31.87300
C  41.40900 46.09600 33.02500
H  43.61200 38.05500 29.62500
H  42.68600 37.63800 23.29600
H  40.83500 43.96700 23.40500
H  42.03000 42.17200 31.39400
H  41.91000 39.23200 31.37200
H  44.65200 39.78900 31.03300
H  43.64000 39.59100 32.50100
H  44.18400 41.21700 31.84100
H  40.08300 40.03300 31.80100
H  39.47600 41.31000 30.80400
H  39.29000 42.73900 32.78600
H  40.89800 42.56800 33.07700
H  43.50200 34.83500 27.93300
H  44.15600 36.16400 29.05300
H  45.18400 35.54400 27.89700
H  44.12100 33.79200 26.02100
H  45.51500 34.82100 25.55600
H  44.72600 33.90500 24.40300
H  41.52900 39.34300 21.59900
H  42.15400 42.30100 21.73900
H  43.62700 39.79600 20.45900
H  44.16600 39.67600 22.23900
H  43.86600 41.14900 21.47100
H  39.99300 41.44200 20.64600
H  39.68600 42.73600 21.85400
H  39.41400 40.21200 23.22500
H  38.60800 39.99400 21.69900
H  38.06400 41.23800 22.80800
H  39.59600 45.82200 24.41000
H  41.24300 46.39100 24.75100
H  39.89700 46.87400 25.90200
H  39.52600 44.02600 30.28600
H  42.12200 46.76200 32.53900
H  41.87500 45.24000 33.51200
H  40.79300 46.56000 33.79500

