158

Mg -2.30800 16.71200 27.13200
C  -2.60600 14.64900 29.93700
C  -2.58900 19.46500 28.95100
C  -2.32100 18.55600 24.28600
C  -2.81900 13.81400 25.16800
N  -2.62900 16.99700 29.23900
C  -2.56400 16.04100 30.21700
C  -2.38000 16.78700 31.56200
C  -2.38300 18.26500 31.21900
C  -2.67100 18.26100 29.69800
C  -3.35400 19.16500 32.09700
C  -1.11100 16.24700 32.36000
C  -0.54100 17.18000 33.42100
H  -0.19500 16.60500 34.82400
N  -2.43300 18.71500 26.74500
C  -2.57900 19.73900 27.61000
C  -2.64600 21.00300 26.92300
C  -2.31300 20.71200 25.57300
C  -2.43900 19.26700 25.49800
C  -2.90000 22.22900 27.62700
C  -2.03200 21.66900 24.43000
O  -1.82100 21.37500 23.25500
C  -1.74500 23.12800 24.83300
N  -2.32900 16.17800 25.03200
C  -2.32600 17.15600 24.06600
C  -2.45200 16.57300 22.65100
C  -2.55500 14.97900 22.92800
C  -2.55700 14.97200 24.44900
C  -3.54300 17.04800 21.69400
C  -1.34800 14.13700 22.31100
C  -1.50300 13.55000 20.93400
N  -2.58900 14.60800 27.40800
C  -2.76600 13.57700 26.54600
C  -2.88100 12.34300 27.23600
C  -2.75800 12.67300 28.60100
C  -2.62500 14.06200 28.65300
C  -3.04000 11.05100 26.50000
C  -2.72100 12.14900 29.91400
O  -2.70800 10.97800 30.34200
C  -2.52500 13.40300 30.89000
C  -1.27700 13.08000 31.59300
O  -0.12800 13.18100 31.13600
O  -1.50700 12.68200 32.87000
C  -0.39300 12.60400 33.78600
H  -2.61400 20.37800 29.54900
H  -2.29400 19.08300 23.32900
H  -3.09000 12.96300 24.54000
H  -3.31100 16.64500 32.10900
H  -1.35100 18.61000 31.27800
H  -2.75200 19.72200 32.81400
H  -4.12700 18.58600 32.60300
H  -3.77000 19.83200 31.34200
H  -0.38700 16.02000 31.57700
H  -1.34800 15.32900 32.89600
H  -1.10500 18.11100 33.48100
H  0.42300 17.45100 32.98900
H  -3.64600 22.85300 27.13500
H  -1.91800 22.69800 27.69300
H  -3.30900 22.05100 28.62200
H  -1.33600 23.57200 23.92600
H  -0.94900 23.13400 25.57900
H  -2.69000 23.63700 25.02400
H  -1.57800 16.85600 22.06400
H  -3.46900 14.49600 22.58300
H  -3.41700 18.11400 21.50600
H  -4.46500 16.95100 22.26800
H  -3.71100 16.53400 20.74800
H  -1.22400 13.25900 22.94500
H  -0.42800 14.72000 22.26000
H  -2.52700 13.73500 20.60900
H  -1.30900 12.47900 20.98200
H  -0.71900 13.96100 20.29900
H  -2.76500 10.22700 27.15900
H  -2.50200 10.96200 25.55700
H  -4.11600 11.08700 26.33200
H  -3.34400 13.45100 31.60900
H  -0.04000 11.58400 33.63000
H  -0.77200 12.89600 34.76500
H  0.41700 13.24700 33.44100
Mg -0.38900 6.55000 26.14800
C  0.54500 8.85600 28.62600
C  0.21300 3.95800 28.28500
C  -0.79700 4.52900 23.59900
C  0.01900 9.31500 23.92600
N  0.39000 6.33000 28.21800
C  0.42600 7.48800 29.08400
C  0.40600 6.97200 30.58900
C  0.49900 5.39600 30.41600
C  0.30400 5.18000 28.89900
C  1.73700 4.70800 31.05400
C  -0.80000 7.49200 31.40000
C  -0.51400 8.34000 32.60600
H  0.63400 7.86300 33.49600
N  -0.36200 4.53800 25.93400
C  0.00900 3.61200 26.89500
C  -0.14500 2.31600 26.38700
C  -0.56000 2.44700 25.03200
C  -0.63100 3.85500 24.80400
C  0.04500 1.14300 27.23900
C  -0.93300 1.40200 24.04200
O  -1.54000 1.71600 23.02400
C  -0.68600 -0.05300 24.34000
N  -0.48000 6.93700 24.10500
C  -0.67300 5.90600 23.26900
C  -0.43200 6.34000 21.84900
C  -0.51100 7.86200 21.91700
C  -0.31600 8.09900 23.41600
C  0.97600 5.90700 21.33200
C  -1.74200 8.59700 21.28700
C  -2.82200 9.15200 22.25900
N  0.18600 8.68200 26.16100
C  0.25800 9.65700 25.20600
C  0.79600 10.85900 25.75600
C  0.84200 10.65500 27.09400
C  0.48500 9.29200 27.25300
C  1.20000 12.04300 25.03900
C  1.22900 11.26600 28.39700
O  1.63400 12.39500 28.71100
C  0.89900 10.14400 29.40700
C  2.11700 9.99200 30.24100
O  3.03600 9.23200 29.97000
O  1.97100 10.81200 31.36000
C  3.12500 10.98300 32.20600
H  0.30300 3.16400 29.02900
H  -0.90200 3.84600 22.75400
H  0.32800 10.12000 23.25600
H  1.27800 7.31300 31.14700
H  -0.40500 4.97400 30.85500
H  2.08800 5.40700 31.81300
H  2.49000 4.50500 30.29200
H  1.38200 3.73100 31.38100
H  -1.57000 6.77100 31.67300
H  -1.23200 8.17800 30.67200
H  -1.35700 8.36600 33.29600
H  -0.41900 9.39400 32.34500
H  -0.87300 0.81000 27.72300
H  0.64500 1.26300 28.14100
H  0.57700 0.37400 26.68000
H  -1.00800 -0.33200 25.34400
H  0.33200 -0.42400 24.22500
H  -1.26100 -0.68400 23.66300
H  -1.28500 6.09100 21.21800
H  0.38200 8.29100 21.46200
H  1.25400 4.93200 21.73000
H  1.78100 6.63200 21.45300
H  0.95200 5.75800 20.25200
H  -2.28600 7.93600 20.61300
H  -1.28600 9.44300 20.77200
H  -2.81100 10.23800 22.17100
H  -2.64800 9.08800 23.33300
H  -3.73300 8.70800 21.85700
H  0.45300 12.40500 24.33300
H  2.09500 12.01100 24.41700
H  1.13100 12.88000 25.73400
H  0.06700 10.46100 30.03600
H  3.95300 11.22000 31.53700
H  3.38700 10.03800 32.68300
H  2.99000 11.66200 33.04800

