158

Mg 1.48100 -1.23000 44.43500
C  4.87600 -0.83800 43.52500
C  0.70700 1.52500 42.55400
C  -1.72700 -2.04100 44.67900
C  2.42200 -4.25500 45.94400
N  2.62700 0.04400 43.01200
C  4.00400 0.05200 42.93000
C  4.49800 1.13900 41.94800
C  3.17200 2.09900 41.81800
C  2.09100 1.16500 42.50000
C  3.28200 3.47700 42.48100
C  5.05100 0.54900 40.60700
C  6.45700 1.27100 40.19700
H  6.49700 2.15700 39.01600
N  -0.25600 -0.38300 43.76800
C  -0.38400 0.74700 43.05100
C  -1.80400 1.05800 42.76600
C  -2.57200 -0.06100 43.26800
C  -1.51000 -0.86500 43.95400
C  -2.26300 2.31500 42.03200
C  -4.10300 -0.11400 43.24100
O  -4.80800 0.80800 42.84400
C  -4.81700 -1.34300 43.62900
N  0.44400 -2.90700 45.24900
C  -0.91200 -2.94800 45.27100
C  -1.37200 -4.24500 45.91800
C  -0.07400 -4.88200 46.47100
C  1.01500 -4.00600 45.87200
C  -2.62700 -4.18400 46.95000
C  0.14500 -6.45200 46.18800
C  0.57800 -7.16100 47.45400
N  3.23800 -2.33400 44.80100
C  3.47600 -3.51700 45.45500
C  4.86100 -3.85800 45.46700
C  5.47600 -2.73100 44.80700
C  4.39100 -1.90800 44.34700
C  5.46700 -5.05800 46.15000
C  6.71500 -2.14000 44.36700
O  7.88100 -2.46700 44.51400
C  6.34500 -0.81900 43.57300
C  6.84500 0.38300 44.35000
O  6.78500 0.58100 45.54100
O  7.32900 1.34600 43.52200
C  7.87300 2.52800 44.22000
H  0.43400 2.43700 42.01900
H  -2.79900 -2.18700 44.82300
H  2.69800 -5.06800 46.61900
H  5.35300 1.68100 42.35400
H  3.01000 2.06400 40.74000
H  2.97500 4.24800 41.77400
H  4.27400 3.71300 42.86600
H  2.59800 3.51600 43.32900
H  4.26400 0.59000 39.85400
H  5.31900 -0.48800 40.80600
H  7.31400 0.61700 40.03600
H  6.84700 1.85700 41.02900
H  -1.60500 2.35600 41.16300
H  -1.91800 3.08600 42.72100
H  -3.32900 2.34600 41.80700
H  -4.96100 -1.41100 44.70800
H  -4.17900 -2.17000 43.31800
H  -5.76200 -1.53600 43.12200
H  -1.65100 -4.85200 45.05600
H  -0.08600 -4.66000 47.53800
H  -3.04600 -3.18700 47.08800
H  -2.35400 -4.59700 47.92100
H  -3.47000 -4.74400 46.54600
H  0.77500 -6.70800 45.33600
H  -0.82800 -6.91700 46.02900
H  1.44700 -7.72600 47.11800
H  -0.25600 -7.81700 47.70100
H  1.02700 -6.62200 48.28900
H  5.59500 -5.86700 45.43100
H  4.77600 -5.58700 46.80600
H  6.43600 -4.81000 46.58300
H  6.73400 -0.63100 42.57300
H  7.12100 3.17300 44.67400
H  8.50700 3.04800 43.50100
H  8.61700 2.17500 44.93500
Mg 9.91400 47.36500 26.13500
C  7.85700 47.60000 29.02000
C  12.49100 48.87300 27.83400
C  11.77900 47.20000 23.35700
C  7.08000 46.52500 24.31200
N  10.15700 48.08600 28.26700
C  9.16400 48.09100 29.25400
C  9.86600 48.61000 30.60800
C  11.09800 49.43400 30.07100
C  11.29800 48.81200 28.61300
C  10.93200 50.98500 30.05300
C  10.32800 47.33900 31.43900
C  10.69400 47.52200 32.95000
H  10.39700 46.43800 34.01400
N  11.93700 47.75900 25.74500
C  12.81000 48.37500 26.60100
C  14.07200 48.56700 25.88200
C  13.83000 48.01000 24.58800
C  12.48400 47.61800 24.49900
C  15.31000 49.18400 26.53300
C  14.84700 47.81300 23.40500
O  14.60900 47.18600 22.32000
C  16.21500 48.30600 23.56000
N  9.52600 46.91700 24.08200
C  10.42200 46.95800 23.14000
C  9.82200 46.57500 21.70700
C  8.31200 46.40100 22.09900
C  8.31100 46.62100 23.58000
C  9.96000 47.69600 20.71900
C  7.58800 45.12300 21.56400
C  6.05700 45.22600 21.25100
N  7.81500 47.12200 26.51100
C  6.79500 46.71700 25.66300
C  5.62500 46.50100 26.45100
C  5.97600 46.82000 27.78800
C  7.28700 47.24100 27.73900
C  4.25100 46.16700 25.80500
C  5.45900 46.96800 29.15200
O  4.35600 46.73800 29.61600
C  6.69300 47.38200 30.05500
C  6.98100 46.21500 30.91500
O  7.36200 45.14600 30.48300
O  6.75000 46.52600 32.23700
C  6.97300 45.44800 33.20000
H  13.25600 49.42500 28.38400
H  12.18400 47.29100 22.34600
H  6.21100 46.20000 23.73500
H  9.21400 49.27100 31.17900
H  12.00700 49.25700 30.64500
H  11.16900 51.48700 29.11500
H  11.59900 51.44400 30.78200
H  10.00100 51.33100 30.50100
H  11.21500 46.99100 30.91000
H  9.65100 46.49400 31.31100
H  10.26900 48.47600 33.26300
H  11.77600 47.62900 33.03100
H  15.12500 49.69200 27.48000
H  15.91200 49.87400 25.94300
H  15.91100 48.32800 26.83900
H  16.28200 49.35000 23.87000
H  16.76100 48.29000 22.61700
H  16.64200 47.63500 24.30600
H  10.16200 45.57600 21.43500
H  7.74900 47.26900 21.75600
H  10.12300 48.62300 21.26900
H  9.07300 47.88100 20.11200
H  10.86100 47.50300 20.13700
H  7.64800 44.38100 22.36000
H  8.13800 44.66500 20.74100
H  5.50300 46.12800 21.51000
H  5.52600 44.44100 21.79000
H  5.91300 44.94800 20.20600
H  4.22300 45.41700 25.01500
H  3.88100 47.14300 25.48900
H  3.72000 45.81100 26.68700
H  6.47100 48.24900 30.67800
H  6.80500 44.42700 32.85800
H  6.28500 45.68600 34.01100
H  7.99100 45.45600 33.58900

