158

Mg 42.46200 41.85200 25.66000
C  42.03900 44.01200 28.30300
C  43.57100 39.49000 27.96200
C  43.10000 39.81600 23.07800
C  41.97400 44.54700 23.41600
N  42.69400 41.74800 27.88100
C  42.37800 42.73900 28.77200
C  42.58700 42.29600 30.27300
C  43.05800 40.78500 30.08300
C  43.08600 40.62100 28.54900
C  44.34300 40.40500 30.84400
C  41.31200 42.64800 31.07700
C  41.00400 41.73700 32.31600
H  40.54900 42.44300 33.57400
N  43.24800 39.91000 25.53300
C  43.60500 39.15600 26.57700
C  43.99100 37.83800 26.11200
C  43.82500 37.85200 24.67400
C  43.35500 39.22500 24.35900
C  44.54500 36.72300 27.02400
C  43.98900 36.82800 23.63100
O  43.80000 37.03700 22.46900
C  44.48700 35.49300 24.08600
N  42.60500 42.17000 23.60200
C  42.77600 41.14800 22.71000
C  42.66000 41.62700 21.21800
C  41.96200 43.00500 21.39300
C  42.15800 43.30400 22.89800
C  43.97300 41.65300 20.37700
C  40.40300 43.08100 20.99100
C  39.27200 42.79400 22.10100
N  42.12200 43.86500 25.77600
C  41.95900 44.83100 24.80300
C  41.65100 46.10000 25.49000
C  41.70300 45.82800 26.85200
C  41.96800 44.44100 26.97600
C  41.21900 47.33400 24.85400
C  41.43600 46.40900 28.23400
O  41.00700 47.47100 28.61600
C  41.81800 45.32200 29.17200
C  42.95700 45.77700 29.97000
O  44.11400 45.34800 29.87200
O  42.47500 46.54200 30.99400
C  43.56800 46.86200 31.92500
H  43.80200 38.64300 28.61200
H  43.12800 39.17500 22.19400
H  41.79300 45.34000 22.68800
H  43.38700 42.84500 30.77100
H  42.27300 40.12000 30.44200
H  45.27100 40.57600 30.29700
H  44.22400 39.34900 31.08700
H  44.43300 40.92300 31.79900
H  40.43000 42.66700 30.43600
H  41.44700 43.66800 31.43600
H  41.80800 41.04800 32.57700
H  40.21200 41.13400 31.87000
H  45.24000 37.13400 27.75500
H  45.03800 35.95700 26.42500
H  43.81900 36.33200 27.73800
H  43.76100 34.97100 24.71000
H  45.51100 35.38800 24.44300
H  44.47700 35.03000 23.10000
H  41.92800 41.05700 20.64600
H  42.54000 43.74200 20.83600
H  43.97400 40.65900 19.92800
H  44.70500 41.85000 21.16000
H  43.98700 42.47900 19.66600
H  40.17600 42.38700 20.18100
H  40.29300 44.12200 20.68800
H  39.78500 42.72900 23.06100
H  38.87700 41.78600 21.97400
H  38.47600 43.53900 22.09200
H  41.75200 47.42000 23.90700
H  41.51700 48.13400 25.53200
H  40.14800 47.30000 24.65200
H  40.98100 45.11800 29.84100
H  44.26900 47.60800 31.55100
H  44.23800 46.04500 32.19100
H  43.26900 47.27600 32.88900
Mg 1.01900 43.03600 26.42600
C  3.41800 43.08600 28.90800
C  -1.31700 41.95400 28.73000
C  -0.98800 42.39000 23.93700
C  3.72100 43.46100 24.11000
N  1.03600 42.62500 28.52400
C  2.10500 42.87900 29.42500
C  1.63400 42.88700 30.88600
C  0.15200 42.26700 30.77200
C  -0.05700 42.32100 29.24400
C  -0.16400 40.88800 31.42900
C  1.65900 44.35700 31.50800
C  1.70400 44.41600 33.03900
H  1.33800 43.10600 33.76700
N  -0.89800 42.34800 26.38400
C  -1.67800 41.97600 27.39400
C  -3.00500 41.74900 26.87900
C  -2.94200 41.77900 25.41600
C  -1.55600 42.16900 25.20000
C  -4.16800 41.52300 27.88600
C  -4.01200 41.47500 24.44700
O  -3.80800 41.42500 23.22800
C  -5.39400 41.25500 24.88400
N  1.36900 43.00100 24.30600
C  0.30400 42.68500 23.54800
C  0.72200 42.84900 21.98400
C  2.13200 43.45900 22.02200
C  2.49000 43.29600 23.52600
C  0.60000 41.55900 21.15300
C  2.29700 44.88200 21.53800
C  1.56800 45.97000 22.39300
N  3.12100 43.20100 26.40700
C  4.03000 43.45000 25.45600
C  5.34900 43.57900 26.06500
C  5.13900 43.33700 27.45000
C  3.72800 43.25700 27.59600
C  6.63500 43.84200 25.40200
C  5.77500 43.21000 28.66300
O  6.95600 43.19700 29.05300
C  4.65800 43.11400 29.74500
C  4.94800 41.88000 30.60100
O  5.11700 40.70000 30.24000
O  4.96200 42.28400 31.91400
C  5.10400 41.27600 32.97100
H  -1.96700 41.62100 29.54200
H  -1.64300 42.21900 23.08100
H  4.51300 43.87800 23.48400
H  2.19800 42.17000 31.48100
H  -0.55700 42.98100 31.19000
H  0.66000 40.39700 31.94700
H  -0.45100 40.17200 30.66000
H  -0.99400 40.98500 32.13000
H  0.73000 44.80400 31.15400
H  2.47300 44.92700 31.06000
H  0.96800 45.08300 33.48800
H  2.71300 44.76800 33.25700
H  -4.82800 42.37800 27.73900
H  -3.83500 41.70500 28.90800
H  -4.78900 40.63100 27.80700
H  -6.08100 41.05100 24.06200
H  -5.72500 42.06000 25.54000
H  -5.23400 40.36700 25.49600
H  0.06000 43.58700 21.53000
H  2.75600 42.78400 21.43700
H  1.50200 40.95000 21.20800
H  0.25600 41.78100 20.14300
H  -0.29100 41.08500 21.56600
H  1.83300 44.94900 20.55400
H  3.37800 45.02400 21.54300
H  0.70200 45.62700 22.96000
H  1.20400 46.73500 21.70700
H  2.30400 46.41800 23.06100
H  7.41300 44.30400 26.01100
H  6.34700 44.67100 24.75600
H  7.11200 43.03400 24.84800
H  4.59500 43.97600 30.40900
H  4.75900 40.29800 32.63500
H  4.50800 41.71300 33.77200
H  6.11600 41.20400 33.36900

