158

Mg 48.22500 34.66100 26.49300
C  46.32800 33.17000 29.20200
C  48.53800 37.47200 28.41300
C  49.57900 36.11500 23.83800
C  46.98300 32.07400 24.43100
N  47.62700 35.16200 28.66000
C  46.90300 34.40800 29.50200
C  46.86900 35.12400 30.82900
C  47.16300 36.61600 30.44800
C  47.85800 36.39800 29.09500
C  45.94500 37.64000 30.41400
C  47.89800 34.55400 31.81600
C  47.37200 34.39600 33.18300
H  46.49400 35.53900 33.69600
N  49.07500 36.45100 26.23500
C  49.22100 37.46400 27.14600
C  50.08200 38.50400 26.58800
C  50.33000 38.15200 25.26400
C  49.65400 36.86000 25.09800
C  50.53200 39.59700 27.42700
C  51.04800 38.87600 24.19600
O  51.24900 38.41600 23.06300
C  51.55900 40.22000 24.55400
N  48.25200 34.22400 24.33600
C  48.86600 34.97300 23.45800
C  48.88200 34.34300 22.11900
C  48.00700 33.08800 22.24800
C  47.75600 33.05300 23.75400
C  48.32700 35.32000 20.98700
C  48.64100 31.84000 21.63800
C  47.63100 30.82500 21.08900
N  47.03900 32.95100 26.71800
C  46.63500 31.99100 25.78300
C  45.77100 30.95900 26.49900
C  45.70000 31.42000 27.81000
C  46.45500 32.62200 27.91000
C  45.13400 29.67500 25.96900
C  45.13400 31.03900 29.09000
O  44.45900 30.09800 29.50700
C  45.40400 32.29200 29.93900
C  45.78700 31.86700 31.27200
O  46.84900 31.41900 31.63000
O  44.69600 31.98300 32.06300
C  44.90800 31.34200 33.33500
H  48.51000 38.42000 28.95500
H  50.03400 36.50500 22.92500
H  46.58300 31.25000 23.83700
H  45.81000 34.96700 31.03100
H  47.86500 37.11600 31.11500
H  45.09300 37.27500 30.98700
H  45.70300 37.64800 29.35100
H  46.23000 38.60800 30.82500
H  48.74000 35.24400 31.75200
H  48.29300 33.60500 31.45100
H  48.17400 34.37900 33.92200
H  46.89000 33.41800 33.17700
H  50.58400 39.36100 28.49000
H  49.88000 40.46900 27.48300
H  51.53200 39.88800 27.10700
H  50.99200 40.70600 25.34800
H  51.44400 40.85600 23.67700
H  52.59700 40.05300 24.84100
H  49.93400 34.08400 21.99700
H  46.99500 33.25300 21.87900
H  47.64200 34.84500 20.28500
H  49.20300 35.68200 20.44900
H  47.71100 35.91100 21.66500
H  49.18300 31.37900 22.46400
H  49.38800 32.09300 20.88600
H  47.66000 30.96400 20.00800
H  46.60100 31.04300 21.36900
H  47.84300 29.79700 21.38200
H  44.75100 29.04700 26.77400
H  45.82600 29.09700 25.35700
H  44.25000 29.93700 25.38800
H  44.43700 32.78900 30.02000
H  43.94500 31.18300 33.82100
H  45.57800 32.02800 33.85300
H  45.33900 30.34300 33.28000
Mg 8.72700 48.95500 26.36900
C  6.36700 49.26000 28.93900
C  11.17000 49.87200 28.47200
C  10.89200 48.75800 23.79500
C  6.01600 48.63400 24.04700
N  8.73600 49.42700 28.48200
C  7.69700 49.49300 29.39000
C  8.15900 49.92700 30.76800
C  9.65100 50.39000 30.51400
C  9.92600 49.85000 29.08500
C  9.89600 51.88900 30.51700
C  8.02500 48.70400 31.74400
C  8.78400 48.73100 33.07800
H  8.35700 47.82100 34.19500
N  10.82900 49.13400 26.18100
C  11.62000 49.55200 27.17700
C  12.98000 49.51000 26.70700
C  12.94300 49.07100 25.30900
C  11.52900 48.96000 25.05300
C  14.23200 49.86800 27.56000
C  14.16300 48.77000 24.38100
O  14.07300 48.38200 23.21500
C  15.53500 48.93500 24.90400
N  8.43400 48.75700 24.28300
C  9.54200 48.53100 23.45300
C  9.18700 48.46000 21.97800
C  7.65300 48.19500 22.05000
C  7.30300 48.49300 23.54000
C  9.61900 49.79500 21.19100
C  7.19200 46.85300 21.48400
C  6.36300 46.82700 20.16000
N  6.62100 48.97300 26.36600
C  5.63900 48.86200 25.40800
C  4.36400 48.72900 26.05000
C  4.50500 49.00300 27.39200
C  5.97300 49.04500 27.58200
C  3.12200 48.37000 25.39900
C  3.79900 49.05500 28.65100
O  2.63800 49.01400 28.89500
C  5.00200 49.18600 29.68900
C  4.93200 47.94300 30.57100
O  5.17400 46.87800 30.12300
O  4.47400 48.27200 31.84900
C  4.22500 47.04200 32.66400
H  11.98100 50.20300 29.12400
H  11.61700 48.59300 22.99500
H  5.28100 48.35000 23.29100
H  7.53300 50.75600 31.09900
H  10.29500 49.93100 31.26500
H  9.05700 52.37800 31.01400
H  10.07900 52.31500 29.53100
H  10.74000 52.21800 31.12300
H  8.21500 47.72200 31.31100
H  6.99100 48.82700 32.06600
H  8.68800 49.75100 33.44800
H  9.85000 48.52700 32.98000
H  13.99600 49.98100 28.61800
H  14.61700 50.78500 27.11400
H  15.08000 49.18500 27.50400
H  16.15400 48.87700 24.01000
H  15.82300 48.09500 25.53600
H  15.79600 49.89200 25.35700
H  9.84400 47.65000 21.66200
H  7.17800 48.92800 21.39700
H  10.03200 49.79900 20.18200
H  10.29600 50.45300 21.73500
H  8.78900 50.43700 20.89500
H  6.54800 46.37300 22.22000
H  8.04000 46.21900 21.22500
H  5.81500 47.76500 20.07500
H  5.56900 46.08600 20.26200
H  6.87200 46.53800 19.24100
H  3.32700 47.45700 24.83900
H  2.84000 49.12200 24.66300
H  2.49400 48.07200 26.23900
H  4.90900 50.06400 30.32700
H  3.16300 47.12200 32.89700
H  4.68400 47.16000 33.64500
H  4.51000 46.05900 32.28900

