158

Mg 45.83600 3.94600 48.61400
C  43.99100 6.90000 47.86400
C  43.15600 2.13600 47.52700
C  47.78400 1.13700 48.71300
C  48.67500 5.88900 49.06600
N  43.73800 4.53500 47.81300
C  43.21800 5.74200 47.69900
C  41.74700 5.64800 47.29300
C  41.52400 4.11300 47.23800
C  42.84900 3.50400 47.68100
C  40.33200 3.52300 48.02400
C  41.33800 6.46100 46.00900
C  42.14600 6.49400 44.74600
H  41.29700 6.32400 43.46800
N  45.50600 1.92300 48.20500
C  44.39500 1.41300 47.66400
C  44.59200 -0.09300 47.40700
C  45.97100 -0.38400 47.67300
C  46.50600 0.91700 48.21000
C  43.52300 -0.93100 46.77300
C  46.64200 -1.72900 47.38300
O  46.05600 -2.71800 46.97700
C  48.09400 -1.96400 47.48100
N  47.99600 3.59700 48.73800
C  48.44600 2.37300 48.96100
C  49.96300 2.47600 49.26500
C  50.24100 4.02300 49.36500
C  48.88400 4.52900 48.98400
C  50.43500 1.69000 50.52500
C  51.34200 4.62800 48.47800
C  51.04500 4.85800 47.03200
N  46.31400 5.94600 48.57700
C  47.47600 6.58800 48.73500
C  47.25600 8.03100 48.57600
C  45.92000 8.15700 48.29800
C  45.37200 6.86400 48.26400
C  48.32600 9.10300 48.70600
C  44.84900 9.16700 48.00700
O  44.88100 10.38100 47.85600
C  43.56600 8.37100 47.60200
C  42.50200 8.87500 48.45100
O  42.10400 8.45900 49.49200
O  41.76200 9.84200 47.83600
C  40.35300 9.96000 48.37000
H  42.30900 1.56600 47.14000
H  48.33000 0.22500 48.96100
H  49.52200 6.53200 49.31600
H  41.21000 6.09800 48.12800
H  41.35000 3.87600 46.18800
H  39.54100 4.27300 48.03100
H  40.75400 3.33900 49.01200
H  39.91700 2.72200 47.41300
H  41.30000 7.46500 46.43200
H  40.31800 6.14700 45.79100
H  43.02400 5.84900 44.72600
H  42.67600 7.44100 44.84100
H  43.85900 -1.27000 45.79300
H  42.54500 -0.45000 46.80300
H  43.44200 -1.84100 47.36600
H  48.65600 -1.12000 47.08200
H  48.43000 -2.82700 46.90600
H  48.35300 -2.15400 48.52300
H  50.54200 1.96400 48.49600
H  50.34600 4.38000 50.38900
H  50.79000 0.68600 50.28900
H  49.61000 1.49900 51.21200
H  51.21600 2.25800 51.03100
H  52.19200 3.94700 48.43200
H  51.77100 5.53900 48.89500
H  50.72900 5.90000 46.98700
H  50.29700 4.15300 46.66900
H  51.93600 4.68100 46.42900
H  48.92200 9.17900 47.79600
H  48.86500 9.07100 49.65300
H  47.74800 10.02600 48.75700
H  43.35600 8.73000 46.59400
H  39.83300 10.23300 47.45200
H  40.23400 10.70900 49.15300
H  40.05800 8.98000 48.74500
Mg 54.81400 24.45000 45.45000
C  52.19400 26.78400 44.70000
C  52.70600 22.02400 44.10500
C  57.42400 22.33800 45.35100
C  56.91200 27.15700 46.22400
N  52.79300 24.49800 44.31900
C  51.84800 25.52600 44.32400
C  50.51000 25.06300 43.69600
C  50.63600 23.49100 43.91300
C  52.16500 23.32400 44.09800
C  49.83200 22.87700 45.09200
C  50.34300 25.64100 42.26900
C  50.28900 24.63300 41.03300
H  50.02900 25.06500 39.61100
N  55.03400 22.38400 44.85700
C  54.01200 21.54100 44.39700
C  54.57600 20.20300 44.16000
C  55.97700 20.29900 44.28300
C  56.20800 21.67300 44.85100
C  53.60400 18.97900 43.81100
C  56.96900 19.18600 44.08100
O  56.65000 18.07400 43.66800
C  58.49600 19.32100 44.36000
N  56.82900 24.71300 45.72500
C  57.66400 23.67300 45.83900
C  59.09300 24.06700 46.25100
C  58.94900 25.58500 46.37000
C  57.41900 25.87200 46.14700
C  59.75800 23.31300 47.33300
C  60.02000 26.45900 45.71600
C  60.71600 27.42700 46.57900
N  54.66400 26.49800 45.57700
C  55.58200 27.45700 45.97000
C  54.94400 28.75700 46.02300
C  53.63900 28.50900 45.55800
C  53.53400 27.11300 45.17100
C  55.56000 30.01500 46.49800
C  52.43500 29.16200 45.34900
O  52.00900 30.25900 45.61400
C  51.45600 28.11200 44.65700
C  51.09200 28.61800 43.31600
O  51.88900 29.14500 42.50000
O  49.68900 28.54000 43.15200
C  49.26800 29.22500 41.92500
H  52.04700 21.20900 43.79700
H  58.27500 21.65400 45.32500
H  57.55600 28.00200 46.47500
H  49.66800 25.33500 44.33300
H  50.48800 22.88900 43.01700
H  50.43800 22.16100 45.64800
H  48.88900 22.41300 44.80300
H  49.54800 23.65400 45.80200
H  51.11400 26.31800 41.90100
H  49.34000 26.06500 42.31100
H  49.44400 23.94500 41.06600
H  51.23500 24.09800 41.11000
H  52.82400 19.09600 44.56300
H  54.08500 18.00600 43.90800
H  53.22700 19.03900 42.79000
H  58.84400 20.26100 43.93100
H  59.08200 18.67000 43.71200
H  58.74300 19.22000 45.41700
H  59.68900 23.68700 45.42100
H  59.10100 25.75700 47.43600
H  60.72200 22.84600 47.13600
H  59.10900 22.47700 47.59700
H  59.94600 23.89100 48.23800
H  59.52100 27.03200 44.93400
H  60.64600 25.83000 45.08300
H  61.77200 27.46400 46.31400
H  60.59600 27.37500 47.66100
H  60.28700 28.38800 46.29300
H  56.22100 30.44100 45.74300
H  56.14400 29.96300 47.41800
H  54.78400 30.76900 46.63000
H  50.54200 27.96900 45.23400
H  49.68500 28.71700 41.05500
H  49.75200 30.20200 41.93000
H  48.19100 29.35000 42.03700

