158

Mg 8.48800 3.10700 27.12100
C  10.10800 1.49700 29.75600
C  7.07600 5.23200 29.32200
C  6.92400 4.47400 24.46400
C  9.83000 0.59500 24.95300
N  8.55300 3.31800 29.34200
C  9.40300 2.62900 30.17400
C  9.22800 3.10300 31.68900
C  8.25900 4.33300 31.55100
C  7.92900 4.32300 30.01400
C  7.09400 4.31100 32.47000
C  10.52300 3.30100 32.59000
C  10.44800 4.19400 33.83800
H  10.95600 3.51800 35.15400
N  7.17100 4.52200 26.95700
C  6.79300 5.38500 27.93400
C  5.83700 6.32000 27.39800
C  5.64800 6.02900 25.99000
C  6.65200 4.98300 25.74500
C  5.03300 7.27500 28.31100
C  4.71400 6.65500 24.99500
O  4.62400 6.29400 23.86700
C  3.62800 7.55800 25.45100
N  8.58800 2.69400 25.00600
C  7.72000 3.36700 24.19300
C  7.53900 2.47700 22.94100
C  8.57500 1.38700 23.00800
C  9.13000 1.60300 24.37900
C  6.03000 2.00200 22.74800
C  9.66800 1.37800 21.89200
C  9.69300 0.20800 20.92800
N  9.68300 1.37700 27.28900
C  10.27700 0.56800 26.30200
C  11.20500 -0.29500 26.97600
C  11.21100 0.00400 28.30800
C  10.25700 1.07300 28.46400
C  12.08100 -1.41000 26.42200
C  11.76100 -0.36400 29.68000
O  12.57600 -1.22400 30.04000
C  11.13000 0.71100 30.57300
C  10.57500 0.05100 31.82000
O  9.42900 -0.40100 31.99400
O  11.62600 0.02300 32.71100
C  11.36600 -0.31500 34.11400
H  6.72500 6.01800 29.99300
H  6.39200 4.84700 23.58600
H  10.09100 -0.28400 24.35900
H  8.70100 2.27900 32.16900
H  8.87400 5.20900 31.75900
H  6.68500 5.31900 32.54600
H  7.45500 3.94600 33.43100
H  6.35100 3.56400 32.19100
H  11.37900 3.61900 31.99500
H  10.69200 2.32300 33.04100
H  9.48300 4.62400 34.10400
H  11.11800 5.02700 33.62200
H  4.00000 7.05300 28.04400
H  5.33500 8.30900 28.14500
H  5.09300 7.11700 29.38700
H  3.14300 8.01300 24.58800
H  4.21200 8.38500 25.85600
H  2.97900 7.13100 26.21700
H  7.65700 3.16400 22.10300
H  7.96400 0.48800 22.93200
H  5.51600 2.15700 23.69700
H  5.98800 0.92300 22.60100
H  5.48700 2.49000 21.93800
H  10.63900 1.43300 22.38500
H  9.65100 2.25400 21.24400
H  8.87200 -0.48600 21.11200
H  10.61500 -0.36600 21.02100
H  9.60900 0.50000 19.88100
H  12.34700 -0.98100 25.45600
H  11.45000 -2.27900 26.23700
H  12.95700 -1.60700 27.04100
H  11.93800 1.37900 30.87000
H  11.46700 0.55200 34.76600
H  12.16500 -0.90200 34.56700
H  10.52400 -1.00000 34.21200
Mg 41.08800 8.32600 28.92400
C  42.74100 9.81000 31.53900
C  38.87800 6.90700 31.26600
C  39.33700 7.06100 26.36200
C  43.40700 9.62600 26.76500
N  40.95900 8.34100 31.12100
C  41.69200 9.09400 31.99800
C  41.03700 9.10600 33.39500
C  39.87700 8.06800 33.25900
C  39.85800 7.82100 31.76400
C  40.02300 6.80800 34.15500
C  40.39700 10.44000 33.84600
C  39.72600 10.47700 35.17000
H  40.30200 11.40300 36.21000
N  39.44300 7.06200 28.87300
C  38.66100 6.61700 29.90200
C  37.54400 5.81400 29.35100
C  37.47400 6.09700 27.94500
C  38.80300 6.73900 27.63500
C  36.72300 4.87800 30.13700
C  36.34300 5.80300 26.88800
O  36.43700 6.06200 25.71900
C  35.03200 5.22900 27.40200
N  41.30700 8.41400 26.86600
C  40.46000 7.79400 26.01600
C  41.00400 7.92100 24.56900
C  42.10500 8.96900 24.66700
C  42.31400 9.03100 26.14600
C  41.43900 6.51100 24.04500
C  41.69100 10.39700 24.15500
C  40.50800 11.04400 24.95200
N  42.86000 9.43200 29.02700
C  43.71200 9.88800 28.10100
C  44.76200 10.60400 28.73400
C  44.42400 10.70800 30.06300
C  43.26000 9.92700 30.20700
C  45.97700 11.04400 28.05200
C  44.75500 11.28000 31.32000
O  45.69300 11.98200 31.54900
C  43.61900 10.80300 32.35800
C  44.30200 10.17400 33.59800
O  44.99500 9.21700 33.66100
O  43.75000 10.89900 34.65300
C  43.85000 10.24200 35.92500
H  38.16800 6.54800 32.01400
H  38.78100 6.70100 25.49500
H  44.17300 9.92100 26.04400
H  41.75700 8.71300 34.11300
H  38.96200 8.61900 33.47800
H  39.93400 5.95100 33.48700
H  39.26800 6.77100 34.94000
H  40.93500 6.86600 34.74900
H  39.71800 10.71300 33.03900
H  41.21700 11.15600 33.89800
H  39.56500 9.51100 35.64900
H  38.69700 10.77600 34.96900
H  37.10800 4.83400 31.15500
H  36.62100 3.91300 29.64100
H  35.71700 5.25000 30.32900
H  34.57300 5.88200 28.14400
H  35.15900 4.24600 27.85500
H  34.28300 5.13600 26.61500
H  40.18500 8.25600 23.93300
H  43.05300 8.61400 24.26300
H  40.52300 6.07200 23.65000
H  41.77700 5.86500 24.85600
H  42.12500 6.56800 23.20000
H  41.27100 10.25500 23.16000
H  42.48100 11.14700 24.17200
H  40.83100 11.20000 25.98200
H  39.64000 10.38700 24.99000
H  40.23700 12.00300 24.51000
H  45.87600 11.07300 26.96800
H  46.67600 10.22700 28.23500
H  46.32100 12.03800 28.33700
H  43.26500 11.77400 32.70200
H  43.06900 10.52900 36.62900
H  44.84400 10.29200 36.37000
H  43.55600 9.20000 35.80100

