158

Mg -0.43900 7.72900 27.66200
C  0.27400 9.89100 30.16200
C  -0.55300 5.03500 29.89300
C  -1.34500 5.78700 25.06000
C  0.13200 10.40100 25.38700
N  -0.05500 7.46300 29.74800
C  0.04100 8.53500 30.60200
C  -0.11500 8.06000 32.03600
C  0.17600 6.46700 31.88600
C  -0.26000 6.28100 30.42900
C  1.65400 5.97200 32.18400
C  -1.50400 8.48100 32.63700
C  -1.64400 8.57500 34.20000
H  -0.37900 8.43600 35.01200
N  -0.98300 5.71200 27.48100
C  -0.96600 4.75600 28.55500
C  -1.33700 3.45000 28.00600
C  -1.43900 3.66600 26.56500
C  -1.32100 5.08700 26.30100
C  -1.35200 2.14800 28.83400
C  -1.57200 2.60100 25.48900
O  -1.51700 2.87100 24.27900
C  -1.72800 1.16000 25.80400
N  -0.60000 8.05200 25.49800
C  -1.04600 7.04000 24.67700
C  -0.95300 7.51200 23.20900
C  -0.73100 9.07100 23.41900
C  -0.41500 9.25700 24.85600
C  0.08800 6.71000 22.36900
C  -1.85500 10.06000 22.92800
C  -1.58100 10.88400 21.64600
N  0.30400 9.72700 27.68900
C  0.47400 10.67300 26.73500
C  0.91800 11.92100 27.32500
C  0.83800 11.66200 28.72800
C  0.33400 10.31800 28.87200
C  1.30300 13.22600 26.69100
C  1.09400 12.13400 30.06600
O  1.49400 13.19700 30.39300
C  0.71000 11.00700 31.04400
C  1.90600 10.67200 31.88500
O  2.83900 9.99800 31.51400
O  1.80100 11.25600 33.13600
C  2.89900 11.05600 34.00900
H  -0.41000 4.19300 30.57300
H  -1.69000 5.21900 24.19400
H  0.33600 11.17800 24.64800
H  0.70600 8.51400 32.59200
H  -0.56000 5.91000 32.46600
H  2.07100 6.87900 32.62300
H  2.09600 5.63800 31.24500
H  1.60800 5.16300 32.91200
H  -2.12800 7.63400 32.35400
H  -1.86100 9.39200 32.15700
H  -2.46600 7.99800 34.62300
H  -2.06000 9.56600 34.37400
H  -0.62300 1.49700 28.35200
H  -2.36800 1.75300 28.81300
H  -1.04100 2.37100 29.85400
H  -2.55500 1.25700 26.50700
H  -0.77400 0.68700 26.03800
H  -2.18100 0.59100 24.99200
H  -1.91100 7.36500 22.71000
H  0.24600 9.31300 23.00000
H  -0.29600 6.18000 21.49700
H  0.59700 5.94600 22.95600
H  0.73600 7.43700 21.87900
H  -2.02200 10.84200 23.66800
H  -2.82900 9.57400 22.97500
H  -1.16600 11.85200 21.92600
H  -2.48300 10.83900 21.03500
H  -0.77700 10.39900 21.09200
H  1.39000 13.02400 25.62300
H  2.32800 13.51600 26.92000
H  0.54200 13.94600 26.99200
H  -0.16100 11.20600 31.66800
H  3.84600 10.85300 33.51000
H  2.56100 10.39000 34.80300
H  3.09700 12.05000 34.41100
Mg 26.44000 50.23000 26.34300
C  24.24900 51.24100 28.83900
C  28.79100 49.24300 28.86300
C  28.66300 49.55200 23.91700
C  24.21500 51.52100 24.01700
N  26.50500 50.26100 28.53500
C  25.39900 50.59100 29.35300
C  25.68100 50.28900 30.85400
C  27.22900 49.91500 30.84000
C  27.52700 49.71400 29.29500
C  28.17900 50.97700 31.43900
C  24.77400 49.12700 31.48500
C  24.22400 49.27600 32.89000
H  24.84000 50.15200 33.97100
N  28.39300 49.48800 26.39800
C  29.22600 49.14800 27.52300
C  30.52600 48.78200 27.00300
C  30.53500 49.07700 25.60000
C  29.16600 49.42400 25.25900
C  31.68300 48.35400 27.83300
C  31.65400 49.04000 24.47500
O  31.48600 49.22800 23.28700
C  32.97700 48.71200 24.98800
N  26.48900 50.59300 24.25700
C  27.40700 49.95800 23.45300
C  26.97400 49.95200 21.93800
C  25.45800 50.47200 22.06000
C  25.40300 50.94600 23.52900
C  27.87000 50.78600 20.94500
C  24.33200 49.46900 21.79400
C  23.30600 49.96600 20.75000
N  24.62900 51.20500 26.34500
C  23.77800 51.66500 25.36100
C  22.60800 52.21300 25.92700
C  22.71200 52.00800 27.28900
C  23.97500 51.45700 27.52600
C  21.51500 53.05900 25.30300
C  22.06000 52.25400 28.58200
O  21.06300 52.79900 28.81800
C  22.99700 51.66200 29.64300
C  23.33700 52.76700 30.69400
O  24.16800 53.61200 30.52600
O  22.41800 52.71200 31.72600
C  22.57400 53.71000 32.76700
H  29.44800 48.95800 29.68800
H  29.20600 49.15500 23.05700
H  23.45800 51.87600 23.31400
H  25.43700 51.14300 31.48500
H  27.32000 49.03300 31.47300
H  29.13700 50.62000 31.81600
H  27.58400 51.29700 32.29400
H  28.24300 51.76300 30.68600
H  25.35100 48.20500 31.42500
H  23.93600 48.95700 30.80900
H  24.13100 48.23400 33.19500
H  23.18200 49.59200 32.83900
H  32.04300 47.43900 27.36300
H  31.49600 48.12500 28.88200
H  32.41600 49.16100 27.80700
H  33.62700 49.00600 24.16400
H  33.24900 47.66000 25.08200
H  33.23800 49.28100 25.88000
H  26.90000 48.91100 21.62500
H  25.38500 51.35300 21.42200
H  28.59300 51.50300 21.33500
H  27.17500 51.24500 20.24200
H  28.49000 50.01700 20.48300
H  23.84100 49.18100 22.72400
H  24.84800 48.61400 21.35900
H  23.40700 49.27600 19.91300
H  23.49000 50.98100 20.39600
H  22.25300 49.88800 21.02100
H  21.79300 53.22400 24.26200
H  21.44400 54.02100 25.81000
H  20.52600 52.62500 25.44800
H  22.58100 50.89600 30.29700
H  23.57300 53.58100 33.18400
H  21.74800 53.72600 33.47700
H  22.71300 54.67700 32.28300

