158

Mg 2.23900 -3.04800 44.95900
C  5.36100 -1.82100 44.00600
C  0.76800 -0.73300 42.81300
C  -0.76700 -4.54700 45.64000
C  3.86000 -5.75900 46.49200
N  3.08400 -1.56700 43.31200
C  4.37600 -1.15400 43.33600
C  4.53800 0.02100 42.25700
C  3.10600 0.42100 42.11000
C  2.24600 -0.70000 42.75300
C  2.87400 1.72200 42.85400
C  5.33100 -0.56800 40.97600
C  6.69000 -0.03100 40.58700
H  7.08400 0.23000 39.15900
N  0.27300 -2.64100 44.35600
C  -0.12600 -1.71100 43.39500
C  -1.58600 -1.65500 43.50100
C  -2.05700 -2.76500 44.22000
C  -0.84500 -3.38300 44.84500
C  -2.36400 -0.63700 42.64700
C  -3.48500 -3.12700 44.51200
O  -4.43100 -2.57900 43.92100
C  -3.86000 -4.19400 45.56800
N  1.59300 -4.88500 46.01100
C  0.34600 -5.32000 46.07500
C  0.24800 -6.70600 46.61100
C  1.69800 -7.08400 46.79000
C  2.47000 -5.81300 46.47000
C  -0.75500 -6.89100 47.78200
C  2.17500 -8.20200 45.77200
C  3.19300 -9.19000 46.37100
N  4.12900 -3.68000 45.27000
C  4.64000 -4.75600 45.95700
C  6.08300 -4.69100 46.03800
C  6.43400 -3.52200 45.37400
C  5.19700 -3.02700 44.79400
C  7.00300 -5.56100 46.80800
C  7.55000 -2.65900 44.94800
O  8.78700 -2.77800 45.05500
C  6.87600 -1.49100 44.08900
C  7.11700 -0.25300 44.93200
O  6.33400 0.21400 45.72500
O  8.35300 0.26800 44.69400
C  8.67800 1.60300 45.22400
H  0.29300 0.17300 42.43000
H  -1.57600 -5.24600 45.86100
H  4.42900 -6.61400 46.86500
H  5.14000 0.78000 42.75600
H  2.83600 0.49000 41.05600
H  3.20200 1.66800 43.89200
H  1.80300 1.85500 42.69900
H  3.41600 2.53800 42.37800
H  4.69300 -0.33500 40.12400
H  5.51800 -1.64200 40.98900
H  7.40600 -0.75500 40.97600
H  6.97300 0.78100 41.25800
H  -2.81400 0.06300 43.35100
H  -3.17700 -1.12700 42.11200
H  -1.73800 -0.05900 41.96700
H  -3.70400 -5.15400 45.07600
H  -4.90900 -3.93100 45.70200
H  -3.28400 -3.98900 46.47000
H  -0.20300 -7.21200 45.75800
H  1.90300 -7.34400 47.82800
H  -1.27300 -5.96900 48.04500
H  -0.19800 -7.18600 48.67100
H  -1.44700 -7.63100 47.38100
H  2.68500 -7.89600 44.85800
H  1.36600 -8.85900 45.45100
H  2.77700 -10.16700 46.61700
H  3.68100 -8.77800 47.25500
H  3.89900 -9.31300 45.55000
H  7.66800 -6.10200 46.13400
H  6.57900 -6.22000 47.56700
H  7.63300 -4.87100 47.36900
H  7.41100 -1.38200 43.14600
H  7.82100 2.20300 45.53200
H  9.30500 2.16200 44.52900
H  9.30000 1.36800 46.08700
Mg -5.43100 25.58200 26.51600
C  -3.78000 26.77900 29.51700
C  -7.03700 23.22500 28.48500
C  -6.54900 24.08400 23.73900
C  -3.08500 27.18500 24.72800
N  -5.34400 25.11900 28.71300
C  -4.77800 25.84900 29.78100
C  -5.39200 25.37900 31.12500
C  -6.04500 24.05000 30.71700
C  -6.22300 24.16600 29.18300
C  -5.31800 22.76900 31.18000
C  -6.37100 26.43300 31.69300
C  -6.39300 26.63200 33.25500
H  -5.80000 25.54700 34.13700
N  -6.75400 23.94700 26.15800
C  -7.35400 23.14600 27.09600
C  -8.22900 22.15100 26.38300
C  -8.09800 22.38000 24.95600
C  -7.17000 23.58000 24.92400
C  -9.10800 21.16400 27.17400
C  -8.74300 21.61600 23.79400
O  -8.57600 21.81400 22.58800
C  -9.59700 20.43500 24.04700
N  -4.77000 25.50700 24.54800
C  -5.45600 24.87500 23.58500
C  -4.95100 25.19600 22.16100
C  -3.94200 26.35700 22.47300
C  -3.92000 26.38400 23.99500
C  -4.43900 23.95700 21.36600
C  -4.16900 27.78800 21.91300
C  -3.12300 28.48500 21.03100
N  -3.83900 26.85900 26.97000
C  -3.04900 27.44800 26.11400
C  -2.11700 28.31400 26.79200
C  -2.44900 28.13300 28.14200
C  -3.42000 27.18600 28.20200
C  -1.08800 29.23600 26.18500
C  -2.10200 28.52900 29.50300
O  -1.29200 29.39600 29.83200
C  -3.08900 27.80700 30.43400
C  -2.25200 27.08900 31.48200
O  -1.17900 26.54900 31.33800
O  -2.86400 27.15800 32.69400
C  -2.02000 26.79000 33.83900
H  -7.54600 22.53800 29.16400
H  -6.90900 23.65100 22.80400
H  -2.33400 27.81200 24.24300
H  -4.62100 25.05200 31.82200
H  -7.02400 24.00900 31.19500
H  -4.92000 22.24600 30.31000
H  -5.92300 22.13100 31.82300
H  -4.38900 22.93600 31.72600
H  -7.39800 26.27300 31.36700
H  -6.13600 27.40800 31.26700
H  -7.46100 26.63300 33.46900
H  -5.98700 27.59500 33.56900
H  -9.04500 20.14200 26.79900
H  -10.15700 21.45600 27.11600
H  -8.82500 21.04100 28.21900
H  -10.30500 20.63800 24.85200
H  -8.88000 19.68000 24.36900
H  -10.15100 20.20700 23.13600
H  -5.76100 25.61800 21.56700
H  -2.96000 26.00800 22.15300
H  -4.43300 23.04800 21.96900
H  -3.49000 24.16900 20.87300
H  -4.93900 23.89600 20.39900
H  -4.32200 28.45300 22.76400
H  -5.03900 27.65400 21.27100
H  -3.06300 29.55600 21.22200
H  -3.29600 28.41600 19.95700
H  -2.11400 28.09300 21.16500
H  -0.34800 28.62200 25.67200
H  -0.59700 29.82700 26.95800
H  -1.57400 29.90300 25.47200
H  -3.87800 28.34900 30.95500
H  -0.98700 27.12900 33.75400
H  -2.04300 25.71900 34.04200
H  -2.39100 27.43400 34.63600

