158

Mg 41.10200 7.34600 29.52400
C  42.75200 8.91800 32.19000
C  38.83700 6.05900 31.61300
C  39.87100 5.82400 26.80600
C  43.96300 8.25500 27.52500
N  40.87700 7.43700 31.64200
C  41.58500 8.22700 32.60500
C  40.95400 8.09400 33.98700
C  39.86600 6.96500 33.75600
C  39.91100 6.73700 32.24400
C  40.05500 5.68100 34.64700
C  40.34000 9.39100 34.51600
C  39.94400 9.35800 36.02000
H  40.31500 10.55600 36.98400
N  39.46900 6.23500 29.20600
C  38.64500 5.81400 30.19800
C  37.62100 4.98100 29.61600
C  37.75800 5.04400 28.21100
C  39.08300 5.67900 27.99600
C  36.59800 4.27300 30.51300
C  36.82700 4.52200 27.14300
O  36.98800 4.62800 25.95600
C  35.50500 3.91300 27.62000
N  41.82800 7.01400 27.45300
C  41.05400 6.45200 26.48800
C  41.75600 6.36400 25.12200
C  42.96200 7.31400 25.39000
C  42.95000 7.62800 26.87100
C  42.19200 4.91000 24.70100
C  42.82800 8.69800 24.51800
C  41.55600 9.56900 24.74000
N  42.96800 8.33500 29.81100
C  43.99200 8.67900 28.93100
C  45.09200 9.36500 29.55600
C  44.60600 9.58800 30.87300
C  43.38400 8.86900 30.94400
C  46.40500 9.63900 28.90900
C  44.84300 10.14600 32.17600
O  45.80500 10.87100 32.54800
C  43.56400 9.81000 33.11300
C  44.08300 9.07800 34.30800
O  44.67700 7.97300 34.31200
O  43.74100 9.83300 35.40800
C  44.06100 9.25500 36.70400
H  38.04100 5.78200 32.30800
H  39.34300 5.31500 25.99600
H  44.79100 8.45000 26.84000
H  41.64300 7.72900 34.74800
H  38.92900 7.47300 33.98400
H  41.04700 5.66900 35.09700
H  39.86700 4.76500 34.08600
H  39.30500 5.83500 35.42300
H  39.49600 9.68500 33.89200
H  41.01500 10.24500 34.46900
H  40.31300 8.44400 36.48300
H  38.88000 9.13300 36.09500
H  35.68600 4.86300 30.42000
H  36.85900 4.22800 31.57100
H  36.30300 3.27100 30.20200
H  35.60800 3.07200 28.30600
H  35.00300 3.45400 26.76900
H  34.88500 4.67200 28.09700
H  41.04500 6.83700 24.44400
H  43.86500 6.91500 24.92800
H  42.96400 4.95000 23.93200
H  41.34100 4.39500 24.25500
H  42.53300 4.32500 25.55500
H  42.86900 8.53200 23.44200
H  43.73300 9.13600 24.93800
H  40.90800 9.45300 23.87100
H  41.88100 10.58800 24.95000
H  41.02400 9.19300 25.61400
H  46.06200 9.80100 27.88700
H  47.12300 8.83800 29.08900
H  46.79900 10.56600 29.32600
H  43.08700 10.73900 33.42200
H  43.75900 8.20800 36.66200
H  43.44800 9.76500 37.44700
H  45.11500 9.39300 36.94900
Mg 48.03600 14.98000 28.58100
C  45.60500 14.83300 31.03400
C  50.03900 16.97600 30.42600
C  50.18300 15.30800 25.85700
C  45.92100 12.89500 26.57800
N  47.87200 15.86300 30.44300
C  46.79800 15.61900 31.39400
C  47.17100 16.20600 32.78800
C  48.51300 17.01900 32.49200
C  48.83400 16.67600 31.01900
C  48.27900 18.56100 32.56800
C  47.41000 15.13000 33.89400
C  46.73600 15.37100 35.25200
H  47.56000 15.67700 36.52000
N  49.91200 15.91600 28.14300
C  50.58500 16.66300 29.11400
C  51.84900 17.06000 28.55000
C  51.84500 16.70400 27.18000
C  50.60100 15.93900 27.05500
C  52.87500 17.78700 29.36200
C  52.95400 16.81500 26.15000
O  52.94500 16.33600 25.04300
C  54.22500 17.65900 26.43500
N  47.91100 14.36800 26.43700
C  48.99400 14.50600 25.59600
C  48.70500 13.78300 24.23800
C  47.30900 13.15400 24.48600
C  47.03000 13.43300 25.98100
C  48.61100 14.74100 23.00600
C  47.21100 11.64200 24.09600
C  48.05200 10.64800 24.97400
N  46.22400 13.97800 28.71500
C  45.40500 13.28100 27.79000
C  44.12000 13.00000 28.44300
C  44.21100 13.59200 29.69800
C  45.44300 14.22100 29.79000
C  42.99200 12.12300 27.93000
C  43.48400 13.80800 30.92700
O  42.36100 13.46000 31.18800
C  44.38700 14.66900 31.80400
C  43.75500 15.94900 32.08700
O  43.36900 16.76000 31.32300
O  43.87400 16.21700 33.40400
C  43.40300 17.53000 33.91200
H  50.62900 17.68700 31.00800
H  50.92900 15.46800 25.07600
H  45.27500 12.20700 26.02900
H  46.35400 16.87700 33.05400
H  49.34800 16.69400 33.11300
H  47.23500 18.87400 32.56000
H  48.82000 19.14300 31.82200
H  48.69200 18.76400 33.55600
H  48.48800 14.99800 33.98000
H  47.12300 14.13600 33.55100
H  46.14800 14.49300 35.52000
H  45.98300 16.15800 35.20300
H  52.46700 18.22900 30.27100
H  53.24900 18.65900 28.82600
H  53.73100 17.19300 29.68400
H  54.84800 17.29200 27.25100
H  53.92000 18.69100 26.60900
H  54.80400 17.67900 25.51200
H  49.45400 13.08700 23.85800
H  46.49300 13.63900 23.95000
H  49.42500 14.55300 22.30600
H  48.71100 15.81100 23.18800
H  47.68300 14.59500 22.45200
H  47.48600 11.61900 23.04200
H  46.15800 11.36400 24.08700
H  48.48100 11.16800 25.83100
H  48.81200 10.23700 24.31000
H  47.45100 9.86500 25.43800
H  43.36900 11.47300 27.14000
H  42.18100 12.71700 27.50800
H  42.73200 11.43900 28.73800
H  44.63300 14.05500 32.67000
H  43.15000 17.25000 34.93500
H  42.52400 17.86600 33.36200
H  44.19300 18.27700 33.99500

