158

Mg 49.87700 35.33900 27.32800
C  47.75800 34.11300 29.70000
C  49.98400 38.47000 29.10200
C  51.62200 36.69900 24.79700
C  48.88100 32.77500 25.17100
N  49.10400 36.10500 29.23200
C  48.33300 35.35600 30.07300
C  48.25700 36.10800 31.46500
C  48.55800 37.58200 31.11500
C  49.30900 37.39900 29.77200
C  47.34800 38.55900 31.13400
C  49.27700 35.44500 32.49600
C  48.65600 34.92300 33.76800
H  49.10000 35.74400 35.04400
N  50.87400 37.26500 27.08700
C  50.79300 38.32000 27.89500
C  51.52700 39.45700 27.23500
C  52.14800 38.91900 26.05500
C  51.56800 37.56700 25.91800
C  51.64600 40.85100 27.88900
C  53.13400 39.57600 25.13400
O  53.65800 38.90200 24.24000
C  53.50300 40.94500 25.43400
N  49.97900 34.96000 25.13700
C  50.94200 35.59600 24.42400
C  51.26300 34.85100 23.10400
C  50.47900 33.49400 23.29000
C  49.73100 33.75800 24.64700
C  50.95700 35.68700 21.88100
C  51.27000 32.19200 23.45300
C  51.76900 31.65000 22.01800
N  48.69900 33.62100 27.40500
C  48.32000 32.75200 26.44800
C  47.28700 31.82400 26.99300
C  47.04200 32.31000 28.27300
C  47.94900 33.43900 28.49600
C  46.72700 30.67200 26.17600
C  46.25700 32.15000 29.50500
O  45.47400 31.29400 29.90800
C  46.66200 33.41200 30.42100
C  46.99700 32.79400 31.72200
O  48.07400 32.21700 31.97200
O  45.88500 32.93300 32.51400
C  45.93000 32.28200 33.84100
H  50.05000 39.46900 29.53800
H  52.26000 37.01500 23.96900
H  48.69200 31.81300 24.69000
H  47.26400 35.91500 31.87200
H  49.27100 38.07100 31.78000
H  46.39400 38.09300 31.38200
H  47.13400 38.96200 30.14400
H  47.61300 39.34500 31.84000
H  50.01500 36.20400 32.75600
H  49.74300 34.61300 31.96800
H  49.10000 33.93400 33.88200
H  47.57400 34.79100 33.77600
H  52.49800 40.93900 28.56400
H  50.72700 40.99600 28.45700
H  51.58700 41.58300 27.08300
H  54.43700 40.94900 24.87300
H  53.79300 40.92400 26.48400
H  52.65500 41.53000 25.07500
H  52.32500 34.71900 23.31400
H  49.79000 33.22500 22.48900
H  51.79200 35.99300 21.25000
H  50.32000 36.55100 22.07500
H  50.41100 34.99500 21.24000
H  50.71100 31.42300 23.98500
H  52.06000 32.29700 24.19700
H  51.34600 30.66200 21.83700
H  52.85700 31.58500 21.98900
H  51.38600 32.30300 21.23400
H  46.08500 31.08600 25.39900
H  46.08200 30.00100 26.74500
H  47.54000 30.01900 25.85900
H  45.79300 34.06100 30.52500
H  45.65500 33.07400 34.53800
H  46.92100 31.93700 34.13600
H  45.20400 31.49100 33.65000
Mg 17.16900 51.42800 26.43900
C  19.10900 49.88500 28.94100
C  14.86100 52.04900 28.84200
C  15.45100 52.57800 23.96100
C  19.59600 50.20300 24.11200
N  17.00000 50.84700 28.65100
C  17.97100 50.34300 29.42400
C  17.57200 50.33500 30.95500
C  16.08200 50.84300 30.85000
C  15.98300 51.32300 29.36200
C  15.03300 49.77200 31.18500
C  18.56100 51.26600 31.79400
C  18.84400 51.16600 33.24600
H  17.86900 50.30000 34.09600
N  15.38600 52.28900 26.38400
C  14.55500 52.39900 27.44200
C  13.31100 52.99200 26.97300
C  13.50900 53.33700 25.57800
C  14.85100 52.71200 25.17800
C  12.08900 53.40200 27.82300
C  12.61400 54.14100 24.56000
O  12.86500 54.15900 23.35500
C  11.38000 54.85300 24.93600
N  17.43700 51.31700 24.30700
C  16.54000 51.91700 23.51200
C  17.06000 51.94800 22.10700
C  18.48400 51.38100 22.19700
C  18.56100 50.96000 23.60400
C  16.19300 51.07700 21.14800
C  19.60100 52.36400 21.74900
C  19.80000 53.57500 22.69100
N  18.96900 50.35500 26.47300
C  19.81300 49.91900 25.47500
C  21.00400 49.30500 26.02300
C  20.74100 49.32200 27.36800
C  19.49600 49.95000 27.59200
C  22.18400 48.83400 25.31300
C  21.34800 48.98000 28.67300
O  22.38400 48.35900 28.90800
C  20.27700 49.29400 29.73000
C  19.95500 48.02000 30.46000
O  19.51800 46.98400 29.97800
O  20.47500 48.05500 31.69900
C  19.96500 47.07400 32.70600
H  14.08900 52.35800 29.54900
H  14.97300 53.14800 23.16200
H  20.34000 49.90700 23.37000
H  17.53400 49.32400 31.36000
H  15.91000 51.82200 31.29700
H  14.39600 50.27700 31.91200
H  15.38300 48.90800 31.75000
H  14.44900 49.35100 30.36700
H  18.22000 52.26700 31.52800
H  19.57700 51.28400 31.40000
H  18.73000 52.16700 33.66300
H  19.84200 50.79700 33.48100
H  11.85300 54.46300 27.73800
H  12.33400 53.24900 28.87400
H  11.21700 52.81500 27.53400
H  11.57600 55.72800 25.55600
H  10.74300 54.09300 25.38900
H  10.96100 55.21500 23.99800
H  17.05700 52.93100 21.63700
H  18.65800 50.48700 21.59900
H  15.23700 50.93500 21.65200
H  16.53000 50.04400 21.05400
H  16.06400 51.61900 20.21200
H  19.57200 52.62200 20.69000
H  20.51600 51.77400 21.80600
H  20.80500 53.50900 23.10700
H  19.07400 53.67200 23.49800
H  19.81000 54.50700 22.12400
H  23.01800 49.53400 25.35700
H  21.80800 48.48300 24.35200
H  22.51900 47.88200 25.72500
H  20.81800 49.97100 30.39100
H  20.54600 46.15200 32.72500
H  18.94500 46.76900 32.47200
H  20.05700 47.61200 33.65000

