158

Mg 8.68500 2.99500 27.69400
C  9.81900 1.60500 30.34500
C  6.76100 5.23000 29.42500
C  7.21500 4.08700 24.65000
C  10.19300 0.44700 25.63800
N  8.16900 3.26000 29.66300
C  8.85500 2.61300 30.63300
C  8.49200 3.22000 32.01200
C  7.45800 4.33400 31.71000
C  7.33100 4.25800 30.19500
C  6.07600 4.19800 32.37000
C  9.83400 3.82400 32.71300
C  10.21500 3.39600 34.12600
H  10.58600 4.40000 35.25700
N  7.25700 4.39800 27.13800
C  6.64800 5.35400 28.01400
C  5.96800 6.34400 27.25600
C  6.04800 5.99100 25.88400
C  6.88900 4.76500 25.87300
C  5.24500 7.49000 27.95100
C  5.36000 6.69100 24.72700
O  5.34800 6.25500 23.59900
C  4.72100 8.07400 24.93200
N  8.59000 2.21800 25.38100
C  8.03200 2.93200 24.42000
C  8.38700 2.47900 23.02200
C  9.45700 1.39400 23.30100
C  9.41800 1.34100 24.84800
C  7.06600 2.04600 22.11300
C  10.78600 1.56600 22.60700
C  10.82700 0.96000 21.16200
N  9.78200 1.21900 27.93800
C  10.37300 0.42100 27.04200
C  11.16100 -0.55100 27.83100
C  11.08400 -0.04700 29.22600
C  10.16900 1.01500 29.13800
C  11.94100 -1.65200 27.31900
C  11.40500 -0.24300 30.63900
O  12.19300 -0.98500 31.21200
C  10.60600 0.86900 31.43600
C  9.84200 0.11700 32.50600
O  8.78800 -0.45600 32.34000
O  10.45000 0.20600 33.76400
C  9.74100 -0.19600 34.93300
H  6.12400 5.86200 30.04800
H  6.95900 4.58100 23.71100
H  10.78600 -0.25300 25.04500
H  8.11500 2.43100 32.66200
H  7.89200 5.30700 31.93900
H  6.10300 3.54300 33.24000
H  5.27600 3.80400 31.74300
H  5.84600 5.21100 32.70000
H  9.83300 4.91300 32.66300
H  10.64000 3.61300 32.01100
H  11.08100 2.74000 34.03800
H  9.42800 2.69600 34.40800
H  5.19200 7.52200 29.03900
H  4.17800 7.45900 27.72800
H  5.58400 8.40900 27.47300
H  5.44800 8.78300 25.32700
H  3.74100 8.00200 25.40400
H  4.51900 8.51600 23.95700
H  8.74600 3.29500 22.39500
H  8.97200 0.46100 23.01200
H  7.12700 1.13400 21.52000
H  6.88300 2.83000 21.37800
H  6.23700 1.94600 22.81400
H  11.48000 1.07200 23.28600
H  10.87500 2.65000 22.67600
H  11.09600 1.84700 20.58900
H  9.87700 0.56600 20.80000
H  11.58500 0.18400 21.05400
H  11.62400 -1.91200 26.30900
H  11.58200 -2.45400 27.96400
H  13.01900 -1.49300 27.31200
H  11.30800 1.58000 31.87100
H  9.86100 0.71600 35.51800
H  10.10800 -1.03100 35.53000
H  8.71500 -0.41900 34.64000
Mg 9.91400 47.36500 26.13500
C  7.85700 47.60000 29.02000
C  12.49100 48.87300 27.83400
C  11.77900 47.20000 23.35700
C  7.08000 46.52500 24.31200
N  10.15700 48.08600 28.26700
C  9.16400 48.09100 29.25400
C  9.86600 48.61000 30.60800
C  11.09800 49.43400 30.07100
C  11.29800 48.81200 28.61300
C  10.93200 50.98500 30.05300
C  10.32800 47.33900 31.43900
C  10.69400 47.52200 32.95000
H  10.39700 46.43800 34.01400
N  11.93700 47.75900 25.74500
C  12.81000 48.37500 26.60100
C  14.07200 48.56700 25.88200
C  13.83000 48.01000 24.58800
C  12.48400 47.61800 24.49900
C  15.31000 49.18400 26.53300
C  14.84700 47.81300 23.40500
O  14.60900 47.18600 22.32000
C  16.21500 48.30600 23.56000
N  9.52600 46.91700 24.08200
C  10.42200 46.95800 23.14000
C  9.82200 46.57500 21.70700
C  8.31200 46.40100 22.09900
C  8.31100 46.62100 23.58000
C  9.96000 47.69600 20.71900
C  7.58800 45.12300 21.56400
C  6.05700 45.22600 21.25100
N  7.81500 47.12200 26.51100
C  6.79500 46.71700 25.66300
C  5.62500 46.50100 26.45100
C  5.97600 46.82000 27.78800
C  7.28700 47.24100 27.73900
C  4.25100 46.16700 25.80500
C  5.45900 46.96800 29.15200
O  4.35600 46.73800 29.61600
C  6.69300 47.38200 30.05500
C  6.98100 46.21500 30.91500
O  7.36200 45.14600 30.48300
O  6.75000 46.52600 32.23700
C  6.97300 45.44800 33.20000
H  13.25600 49.42500 28.38400
H  12.18400 47.29100 22.34600
H  6.21100 46.20000 23.73500
H  9.21400 49.27100 31.17900
H  12.00700 49.25700 30.64500
H  11.16900 51.48700 29.11500
H  11.59900 51.44400 30.78200
H  10.00100 51.33100 30.50100
H  11.21500 46.99100 30.91000
H  9.65100 46.49400 31.31100
H  10.26900 48.47600 33.26300
H  11.77600 47.62900 33.03100
H  15.12500 49.69200 27.48000
H  15.91200 49.87400 25.94300
H  15.91100 48.32800 26.83900
H  16.28200 49.35000 23.87000
H  16.76100 48.29000 22.61700
H  16.64200 47.63500 24.30600
H  10.16200 45.57600 21.43500
H  7.74900 47.26900 21.75600
H  10.12300 48.62300 21.26900
H  9.07300 47.88100 20.11200
H  10.86100 47.50300 20.13700
H  7.64800 44.38100 22.36000
H  8.13800 44.66500 20.74100
H  5.50300 46.12800 21.51000
H  5.52600 44.44100 21.79000
H  5.91300 44.94800 20.20600
H  4.22300 45.41700 25.01500
H  3.88100 47.14300 25.48900
H  3.72000 45.81100 26.68700
H  6.47100 48.24900 30.67800
H  6.80500 44.42700 32.85800
H  6.28500 45.68600 34.01100
H  7.99100 45.45600 33.58900

