158

Mg 52.47300 24.19900 44.47200
C  49.75600 26.34200 44.02600
C  50.27600 21.52700 44.11400
C  55.13300 22.26600 43.90600
C  54.51900 27.05100 44.81900
N  50.31500 23.99400 43.83700
C  49.41000 25.04200 43.75000
C  47.97400 24.48600 43.59900
C  48.13200 22.98300 43.91000
C  49.71000 22.78200 44.01200
C  47.40100 22.30300 45.11800
C  47.17700 24.71300 42.26900
C  47.95700 24.58500 40.95000
H  47.40700 25.21400 39.72500
N  52.68100 22.10300 44.16400
C  51.65700 21.20600 44.29800
C  52.25100 19.90900 44.31400
C  53.68800 20.00100 44.22900
C  53.88300 21.48600 44.04100
C  51.40600 18.61800 44.58000
C  54.70700 18.90800 44.38500
O  54.39400 17.74800 44.58900
C  56.12600 19.30000 44.36000
N  54.46800 24.64000 44.30100
C  55.37200 23.62400 44.12700
C  56.82200 24.27800 43.94200
C  56.60800 25.81300 44.25100
C  55.10500 25.84800 44.42600
C  57.94100 23.50700 44.71800
C  57.20000 26.93300 43.30900
C  57.75100 28.22600 43.96700
N  52.21300 26.22800 44.50100
C  53.12800 27.25500 44.89400
C  52.35600 28.47400 45.11900
C  51.06900 28.11800 44.80000
C  51.05400 26.78400 44.37200
C  52.68500 29.75300 45.75300
C  49.71200 28.69000 44.79100
O  49.26000 29.68700 45.25500
C  48.84200 27.62700 44.11900
C  48.30000 28.06200 42.83200
O  48.89100 28.01400 41.74100
O  47.05100 28.54200 42.97700
C  46.40600 29.10800 41.80500
H  49.56300 20.71200 44.25300
H  56.02000 21.73000 43.56100
H  55.14600 27.93000 44.98100
H  47.43300 24.90900 44.44600
H  47.84200 22.31600 43.09900
H  47.15300 21.31600 44.72600
H  46.45600 22.76800 45.39900
H  48.05700 22.30000 45.98800
H  46.55900 25.60700 42.35800
H  46.49000 23.86800 42.29800
H  47.82000 23.54000 40.67400
H  48.96500 24.84600 41.27100
H  51.35100 17.86400 43.79500
H  50.45400 18.96800 44.97900
H  51.75700 18.01000 45.41300
H  56.67900 18.40200 44.63600
H  56.25700 20.04200 45.14800
H  56.48000 19.71800 43.41800
H  57.19000 24.17000 42.92200
H  57.08400 25.98300 45.21600
H  58.72000 24.23300 44.95200
H  58.22500 22.62300 44.14700
H  57.57400 23.12100 45.66900
H  56.34700 27.22300 42.69700
H  57.97900 26.51900 42.66900
H  57.86700 28.13300 45.04700
H  57.04400 29.02700 43.75300
H  58.63700 28.55200 43.42200
H  52.31300 30.63400 45.23100
H  53.76800 29.84000 45.84700
H  52.37800 29.80200 46.79700
H  47.94800 27.44900 44.71600
H  45.35300 29.31800 41.99300
H  46.41900 28.46900 40.92200
H  46.98000 29.95700 41.43500
Mg -8.42900 40.11000 42.90800
C  -7.40500 36.86900 42.06400
C  -5.61400 41.26100 41.24700
C  -9.71500 43.23800 43.12000
C  -11.38800 38.79500 44.12200
N  -6.75800 39.15000 41.67500
C  -6.52300 37.80500 41.54100
C  -5.26000 37.58800 40.73300
C  -4.48500 38.93200 40.84700
C  -5.69400 39.83400 41.26000
C  -3.26000 38.82500 41.87700
C  -5.57600 37.15500 39.26900
C  -5.28700 35.74700 38.72000
H  -4.19400 35.55600 37.64600
N  -7.74900 41.98100 42.39600
C  -6.53300 42.25800 41.66300
C  -6.38300 43.67100 41.45100
C  -7.45900 44.24500 42.08500
C  -8.41700 43.13200 42.57800
C  -5.17900 44.29500 40.73300
C  -7.68300 45.71600 42.12500
O  -7.01100 46.47500 41.51600
C  -8.76400 46.34700 42.96600
N  -10.36900 40.88900 43.45900
C  -10.59800 42.23200 43.55100
C  -12.03800 42.48300 44.06100
C  -12.48000 41.02700 44.49000
C  -11.39500 40.18700 43.97600
C  -12.15600 43.54800 45.23500
C  -13.93000 40.61900 44.08500
C  -14.02900 40.28200 42.57900
N  -9.25900 38.20900 43.09300
C  -10.45600 37.81500 43.73000
C  -10.55100 36.38200 43.66500
C  -9.38200 36.00700 43.04700
C  -8.61100 37.11300 42.69900
C  -11.77500 35.67000 44.17800
C  -8.50800 34.82200 42.71300
O  -8.73400 33.63700 42.91700
C  -7.28300 35.36100 41.89200
C  -6.02600 34.85300 42.47600
O  -5.37800 35.30600 43.44200
O  -5.66100 33.73300 41.83800
C  -4.41000 33.04900 42.19500
H  -4.67200 41.62000 40.82700
H  -10.09600 44.25300 43.25200
H  -12.30400 38.37400 44.54200
H  -4.68900 36.80500 41.23300
H  -4.11400 39.26900 39.88000
H  -3.12900 39.68400 42.53400
H  -2.41800 38.71000 41.19400
H  -3.29300 37.92600 42.49300
H  -5.09700 37.82700 38.55700
H  -6.66000 37.23500 39.18800
H  -6.17400 35.23700 38.34300
H  -4.92700 35.33300 39.66300
H  -5.39700 45.24500 40.24500
H  -4.74100 43.67500 39.95100
H  -4.39100 44.36400 41.48300
H  -8.51800 47.39800 43.12200
H  -8.90500 45.91600 43.95800
H  -9.66000 46.20100 42.36200
H  -12.61800 42.80000 43.19400
H  -12.33800 40.85600 45.55700
H  -11.28000 44.19500 45.19200
H  -12.17900 43.03400 46.19600
H  -12.98300 44.25000 45.13600
H  -14.60300 41.44800 44.30200
H  -14.17600 39.70600 44.62900
H  -13.87300 39.21600 42.41500
H  -13.49200 40.98400 41.94100
H  -15.09500 40.37300 42.37000
H  -11.32600 34.68300 44.28600
H  -12.61000 35.77700 43.48600
H  -12.05000 36.07200 45.15400
H  -7.23400 35.08000 40.84000
H  -3.56600 33.69700 42.43000
H  -4.13200 32.30500 41.44900
H  -4.56300 32.38900 43.04900

