158

Mg 43.82100 4.11100 48.06400
C  41.74700 6.74000 47.08800
C  41.17500 1.91500 47.66200
C  45.85400 1.41600 48.85400
C  46.46000 6.17000 48.22400
N  41.74900 4.34900 47.39800
C  41.03900 5.54100 47.06600
C  39.64400 5.24200 46.44300
C  39.45000 3.70200 46.90300
C  40.90800 3.24600 47.37300
C  38.38500 3.49200 48.02400
C  39.76000 5.43200 44.87500
C  38.51800 6.10100 44.15900
H  38.12400 5.62800 42.75100
N  43.54300 1.92400 48.27100
C  42.34600 1.30100 48.20100
C  42.51900 -0.06600 48.51900
C  43.85500 -0.24800 48.70700
C  44.48400 1.08900 48.65900
C  41.47000 -1.16500 48.43100
C  44.49100 -1.61700 49.03400
O  43.80200 -2.65500 48.80600
C  45.81500 -1.79700 49.49400
N  45.96800 3.75900 48.23700
C  46.52300 2.58100 48.58200
C  48.02300 2.80200 48.73700
C  48.20700 4.34900 48.80100
C  46.76800 4.80000 48.46200
C  48.71400 2.16100 50.00100
C  49.26100 5.05800 47.83600
C  50.11700 6.16200 48.42600
N  44.09800 6.03500 47.64900
C  45.27100 6.74700 47.82400
C  45.05800 8.13300 47.39700
C  43.65700 8.17100 47.15600
C  43.11100 6.83200 47.32200
C  46.09300 9.29900 47.32700
C  42.53000 9.03400 46.79500
O  42.44700 10.24000 46.52200
C  41.21800 8.15400 46.65500
C  40.21700 8.67800 47.53000
O  40.01900 8.30600 48.66200
O  39.36800 9.57300 46.85200
C  38.13600 9.95700 47.63500
H  40.24700 1.33800 47.65800
H  46.46200 0.56100 49.15800
H  47.32000 6.83100 48.35300
H  38.95200 5.94900 46.90200
H  39.12900 3.07900 46.06800
H  38.85700 3.05800 48.90500
H  37.62000 2.96400 47.45500
H  37.96500 4.44600 48.34300
H  39.98100 4.43400 44.49600
H  40.67100 5.97500 44.62400
H  38.61600 7.18600 44.18400
H  37.67200 5.87800 44.80800
H  41.49400 -1.85700 49.27300
H  41.72800 -1.63800 47.48300
H  40.45900 -0.78100 48.29900
H  46.54400 -1.48200 48.74800
H  45.93900 -2.85800 49.71000
H  45.93400 -1.21100 50.40500
H  48.51000 2.51700 47.80500
H  48.35700 4.66500 49.83300
H  49.25500 2.97900 50.47700
H  49.44700 1.43000 49.66000
H  47.97600 1.80900 50.72200
H  48.69000 5.49300 47.01600
H  49.90000 4.25100 47.47700
H  49.95000 6.33900 49.48800
H  49.88700 7.06200 47.85700
H  51.18900 5.97100 48.36500
H  45.80500 9.96100 48.14400
H  45.97500 9.79200 46.36200
H  47.14900 9.07400 47.47600
H  40.89600 8.14100 45.61400
H  37.36600 10.18300 46.89600
H  38.22900 10.89000 48.19000
H  37.63200 9.11600 48.11300
Mg 35.95600 1.10800 29.61400
C  33.87100 2.14800 32.36200
C  38.67800 1.15800 31.62800
C  37.69000 0.49000 26.86700
C  33.10800 1.62400 27.57000
N  36.19100 1.33800 31.77400
C  35.19800 1.84600 32.73000
C  35.80400 1.79500 34.15900
C  37.41900 1.68200 33.83300
C  37.43800 1.29900 32.35700
C  38.37900 2.89000 34.18200
C  35.34200 0.66400 35.09800
C  35.10200 0.89500 36.58700
H  35.57200 2.19800 37.27900
N  37.83300 0.80200 29.28400
C  38.81300 0.92300 30.24300
C  40.11500 0.78800 29.58100
C  39.89000 0.43400 28.24900
C  38.38500 0.48900 28.07600
C  41.44300 0.75700 30.23100
C  40.85200 -0.07200 27.21000
O  40.46500 -0.41600 26.07200
C  42.36500 -0.23800 27.44600
N  35.43900 0.90100 27.52100
C  36.35200 0.74100 26.55900
C  35.74200 0.84100 25.14400
C  34.26500 0.84300 25.48000
C  34.24800 1.03400 26.95800
C  36.35600 2.05400 24.29800
C  33.53300 -0.50100 24.97600
C  32.73100 -0.44100 23.65100
N  33.96200 1.76500 29.89800
C  32.95200 1.95600 28.93100
C  31.76200 2.45800 29.57900
C  32.06300 2.51000 30.95200
C  33.39300 2.14800 31.04400
C  30.44200 2.74800 28.81100
C  31.55300 2.91500 32.29000
O  30.54400 3.35200 32.74900
C  32.74300 2.66300 33.23100
C  32.94200 3.96200 33.96000
O  33.25500 5.02300 33.46600
O  32.58500 3.82400 35.26300
C  32.28200 5.14100 35.98600
H  39.57900 1.21900 32.24300
H  38.35400 0.23500 26.03900
H  32.21300 1.65100 26.94500
H  35.52300 2.77900 34.53300
H  37.82900 0.76300 34.25200
H  38.70400 3.42900 33.29200
H  39.34800 2.64800 34.62000
H  37.69600 3.54600 34.72200
H  35.97800 -0.21700 35.01200
H  34.37000 0.40400 34.67900
H  35.44600 0.04400 37.17400
H  34.02400 0.99300 36.71800
H  41.61900 1.46700 31.03900
H  42.19600 1.05600 29.50100
H  41.73900 -0.24800 30.53200
H  42.84900 0.73800 27.41400
H  42.69100 -0.81500 26.58100
H  42.74000 -0.85900 28.26000
H  35.88500 -0.10200 24.61700
H  33.80100 1.71200 25.01200
H  36.63400 2.90700 24.91900
H  35.50700 2.26100 23.64700
H  37.19600 1.63100 23.74800
H  32.79300 -0.81900 25.71100
H  34.25000 -1.31200 24.85000
H  31.69600 -0.71100 23.86000
H  33.12300 -1.23500 23.01600
H  32.81900 0.53600 23.17600
H  30.24600 2.10700 27.95200
H  30.42900 3.80500 28.54600
H  29.74500 2.61300 29.63800
H  32.50200 1.91300 33.98500
H  31.39000 5.64000 35.60800
H  33.10300 5.83900 36.14900
H  31.99900 4.82600 36.99100

