158

Mg 47.23600 35.53100 28.45900
C  45.54600 33.65500 31.10000
C  47.36900 38.08200 30.70000
C  48.03900 37.44400 25.89300
C  46.49600 32.88200 26.25200
N  46.42200 35.85100 30.71700
C  46.03900 34.88800 31.55300
C  46.24100 35.35800 33.00200
C  46.35200 36.93600 32.72600
C  46.83500 36.97000 31.36500
C  45.02700 37.64600 32.95500
C  47.39400 34.75400 33.75100
C  47.22600 34.67500 35.31100
H  46.00600 35.44900 35.90500
N  47.67300 37.49800 28.25700
C  47.77100 38.39600 29.36300
C  48.36000 39.64000 28.89100
C  48.60300 39.43800 27.49400
C  48.20000 38.09700 27.16300
C  48.68800 40.78800 29.73300
C  49.34300 40.43700 26.50500
O  49.64200 40.11200 25.41100
C  49.76200 41.82900 26.96000
N  47.19300 35.18900 26.35900
C  47.61200 36.18000 25.52400
C  47.43000 35.70000 24.05500
C  47.16200 34.24000 24.19800
C  47.00500 34.07700 25.69400
C  46.28000 36.54400 23.47300
C  48.20300 33.25000 23.60100
C  47.54500 32.15700 22.73200
N  46.37000 33.58900 28.61900
C  46.20100 32.63700 27.64900
C  45.64800 31.42600 28.26100
C  45.35100 31.76900 29.56600
C  45.73700 33.13800 29.72300
C  45.23100 30.24300 27.55000
C  44.77900 31.30200 30.85800
O  44.27000 30.20000 31.08300
C  44.84100 32.46600 31.82800
C  45.46500 31.99100 33.08200
O  46.65500 31.69800 33.20300
O  44.50900 31.66300 34.07900
C  44.99400 31.12500 35.35400
H  47.42900 39.00700 31.27700
H  48.29500 38.13600 25.08800
H  46.23700 32.03300 25.61700
H  45.38200 35.00600 33.57300
H  47.12000 37.40400 33.34300
H  45.07200 38.10900 33.94100
H  44.18200 36.95900 32.97900
H  44.97900 38.44200 32.21100
H  48.24600 35.38200 33.49200
H  47.74200 33.77200 33.43100
H  48.10700 35.19100 35.69200
H  47.20100 33.63800 35.64500
H  48.05700 41.63300 29.45700
H  49.76100 40.97700 29.76200
H  48.54800 40.63000 30.80300
H  49.06900 42.34000 27.62700
H  49.93600 42.40500 26.05100
H  50.72900 41.68800 27.44200
H  48.34700 35.97400 23.53400
H  46.23400 33.91700 23.72600
H  46.04100 37.21700 24.29500
H  45.33400 36.01700 23.34600
H  46.64300 37.01100 22.55700
H  48.76500 32.70200 24.35700
H  48.96900 33.68800 22.96100
H  46.55000 32.42700 22.37700
H  47.53100 31.20200 23.25600
H  48.15000 32.03700 21.83300
H  46.05100 29.94300 26.89800
H  44.34200 30.37300 26.93200
H  45.05300 29.36200 28.16600
H  43.78900 32.62700 32.06000
H  45.95000 31.56100 35.64500
H  45.04400 30.04700 35.50600
H  44.27800 31.49800 36.08600
Mg -9.50000 18.30800 42.93000
C  -5.97700 17.58300 42.80900
C  -8.85300 21.46900 41.75300
C  -12.88300 18.85900 42.69800
C  -9.98800 14.90900 43.28700
N  -7.56900 19.31400 42.34100
C  -6.24700 18.90800 42.49400
C  -5.30100 20.03500 42.13100
C  -6.24600 21.29300 41.81000
C  -7.64600 20.68000 41.95100
C  -5.95900 22.50000 42.68300
C  -4.45800 19.79100 40.84500
C  -4.97800 18.73700 39.81500
H  -4.71700 19.06500 38.34500
N  -10.74400 19.89000 42.27100
C  -10.26800 21.13100 41.85700
C  -11.41200 22.05600 41.55600
C  -12.58400 21.28400 41.72900
C  -12.13200 19.89500 42.21900
C  -11.23900 23.63600 41.26500
C  -14.00600 21.75600 41.46000
O  -14.25700 22.94400 41.16200
C  -15.22000 20.89600 41.54800
N  -11.18000 17.02100 42.93000
C  -12.41900 17.56300 42.98600
C  -13.36300 16.45400 43.42900
C  -12.50500 15.12700 43.24400
C  -11.11100 15.70000 43.12500
C  -14.08300 16.64800 44.74500
C  -12.94000 14.23900 41.95900
C  -12.72300 12.71300 42.16200
N  -8.28000 16.60300 43.07200
C  -8.66200 15.30200 43.24700
C  -7.49900 14.40000 43.30700
C  -6.44100 15.30200 43.18200
C  -6.95100 16.60000 43.07700
C  -7.57500 12.86900 43.39400
C  -4.96900 15.42700 43.28600
O  -4.14700 14.52700 43.37300
C  -4.63700 16.88600 42.95200
C  -3.70500 17.34000 43.98800
O  -2.51100 17.53100 43.88300
O  -4.38200 17.37500 45.15600
C  -3.49600 17.29100 46.39500
H  -8.73200 22.53800 41.56200
H  -13.97200 18.93000 42.74500
H  -10.25800 13.90300 43.61400
H  -4.66900 20.15400 43.01100
H  -6.20300 21.76100 40.82600
H  -6.82200 22.69300 43.32100
H  -5.59100 23.29800 42.03900
H  -5.12700 22.37100 43.37600
H  -3.49500 19.51700 41.27600
H  -4.19500 20.71300 40.32700
H  -6.04700 18.74500 40.02600
H  -4.59700 17.75100 40.08100
H  -11.82300 23.90200 40.38400
H  -10.25800 23.96600 40.92500
H  -11.51600 24.30600 42.07900
H  -15.45300 20.68500 42.59100
H  -14.84800 20.01600 41.02300
H  -16.08300 21.33000 41.04200
H  -14.09200 16.48700 42.61900
H  -12.55000 14.55000 44.16800
H  -13.94100 17.61100 45.23500
H  -13.78100 15.88300 45.46100
H  -15.14300 16.43600 44.61000
H  -12.33300 14.54200 41.10600
H  -13.97700 14.33100 41.63900
H  -12.35900 12.35200 43.12400
H  -11.79400 12.38000 41.70000
H  -13.58300 12.14700 41.80300
H  -6.63400 12.58500 43.86600
H  -7.59500 12.38500 42.41800
H  -8.41200 12.55900 44.02000
H  -4.12900 16.86200 41.98800
H  -2.87800 18.18900 46.36800
H  -3.07700 16.28900 46.48400
H  -4.06600 17.37900 47.31900

