158

Mg 47.63700 16.11900 28.98900
C  45.54300 15.96000 31.71000
C  49.60400 18.25000 30.90400
C  49.70000 16.49200 26.35400
C  45.18100 14.67200 26.96200
N  47.65700 16.88300 31.07300
C  46.65900 16.66200 31.99100
C  46.95600 17.26300 33.38300
C  48.07000 18.30400 32.94400
C  48.46600 17.87900 31.54700
C  47.61200 19.79400 32.83300
C  47.44700 16.18200 34.37600
C  47.49900 16.62500 35.81100
H  47.26400 18.12700 36.30900
N  49.41200 17.12300 28.72700
C  50.03600 17.96600 29.56100
C  51.31700 18.39800 29.08300
C  51.44800 17.80500 27.75100
C  50.18700 17.09400 27.54800
C  52.45600 19.10200 29.87700
C  52.64300 17.74100 26.79000
O  52.63900 17.11300 25.75100
C  53.86600 18.49300 27.15800
N  47.51100 15.63300 26.95100
C  48.46000 15.85400 26.05000
C  48.11800 15.32400 24.61800
C  46.70000 14.60800 24.83800
C  46.41500 15.04600 26.32100
C  47.94000 16.49600 23.56800
C  46.76000 13.10200 24.53000
C  47.49100 12.12200 25.49200
N  45.75700 15.47400 29.18700
C  44.86400 14.78800 28.31200
C  43.72800 14.38800 29.05300
C  43.98300 14.73000 30.42000
C  45.20800 15.43100 30.47400
C  42.49500 13.75400 28.43100
C  43.44700 14.67200 31.73200
O  42.35500 14.24600 32.15700
C  44.42900 15.49700 32.64900
C  43.66900 16.56600 33.38200
O  43.34100 17.69000 32.98700
O  43.42400 16.13600 34.68000
C  42.87800 17.10500 35.64700
H  50.27200 18.93800 31.42600
H  50.37500 16.52600 25.49600
H  44.42400 14.16800 26.35800
H  46.06400 17.74800 33.77700
H  48.94200 18.27300 33.59700
H  47.42100 20.05400 31.79200
H  48.43300 20.47000 33.07400
H  46.73300 20.05700 33.42100
H  48.44400 15.83400 34.10500
H  46.74000 15.36100 34.49200
H  48.56600 16.57600 36.03100
H  46.84700 15.97200 36.39100
H  53.22600 18.47800 30.33100
H  52.07600 19.62500 30.75400
H  52.86500 19.84000 29.18800
H  54.31100 18.26100 28.12500
H  53.82000 19.58000 27.21600
H  54.67700 18.35700 26.44300
H  48.86200 14.62600 24.23400
H  45.83700 15.03200 24.32500
H  47.92800 16.17300 22.52700
H  48.92100 16.97000 23.54700
H  47.18500 17.24200 23.81600
H  47.28400 13.00300 23.57900
H  45.70800 12.82400 24.47800
H  47.71500 12.56100 26.46500
H  48.30000 11.53500 25.05700
H  46.80300 11.33800 25.80900
H  42.13700 14.33100 27.57900
H  41.64100 13.80500 29.10500
H  42.70200 12.75400 28.04900
H  44.82200 14.72800 33.31300
H  42.02700 17.62100 35.20300
H  43.55500 17.88800 35.98800
H  42.66400 16.60800 36.59300
Mg 8.07400 53.12100 40.76100
C  7.14500 49.71000 40.65700
C  11.34800 52.23800 39.92800
C  8.84000 56.45600 40.00000
C  4.70500 53.96000 40.63500
N  9.04800 51.18000 40.14600
C  8.54800 49.94500 40.34300
C  9.60600 48.84300 40.07800
C  10.85400 49.70500 40.33500
C  10.45900 51.19500 40.10800
C  11.64500 49.48900 41.65100
C  9.51300 48.31400 38.64500
C  9.27700 49.17000 37.36600
H  7.87800 49.38600 36.78700
N  9.86800 54.15100 40.29100
C  11.13000 53.58700 40.12000
C  12.04800 54.61700 39.95500
C  11.38500 55.85600 39.97400
C  9.89800 55.53000 40.11500
C  13.57000 54.34900 39.78500
C  12.00200 57.27100 39.83800
O  13.21400 57.34200 39.88300
C  11.22200 58.56400 39.66100
N  6.99000 54.94200 40.22000
C  7.46900 56.20600 40.17000
C  6.35800 57.25700 40.25200
C  5.05100 56.39400 40.43500
C  5.61100 54.96300 40.39200
C  6.47300 58.40700 41.29900
C  3.93500 56.60100 39.43500
C  3.58000 58.01800 39.11600
N  6.24700 52.13200 40.76500
C  4.92700 52.59500 40.80400
C  4.04900 51.52800 41.14600
C  4.87600 50.35100 41.16800
C  6.21500 50.77100 40.82900
C  2.56600 51.55700 41.38500
C  4.90800 48.93200 41.28600
O  3.96300 48.18700 41.60800
C  6.29900 48.42300 40.89200
C  6.20200 47.58600 39.71300
O  6.05900 47.89500 38.50900
O  6.17500 46.26300 40.10600
C  5.99800 45.19000 39.09300
H  12.40000 51.95500 39.85000
H  9.03300 57.53100 39.97000
H  3.66300 54.28200 40.66700
H  9.56300 47.97400 40.73400
H  11.58600 49.54500 39.54200
H  12.70900 49.69500 41.53700
H  11.58800 48.43800 41.93400
H  11.26900 50.09800 42.47300
H  8.59600 47.73800 38.77600
H  10.37100 47.69400 38.38800
H  9.82300 48.65100 36.57900
H  9.87400 50.07800 37.44800
H  13.96500 54.80800 38.87800
H  13.91200 53.32100 39.67000
H  14.19400 54.83900 40.53200
H  10.60800 58.34900 38.78600
H  11.95500 59.36900 39.62800
H  10.62000 58.79000 40.54100
H  6.41300 57.83000 39.32700
H  4.47300 56.42500 41.35900
H  6.18500 59.31500 40.76800
H  7.47400 58.38000 41.73000
H  5.69200 58.26300 42.04500
H  2.97100 56.21900 39.76900
H  4.17100 56.05200 38.52300
H  3.74200 58.74900 39.90900
H  2.53600 58.08800 38.81100
H  4.30100 58.27100 38.33800
H  2.19300 52.54400 41.11300
H  2.46200 51.44600 42.46500
H  2.09500 50.71700 40.87500
H  6.79800 47.87700 41.69300
H  6.96100 44.68300 39.04500
H  5.72500 45.48600 38.08000
H  5.23600 44.44200 39.31400

