158

Mg -0.46000 7.30200 26.30000
C  0.37600 9.64700 28.80800
C  -0.16700 4.88900 28.73900
C  -0.73000 5.16800 23.76400
C  -0.32000 9.96500 23.90400
N  -0.03800 7.28100 28.52400
C  0.34600 8.32500 29.29400
C  0.34800 7.94600 30.77500
C  0.44200 6.34400 30.70300
C  0.11900 6.13300 29.20300
C  1.84300 5.73800 31.13500
C  -0.88500 8.55700 31.49500
C  -0.56100 9.29700 32.85000
H  0.70900 9.01600 33.59800
N  -0.49500 5.39400 26.29300
C  -0.35900 4.51100 27.37100
C  -0.59000 3.18400 26.90000
C  -0.78600 3.23300 25.46000
C  -0.70800 4.65300 25.10400
C  -0.60700 1.91200 27.76400
C  -1.03400 2.05500 24.41800
O  -1.15700 2.21700 23.18100
C  -1.34900 0.62600 24.88500
N  -0.47500 7.61900 24.05700
C  -0.71400 6.50600 23.28500
C  -0.92700 6.88800 21.87900
C  -1.10000 8.47100 21.93800
C  -0.64300 8.74500 23.37100
C  0.24500 6.41600 20.96000
C  -2.52200 9.00000 21.55200
C  -3.28700 9.82500 22.63900
N  -0.03700 9.36400 26.28600
C  -0.03300 10.29500 25.26600
C  0.47100 11.60500 25.82000
C  0.55100 11.41100 27.16000
C  0.26700 10.01900 27.44500
C  0.72600 12.85200 25.09500
C  0.75600 12.04200 28.41400
O  0.94900 13.22000 28.70300
C  0.58100 10.94400 29.60900
C  1.92500 10.95800 30.26600
O  3.04200 10.63300 29.83600
O  1.77800 11.40400 31.57800
C  3.02500 11.73600 32.31100
H  -0.10100 4.10600 29.49700
H  -0.91800 4.41000 23.00200
H  -0.40200 10.80700 23.21400
H  1.33500 8.33200 31.03100
H  -0.32000 5.80000 31.26200
H  2.54300 5.81100 30.30300
H  1.79300 4.70500 31.48000
H  2.04700 6.36900 32.00000
H  -1.62700 7.79300 31.72700
H  -1.36600 9.27800 30.83400
H  -1.48100 9.32000 33.43400
H  -0.46800 10.34200 32.55400
H  -1.62900 1.56400 27.91700
H  -0.33500 2.04000 28.81100
H  0.04300 1.15200 27.33100
H  -2.14700 0.61200 25.62700
H  -0.46400 0.12800 25.28100
H  -1.66500 -0.02500 24.07000
H  -1.83300 6.40600 21.50900
H  -0.31000 8.86200 21.29700
H  1.02400 6.03900 21.62200
H  0.61200 7.22500 20.32900
H  -0.04800 5.54800 20.36800
H  -3.11500 8.13000 21.27000
H  -2.46800 9.67400 20.69700
H  -3.13100 9.30400 23.58400
H  -4.35700 9.67300 22.49600
H  -3.00400 10.87700 22.65200
H  1.17100 12.72000 24.10900
H  1.34400 13.53800 25.67400
H  -0.28300 13.25600 25.01000
H  -0.18400 11.25500 30.32000
H  2.83700 12.30300 33.22300
H  3.60400 12.38700 31.65600
H  3.68200 10.88600 32.49500
Mg -12.67300 37.53400 42.97400
C  -10.18600 35.24900 41.62700
C  -10.97400 39.94700 41.44400
C  -15.29300 39.48500 43.41900
C  -14.42500 34.72400 43.87500
N  -10.77700 37.51900 41.74200
C  -9.94200 36.56600 41.32300
C  -8.77700 37.06300 40.48300
C  -9.03800 38.57900 40.65400
C  -10.37300 38.74700 41.33300
C  -7.93900 39.33600 41.42800
C  -8.69600 36.54700 38.99800
C  -7.37000 35.81800 38.58500
H  -6.66400 36.33500 37.33900
N  -12.99400 39.55700 42.65100
C  -12.13400 40.43000 42.04200
C  -12.63100 41.77500 42.11300
C  -13.86200 41.62400 42.78300
C  -14.15200 40.20300 42.91000
C  -11.90000 42.88200 41.44200
C  -14.66000 42.82100 43.27900
O  -14.26700 43.95400 43.09300
C  -15.89400 42.61800 44.08300
N  -14.62600 37.26800 43.61400
C  -15.58300 38.17300 43.68500
C  -16.93600 37.61000 44.16400
C  -16.55400 36.06000 44.42200
C  -15.10700 35.99100 43.84000
C  -17.66700 38.30600 45.34100
C  -17.52900 35.08200 43.77000
C  -17.73300 35.08000 42.16600
N  -12.34000 35.44100 42.89600
C  -13.13800 34.44100 43.42200
C  -12.43700 33.16700 43.27400
C  -11.26300 33.47900 42.59300
C  -11.25100 34.85600 42.39900
C  -12.86800 31.82800 43.63700
C  -10.06900 32.82700 41.99600
O  -9.58800 31.69000 42.06200
C  -9.41600 33.99000 41.20800
C  -7.95800 34.04800 41.64000
O  -7.44500 34.42300 42.68500
O  -7.25900 33.45300 40.65600
C  -5.79300 33.32900 40.93800
H  -10.29300 40.66100 40.97500
H  -16.10200 40.19900 43.58900
H  -14.99800 33.85100 44.19400
H  -7.84100 36.83100 40.99300
H  -9.05300 38.99100 39.64500
H  -8.43800 39.72200 42.31700
H  -7.60800 40.12500 40.75300
H  -7.04700 38.83700 41.80600
H  -8.64900 37.37600 38.29300
H  -9.63700 36.02400 38.82300
H  -7.48800 34.76200 38.34100
H  -6.57500 35.89000 39.32800
H  -11.44800 42.50000 40.52600
H  -11.21300 43.30200 42.17700
H  -12.67500 43.63200 41.28300
H  -16.25400 43.51300 44.59100
H  -15.70900 41.86300 44.84700
H  -16.73600 42.29000 43.47400
H  -17.61200 37.71700 43.31600
H  -16.42500 35.83000 45.48000
H  -17.67600 37.60200 46.17300
H  -18.69500 38.53600 45.06000
H  -17.13000 39.17800 45.71400
H  -18.53800 35.25100 44.14700
H  -17.20100 34.09600 44.09700
H  -17.27700 36.00200 41.80500
H  -18.80600 35.22500 42.04200
H  -17.35500 34.18700 41.67000
H  -13.41900 31.93500 44.57100
H  -11.93000 31.32500 43.87300
H  -13.40500 31.29700 42.85000
H  -9.41500 33.78500 40.13800
H  -5.38200 33.54300 41.92500
H  -5.19000 33.80600 40.16500
H  -5.58900 32.25900 40.93600

