158

Mg -0.34800 18.27700 27.19400
C  -1.11700 16.06900 29.88700
C  -1.41800 20.89000 29.19400
C  -0.06700 20.23900 24.75100
C  -0.23800 15.44900 25.08100
N  -1.19400 18.37300 29.32200
C  -1.17300 17.42900 30.26600
C  -1.51200 18.07800 31.67600
C  -1.83300 19.56500 31.26900
C  -1.45200 19.59500 29.82100
C  -3.28700 19.97400 31.66000
C  -0.37600 17.84000 32.67000
C  -0.94600 17.23700 34.01300
H  0.01300 16.89000 35.13000
N  -0.65900 20.30300 26.99100
C  -0.97700 21.21100 27.93700
C  -0.98200 22.53700 27.42800
C  -0.36500 22.35300 26.11600
C  -0.36000 20.91200 25.88200
C  -1.59500 23.63100 28.21700
C  0.11500 23.49500 25.02700
O  0.59700 23.20100 23.89800
C  -0.00900 24.94500 25.36100
N  -0.35600 17.86600 25.08300
C  -0.08000 18.89800 24.36300
C  0.12000 18.51700 22.92800
C  0.31400 16.97800 23.04100
C  -0.10900 16.70700 24.48900
C  -1.06600 18.95500 21.91200
C  1.75400 16.44700 22.65400
C  2.78400 16.31100 23.74700
N  -0.57100 16.18200 27.34500
C  -0.50200 15.20100 26.45300
C  -0.60000 13.96900 27.10800
C  -0.90300 14.24800 28.44900
C  -0.84000 15.63900 28.55000
C  -0.50100 12.53800 26.45900
C  -1.07200 13.61900 29.78300
O  -1.13700 12.46700 30.21300
C  -1.21200 14.84300 30.79400
C  -0.07000 14.68700 31.75100
O  1.02700 15.15900 31.60000
O  -0.44900 13.95600 32.92300
C  0.73300 13.54200 33.77500
H  -1.64000 21.74800 29.83200
H  0.30500 20.79700 23.88900
H  -0.14500 14.57600 24.43200
H  -2.41800 17.50500 31.87400
H  -1.16900 20.20800 31.84800
H  -4.01000 19.90200 30.84800
H  -3.28600 21.02700 31.94300
H  -3.55600 19.48500 32.59600
H  -0.03300 18.79200 33.07700
H  0.54000 17.32500 32.38300
H  -1.62800 16.42000 33.77600
H  -1.60500 18.04700 34.32500
H  -1.17900 23.77300 29.21400
H  -2.59100 23.35100 28.55800
H  -1.45700 24.56800 27.67700
H  0.23900 25.02000 26.42000
H  -1.00400 25.31300 25.11200
H  0.77200 25.48800 24.83000
H  1.09600 18.95400 22.71600
H  -0.46300 16.46300 22.47600
H  -2.04200 19.02000 22.39500
H  -1.30100 18.15700 21.20800
H  -0.80400 19.85000 21.34800
H  2.18100 17.23100 22.02900
H  1.80400 15.62500 21.94000
H  3.73700 16.74200 23.44000
H  3.08500 15.30800 24.05000
H  2.63000 16.85500 24.67900
H  -1.50600 12.12100 26.39500
H  0.10300 11.94900 27.15000
H  0.01800 12.47200 25.50300
H  -2.15800 14.82100 31.33500
H  1.69600 13.83700 33.35700
H  0.66700 12.45600 33.83200
H  0.68700 13.93800 34.78900
Mg -10.53400 17.15700 41.19100
C  -7.12000 16.80800 41.07100
C  -10.04800 20.54500 40.47900
C  -13.80200 17.36800 40.36100
C  -10.80500 13.63400 41.09100
N  -8.84700 18.50400 40.92700
C  -7.48500 18.10200 40.84600
C  -6.56200 19.25300 40.54600
C  -7.52700 20.50100 40.77000
C  -8.87000 19.81200 40.68800
C  -7.48000 21.24000 42.16500
C  -6.03100 19.31000 39.08700
C  -4.50100 19.19900 38.99700
H  -3.85900 18.23000 37.95600
N  -11.78500 18.77500 40.65300
C  -11.43700 20.05300 40.53100
C  -12.59500 20.88200 40.37400
C  -13.67600 20.01600 40.04800
C  -13.13700 18.62900 40.37300
C  -12.51100 22.44900 40.27000
C  -15.15300 20.37600 39.64600
O  -15.53300 21.50700 39.66300
C  -16.14800 19.25800 39.39700
N  -12.01600 15.69100 40.56300
C  -13.32700 16.06400 40.53900
C  -14.20900 14.87500 40.70500
C  -13.20000 13.70200 40.35600
C  -11.92800 14.36200 40.75300
C  -14.83200 14.72900 42.08800
C  -13.21200 13.33400 38.90700
C  -14.19700 12.19000 38.43700
N  -9.22100 15.55800 41.23300
C  -9.48400 14.14800 41.24600
C  -8.23500 13.43500 41.45200
C  -7.26300 14.43100 41.28500
C  -7.93600 15.68100 41.27100
C  -8.19700 12.01100 41.57300
C  -5.84700 14.66600 41.24800
O  -4.92600 13.84300 41.27400
C  -5.66400 16.28800 41.23300
C  -4.97400 16.72100 42.52000
O  -3.94900 17.30200 42.50400
O  -5.71800 16.46300 43.62900
C  -5.25200 17.02500 44.89600
H  -9.86400 21.61500 40.36200
H  -14.89000 17.29400 40.30200
H  -10.97200 12.55600 41.04600
H  -5.77100 19.39200 41.28200
H  -7.42600 21.29400 40.02800
H  -6.73400 20.73000 42.77500
H  -8.45100 21.39700 42.63400
H  -7.07900 22.24200 42.01600
H  -6.28100 20.25500 38.60500
H  -6.47400 18.49000 38.52100
H  -4.03500 18.90700 39.93800
H  -4.20900 20.22500 38.77200
H  -13.51100 22.88400 40.29100
H  -12.06500 22.58800 39.28500
H  -11.87100 22.77700 41.08900
H  -15.68200 18.48500 38.78500
H  -17.01800 19.68100 38.89600
H  -16.39700 18.77000 40.33900
H  -15.01700 14.92500 39.97400
H  -13.31600 12.73300 40.84300
H  -14.56700 13.78500 42.56500
H  -15.92100 14.69300 42.09900
H  -14.37300 15.50800 42.69800
H  -12.20500 12.99200 38.66600
H  -13.46500 14.22300 38.33000
H  -14.92700 12.53600 37.70600
H  -14.86900 11.81000 39.20600
H  -13.60300 11.36400 38.04400
H  -8.38900 11.69900 40.54600
H  -9.04600 11.55100 42.07800
H  -7.26500 11.59900 41.95900
H  -5.06500 16.52100 40.35300
H  -4.21000 16.73000 45.02000
H  -5.86600 16.67400 45.72600
H  -5.29000 18.11200 44.95800

