158

Mg -0.58900 7.50200 26.00500
C  0.43400 9.24100 28.79900
C  -1.02400 4.73700 27.95500
C  -1.24200 5.68600 23.28100
C  -0.29700 10.33400 24.13600
N  -0.22100 7.01100 28.12300
C  0.10300 7.91000 29.12500
C  -0.19100 7.37800 30.49200
C  -0.34700 5.83400 30.17700
C  -0.52500 5.81400 28.67100
C  0.76800 4.91100 30.62300
C  -1.50700 8.00300 31.19100
C  -1.28600 8.65800 32.56500
H  -0.12400 8.04200 33.30600
N  -1.03700 5.51600 25.62700
C  -1.21100 4.55200 26.58600
C  -1.61100 3.28700 26.00200
C  -1.51200 3.43800 24.58800
C  -1.23500 4.95200 24.42400
C  -1.87400 2.00800 26.83700
C  -1.69300 2.45600 23.39700
O  -1.52500 2.79000 22.24300
C  -2.18300 1.07500 23.62600
N  -0.79700 7.93600 23.93000
C  -1.12400 7.04800 23.00500
C  -1.31500 7.68500 21.60200
C  -1.10500 9.23000 22.00100
C  -0.71900 9.21200 23.41700
C  -0.32700 7.22900 20.57400
C  -2.36600 10.13900 21.89500
C  -2.34900 11.55000 21.42100
N  0.01600 9.40200 26.31400
C  0.04100 10.53400 25.50400
C  0.57700 11.71700 26.15300
C  0.70100 11.22400 27.44900
C  0.35500 9.81000 27.53100
C  0.90200 13.09100 25.60700
C  1.16300 11.61100 28.72900
O  1.61000 12.63600 29.13500
C  0.79500 10.34800 29.64500
C  2.08000 10.01900 30.33400
O  2.88200 9.13500 30.12400
O  2.28900 10.97400 31.32900
C  3.66400 11.06800 31.84900
H  -1.28100 3.94000 28.65600
H  -1.52000 5.08300 22.41400
H  -0.26000 11.29000 23.61000
H  0.67100 7.55000 31.13600
H  -1.24900 5.49700 30.68800
H  1.60500 5.43300 31.08900
H  1.14600 4.36700 29.75800
H  0.36800 4.12900 31.26800
H  -2.32400 7.28200 31.22900
H  -1.83300 8.83700 30.57000
H  -2.19900 8.42200 33.11200
H  -1.19500 9.74300 32.51500
H  -2.94300 1.88900 27.01100
H  -1.42300 2.05500 27.82800
H  -1.40000 1.14000 26.37900
H  -2.53500 0.59600 22.71300
H  -3.08800 1.20100 24.21900
H  -1.49600 0.37800 24.10600
H  -2.36500 7.56100 21.33700
H  -0.23200 9.58800 21.45600
H  -0.80200 6.48200 19.93900
H  0.51200 6.73500 21.06500
H  -0.01200 8.05000 19.93000
H  -2.85800 10.25600 22.86000
H  -3.21800 9.63400 21.44000
H  -3.26900 11.65000 20.84500
H  -1.50500 11.80000 20.77900
H  -2.29700 12.16600 22.31900
H  0.17100 13.48900 24.90400
H  1.86500 12.95000 25.11600
H  0.94200 13.79900 26.43500
H  0.04700 10.57800 30.40400
H  4.30500 11.01300 30.97000
H  3.82200 10.21900 32.51400
H  3.82400 12.08900 32.19700
Mg 47.44100 17.31500 28.73200
C  45.38300 17.31700 31.62200
C  49.74300 19.08500 30.42800
C  49.04700 17.59400 25.80400
C  44.65400 15.75500 27.02600
N  47.42000 18.36200 30.78900
C  46.56800 18.00200 31.81600
C  47.10800 18.47400 33.17400
C  48.48800 19.12000 32.71500
C  48.63400 18.80400 31.25200
C  48.61400 20.60700 33.16900
C  47.36200 17.39200 34.21300
C  46.92700 17.72500 35.62500
H  46.97600 19.19800 36.10900
N  49.15200 18.19300 28.22100
C  50.02800 18.84200 29.07000
C  51.20000 19.34700 28.33700
C  50.97600 18.85600 27.01400
C  49.73100 18.12300 26.96800
C  52.32200 20.24100 28.95300
C  51.90500 18.97500 25.78900
O  51.64700 18.49700 24.68700
C  53.20400 19.75100 25.90300
N  47.05100 16.48800 26.78000
C  47.86300 16.89200 25.71600
C  47.22500 16.52100 24.34400
C  45.90400 15.67600 24.81400
C  45.82300 16.03100 26.30100
C  46.81300 17.71500 23.50300
C  46.14200 14.16100 24.62100
C  45.14500 13.49300 23.61300
N  45.41900 16.70400 29.15400
C  44.38900 16.15200 28.37100
C  43.10700 16.14500 29.09700
C  43.50600 16.38100 30.38600
C  44.86800 16.73000 30.40300
C  41.76900 15.70300 28.47900
C  43.02600 16.51800 31.65500
O  41.88700 16.42200 32.09500
C  44.28200 16.99500 32.53200
C  43.84700 18.07400 33.44700
O  43.73000 19.27900 33.22500
O  43.35000 17.44100 34.53700
C  42.61400 18.35200 35.50900
H  50.57500 19.45300 31.03100
H  49.41900 17.82700 24.80400
H  43.80100 15.32600 26.49600
H  46.42900 19.25800 33.51100
H  49.34300 18.60500 33.15400
H  49.61700 20.67500 33.58800
H  47.91600 20.96500 33.92600
H  48.78900 21.30900 32.35400
H  48.42500 17.18500 34.33000
H  46.79800 16.52800 33.86200
H  47.43200 17.07700 36.34100
H  45.87700 17.43300 35.59800
H  52.07900 20.37200 30.00800
H  52.53500 21.13300 28.36400
H  53.22400 19.63900 29.05900
H  53.70100 19.59700 24.94500
H  53.83200 19.41400 26.72700
H  52.74400 20.73500 25.99900
H  47.83100 15.77700 23.82700
H  44.98600 15.95300 24.29600
H  47.60000 18.43100 23.73900
H  45.82600 18.11400 23.73900
H  47.03800 17.40600 22.48300
H  45.93100 13.71500 25.59300
H  47.12500 13.88400 24.24000
H  44.45500 14.18500 23.12900
H  44.55000 12.78100 24.18600
H  45.64200 12.82500 22.90900
H  41.65100 15.96300 27.42700
H  41.01200 16.27600 29.01300
H  41.66200 14.62700 28.61800
H  44.49000 16.12800 33.15900
H  42.51700 19.40400 35.23800
H  43.25900 18.34500 36.38700
H  41.59400 18.03100 35.71900

