158

Mg 36.00100 49.33500 25.69600
C  36.10000 47.60300 28.75100
C  35.01100 52.12400 27.24900
C  35.84300 50.76700 22.73100
C  36.90600 46.17000 24.04900
N  35.61200 49.71600 27.75800
C  35.76300 48.92100 28.89000
C  35.55400 49.72300 30.16000
C  34.99900 51.10700 29.65900
C  35.28400 50.99500 28.14400
C  33.53900 51.46700 30.09600
C  36.75400 49.73100 31.24400
C  36.42800 49.61000 32.73800
H  34.98400 49.45100 33.14200
N  35.53400 51.27400 25.07800
C  35.11100 52.26000 25.87900
C  34.87600 53.48900 25.08300
C  35.07500 53.05600 23.66900
C  35.54300 51.64200 23.77300
C  34.66400 54.90200 25.68800
C  34.86400 53.88300 22.41100
O  35.21700 53.35300 21.33600
C  34.19300 55.24100 22.36000
N  36.40400 48.56900 23.64400
C  36.21900 49.39900 22.57200
C  36.43100 48.64500 21.24800
C  37.06900 47.31300 21.76800
C  36.77100 47.33200 23.27000
C  35.16300 48.54200 20.31100
C  38.52900 47.14000 21.41300
C  39.22300 45.76400 21.23900
N  36.44100 47.29100 26.23300
C  36.91700 46.18600 25.46200
C  37.13800 45.13200 26.40800
C  36.84600 45.63100 27.71700
C  36.35400 46.90600 27.53200
C  37.53200 43.77000 26.01100
C  36.77700 45.29000 29.08200
O  36.95400 44.17700 29.61800
C  36.38200 46.55100 29.83500
C  35.17700 46.19200 30.59900
O  34.05300 46.44800 30.28800
O  35.63900 45.55400 31.71500
C  34.70900 45.00500 32.68800
H  34.98900 53.07400 27.78700
H  35.50000 51.00300 21.72200
H  37.32700 45.26700 23.60200
H  34.68800 49.29000 30.66000
H  35.72500 51.85000 29.99100
H  33.20000 50.89000 30.95600
H  32.87800 51.36900 29.23500
H  33.42700 52.51500 30.37200
H  37.29100 50.66500 31.07500
H  37.53200 49.05600 30.88700
H  36.85400 50.51700 33.16600
H  36.99800 48.75600 33.10300
H  33.73000 55.25200 25.24900
H  35.30400 55.70000 25.31300
H  34.72900 54.95400 26.77500
H  34.04400 55.48500 21.30800
H  34.82500 55.84300 23.01300
H  33.22200 55.07100 22.82400
H  37.23400 49.13300 20.69500
H  36.45400 46.51300 21.35500
H  34.27800 48.67000 20.93300
H  35.15100 47.51600 19.94300
H  35.24300 49.16800 19.42200
H  39.01300 47.57500 22.28800
H  38.71800 47.69100 20.49200
H  38.58100 44.91700 21.47800
H  40.09500 45.72800 21.89200
H  39.58600 45.44500 20.26200
H  38.50000 43.69600 25.51500
H  36.85700 43.28300 25.30700
H  37.62200 43.22300 26.94900
H  37.22900 46.81000 30.47000
H  34.59700 45.76900 33.45700
H  34.92000 44.03100 33.12900
H  33.70600 44.89100 32.27700
Mg -5.97400 24.89100 26.09100
C  -4.17200 26.43100 28.60500
C  -7.41500 22.89400 28.54000
C  -7.07000 22.92300 23.53300
C  -4.21900 26.96100 23.68900
N  -5.76200 24.61900 28.25300
C  -5.03400 25.50700 29.09700
C  -5.40900 25.24900 30.55600
C  -6.12800 23.90400 30.51200
C  -6.41700 23.76300 29.00800
C  -5.26500 22.85700 31.11800
C  -6.22700 26.40800 31.15600
C  -5.43000 27.00000 32.38800
H  -5.00500 25.99600 33.45400
N  -7.22100 23.25100 26.07900
C  -7.79400 22.68300 27.17300
C  -8.75800 21.67900 26.67200
C  -8.61400 21.66700 25.26000
C  -7.59200 22.64200 24.88700
C  -9.70200 20.96500 27.56500
C  -9.32900 20.78200 24.30400
O  -9.21400 20.79100 23.06700
C  -10.27100 19.79300 24.70700
N  -5.77200 24.94700 23.91000
C  -6.27600 24.01100 23.07700
C  -5.82800 24.23000 21.61400
C  -5.25000 25.70600 21.70700
C  -5.06400 25.92900 23.20200
C  -4.81300 23.10900 21.16400
C  -6.15500 26.82400 21.08500
C  -5.48400 27.56300 19.90700
N  -4.52600 26.36900 26.10100
C  -3.97600 27.14800 25.09400
C  -2.96200 28.03100 25.59900
C  -3.03800 27.75900 27.03700
C  -3.94500 26.72900 27.24000
C  -2.26300 29.08200 24.81700
C  -2.50600 28.15100 28.25500
O  -1.68900 28.97500 28.42600
C  -3.15900 27.31300 29.32800
C  -2.13000 26.56900 30.05600
O  -1.65700 25.45500 29.74900
O  -1.84600 27.28700 31.21300
C  -1.05900 26.63700 32.30300
H  -7.77000 22.28200 29.37200
H  -7.30100 22.28400 22.67800
H  -3.65200 27.59700 23.00500
H  -4.46100 25.16700 31.08700
H  -7.03300 23.96300 31.11700
H  -5.71700 22.69700 32.09700
H  -4.20100 23.04300 31.26700
H  -5.44700 21.97500 30.50400
H  -7.26200 26.16800 31.39700
H  -6.46500 27.22500 30.47400
H  -6.06600 27.76600 32.83100
H  -4.53200 27.56700 32.14300
H  -9.43500 19.97200 27.92800
H  -10.69500 21.02200 27.11900
H  -9.80800 21.57300 28.46300
H  -10.33300 19.04800 23.91300
H  -11.25000 20.27100 24.73600
H  -9.85500 19.31300 25.59300
H  -6.70900 24.26000 20.97400
H  -4.23900 25.76100 21.30200
H  -3.84900 23.61300 21.09600
H  -5.03900 22.69600 20.18100
H  -4.72000 22.32100 21.91200
H  -6.38300 27.67600 21.72600
H  -7.09000 26.40100 20.71700
H  -6.28600 27.49900 19.17200
H  -4.62300 27.03100 19.50200
H  -5.41200 28.60500 20.22000
H  -2.93700 29.72700 24.25200
H  -1.72300 28.53500 24.04400
H  -1.52600 29.62100 25.41200
H  -3.61900 27.93200 30.09800
H  -1.55400 25.81600 32.82200
H  -0.79000 27.34400 33.08800
H  -0.08600 26.26700 31.98000

