158

Mg 16.13300 -1.93300 27.42800
C  15.50500 0.13000 30.14500
C  18.50400 -3.59600 29.46400
C  17.59200 -3.35900 24.81900
C  14.76500 0.39500 25.32600
N  16.80600 -1.83900 29.66300
C  16.31900 -0.95000 30.58100
C  16.96300 -1.24400 31.95900
C  18.09900 -2.32000 31.61100
C  17.80000 -2.62600 30.14200
C  19.56900 -1.78000 31.84700
C  15.86100 -1.87400 32.86600
C  15.54700 -1.23600 34.23800
H  16.66100 -0.31700 34.90500
N  17.58600 -3.49200 27.15800
C  18.44500 -4.02900 28.13000
C  19.15700 -5.12200 27.49700
C  18.75800 -5.17800 26.13900
C  17.93600 -4.00600 25.95000
C  20.24400 -5.94600 28.17200
C  19.20200 -6.04000 24.96800
O  18.79300 -5.88300 23.84100
C  20.27600 -7.09100 25.21000
N  16.20300 -1.53400 25.39800
C  16.78400 -2.30100 24.48900
C  16.68700 -1.75300 23.09500
C  15.64400 -0.63100 23.30400
C  15.49700 -0.60100 24.76900
C  17.99300 -1.21700 22.52300
C  14.23400 -0.93800 22.69000
C  13.44400 0.28600 22.13000
N  15.19100 -0.12200 27.64400
C  14.59900 0.66500 26.70000
C  13.87900 1.79100 27.41700
C  14.17400 1.52700 28.74800
C  15.04400 0.42700 28.83900
C  13.04100 2.77700 26.72800
C  13.94700 2.02200 30.05400
O  13.26500 2.93600 30.45300
C  14.76200 1.14600 30.98700
C  15.75600 2.03600 31.70500
O  16.95200 2.20000 31.36700
O  15.12800 2.66100 32.72200
C  15.89600 3.72800 33.36100
H  19.30400 -4.11000 30.00000
H  17.87600 -3.81500 23.86800
H  14.32300 1.13200 24.65200
H  17.39300 -0.30000 32.29400
H  18.04500 -3.24900 32.17800
H  19.51700 -0.78600 32.29100
H  20.07000 -1.71400 30.88100
H  20.08900 -2.53600 32.43600
H  16.15100 -2.92200 32.94600
H  14.91800 -1.70100 32.34700
H  15.17200 -2.04400 34.86600
H  14.64900 -0.63000 34.11700
H  21.09800 -5.91700 27.49600
H  19.89200 -6.97700 28.20700
H  20.55200 -5.68000 29.18400
H  19.91700 -7.72800 26.01900
H  21.24200 -6.61900 25.38800
H  20.42000 -7.67700 24.30300
H  16.29500 -2.47500 22.37900
H  15.99400 0.30800 22.87600
H  18.09600 -0.13300 22.54800
H  18.06200 -1.51200 21.47600
H  18.94400 -1.38800 23.02700
H  13.61200 -1.36400 23.47700
H  14.22300 -1.71500 21.92500
H  13.14900 0.24600 21.08100
H  14.07200 1.14500 22.36400
H  12.57300 0.47900 22.75700
H  12.46500 2.15600 26.04200
H  13.66500 3.34400 26.03800
H  12.42500 3.34000 27.42800
H  14.14400 0.80000 31.81500
H  15.94000 4.64700 32.77700
H  16.93300 3.43900 33.53300
H  15.52900 3.90800 34.37200
Mg 53.24900 25.10400 44.04300
C  50.48900 27.44200 43.67200
C  51.13800 22.69900 43.14600
C  55.91600 23.28100 43.61900
C  55.27700 27.92900 44.72400
N  51.04100 25.14000 43.30200
C  50.10100 26.13600 43.31900
C  48.66400 25.56500 43.05600
C  48.89100 24.06000 43.24200
C  50.43800 23.90600 43.29800
C  48.29400 23.46000 44.55400
C  48.05000 26.09600 41.71800
C  49.01200 26.57400 40.63900
H  49.42300 25.49600 39.57100
N  53.51200 23.24100 43.53600
C  52.48900 22.29500 43.26200
C  53.07000 20.97700 42.95500
C  54.47700 21.24500 43.14600
C  54.72300 22.60400 43.48200
C  52.18800 19.76800 42.48300
C  55.46700 20.13400 42.90200
O  55.02400 18.99000 42.58400
C  56.93600 20.30300 42.90000
N  55.21000 25.64100 44.01000
C  56.17700 24.58300 43.86000
C  57.58300 25.15400 43.75600
C  57.40700 26.65400 44.23500
C  55.86000 26.77900 44.29800
C  58.79800 24.42800 44.38100
C  58.12200 27.71500 43.34900
C  59.30800 28.49800 43.93000
N  52.93800 27.29400 44.20800
C  53.88600 28.21400 44.69300
C  53.20100 29.42800 44.97100
C  51.84000 29.15300 44.51900
C  51.77000 27.81700 44.07600
C  53.87800 30.70100 45.50600
C  50.52400 29.69700 44.40600
O  50.06700 30.73500 44.79000
C  49.63500 28.66400 43.72500
C  49.33300 29.23300 42.41200
O  50.07000 29.54200 41.46100
O  47.94900 29.36600 42.41300
C  47.34600 29.96000 41.17700
H  50.45600 21.88400 42.89500
H  56.86500 22.76200 43.46700
H  55.87600 28.80700 44.97300
H  48.06100 26.00700 43.84900
H  48.50900 23.44300 42.42900
H  47.53900 24.17500 44.87900
H  49.06800 23.21900 45.28400
H  47.74900 22.52900 44.39600
H  47.39200 26.94000 41.92300
H  47.50000 25.25900 41.28900
H  49.86600 27.06600 41.10600
H  48.53800 27.35400 40.04300
H  52.30000 19.43000 41.45300
H  51.12600 19.90800 42.68500
H  52.50400 18.92300 43.09500
H  57.40300 19.36200 42.60900
H  57.37700 20.67400 43.82500
H  57.19500 21.08900 42.19000
H  57.79400 25.19600 42.68700
H  57.76200 26.75200 45.26000
H  59.57700 25.04400 44.83000
H  59.16300 23.82000 43.55300
H  58.33300 23.80600 45.14600
H  57.35600 28.45400 43.11400
H  58.22700 27.24500 42.37100
H  59.36000 29.55900 43.68600
H  60.19700 28.08200 43.45600
H  59.15000 28.47400 45.00800
H  53.29600 31.10300 46.33500
H  54.14900 31.34600 44.67000
H  54.73700 30.28000 46.02800
H  48.73800 28.55600 44.33500
H  47.69600 30.98900 41.08600
H  46.26500 29.82400 41.17500
H  47.82900 29.46100 40.33600

