158

Mg 48.39200 25.59500 27.62200
C  49.15200 27.71400 30.26200
C  47.32600 23.39500 29.96300
C  48.08200 23.46300 25.09300
C  50.50700 27.73600 25.52100
N  48.32200 25.53000 29.83800
C  48.54300 26.55700 30.73900
C  48.25100 26.22800 32.21500
C  47.59500 24.82900 32.05900
C  47.82100 24.51900 30.51600
C  48.14600 23.67600 32.91100
C  47.21100 27.16800 32.93300
C  46.48400 26.76700 34.19100
H  46.50100 27.75800 35.30900
N  47.66500 23.75300 27.52600
C  47.29100 23.00900 28.57700
C  46.61400 21.81300 28.03400
C  47.01500 21.75800 26.68000
C  47.58800 23.03400 26.36800
C  45.83500 20.88100 28.90500
C  46.85400 20.58200 25.77000
O  47.41600 20.54100 24.69300
C  45.95700 19.47700 26.12100
N  49.26000 25.60600 25.51400
C  48.94300 24.54300 24.69300
C  49.31100 24.89600 23.22800
C  50.14900 26.22300 23.38200
C  49.94800 26.58900 24.85300
C  50.09000 23.73300 22.63000
C  49.65500 27.38600 22.38900
C  50.75300 27.96800 21.43100
N  49.49900 27.34900 27.75000
C  50.33800 28.05700 26.90200
C  50.77700 29.33100 27.51000
C  50.25800 29.26700 28.84900
C  49.60200 27.97700 28.97100
C  51.45700 30.43900 26.94400
C  50.26800 29.91900 30.13700
O  50.62100 30.96900 30.57000
C  49.46700 28.97600 31.08400
C  50.41500 28.66300 32.16700
O  51.47300 28.03100 32.07300
O  49.88500 29.05800 33.43100
C  50.80100 28.65000 34.51000
H  46.99600 22.73600 30.76900
H  47.96300 22.76700 24.26000
H  51.04200 28.41800 24.85600
H  49.24100 26.17900 32.66800
H  46.52200 24.88300 32.24000
H  47.33500 23.15900 33.42400
H  48.91300 23.99300 33.61800
H  48.77700 22.91600 32.45000
H  46.39300 27.37200 32.24200
H  47.69800 28.10900 33.19200
H  46.81800 25.82100 34.61700
H  45.44200 26.61200 33.90900
H  46.38100 19.94000 28.96300
H  44.94500 20.48600 28.41500
H  45.56500 21.16200 29.92400
H  46.42000 19.00800 26.98900
H  45.83400 18.73200 25.33500
H  45.01500 20.00900 26.25500
H  48.34900 24.97800 22.72200
H  51.20600 25.95800 23.36800
H  50.32800 22.99800 23.39800
H  51.05800 24.07500 22.26300
H  49.49100 23.30800 21.82500
H  49.51400 28.28500 22.98900
H  48.75400 27.06500 21.86700
H  50.77300 29.04700 21.58500
H  50.36500 27.71500 20.44400
H  51.76600 27.58600 21.55500
H  51.53000 31.21200 27.70900
H  50.81900 30.93300 26.21100
H  52.39800 30.14500 26.48000
H  48.58300 29.53100 31.40000
H  50.50400 27.64500 34.80900
H  50.57200 29.39100 35.27600
H  51.86400 28.52000 34.30700
Mg 1.53100 41.99300 25.24000
C  2.82900 42.03100 28.62400
C  -1.33900 40.52300 26.45700
C  0.66200 41.51500 22.07200
C  4.80000 42.84000 24.29600
N  0.71000 41.67700 27.37700
C  1.45000 41.59600 28.56200
C  0.56000 41.16500 29.75400
C  -0.71500 40.69100 28.99000
C  -0.43200 40.95400 27.48300
C  -1.09400 39.20100 29.25900
C  0.24000 42.23800 30.83300
C  -0.14200 41.83700 32.22500
H  -1.19800 40.69500 32.41400
N  -0.08100 41.27900 24.32100
C  -1.21300 40.76700 24.99100
C  -2.14100 40.21600 24.03300
C  -1.64500 40.52100 22.72900
C  -0.30200 41.17700 23.00100
C  -3.39900 39.56000 24.49100
C  -2.10200 40.10500 21.35400
O  -1.47700 40.36700 20.29600
C  -3.36100 39.34600 21.22600
N  2.64800 42.05900 23.48300
C  2.02500 41.87800 22.23200
C  2.95100 42.18000 21.07500
C  4.11900 42.85600 21.82600
C  3.86400 42.56700 23.29300
C  3.30700 40.86600 20.24800
C  4.19600 44.34800 21.55300
C  3.04500 45.22400 21.97100
N  3.45100 42.33100 26.22700
C  4.65800 42.68200 25.66800
C  5.72100 42.75900 26.70000
C  5.00300 42.55400 27.91600
C  3.64100 42.26500 27.56100
C  7.18400 42.93600 26.55900
C  5.20600 42.37500 29.30400
O  6.17800 42.49900 30.02800
C  3.75300 42.03200 29.88700
C  3.74200 40.69400 30.55600
O  4.43800 39.71000 30.21200
O  2.90500 40.69600 31.65000
C  2.94400 39.47800 32.45200
H  -2.23600 40.02400 26.83200
H  0.38300 41.23100 21.05500
H  5.72900 43.25300 23.89800
H  0.98200 40.21600 30.08400
H  -1.50700 41.43600 29.06800
H  -0.37700 38.76700 29.95500
H  -0.93300 38.52200 28.42200
H  -2.06900 39.06600 29.72700
H  -0.56500 42.87600 30.47000
H  1.13400 42.85700 30.91100
H  -0.38500 42.73000 32.80000
H  0.79200 41.50800 32.68000
H  -3.66600 39.77600 25.52600
H  -3.28100 38.48200 24.38000
H  -4.27700 39.84500 23.91100
H  -3.25000 38.39700 21.75000
H  -3.39900 39.15600 20.15300
H  -4.26800 39.87500 21.51700
H  2.43100 42.75600 20.30900
H  5.03100 42.32900 21.54800
H  4.31000 40.51100 20.48400
H  3.27800 41.26500 19.23400
H  2.61800 40.03500 20.40300
H  4.45800 44.62400 20.53200
H  5.09200 44.71300 22.05700
H  2.63300 45.69900 21.08100
H  3.39700 45.93400 22.71900
H  2.24000 44.70200 22.48800
H  7.75800 42.12400 27.00600
H  7.38700 43.82100 27.16200
H  7.42200 43.07400 25.50400
H  3.43500 42.84700 30.53800
H  3.61400 38.70100 32.08200
H  1.91400 39.12900 32.51200
H  3.30300 39.64200 33.46800

