158

Mg 48.29000 34.48500 26.41700
C  46.80600 33.07600 29.37300
C  48.51700 37.49600 27.98300
C  49.30800 35.73300 23.53200
C  47.45100 31.33900 24.73000
N  47.83200 35.16800 28.48700
C  47.39500 34.36700 29.49600
C  47.43500 35.18900 30.81500
C  47.65400 36.69500 30.25400
C  48.01400 36.46300 28.83900
C  46.50600 37.71900 30.54200
C  48.62500 34.72800 31.71000
C  48.33700 34.60800 33.24900
H  47.08800 35.36700 33.77700
N  48.88100 36.28800 25.89900
C  48.90800 37.43100 26.66300
C  49.59200 38.48100 25.96400
C  49.91900 38.02700 24.65100
C  49.31600 36.67400 24.65300
C  49.85800 39.83100 26.59300
C  50.70300 38.69800 23.54200
O  50.85300 38.29700 22.40500
C  51.39600 40.03600 23.76300
N  48.27200 33.63200 24.42200
C  48.81000 34.43800 23.41500
C  48.81800 33.64700 22.07300
C  48.58600 32.20600 22.57700
C  48.07200 32.37500 23.99600
C  47.80500 34.15600 21.04000
C  49.81000 31.17600 22.44000
C  50.62500 30.76600 23.65700
N  47.33100 32.64000 26.88400
C  47.12600 31.47200 26.09000
C  46.46100 30.48300 26.93300
C  46.22800 31.07400 28.18200
C  46.82500 32.42000 28.14400
C  46.23600 29.07000 26.45100
C  45.69100 30.90700 29.51700
O  45.23300 29.86000 29.97700
C  46.04200 32.21700 30.36300
C  46.80500 31.69100 31.55100
O  48.04000 31.45700 31.45300
O  46.01900 31.57800 32.67800
C  46.64400 30.98500 33.87400
H  48.63300 38.48000 28.44300
H  49.59000 36.19800 22.58500
H  47.26300 30.37700 24.24900
H  46.53200 35.02500 31.40300
H  48.53400 37.17400 30.68200
H  46.14300 38.36200 29.74000
H  47.02600 38.26600 31.32800
H  45.71000 37.20000 31.07600
H  49.42400 35.46400 31.62800
H  48.94100 33.79800 31.23700
H  49.16600 35.04100 33.80900
H  48.25300 33.54000 33.44900
H  48.83100 40.16900 26.73100
H  50.25200 40.62200 25.95500
H  50.55800 39.86000 27.42800
H  51.81200 40.24100 22.77700
H  52.09400 39.83900 24.57600
H  50.71600 40.86300 23.97000
H  49.78600 33.82300 21.60600
H  47.81300 31.68300 22.01300
H  47.07200 33.38800 20.79600
H  48.26100 34.36600 20.07300
H  47.14100 34.90700 21.46600
H  50.52300 31.75600 21.85500
H  49.52500 30.31100 21.84100
H  50.24700 31.37800 24.47600
H  51.66800 31.08200 23.61200
H  50.53100 29.69700 23.84600
H  46.06200 28.50000 27.36300
H  47.18000 28.73500 26.02200
H  45.35800 28.83500 25.84800
H  45.14700 32.72900 30.71700
H  46.66200 29.93200 33.59500
H  45.96400 31.11600 34.71600
H  47.63800 31.38000 34.08200
Mg 0.55700 43.44100 26.47200
C  2.94100 43.31800 29.06800
C  -1.91500 42.68000 28.70600
C  -1.47100 43.04600 23.85300
C  3.37800 43.89400 24.21500
N  0.58800 43.14500 28.61100
C  1.66600 43.14500 29.49100
C  1.09900 43.35200 30.92700
C  -0.34700 42.73600 30.83100
C  -0.64500 42.82400 29.28900
C  -0.40700 41.28000 31.30900
C  1.08900 44.82600 31.45300
C  1.08900 44.95900 32.99200
H  0.73300 43.75100 33.81300
N  -1.49200 43.02700 26.33900
C  -2.37800 42.81700 27.36000
C  -3.68500 42.69800 26.87000
C  -3.59900 42.64700 25.42200
C  -2.16000 42.97800 25.10100
C  -4.94100 42.49600 27.77400
C  -4.68500 42.49300 24.35000
O  -4.37600 42.63000 23.16600
C  -6.13000 42.26000 24.69200
N  0.85000 43.68700 24.33100
C  -0.17000 43.34600 23.47800
C  0.33000 43.31400 22.03700
C  1.77300 43.80700 22.15100
C  2.05100 43.76500 23.66800
C  0.15800 41.92800 21.26400
C  2.10600 45.12900 21.39000
C  2.08800 46.44700 22.19600
N  2.73000 43.56400 26.51000
C  3.74900 43.78000 25.54000
C  5.01700 43.67800 26.15500
C  4.76000 43.52400 27.52500
C  3.37300 43.42200 27.68200
C  6.33100 43.82700 25.30900
C  5.41600 43.33700 28.85000
O  6.54800 43.15000 29.11400
C  4.22800 43.39300 29.90800
C  4.25900 42.36900 30.96300
O  4.31500 41.13500 30.76000
O  4.37800 42.92900 32.23600
C  4.55500 42.08300 33.38700
H  -2.74600 42.42100 29.36500
H  -2.00000 42.56300 23.02800
H  4.15600 43.93500 23.45000
H  1.74700 42.70000 31.51300
H  -1.09300 43.33800 31.35000
H  0.43700 41.04500 31.95700
H  -0.47200 40.62300 30.44100
H  -1.31300 41.10800 31.88900
H  0.18300 45.24000 31.01100
H  1.86900 45.49000 31.08100
H  0.31000 45.70500 33.15300
H  2.06100 45.32600 33.32000
H  -4.95100 41.48800 28.19000
H  -5.82400 42.71700 27.17500
H  -4.82000 43.24300 28.55900
H  -6.06900 41.41900 25.38400
H  -6.64500 42.05100 23.75500
H  -6.50300 43.15200 25.19600
H  -0.20300 44.11400 21.52300
H  2.46200 43.05400 21.77000
H  1.11100 41.40400 21.18900
H  -0.18700 42.15700 20.25600
H  -0.52200 41.23800 21.76300
H  1.35400 45.26200 20.61200
H  3.09500 44.96900 20.95900
H  3.06600 46.91500 22.31000
H  1.48600 46.37000 23.10100
H  1.65300 47.15000 21.48600
H  6.48200 44.90200 25.41100
H  6.21000 43.47800 24.28400
H  7.20300 43.43300 25.83100
H  4.21700 44.37900 30.37400
H  4.40200 42.63000 34.31700
H  5.52400 41.59100 33.30300
H  3.82900 41.27000 33.42600

