158

Mg 2.56300 -1.16500 43.72500
C  6.00900 -0.39500 43.30300
C  1.85700 1.98200 42.21100
C  -0.44300 -2.20100 43.02500
C  3.49200 -4.40200 44.77600
N  3.77100 0.57500 42.80600
C  5.13700 0.66800 42.80700
C  5.66700 1.91300 42.10700
C  4.36500 2.71000 41.85900
C  3.23800 1.79900 42.38400
C  4.30300 4.11700 42.36700
C  6.47200 1.60300 40.75400
C  7.28100 2.77400 40.16500
H  6.90700 3.23800 38.73000
N  0.87800 -0.17500 43.06200
C  0.78600 1.10700 42.45300
C  -0.51900 1.43100 42.19200
C  -1.27200 0.21000 42.39100
C  -0.30200 -0.80600 42.88500
C  -0.99400 2.73100 41.59600
C  -2.65600 -0.03700 41.96900
O  -3.35600 0.76000 41.37900
C  -3.36500 -1.40700 42.30800
N  1.67000 -3.07000 43.87600
C  0.38600 -3.27800 43.49500
C  0.02400 -4.81700 43.57400
C  1.16200 -5.35500 44.44500
C  2.16100 -4.24500 44.41800
C  -1.41800 -5.18300 43.95900
C  1.71100 -6.79800 44.04400
C  1.75100 -7.85900 45.18800
N  4.32300 -2.18000 44.08600
C  4.57600 -3.44000 44.55600
C  5.96200 -3.67300 44.74100
C  6.55900 -2.52900 44.21300
C  5.58400 -1.58700 43.88700
C  6.58900 -4.92200 45.31900
C  7.85700 -1.86500 43.96500
O  8.98900 -2.20300 44.19600
C  7.52700 -0.53300 43.26100
C  8.48700 0.52100 43.79600
O  9.60300 0.81000 43.30400
O  7.99000 1.09600 44.99500
C  8.93400 1.99000 45.72300
H  1.54900 2.93900 41.78500
H  -1.42200 -2.64000 42.82000
H  3.79600 -5.36200 45.19800
H  6.27300 2.55500 42.74700
H  4.20400 2.86900 40.79200
H  3.26000 4.42800 42.30700
H  4.90200 4.74100 41.70400
H  4.82500 4.09000 43.32400
H  5.70300 1.39200 40.01100
H  7.10700 0.72300 40.85500
H  8.37000 2.73100 40.20100
H  6.98400 3.66100 40.72500
H  -2.02200 3.01800 41.81900
H  -0.58100 2.88500 40.59900
H  -0.42400 3.46400 42.16600
H  -4.42700 -1.17300 42.23700
H  -3.42300 -1.78700 43.32800
H  -3.12000 -2.17800 41.57800
H  0.26100 -5.19100 42.57800
H  0.79700 -5.40000 45.47100
H  -1.41300 -6.03200 44.64300
H  -2.02400 -5.50900 43.11400
H  -1.99800 -4.32700 44.30300
H  2.69600 -6.61000 43.61800
H  1.15000 -7.33400 43.27800
H  2.83000 -7.95900 45.30700
H  1.10500 -8.71100 44.98100
H  1.33400 -7.32800 46.04400
H  6.34300 -5.87500 44.85000
H  6.09200 -4.93000 46.28900
H  7.67300 -4.83600 45.39700
H  7.80200 -0.73100 42.22500
H  8.70800 2.99500 45.36800
H  9.99300 1.73500 45.74500
H  8.61500 1.93600 46.76400
Mg 26.22600 0.67700 28.76700
C  28.18300 0.35900 31.71000
C  23.56800 1.24800 30.98100
C  24.28500 0.93500 26.12100
C  29.01600 -0.24400 26.88000
N  25.93100 0.63600 31.05900
C  26.83100 0.60000 32.07900
C  26.29800 0.79900 33.48100
C  24.82000 0.90700 33.15100
C  24.75200 0.98900 31.64800
C  24.05900 -0.38900 33.70800
C  26.99600 2.01100 34.13800
C  26.25600 2.75500 35.25000
H  27.00400 2.93800 36.65100
N  24.22200 1.06100 28.57600
C  23.32200 1.23800 29.59800
C  21.98600 1.45700 29.01900
C  22.24100 1.30300 27.54400
C  23.63100 1.09500 27.37900
C  20.75700 1.74800 29.82300
C  21.15400 1.28500 26.47400
O  21.32400 0.95300 25.32100
C  19.77700 1.63400 26.86000
N  26.62100 0.20900 26.74600
C  25.62200 0.53200 25.75900
C  26.16800 0.28500 24.32500
C  27.65600 -0.19600 24.64300
C  27.81000 0.00300 26.24200
C  25.35600 -0.66700 23.36300
C  28.80600 0.51600 23.87900
C  29.70600 -0.41100 23.03200
N  28.16500 0.18700 29.14800
C  29.18700 -0.19200 28.26600
C  30.37900 -0.51800 29.05400
C  29.97700 -0.22700 30.40600
C  28.64400 0.15500 30.39800
C  31.80800 -0.98200 28.74400
C  30.48400 -0.32400 31.74400
O  31.54500 -0.65300 32.25200
C  29.29700 0.14400 32.64800
C  28.92700 -0.90600 33.55500
O  28.40100 -1.98400 33.25200
O  29.49300 -0.62900 34.76400
C  29.16900 -1.56300 35.87100
H  22.74900 1.43500 31.67900
H  23.72300 1.04000 25.19100
H  29.92000 -0.44000 26.29900
H  26.47800 -0.05300 34.13600
H  24.32800 1.72400 33.67900
H  24.72600 -1.20200 33.99600
H  23.58900 -0.88700 32.86000
H  23.38500 -0.13600 34.52600
H  27.17900 2.76100 33.36800
H  28.00400 1.74800 34.46000
H  25.38900 2.16300 35.54300
H  25.99200 3.76700 34.94400
H  21.00000 1.69100 30.88400
H  20.00500 0.97000 29.69200
H  20.35500 2.75200 29.68900
H  19.07000 1.34600 26.08200
H  19.66000 2.69800 27.06500
H  19.46100 1.02500 27.70700
H  26.33600 1.26300 23.87300
H  27.62700 -1.24000 24.33000
H  25.88900 -1.59500 23.15500
H  25.26000 -0.11400 22.42900
H  24.38700 -0.95600 23.76900
H  29.50200 0.92900 24.60900
H  28.37100 1.26400 23.21700
H  29.26400 -0.72400 22.08600
H  29.89200 -1.37600 23.50400
H  30.67400 0.01200 22.76200
H  32.33100 -0.20200 28.19100
H  31.80600 -1.85500 28.09100
H  32.46800 -1.33400 29.53800
H  29.67000 0.97800 33.24300
H  29.07600 -2.59300 35.52700
H  28.25700 -1.33400 36.42300
H  30.02900 -1.53500 36.53900

