158

Mg 49.29000 35.56200 28.86200
C  46.78200 34.12500 31.04500
C  49.71500 37.96600 31.09000
C  51.30700 36.86100 26.56800
C  48.07700 33.27200 26.34700
N  48.55200 35.84700 30.97700
C  47.56200 35.12000 31.64700
C  47.20700 35.89900 32.91600
C  47.89100 37.26900 32.75600
C  48.79400 37.01200 31.55100
C  46.92300 38.41800 32.55700
C  47.69700 35.14000 34.16900
C  49.27900 34.96700 34.27100
H  49.90300 34.79300 35.70900
N  50.39300 37.17000 28.86900
C  50.50400 38.05000 29.88400
C  51.57800 38.98700 29.58400
C  52.09000 38.65800 28.24500
C  51.26300 37.55600 27.83800
C  51.94200 40.02900 30.54500
C  53.12300 39.34500 27.41200
O  53.49300 38.91000 26.35400
C  53.75100 40.68100 27.74100
N  49.51700 35.22700 26.70000
C  50.42800 35.89600 26.00500
C  50.61800 35.25800 24.59600
C  49.70300 34.02000 24.61700
C  49.03400 34.18400 25.96000
C  50.27400 36.26000 23.45700
C  50.49300 32.72200 24.35600
C  50.07000 32.09300 23.05000
N  47.81200 33.93900 28.70400
C  47.46700 33.13400 27.64800
C  46.50800 32.09000 28.14100
C  46.13800 32.50800 29.43500
C  47.01200 33.62000 29.74800
C  45.91500 30.99600 27.38500
C  45.19500 32.27700 30.51100
O  44.30800 31.48400 30.75200
C  45.61700 33.42400 31.61200
C  45.89500 32.56900 32.84500
O  46.62400 31.55000 32.87200
O  45.01000 33.02500 33.87900
C  45.08900 32.25800 35.11200
H  49.82600 38.85500 31.71500
H  52.05200 37.21800 25.85400
H  47.76500 32.42000 25.73900
H  46.13000 36.06500 32.87500
H  48.56400 37.60200 33.54600
H  45.92800 38.11400 32.88300
H  46.85400 38.89800 31.58100
H  47.20500 39.23900 33.21600
H  47.33300 34.11300 34.18900
H  47.20000 35.72900 34.94100
H  49.90200 35.55600 33.59800
H  49.34200 33.98700 33.79700
H  51.05400 40.66100 30.50300
H  52.72600 40.68300 30.16400
H  52.25400 39.70100 31.53600
H  52.98200 41.38300 28.06500
H  54.03200 41.02800 26.74700
H  54.55600 40.58100 28.46900
H  51.66300 34.97200 24.47500
H  48.82700 34.06600 23.97000
H  49.71200 37.12600 23.80600
H  49.69100 35.73100 22.70300
H  51.20800 36.64700 23.05100
H  50.23700 31.93600 25.06600
H  51.57600 32.80800 24.44400
H  49.53900 32.77900 22.38900
H  49.53400 31.15900 23.21800
H  50.93200 31.75600 22.47600
H  46.60500 30.65100 26.61500
H  45.04300 31.40000 26.86900
H  45.63000 30.12900 27.98000
H  44.75700 34.06600 31.80400
H  45.97300 32.53500 35.68600
H  45.05200 31.19000 34.89200
H  44.23700 32.58100 35.70900
Mg 17.27900 51.95000 27.01400
C  19.42600 50.75800 29.59200
C  15.10800 52.58200 29.44800
C  15.18900 52.84100 24.51700
C  19.62900 50.81600 24.62700
N  17.33400 51.79000 29.28700
C  18.32100 51.33700 30.08400
C  17.93600 51.37400 31.52800
C  16.38700 51.63900 31.42700
C  16.23400 52.01300 29.96500
C  15.40700 50.45900 31.71100
C  18.75700 52.48900 32.27400
C  18.40800 52.92400 33.73200
H  17.59400 52.02300 34.66300
N  15.37500 52.80500 26.94300
C  14.64800 53.00500 28.11500
C  13.31900 53.48300 27.71400
C  13.35100 53.61900 26.26100
C  14.66600 53.05100 25.80500
C  12.27200 53.92100 28.68800
C  12.36200 54.25500 25.32400
O  12.47600 54.41800 24.13500
C  11.14500 54.89000 25.96700
N  17.44000 51.84800 24.83600
C  16.38900 52.31100 24.04400
C  16.61700 52.07400 22.54500
C  18.21400 51.77100 22.59500
C  18.46800 51.42900 24.08900
C  15.70600 50.94200 22.00500
C  19.08000 52.92600 21.93800
C  20.42100 52.51500 21.46800
N  19.08200 50.87300 27.06200
C  19.95400 50.58100 26.02500
C  21.11200 49.87700 26.60100
C  20.96700 49.88900 28.00400
C  19.72300 50.57800 28.25300
C  22.28600 49.38300 25.87500
C  21.60900 49.59400 29.25600
O  22.65100 49.01600 29.46300
C  20.59600 49.91600 30.30400
C  20.14900 48.61300 30.85400
O  19.70000 47.65500 30.20100
O  20.20900 48.61700 32.22900
C  19.83300 47.42800 33.00900
H  14.41500 52.80700 30.26100
H  14.41500 53.10000 23.79100
H  20.43100 50.39100 24.01900
H  18.16900 50.38900 31.93300
H  16.07900 52.39400 32.15100
H  14.74500 50.81300 32.50200
H  15.89800 49.53600 32.01900
H  14.83900 50.25600 30.80300
H  18.57600 53.35000 31.63000
H  19.81100 52.21300 32.28700
H  17.86600 53.86900 33.70300
H  19.42300 53.03400 34.11500
H  11.30500 53.46400 28.47500
H  12.17900 54.98600 28.47700
H  12.58100 53.76600 29.72200
H  11.40600 55.71800 26.62600
H  10.60100 54.13100 26.53000
H  10.56800 55.32300 25.15000
H  16.49800 53.06200 22.10000
H  18.47600 50.86100 22.05400
H  14.95300 51.35700 21.33500
H  15.08400 50.39800 22.71500
H  16.34100 50.20300 21.51500
H  19.25400 53.68300 22.70300
H  18.64000 53.52100 21.13800
H  20.56600 51.44200 21.59600
H  21.20900 53.08700 21.95900
H  20.51300 52.81300 20.42400
H  22.64500 48.44300 26.29500
H  23.14300 50.03600 26.04300
H  22.07700 49.24800 24.81400
H  21.06700 50.52400 31.07800
H  20.48900 46.56400 32.90200
H  18.93900 46.97700 32.57800
H  19.69200 47.55400 34.08300

