158

Mg 44.96100 4.27900 47.09600
C  42.87500 6.98200 47.23200
C  42.23100 2.20300 47.10300
C  47.01200 1.77200 46.34000
C  47.75700 6.49000 46.81800
N  42.83400 4.56600 47.10100
C  42.13100 5.76500 47.06200
C  40.66600 5.58700 46.97300
C  40.55800 4.04900 47.34200
C  41.98100 3.54900 47.20700
C  39.79200 3.68500 48.67600
C  39.93700 5.86600 45.60200
C  40.71000 5.74400 44.27400
H  40.58200 6.73600 43.10500
N  44.64500 2.24500 46.70500
C  43.47200 1.55100 46.83300
C  43.65400 0.19700 46.58600
C  45.03800 0.10800 46.19100
C  45.61700 1.39500 46.43100
C  42.61200 -0.86800 46.55200
C  45.66000 -1.05200 45.52500
O  45.01000 -2.06300 45.22000
C  47.13900 -1.17200 45.13500
N  47.10600 4.21600 46.30900
C  47.72300 2.99500 46.52400
C  49.24800 3.09700 46.38100
C  49.47300 4.64300 46.61200
C  48.02800 5.18500 46.56100
C  49.97300 2.27400 47.50200
C  50.36700 5.19300 45.52400
C  49.70400 5.23800 44.11500
N  45.35300 6.34600 47.08000
C  46.49600 7.07500 46.93700
C  46.17200 8.47600 47.00700
C  44.77000 8.45600 47.20300
C  44.35400 7.14900 47.21500
C  47.09900 9.69400 46.88800
C  43.57100 9.31000 47.41000
O  43.47400 10.54800 47.51000
C  42.31100 8.36300 47.37800
C  41.39100 8.60200 48.51000
O  41.41200 7.96400 49.53900
O  40.47000 9.60500 48.24000
C  39.32100 9.67000 49.10200
H  41.39600 1.50100 47.07800
H  47.72000 0.94400 46.27500
H  48.63300 7.13100 46.93500
H  40.20100 6.13800 47.79100
H  39.96000 3.48400 46.62600
H  38.74300 3.59000 48.39600
H  39.96300 4.50200 49.37600
H  40.14500 2.79200 49.19100
H  39.65400 6.91800 45.65200
H  38.99600 5.33200 45.47000
H  40.38100 4.72700 44.05700
H  41.75300 5.59800 44.55700
H  42.30100 -0.99100 45.51500
H  41.73500 -0.62100 47.15000
H  42.92900 -1.88500 46.78000
H  47.72000 -1.24600 46.05500
H  47.39100 -0.40400 44.40400
H  47.29700 -2.13600 44.65100
H  49.38400 2.70200 45.37400
H  50.01400 4.83500 47.53900
H  50.11800 1.19700 47.41100
H  49.24700 2.27300 48.31500
H  50.93100 2.72000 47.77000
H  51.26400 4.57400 45.49700
H  50.73500 6.16800 45.84100
H  50.37100 4.84100 43.34900
H  49.64000 6.31500 43.96100
H  48.72700 4.76100 44.03300
H  47.38900 9.81700 45.84400
H  48.00200 9.67500 47.49800
H  46.51100 10.57500 47.14200
H  41.71000 8.73500 46.54800
H  38.61000 8.85600 48.95900
H  38.88100 10.63700 48.85800
H  39.56600 9.73400 50.16200
Mg 30.05400 57.99300 39.48300
C  27.43000 56.09400 38.55100
C  32.27500 55.39600 38.64200
C  32.67300 60.10200 39.30800
C  27.95300 60.80300 39.39200
N  29.80000 56.04300 38.67400
C  28.63600 55.41900 38.36100
C  28.92100 54.04100 37.79200
C  30.35200 53.69000 38.28400
C  30.88300 55.12200 38.51300
C  30.34500 52.75900 39.47600
C  28.67700 54.03300 36.21100
C  27.48000 53.22800 35.71200
H  26.77200 54.03000 34.63300
N  32.16800 57.83000 39.25100
C  32.86100 56.65600 38.88900
C  34.28300 57.00700 38.69500
C  34.45800 58.38500 39.02800
C  33.08000 58.80900 39.24200
C  35.24600 55.96400 38.26400
C  35.75600 59.10500 39.10100
O  36.75100 58.47900 38.74100
C  35.92300 60.51300 39.57600
N  30.24300 60.15700 39.05700
C  31.45300 60.75700 39.26100
C  31.40000 62.31200 39.26500
C  29.86900 62.52700 39.17700
C  29.31700 61.08700 39.18000
C  31.99300 62.89400 40.58800
C  29.39600 63.31700 37.91000
C  28.40900 64.48300 38.22100
N  28.04100 58.36100 39.30800
C  27.28800 59.52900 39.37600
C  25.95200 59.15700 39.40700
C  25.90500 57.81000 39.07500
C  27.20900 57.39700 38.96100
C  24.82000 60.04900 39.62700
C  25.07200 56.66700 38.82700
O  23.83300 56.63600 38.86200
C  26.03400 55.48000 38.36500
C  25.84200 54.30200 39.27700
O  26.28200 54.21200 40.43900
O  25.16200 53.30200 38.70100
C  24.80000 52.14400 39.61000
H  32.91000 54.51400 38.53700
H  33.53900 60.76700 39.31300
H  27.32800 61.69700 39.39300
H  28.26300 53.28900 38.22800
H  30.94200 53.22700 37.49200
H  30.57800 53.23700 40.42700
H  31.01900 51.90700 39.39000
H  29.39700 52.24700 39.63800
H  29.55800 53.56100 35.77700
H  28.76400 55.03000 35.77900
H  26.74400 53.04300 36.49500
H  27.87400 52.23900 35.47700
H  36.17400 56.01100 38.83400
H  35.27400 56.03500 37.17700
H  34.82300 54.98600 38.49400
H  35.30400 60.63300 40.46600
H  35.65300 61.17900 38.75600
H  36.97200 60.61000 39.85700
H  31.95700 62.65200 38.39200
H  29.47100 63.04600 40.04800
H  32.82200 63.57600 40.39900
H  32.39200 62.03600 41.12900
H  31.29100 63.39100 41.25700
H  28.90500 62.62900 37.22100
H  30.23200 63.84700 37.45500
H  28.29900 64.68700 39.28600
H  27.45600 64.37900 37.70400
H  28.90900 65.35600 37.80100
H  24.98000 61.12300 39.72000
H  24.37400 59.83000 40.59700
H  23.98800 59.82800 38.95800
H  25.80400 55.22900 37.32900
H  25.66300 51.82500 40.19300
H  24.26400 51.33700 39.11100
H  24.20700 52.38200 40.49300

