158

Mg 25.31100 51.00000 26.43000
C  23.03400 52.05700 29.03800
C  27.58300 50.31900 28.87300
C  27.69700 50.50000 24.06100
C  22.98000 52.00800 24.07900
N  25.25900 51.02700 28.71300
C  24.18500 51.33800 29.53600
C  24.60200 51.08500 31.04000
C  26.12000 50.69800 30.89200
C  26.32700 50.70800 29.39300
C  27.12200 51.57200 31.60300
C  23.63400 50.00200 31.63700
C  23.81000 49.58500 33.13400
H  23.90500 50.67300 34.09700
N  27.34300 50.55700 26.45100
C  28.06500 50.23600 27.52900
C  29.37500 49.80800 27.14200
C  29.50500 50.11900 25.79300
C  28.17200 50.46400 25.36200
C  30.46600 49.28800 28.06200
C  30.73100 50.08400 24.88000
O  30.53800 50.30400 23.65700
C  32.10400 49.74400 25.35100
N  25.41600 51.32400 24.40700
C  26.43700 50.91100 23.61500
C  26.15200 51.12800 22.12500
C  24.70400 51.76000 22.19000
C  24.31100 51.63500 23.62700
C  27.24600 51.96200 21.39300
C  23.71100 51.04600 21.22000
C  23.36500 49.58400 21.21100
N  23.38300 51.76400 26.53300
C  22.56000 52.13500 25.45800
C  21.36700 52.67500 25.98300
C  21.50600 52.70600 27.34800
C  22.73400 52.14400 27.69400
C  20.24100 53.21200 25.13300
C  20.82000 52.96500 28.62800
O  19.72300 53.43200 28.85900
C  21.85600 52.60800 29.78300
C  22.11300 53.74500 30.71300
O  22.72500 54.77000 30.45700
O  21.73300 53.42400 31.98100
C  21.92400 54.50200 32.94900
H  28.23200 49.88300 29.63500
H  28.32700 50.12900 23.25000
H  22.24800 52.34200 23.34000
H  24.47800 52.11400 31.38000
H  26.08400 49.69300 31.31400
H  26.49900 52.12300 32.30800
H  27.54500 52.32600 30.93900
H  27.91800 51.04400 32.12800
H  23.82400 49.13400 31.00600
H  22.59700 50.21800 31.37700
H  24.68300 48.94600 33.27200
H  22.89500 49.04100 33.36600
H  31.03700 48.42000 27.73400
H  30.02700 49.03100 29.02500
H  31.11400 50.12400 28.32700
H  32.25700 48.77700 25.83100
H  32.38800 50.51800 26.06400
H  32.80400 49.73900 24.51500
H  26.07900 50.13900 21.67400
H  24.78100 52.81800 21.93900
H  28.06200 52.17900 22.08300
H  26.81100 52.87600 20.99000
H  27.75200 51.34600 20.65000
H  24.25500 51.26400 20.30100
H  22.89200 51.76200 21.27800
H  23.72400 49.17300 20.26800
H  22.27700 49.51800 21.20900
H  23.78800 49.08300 22.08200
H  19.70400 52.43000 24.59400
H  20.72400 53.88300 24.42300
H  19.45100 53.71100 25.69400
H  21.30600 51.88900 30.39100
H  22.97700 54.45700 33.22900
H  21.27200 54.17500 33.75900
H  21.51000 55.46300 32.64700
Mg -8.35300 40.50200 42.54100
C  -7.42900 37.36100 41.35300
C  -5.79200 41.89300 40.87300
C  -9.99400 43.51600 42.73000
C  -11.27200 38.99000 43.71700
N  -6.90600 39.70400 41.24600
C  -6.56900 38.40300 40.92100
C  -5.22100 38.17800 40.27600
C  -4.57400 39.62100 40.44300
C  -5.84300 40.49700 40.88700
C  -3.47400 39.66400 41.57000
C  -5.29500 37.67000 38.77500
C  -4.48500 36.35100 38.61300
H  -3.23100 36.45500 37.68800
N  -7.83600 42.51500 42.14400
C  -6.71800 42.86700 41.41800
C  -6.55100 44.32300 41.46700
C  -7.77900 44.88600 42.02600
C  -8.62600 43.65000 42.27900
C  -5.25100 44.84100 40.97300
C  -8.10300 46.30100 42.29500
O  -7.32400 47.16200 41.89200
C  -9.33200 46.69300 42.98400
N  -10.44100 41.17200 43.00600
C  -10.76900 42.49200 43.14000
C  -12.20500 42.62000 43.68900
C  -12.48000 41.18100 44.17900
C  -11.40900 40.38900 43.49600
C  -12.40200 43.70400 44.79800
C  -13.91800 40.71400 44.08200
C  -14.25900 39.80100 42.86900
N  -9.24000 38.57500 42.61000
C  -10.40100 38.13000 43.12400
C  -10.40600 36.68200 43.05600
C  -9.26100 36.33100 42.40900
C  -8.60900 37.55600 42.09600
C  -11.45900 35.78400 43.68800
C  -8.41800 35.19900 41.89000
O  -8.57600 34.00700 41.96500
C  -7.22100 35.85700 41.12500
C  -5.96900 35.38500 41.83800
O  -5.56500 35.75200 42.89600
O  -5.40500 34.38600 41.09800
C  -4.10200 33.94800 41.56200
H  -4.85200 42.16600 40.38900
H  -10.54600 44.45600 42.80100
H  -12.03000 38.50600 44.33700
H  -4.69100 37.50200 40.94700
H  -4.16400 40.01400 39.51200
H  -3.85900 39.98900 42.53700
H  -2.74200 40.38400 41.20500
H  -3.07400 38.66800 41.75700
H  -4.85600 38.37300 38.06700
H  -6.32600 37.56200 38.43900
H  -5.23000 35.63500 38.26600
H  -4.12300 36.02100 39.58700
H  -5.22700 44.51900 39.93200
H  -4.35400 44.40600 41.41200
H  -5.16900 45.92800 40.98600
H  -9.09100 47.67400 43.39300
H  -9.51500 46.08600 43.87100
H  -10.13600 46.68100 42.24800
H  -12.88600 42.84400 42.86800
H  -12.35900 41.20300 45.26200
H  -12.67800 43.33700 45.78600
H  -13.28300 44.26100 44.48000
H  -11.48500 44.29200 44.82300
H  -14.57000 41.58600 44.03500
H  -14.27000 40.13600 44.93700
H  -14.43000 38.78300 43.22100
H  -13.41700 39.93000 42.18900
H  -15.16800 40.18700 42.40700
H  -12.29600 35.68400 42.99700
H  -11.65600 36.15300 44.69500
H  -11.08400 34.76500 43.78700
H  -7.30200 35.62400 40.06300
H  -3.44200 34.72800 41.94200
H  -3.53800 33.33500 40.85900
H  -4.24700 33.31200 42.43500

