158

Mg 39.63400 9.22500 30.09200
C  41.45800 10.45200 32.82600
C  37.21600 8.17500 32.28300
C  38.01700 7.86600 27.56000
C  42.25100 10.34200 27.93000
N  39.46400 9.20700 32.34200
C  40.23400 9.90500 33.21600
C  39.64600 9.86800 34.65900
C  38.30800 9.06600 34.43400
C  38.33700 8.78400 32.96700
C  38.18400 7.73400 35.28800
C  39.54400 11.34900 35.24300
C  40.35900 11.58700 36.51500
H  39.58000 12.15600 37.66300
N  37.98200 8.03300 29.97500
C  37.08800 7.66700 30.96600
C  35.95400 7.02800 30.43700
C  36.25200 6.74000 29.12100
C  37.48100 7.54600 28.83200
C  34.75300 6.68700 31.32000
C  35.49600 6.15100 27.98000
O  35.92400 5.85500 26.86300
C  34.10100 5.71300 28.35200
N  40.21100 9.01700 28.03800
C  39.27100 8.46400 27.13600
C  39.58200 8.88900 25.67900
C  40.94500 9.58100 25.85600
C  41.22500 9.64500 27.34900
C  39.72700 7.70300 24.70500
C  40.96800 11.01800 25.18300
C  39.84000 12.02400 25.52700
N  41.49900 10.20300 30.34200
C  42.46400 10.59200 29.35700
C  43.56800 11.22400 30.03200
C  43.22600 11.21800 31.41100
C  41.96300 10.52100 31.51500
C  44.84600 11.91900 29.50700
C  43.60700 11.67200 32.73100
O  44.58400 12.32500 33.09900
C  42.45000 11.17400 33.73600
C  43.11000 10.11900 34.63100
O  43.16800 8.92100 34.43300
O  43.76500 10.80200 35.65200
C  44.22900 10.07100 36.89000
H  36.37600 8.08500 32.97300
H  37.44500 7.52200 26.69600
H  43.17100 10.57700 27.39000
H  40.27500 9.22500 35.27500
H  37.40600 9.64600 34.63400
H  38.21400 6.89300 34.59500
H  37.21600 7.68500 35.78700
H  39.03400 7.54700 35.94300
H  38.50400 11.63600 35.39800
H  40.07200 11.98000 34.52800
H  41.03300 12.42000 36.31600
H  41.04100 10.77300 36.76000
H  33.91400 7.37900 31.23700
H  34.99900 6.63200 32.38000
H  34.38300 5.68300 31.11200
H  33.52800 6.38400 28.99200
H  34.32700 4.81700 28.93100
H  33.49800 5.47500 27.47600
H  38.80800 9.47200 25.18100
H  41.80700 9.02600 25.48400
H  40.07900 6.79300 25.19000
H  40.49000 7.84600 23.94000
H  38.78300 7.55000 24.18300
H  40.84100 10.74000 24.13600
H  41.98700 11.38300 25.30800
H  39.21500 12.16300 24.64500
H  40.34200 12.94700 25.81500
H  39.21000 11.78200 26.38300
H  45.14700 11.35300 28.62500
H  45.66200 11.82400 30.22300
H  44.64400 12.97800 29.34200
H  42.14200 11.90200 34.48600
H  44.90600 10.76100 37.39400
H  44.58300 9.09200 36.56900
H  43.32500 9.86800 37.46300
Mg 10.05100 47.88100 26.10400
C  7.92600 48.05100 28.94900
C  12.53200 49.33300 27.81400
C  11.84000 47.82200 23.43400
C  7.09000 47.19800 24.24200
N  10.12500 48.81800 28.04900
C  9.29400 48.53300 29.09800
C  10.01800 48.93500 30.41300
C  11.15000 49.73100 29.93900
C  11.28100 49.29000 28.48800
C  10.98600 51.24100 29.98400
C  10.44400 47.67100 31.23800
C  9.76900 47.49000 32.60600
H  10.17800 46.32100 33.47600
N  11.98600 48.43800 25.70100
C  12.92600 48.89800 26.56100
C  14.26700 48.92400 25.91500
C  14.03600 48.44400 24.59900
C  12.55400 48.23400 24.50300
C  15.60200 49.26100 26.73100
C  15.02500 48.27200 23.45500
O  14.75000 47.90800 22.27200
C  16.52000 48.43100 23.72300
N  9.48500 47.82300 24.03700
C  10.54700 47.66000 23.21100
C  9.99700 47.30700 21.78900
C  8.46000 46.94700 22.06000
C  8.32300 47.30000 23.51600
C  10.16300 48.38900 20.68300
C  8.08300 45.44500 21.69100
C  8.33300 44.26200 22.65300
N  7.96300 47.62800 26.49800
C  6.90400 47.34400 25.64800
C  5.65000 47.28800 26.33100
C  6.06500 47.48400 27.67200
C  7.42000 47.70100 27.65900
C  4.32300 47.00000 25.79600
C  5.49900 47.51500 29.02000
O  4.31600 47.48700 29.29900
C  6.69300 47.71500 29.87500
C  6.94700 46.45800 30.60700
O  7.65700 45.55600 30.26900
O  6.08200 46.56400 31.70100
C  6.23400 45.45400 32.66800
H  13.37200 49.76300 28.36400
H  12.41500 47.74200 22.50900
H  6.18400 46.95100 23.68500
H  9.27700 49.49600 30.98200
H  12.11200 49.59000 30.43400
H  11.76900 51.62300 30.63900
H  10.02600 51.49600 30.43400
H  11.24500 51.76000 29.06100
H  11.52000 47.68500 31.41000
H  10.11100 46.73800 30.78200
H  8.70400 47.56900 32.38800
H  9.99000 48.41200 33.14400
H  16.19300 48.35200 26.61800
H  15.35900 49.50200 27.76600
H  15.99400 50.16400 26.26200
H  16.81100 47.81700 24.57500
H  16.82200 49.47800 23.67700
H  16.99400 48.01600 22.83400
H  10.57300 46.43500 21.48100
H  7.83500 47.63100 21.48500
H  9.28300 49.00200 20.48800
H  10.28600 47.78700 19.78300
H  11.02700 49.00400 20.93400
H  8.76200 45.20700 20.87300
H  7.08300 45.46800 21.25700
H  7.43400 43.99600 23.20800
H  9.02900 44.52400 23.44900
H  8.70600 43.40800 22.08700
H  3.66700 46.63300 26.58500
H  4.34100 46.37500 24.90300
H  3.91100 47.94600 25.44300
H  6.58100 48.58300 30.52500
H  6.07000 46.01900 33.58500
H  7.26800 45.11100 32.63900
H  5.52900 44.62300 32.63300

