158

Mg 46.61400 34.47300 28.08400
C  44.82800 32.82500 30.64900
C  47.25500 36.97200 30.29400
C  47.71400 36.34500 25.49900
C  45.53200 32.05300 25.84100
N  46.03700 34.80500 30.22600
C  45.45900 33.96200 31.10200
C  45.76300 34.45500 32.54400
C  46.06900 35.96400 32.36800
C  46.45600 35.93500 30.81000
C  44.78000 36.78700 32.50900
C  47.00900 33.72100 33.20800
C  46.96900 33.58400 34.74000
H  46.14100 34.62200 35.49800
N  47.50000 36.29500 27.87800
C  47.69700 37.18700 28.95500
C  48.42200 38.36300 28.50200
C  48.46200 38.21300 27.11500
C  47.89700 36.91100 26.77300
C  48.85000 39.49900 29.46500
C  48.93900 39.28300 26.13000
O  48.94800 39.13400 24.94500
C  49.39100 40.57700 26.69100
N  46.45700 34.27700 25.91400
C  46.93800 35.22900 25.10600
C  46.89900 34.73100 23.62400
C  46.09200 33.37800 23.77000
C  46.06300 33.15700 25.23000
C  46.37900 35.72800 22.59300
C  46.50400 32.17400 22.93000
C  45.55500 31.61000 21.87600
N  45.59800 32.67900 28.21800
C  45.15200 31.83900 27.23000
C  44.52000 30.70600 27.79000
C  44.39800 31.07000 29.08600
C  45.01600 32.28400 29.33800
C  44.01800 29.43600 27.14500
C  43.76700 30.70600 30.34600
O  43.12600 29.70800 30.63100
C  43.82100 31.93000 31.32100
C  44.05000 31.52800 32.68700
O  45.05500 31.01300 33.11900
O  42.96600 32.15500 33.35700
C  42.93300 32.03200 34.75200
H  47.35600 37.83100 30.96000
H  48.14300 37.07900 24.81300
H  45.19700 31.32300 25.10200
H  44.86200 34.32900 33.14400
H  46.87000 36.34000 33.00400
H  43.94000 36.16500 32.81700
H  44.54700 37.33100 31.59300
H  44.97300 37.58400 33.22800
H  47.96600 34.14100 32.89700
H  46.88600 32.73700 32.75600
H  47.99500 33.56100 35.10900
H  46.45000 32.66000 34.99500
H  48.96400 39.24600 30.51900
H  48.06400 40.25200 29.41400
H  49.82500 39.88100 29.16100
H  48.81000 41.03500 27.49200
H  49.65500 41.17000 25.81600
H  50.36900 40.32600 27.10000
H  47.92500 34.50100 23.33600
H  45.04800 33.65000 23.61300
H  47.19300 35.96600 21.90800
H  46.15400 36.65100 23.12600
H  45.53000 35.31100 22.05000
H  46.71400 31.39200 23.66000
H  47.49300 32.25200 22.47900
H  44.62500 32.16500 21.75300
H  45.27500 30.58100 22.10300
H  45.97700 31.70200 20.87600
H  44.58200 29.42900 26.21300
H  42.93100 29.43600 27.05700
H  44.44100 28.51800 27.55500
H  42.93800 32.56100 31.22300
H  42.78400 30.97900 34.99000
H  42.06700 32.44500 35.26900
H  43.81800 32.45800 35.22500
Mg 9.04300 47.55900 26.85200
C  7.08800 47.14200 29.63300
C  11.70500 47.95700 28.99900
C  10.84800 48.65400 24.17000
C  6.13600 47.65000 24.84200
N  9.38100 47.62100 29.14300
C  8.41700 47.35000 30.06000
C  9.01600 47.38700 31.49200
C  10.53000 47.70700 31.25100
C  10.53100 47.77500 29.72100
C  11.21800 48.89100 31.98500
C  8.67700 46.25200 32.55400
C  9.79400 45.90200 33.53000
H  9.43700 45.15500 34.80800
N  11.04500 48.08100 26.60100
C  11.99700 48.13600 27.58900
C  13.24900 48.39400 26.97400
C  13.02100 48.54600 25.58500
C  11.59000 48.48000 25.39500
C  14.55900 48.30900 27.81700
C  14.02000 48.80400 24.50000
O  13.77300 49.01200 23.30500
C  15.46000 49.01900 24.92000
N  8.55100 48.17900 24.80500
C  9.47400 48.66100 23.92400
C  8.86200 48.94000 22.60400
C  7.38200 48.39800 22.75900
C  7.34400 48.00500 24.24100
C  8.87300 50.45600 22.24600
C  7.01200 47.12500 21.77900
C  6.20700 47.45400 20.45000
N  7.01800 47.41700 27.11300
C  5.94600 47.31200 26.18400
C  4.68500 47.10600 26.89000
C  5.06300 47.06900 28.25000
C  6.50100 47.22100 28.33100
C  3.34600 47.07600 26.19600
C  4.59300 46.82900 29.62000
O  3.46100 46.69600 30.06300
C  5.92900 46.73100 30.52600
C  6.01000 45.34700 31.12000
O  6.63700 44.42300 30.63000
O  5.44300 45.35800 32.39300
C  5.70300 44.28600 33.28600
H  12.56200 48.03500 29.67100
H  11.42700 48.85000 23.26500
H  5.27800 47.64800 24.16700
H  8.62700 48.23400 32.05600
H  11.11500 46.81600 31.47800
H  11.74300 49.52900 31.27300
H  12.02600 48.41700 32.54300
H  10.52300 49.47000 32.59400
H  8.56300 45.28200 32.07000
H  7.81300 46.58200 33.13100
H  10.15300 46.88300 33.84000
H  10.61100 45.36100 33.05300
H  14.95600 49.32200 27.74800
H  15.35500 47.65100 27.46900
H  14.37400 48.13100 28.87600
H  15.67400 49.69400 25.74900
H  15.91600 49.33600 23.98200
H  15.85400 48.00800 25.02800
H  9.44900 48.37800 21.87800
H  6.58900 49.14200 22.67900
H  9.41200 50.57400 21.30600
H  9.51300 50.87900 23.02100
H  7.86800 50.87600 22.27300
H  6.50300 46.36400 22.37000
H  8.02500 46.88500 21.45700
H  5.30600 46.84100 20.46700
H  6.72300 47.23100 19.51500
H  5.77700 48.45400 20.39600
H  3.15700 46.32500 25.42800
H  3.19200 48.06600 25.76800
H  2.46200 46.94100 26.81900
H  5.86500 47.51800 31.27700
H  6.41200 43.58200 32.85000
H  4.76700 43.82500 33.60000
H  6.26100 44.61300 34.16400

