158

Mg 25.90400 -0.34700 28.98500
C  27.83600 -0.30500 31.93600
C  23.12400 -0.07800 30.93400
C  24.09100 -0.33700 26.17700
C  28.72900 -1.39300 27.19800
N  25.56400 -0.37300 31.29400
C  26.46500 -0.07700 32.25900
C  25.88200 0.17800 33.68400
C  24.36900 0.16000 33.27000
C  24.34400 -0.10900 31.68800
C  23.47400 -0.96800 34.02500
C  26.48500 1.36900 34.42300
C  27.09200 1.24100 35.72700
H  26.78200 2.22800 36.86700
N  23.84900 -0.22800 28.62100
C  22.88100 -0.08900 29.55800
C  21.62800 0.11500 28.88000
C  21.86500 0.17700 27.48500
C  23.28200 -0.16800 27.36900
C  20.32700 0.16900 29.67800
C  20.98700 0.39300 26.27800
O  21.39600 0.41300 25.11200
C  19.52700 0.61500 26.48800
N  26.35900 -0.87700 26.92700
C  25.42900 -0.66400 25.91400
C  26.05900 -0.92700 24.58900
C  27.56200 -1.22600 24.96600
C  27.55400 -1.17600 26.43400
C  25.49000 -1.87900 23.53700
C  28.63700 -0.37600 24.16900
C  28.97900 1.01600 24.69400
N  27.90000 -0.79000 29.39500
C  28.91400 -1.22300 28.56700
C  30.19800 -1.26000 29.37500
C  29.77500 -0.87900 30.62200
C  28.41300 -0.67000 30.63600
C  31.58400 -1.58300 28.85100
C  30.31200 -0.65200 31.93000
O  31.46300 -0.82400 32.28700
C  29.05100 -0.30600 32.80200
C  28.83800 -1.35400 33.81300
O  28.32200 -2.45500 33.64000
O  29.41400 -0.93400 35.00400
C  29.31600 -1.77800 36.20700
H  22.34200 0.00400 31.69100
H  23.59500 -0.23000 25.21000
H  29.59200 -1.58700 26.55900
H  26.07900 -0.79200 34.13900
H  23.83400 1.10900 33.30000
H  23.98300 -1.32300 34.92200
H  23.40900 -1.80900 33.33600
H  22.43100 -0.73000 34.23600
H  25.78400 2.20300 34.44600
H  27.27700 1.83300 33.83500
H  28.17100 1.11900 35.63700
H  26.85400 0.23600 36.07500
H  20.58100 0.39600 30.71300
H  19.83800 -0.79100 29.50600
H  19.80700 1.01500 29.22800
H  19.05800 0.66500 25.50500
H  19.32100 1.48400 27.11300
H  19.21600 -0.33700 26.91800
H  26.18500 0.02900 24.08100
H  27.80500 -2.28200 24.84900
H  26.29400 -2.37500 22.99300
H  24.88900 -1.29900 22.83700
H  24.81000 -2.60100 23.98700
H  28.37400 -0.41200 23.11200
H  29.53000 -1.00100 24.18500
H  29.97300 0.99200 25.14300
H  28.27600 1.20100 25.50600
H  28.95300 1.81800 23.95700
H  32.26500 -1.00000 29.47000
H  31.69200 -1.39000 27.78400
H  31.70100 -2.63000 29.13200
H  29.07600 0.70900 33.19800
H  29.34300 -2.84400 35.98500
H  28.39200 -1.62300 36.76300
H  30.26800 -1.57600 36.69800
Mg 40.85000 8.35900 29.47800
C  42.59800 9.90900 32.13800
C  38.48000 7.22700 31.83300
C  39.43600 6.50500 27.08300
C  43.56100 9.07000 27.36500
N  40.59300 8.56300 31.75300
C  41.35800 9.36700 32.58900
C  40.78900 9.48300 33.95700
C  39.51100 8.46500 33.81600
C  39.48100 8.11600 32.35600
C  39.48200 7.30700 34.82900
C  40.44300 10.92800 34.48500
C  41.06000 11.22900 35.83300
H  40.17200 11.95200 36.80300
N  39.14200 7.11800 29.43200
C  38.29600 6.73900 30.50500
C  37.19500 6.06200 29.95500
C  37.36200 5.92300 28.56800
C  38.64600 6.49600 28.29200
C  36.09200 5.45300 30.76600
C  36.45200 5.23900 27.43100
O  36.77100 5.16900 26.19100
C  35.14500 4.77800 27.84200
N  41.36600 7.83700 27.46600
C  40.65500 7.07500 26.71300
C  41.27000 6.92900 25.31200
C  42.59800 7.68900 25.40600
C  42.49600 8.26000 26.82800
C  41.37800 5.47100 24.78800
C  42.84400 8.71700 24.28300
C  41.93200 9.95200 24.31100
N  42.64800 9.30800 29.62300
C  43.69900 9.49200 28.73300
C  44.73600 10.24800 29.32500
C  44.34600 10.43700 30.64600
C  43.06400 9.81800 30.80100
C  45.99300 10.73100 28.68100
C  44.83300 11.00400 31.90100
O  45.91800 11.47300 32.27300
C  43.59200 10.77500 32.89500
C  44.18000 10.12300 34.09800
O  44.55300 9.00500 34.23100
O  44.33900 11.13300 35.03100
C  44.98300 10.91100 36.28200
H  37.72800 7.19200 32.62400
H  38.96000 5.88500 26.32100
H  44.28800 9.40600 26.62200
H  41.60900 9.07700 34.55100
H  38.59100 9.03600 33.94300
H  39.44900 6.29200 34.43200
H  38.58500 7.30300 35.44700
H  40.33400 7.37400 35.50500
H  39.35500 10.93800 34.55000
H  40.68900 11.72000 33.77800
H  41.85700 11.87300 35.46100
H  41.55500 10.40300 36.34400
H  36.17200 4.36600 30.77200
H  35.05100 5.55800 30.46000
H  36.11500 5.72900 31.82000
H  34.71200 4.19600 27.02800
H  34.58700 5.61100 28.27000
H  35.28200 3.94100 28.52600
H  40.76800 7.54900 24.57000
H  43.34700 6.89700 25.43800
H  40.83000 5.41800 23.84800
H  40.95300 4.71300 25.44600
H  42.41200 5.27100 24.50700
H  42.85900 8.24800 23.29900
H  43.84700 9.13200 24.38100
H  41.15600 9.95400 25.07700
H  41.42700 10.11600 23.35900
H  42.56900 10.79200 24.58900
H  46.24200 9.89700 28.02400
H  46.74300 10.86900 29.46000
H  45.85000 11.71300 28.23000
H  43.17400 11.76400 33.08600
H  44.28400 10.44900 36.97900
H  45.36700 11.81400 36.75600
H  45.72200 10.19800 35.91600

