158

Mg 17.32900 -1.47900 27.77800
C  16.16200 0.42200 30.57600
C  19.42300 -3.08500 29.72700
C  18.78800 -2.73200 24.96300
C  15.57300 0.87300 25.76900
N  17.77900 -1.28600 29.91400
C  17.12500 -0.59700 30.84400
C  17.63800 -0.93000 32.24300
C  18.88200 -1.87200 31.95400
C  18.66100 -2.11000 30.44400
C  20.31600 -1.27200 32.23900
C  16.49000 -1.46700 33.11300
C  16.33900 -0.84400 34.52500
H  17.65600 -0.29600 35.23700
N  18.71100 -2.94100 27.41200
C  19.43100 -3.51300 28.39800
C  20.20500 -4.60400 27.75100
C  20.12600 -4.42900 26.32900
C  19.18600 -3.33600 26.16300
C  20.96100 -5.57000 28.55500
C  20.69800 -5.26700 25.18700
O  20.62900 -5.06200 23.98000
C  21.55400 -6.44900 25.54100
N  17.16700 -0.98200 25.72600
C  17.94000 -1.63900 24.72300
C  17.67400 -1.03000 23.36200
C  16.39400 -0.17600 23.65400
C  16.37500 -0.04300 25.14300
C  18.91400 -0.36700 22.65100
C  15.13700 -0.91100 23.09800
C  13.81200 -0.10500 23.02200
N  16.10700 0.35300 28.05700
C  15.38200 1.05500 27.12600
C  14.50700 1.98500 27.79300
C  14.78900 1.79400 29.19800
C  15.79600 0.78800 29.27000
C  13.52900 3.01900 27.23500
C  14.44500 2.21600 30.53800
O  13.60900 2.96700 30.94700
C  15.40100 1.32000 31.54400
C  16.23600 2.28400 32.22300
O  17.40400 2.51800 32.04400
O  15.49500 2.91400 33.22400
C  16.29400 3.82500 34.04400
H  20.17800 -3.59800 30.32700
H  19.32100 -3.04500 24.06300
H  15.16600 1.69200 25.17300
H  18.00200 0.01300 32.65100
H  18.82500 -2.77800 32.55700
H  20.65000 -1.71400 33.17800
H  20.31200 -0.18300 32.28500
H  21.08400 -1.46800 31.49100
H  16.35200 -2.54800 33.10800
H  15.59600 -1.25500 32.52600
H  15.79200 -1.65500 35.00700
H  15.70000 0.03600 34.44900
H  20.52700 -6.57000 28.54500
H  21.04300 -5.17600 29.56800
H  21.94200 -5.58600 28.08100
H  22.60500 -6.16200 25.55600
H  21.54000 -7.14600 24.70400
H  21.12100 -7.05600 26.33600
H  17.34700 -1.93900 22.85800
H  16.45900 0.76600 23.11100
H  18.79200 0.71300 22.72600
H  18.96800 -0.59000 21.58600
H  19.87100 -0.64500 23.09300
H  14.91000 -1.74600 23.76000
H  15.38500 -1.28200 22.10300
H  13.89100 0.89400 23.45200
H  13.02800 -0.56900 23.62100
H  13.39400 -0.09900 22.01500
H  13.80800 3.08600 26.18400
H  13.66500 3.97100 27.74800
H  12.50200 2.67600 27.36300
H  14.75100 0.80800 32.25400
H  15.68800 4.16500 34.88400
H  16.59300 4.72400 33.50500
H  17.21200 3.40200 34.45100
Mg 48.73600 45.42600 43.78400
C  45.57100 45.83600 42.59100
C  48.79600 42.26700 42.19700
C  51.97700 45.18100 44.70100
C  48.76000 48.84400 44.83500
N  47.40600 44.31400 42.33300
C  46.12800 44.64600 42.13300
C  45.51800 43.64200 41.09700
C  46.47100 42.37300 41.18700
C  47.63900 43.03500 41.99100
C  45.84300 41.15200 41.99800
C  45.47500 44.32600 39.68700
C  44.04500 44.39800 39.02800
H  43.70300 43.52700 37.83000
N  50.21500 43.93000 43.38400
C  50.02700 42.67700 42.80100
C  51.25100 41.95600 42.92400
C  52.14700 42.70500 43.78600
C  51.47900 43.97600 44.02700
C  51.33800 40.56300 42.37600
C  53.53000 42.23700 44.19100
O  53.89000 41.06500 43.89100
C  54.42600 42.94300 45.02200
N  50.22700 46.91400 44.55500
C  51.46700 46.51000 44.89000
C  52.30300 47.67600 45.48600
C  51.23400 48.77600 45.69300
C  49.95800 48.17800 45.03000
C  53.12800 47.30600 46.73600
C  51.60800 50.15200 45.19000
C  52.00500 51.23600 46.20100
N  47.42500 47.00000 43.95500
C  47.52600 48.32200 44.37400
C  46.33600 49.02400 44.03100
C  45.46300 48.02800 43.51600
C  46.24200 46.89300 43.32600
C  46.23600 50.56800 44.13700
C  44.14100 47.78600 42.86500
O  43.20300 48.45300 42.61000
C  44.13400 46.34700 42.32500
C  43.14900 45.56500 43.08200
O  43.33000 44.66700 43.83200
O  41.90600 46.06900 42.69900
C  40.79300 45.43400 43.40800
H  48.77800 41.28700 41.71700
H  52.99900 45.07600 45.07000
H  48.77700 49.84000 45.28300
H  44.58900 43.30800 41.55900
H  46.74900 42.15000 40.15700
H  45.96400 41.36700 43.05900
H  46.40600 40.22500 41.88700
H  44.77900 41.05100 41.78300
H  46.19900 43.80400 39.06200
H  45.82000 45.35200 39.81800
H  43.86600 45.46200 38.87100
H  43.25500 43.98200 39.65300
H  52.40100 40.38100 42.21400
H  50.83500 40.53400 41.41000
H  50.83900 39.88600 43.06900
H  53.98200 43.44400 45.88200
H  54.80000 43.68600 44.31800
H  55.33600 42.37200 45.20800
H  52.94100 47.88400 44.62700
H  51.09300 48.84700 46.77200
H  52.96300 46.26900 47.02900
H  52.92400 47.95100 47.59100
H  54.18000 47.39200 46.46300
H  50.78800 50.50300 44.56300
H  52.53500 49.95500 44.65100
H  51.39100 52.13200 46.11200
H  53.03200 51.57600 46.06800
H  52.03000 50.91800 47.24300
H  46.24500 51.01500 45.13100
H  45.29100 50.82900 43.66100
H  47.09100 50.86000 43.52600
H  43.92400 46.37100 41.25600
H  40.47400 44.54900 42.85700
H  39.98700 46.16600 43.37000
H  41.03000 45.16400 44.43700

