158

Mg 35.38300 2.67800 29.99000
C  33.07800 3.76400 32.32200
C  37.82200 2.75700 32.69400
C  37.78600 1.64400 27.98300
C  32.96400 2.77200 27.52400
N  35.47800 3.21700 32.26000
C  34.32600 3.61700 32.93200
C  34.61300 3.72200 34.47100
C  36.20600 3.91800 34.51900
C  36.60200 3.30900 33.08200
C  36.95300 5.24000 34.86300
C  33.96300 2.48400 35.27100
C  33.32700 2.91900 36.63400
H  34.09200 4.03700 37.36200
N  37.49100 2.26200 30.25400
C  38.23900 2.28600 31.45300
C  39.50200 1.68900 31.19100
C  39.58700 1.41600 29.73200
C  38.24100 1.79300 29.23800
C  40.56100 1.50900 32.27600
C  40.76700 0.94300 28.84400
O  40.71000 0.73300 27.62900
C  42.03400 0.60500 29.50600
N  35.36400 2.32100 28.05200
C  36.52000 1.83500 27.48800
C  36.24200 1.56000 25.94600
C  34.65100 1.82300 25.82100
C  34.27800 2.37000 27.19800
C  37.09500 2.46100 24.96700
C  33.77500 0.64500 25.38400
C  33.24500 0.65500 23.90400
N  33.49900 3.24400 29.86400
C  32.56300 3.14700 28.85800
C  31.23500 3.54100 29.33800
C  31.37100 3.79800 30.65600
C  32.77900 3.59400 30.97700
C  30.09700 3.69400 28.43200
C  30.70000 4.18000 31.85700
O  29.54000 4.47700 32.10900
C  31.74000 4.08400 33.02500
C  31.80300 5.39800 33.68100
O  32.25200 6.39300 33.14400
O  31.34300 5.29800 34.96300
C  31.10600 6.59400 35.54200
H  38.58200 2.86700 33.47100
H  38.36500 1.07700 27.25100
H  32.13600 2.64400 26.82400
H  34.11200 4.63700 34.78800
H  36.54400 3.21700 35.28200
H  37.96300 5.31000 34.45900
H  36.96900 5.35100 35.94700
H  36.40500 6.04800 34.37700
H  34.70400 1.69400 35.39600
H  33.19600 2.10200 34.59700
H  33.21000 2.04200 37.27000
H  32.34000 3.25800 36.32100
H  40.12500 1.55100 33.27400
H  41.35200 2.25500 32.20900
H  41.06700 0.54800 32.18800
H  41.89400 -0.25900 30.15700
H  42.18500 1.59500 29.93600
H  42.73900 0.31100 28.72800
H  36.44400 0.51300 25.71800
H  34.56600 2.58600 25.04700
H  37.40800 3.44100 25.32800
H  36.44600 2.63900 24.11000
H  37.98200 1.92100 24.63400
H  32.90900 0.51700 26.03400
H  34.37900 -0.23800 25.59400
H  33.08600 -0.36300 23.54700
H  34.01100 1.07300 23.25100
H  32.42900 1.37600 23.85600
H  29.24300 3.98400 29.04400
H  29.95300 2.67300 28.08100
H  30.26400 4.36200 27.58700
H  31.39300 3.29000 33.68600
H  30.57100 7.16700 34.78500
H  32.08700 7.01900 35.75400
H  30.54800 6.50300 36.47400
Mg 49.70000 46.39000 43.34300
C  46.57700 47.20500 42.39500
C  49.44200 43.29500 41.73700
C  53.05800 45.86900 43.82100
C  50.21400 49.72600 44.42200
N  48.19100 45.47300 42.11700
C  47.00600 45.99300 41.89000
C  46.11800 45.09200 40.93700
C  46.98500 43.75200 40.94000
C  48.24500 44.13400 41.66700
C  46.28100 42.60700 41.76600
C  45.84300 45.69400 39.54500
C  44.41500 45.32000 38.93000
H  44.46500 44.27700 37.77200
N  51.08500 44.68700 42.93600
C  50.73900 43.53900 42.25700
C  51.80300 42.58800 42.32400
C  52.89200 43.23500 43.05800
C  52.36900 44.66900 43.33600
C  51.76500 41.29000 41.69600
C  54.24100 42.61800 43.36400
O  54.51100 41.47800 43.04000
C  55.27600 43.41400 44.02200
N  51.34200 47.61200 44.02500
C  52.63700 47.15800 44.16700
C  53.61500 48.26400 44.60000
C  52.63600 49.38300 45.02000
C  51.28700 48.87900 44.42500
C  54.64600 47.79300 45.76400
C  53.06000 50.80300 44.49700
C  52.71500 52.02000 45.37900
N  48.57100 48.10600 43.61100
C  48.85900 49.37300 44.05700
C  47.68200 50.20200 43.95700
C  46.75500 49.38900 43.36400
C  47.33300 48.11300 43.10800
C  47.43800 51.60500 44.50000
C  45.33700 49.27000 43.06200
O  44.39500 50.00500 43.32900
C  45.21300 47.86300 42.31300
C  44.13600 47.09800 42.90100
O  43.94900 46.92400 44.12000
O  43.31000 46.70700 41.91200
C  42.12100 46.04100 42.25200
H  49.38300 42.30000 41.29100
H  54.04100 45.65700 44.24500
H  50.40200 50.75100 44.74800
H  45.15900 44.83700 41.38900
H  47.21900 43.33300 39.96100
H  46.29900 41.71600 41.14000
H  45.25600 42.92300 41.95700
H  46.65700 42.38700 42.76500
H  46.67100 45.43900 38.88400
H  45.84200 46.77400 39.69200
H  43.91900 46.25300 38.66300
H  43.80400 44.90100 39.73000
H  52.64400 41.14400 41.06800
H  50.92300 41.06900 41.04100
H  51.74400 40.50500 42.45200
H  56.04500 42.71700 44.35400
H  54.74700 43.79500 44.89500
H  55.59700 44.24200 43.39000
H  54.14000 48.54500 43.68700
H  52.61300 49.41400 46.10900
H  54.65100 46.76300 46.12100
H  54.54400 48.46000 46.61900
H  55.65700 47.95100 45.38900
H  52.41100 50.85000 43.62200
H  54.12200 50.85400 44.25700
H  52.32900 51.67000 46.33700
H  51.92400 52.56000 44.85900
H  53.63500 52.58400 45.52600
H  47.77600 52.28200 43.71500
H  47.97000 51.71600 45.44600
H  46.41000 51.84700 44.76700
H  45.00600 48.25200 41.31600
H  42.29000 44.96500 42.29800
H  41.29000 46.09500 41.54800
H  41.60700 46.37500 43.15400

