158

Mg 45.20200 5.80800 48.52800
C  42.75100 8.28300 48.08400
C  42.58600 3.43500 47.75000
C  47.45600 3.22100 48.13900
C  47.71100 8.09800 48.12200
N  43.02900 5.84300 47.75200
C  42.26500 6.95600 47.88100
C  40.71500 6.62100 47.77200
C  40.71700 5.10200 47.48900
C  42.17500 4.77100 47.77900
C  39.64200 4.47700 48.46800
C  39.88400 7.49100 46.72900
C  40.52800 7.73600 45.32700
H  39.79800 7.05000 44.18000
N  45.01200 3.58800 48.18100
C  43.88100 2.86300 47.93400
C  44.23300 1.47000 47.69500
C  45.63200 1.38000 47.84500
C  46.11300 2.80200 48.06100
C  43.19900 0.39900 47.64300
C  46.44000 0.04900 47.78000
O  45.92100 -0.96400 47.37000
C  47.81600 -0.06600 48.27400
N  47.25100 5.68900 48.17000
C  47.92400 4.46600 48.09400
C  49.53400 4.78200 48.01800
C  49.48900 6.32300 48.19100
C  48.12900 6.72600 48.12000
C  50.43700 4.06100 49.03100
C  50.35400 7.11300 47.21500
C  51.14000 8.33200 47.81500
N  45.26300 7.74800 48.32800
C  46.33300 8.65200 48.18500
C  45.78400 9.98300 48.22100
C  44.38600 9.91400 48.19400
C  44.13000 8.49900 48.15300
C  46.70200 11.18700 48.32400
C  43.18600 10.71700 48.30000
O  43.00800 11.91900 48.39700
C  42.05900 9.65500 48.07600
C  41.11300 9.71000 49.22400
O  41.04500 9.01400 50.23900
O  40.25400 10.71400 48.96400
C  39.20400 11.07700 49.96400
H  41.88400 2.62000 47.56400
H  48.24100 2.54100 47.80000
H  48.59400 8.73500 48.03300
H  40.38300 6.92200 48.76500
H  40.41300 4.82700 46.47900
H  40.03500 4.35900 49.47800
H  39.18500 3.53600 48.16300
H  38.76300 5.11100 48.58100
H  39.57000 8.42800 47.18900
H  38.88900 7.05800 46.62600
H  41.46100 7.18200 45.42300
H  40.66200 8.81400 45.23900
H  42.16000 0.70400 47.76800
H  43.37900 -0.24200 48.50600
H  43.40300 -0.24200 46.78600
H  48.18400 -1.09200 48.29200
H  47.86300 0.45500 49.23000
H  48.37600 0.42400 47.47800
H  49.72800 4.53300 46.97500
H  49.89400 6.55000 49.17700
H  50.79600 3.10000 48.66200
H  49.92100 3.92800 49.98100
H  51.35800 4.62900 49.16000
H  49.80400 7.47700 46.34800
H  51.17100 6.43600 46.96300
H  52.21800 8.17700 47.78600
H  50.89100 8.61700 48.83700
H  50.83200 9.07900 47.08300
H  46.03500 11.99200 48.01600
H  47.59200 11.17200 47.69500
H  46.95400 11.24100 49.38300
H  41.45300 9.81600 47.18400
H  39.18400 10.41700 50.83200
H  38.23100 11.07600 49.47300
H  39.43200 12.07500 50.33700
Mg 29.43400 57.71800 40.93700
C  26.83300 55.76100 39.53800
C  31.65100 55.80400 39.24700
C  31.86500 60.20500 41.38600
C  27.03000 60.05900 42.03600
N  29.22300 56.07500 39.57100
C  28.14700 55.37700 39.18200
C  28.49800 54.16700 38.26100
C  30.02400 54.06200 38.55600
C  30.33800 55.34600 39.12500
C  30.46700 52.89300 39.46200
C  28.10400 54.51200 36.78000
C  27.22400 53.48900 35.97000
H  26.33200 54.22200 34.86200
N  31.51000 57.87000 40.49700
C  32.22100 56.95500 39.80400
C  33.64600 57.34600 39.78300
C  33.70700 58.68300 40.44100
C  32.33000 58.94400 40.81200
C  34.68800 56.51300 38.94700
C  34.99600 59.51300 40.61800
O  36.06600 58.96200 40.35200
C  35.16800 60.90300 41.29200
N  29.50500 59.81800 41.70200
C  30.60200 60.60700 41.73000
C  30.29800 62.04400 42.19400
C  28.76200 61.86800 42.67400
C  28.37100 60.54000 42.05300
C  31.33500 62.61300 43.23600
C  27.88000 63.11900 42.26600
C  27.68500 63.94800 43.51400
N  27.36400 57.79300 41.02400
C  26.53200 58.83000 41.42700
C  25.18500 58.36800 41.27300
C  25.21900 57.19900 40.50600
C  26.59600 56.87800 40.32000
C  23.91000 59.06700 41.65400
C  24.44800 56.12300 39.86900
O  23.23800 55.90600 39.91300
C  25.43600 55.22600 39.19500
C  25.12800 53.82200 39.62800
O  25.11800 53.43000 40.80200
O  24.87300 52.98900 38.56800
C  24.57800 51.55300 38.74400
H  32.42600 55.17600 38.80200
H  32.72000 60.87100 41.52000
H  26.27600 60.74300 42.43100
H  28.00000 53.26000 38.60300
H  30.46600 53.94400 37.56700
H  31.09000 53.24800 40.28300
H  31.16400 52.26700 38.90500
H  29.70600 52.25900 39.91700
H  28.98500 54.56600 36.14100
H  27.53900 55.44300 36.73900
H  26.57600 52.94200 36.65400
H  27.90700 52.79000 35.48800
H  34.93900 56.94000 37.97600
H  34.26200 55.53800 38.71200
H  35.51800 56.33200 39.63000
H  34.56000 61.62800 40.75100
H  36.22200 61.15700 41.17500
H  34.91900 60.91800 42.35300
H  30.48900 62.71500 41.35700
H  28.77000 61.70800 43.75200
H  30.72300 63.13100 43.97400
H  31.97800 63.34900 42.75400
H  31.86100 61.82000 43.76900
H  26.86000 62.88100 41.96200
H  28.31100 63.73600 41.47700
H  28.57500 63.99400 44.14200
H  26.80200 63.74400 44.12000
H  27.46200 64.98100 43.24700
H  23.72500 58.98100 42.72500
H  22.98900 58.66700 41.22900
H  23.91500 60.10300 41.31700
H  25.24800 55.08500 38.13100
H  23.78900 51.35800 39.47000
H  25.44900 50.92900 38.94300
H  24.27600 51.11800 37.79100

