158

Mg 8.47800 4.04100 27.19700
C  9.43500 2.21200 30.15900
C  6.27800 5.81400 29.24900
C  7.40200 5.35400 24.43600
C  10.30100 1.70600 25.40500
N  7.99500 4.03700 29.47200
C  8.56100 3.26300 30.43900
C  8.25800 3.79900 31.82500
C  7.08700 4.82300 31.55700
C  7.02900 4.88800 29.96000
C  5.73800 4.62200 32.23500
C  9.44800 4.52100 32.41100
C  10.07700 3.87700 33.62500
H  10.37200 4.76100 34.81500
N  7.14100 5.46400 26.91900
C  6.30500 6.05200 27.85300
C  5.63200 7.13600 27.16700
C  6.04700 7.11800 25.82000
C  6.91600 5.92900 25.67000
C  4.62400 8.01100 27.86200
C  5.75800 8.19900 24.71900
O  6.22800 8.14200 23.57100
C  4.73800 9.30500 24.86200
N  8.77200 3.51700 25.18400
C  8.27500 4.29600 24.20300
C  8.80000 3.91100 22.77600
C  9.79800 2.76000 23.15900
C  9.65700 2.70400 24.65100
C  7.77000 3.64100 21.67200
C  11.29500 2.92900 22.73000
C  12.01000 1.84000 21.83300
N  9.52100 2.21100 27.60400
C  10.32200 1.41500 26.77900
C  11.16800 0.56000 27.50800
C  10.81000 0.82700 28.88200
C  9.84500 1.86300 28.82500
C  12.14400 -0.41100 26.84000
C  11.00600 0.49800 30.30300
O  11.67600 -0.35300 30.83900
C  10.20900 1.40400 31.11200
C  9.31300 0.69100 32.08000
O  8.18300 0.42100 31.98100
O  10.05000 0.43400 33.17800
C  9.20000 0.06000 34.35500
H  5.76000 6.43800 29.98000
H  7.10000 5.82900 23.50000
H  10.91100 0.99500 24.84500
H  7.82800 3.08800 32.53000
H  7.37000 5.83000 31.86300
H  5.79000 3.79800 32.94800
H  4.91500 4.38700 31.56000
H  5.39900 5.58000 32.62900
H  9.23700 5.57000 32.62100
H  10.16400 4.56900 31.59000
H  11.03200 3.53500 33.22900
H  9.52000 3.03900 34.04400
H  4.40700 7.65000 28.86700
H  3.64600 7.99900 27.38100
H  4.92800 9.05700 27.83400
H  4.54300 9.91000 23.97600
H  5.32400 9.99100 25.47300
H  3.80100 9.12400 25.39000
H  9.43000 4.74300 22.46300
H  9.38700 1.86300 22.69600
H  6.76100 3.64800 22.08500
H  7.77100 2.60700 21.32700
H  7.89300 4.33200 20.83800
H  11.94500 2.99100 23.60200
H  11.34800 3.87300 22.18800
H  12.74500 2.25300 21.14200
H  11.26500 1.34300 21.21300
H  12.38800 1.00400 22.42100
H  12.69400 -0.02300 25.98300
H  11.53400 -1.26500 26.54700
H  12.81500 -0.90100 27.54600
H  10.80800 2.06400 31.74000
H  8.54300 0.87100 34.67000
H  9.86100 -0.36900 35.10700
H  8.53100 -0.76500 34.10700
Mg 6.07200 54.63300 41.02400
C  5.84900 51.05400 40.66800
C  9.17900 54.36700 39.43700
C  5.89300 57.90700 40.54100
C  2.70000 54.55900 41.97900
N  7.29700 52.86800 39.92200
C  7.01000 51.52400 39.95200
C  8.16700 50.70500 39.38400
C  9.35900 51.77500 39.19700
C  8.64900 53.09500 39.59300
C  10.72700 51.41600 39.82600
C  7.89700 49.94100 38.01900
C  7.03600 50.77000 37.05700
H  6.53800 50.00700 35.81000
N  7.37600 56.01400 40.29200
C  8.61100 55.66600 39.73900
C  9.39200 56.90600 39.68700
C  8.45100 57.96900 39.78700
C  7.16500 57.35300 40.22400
C  10.89400 56.98700 39.39600
C  8.74400 59.40800 39.53000
O  9.85600 59.69800 39.13700
C  7.76700 60.47400 39.72600
N  4.51800 56.00300 41.12400
C  4.70800 57.31500 40.93700
C  3.51900 58.17800 41.32700
C  2.44100 57.10500 41.69000
C  3.28300 55.78700 41.60600
C  3.86500 59.07900 42.54000
C  1.17800 56.99400 40.85000
C  0.08200 57.99100 41.37400
N  4.57700 53.19900 41.35200
C  3.27800 53.32500 41.77200
C  2.83300 52.05500 42.19800
C  3.82600 51.16300 41.81900
C  4.82500 51.88800 41.23700
C  1.58500 51.68800 42.95500
C  4.07700 49.75500 41.72300
O  3.55800 48.73400 42.17300
C  5.44700 49.64200 40.98800
C  5.25400 48.64300 39.91300
O  4.66500 48.75800 38.85100
O  5.98000 47.51600 40.30000
C  5.79100 46.37600 39.32700
H  10.14800 54.36800 38.93400
H  5.76100 58.99100 40.53200
H  1.76500 54.62800 42.53800
H  8.41500 49.88100 40.05300
H  9.62000 51.88200 38.14400
H  10.47300 50.62700 40.53500
H  11.18800 52.31600 40.23200
H  11.43700 51.06700 39.07700
H  7.46700 48.95500 38.19600
H  8.80800 49.70800 37.46800
H  7.72700 51.57600 36.80900
H  6.20600 51.23000 37.59300
H  11.25100 57.77300 40.06300
H  11.16200 57.34100 38.40100
H  11.41200 56.08500 39.72100
H  6.91100 60.23000 39.09600
H  8.27500 61.38100 39.39900
H  7.34300 60.58600 40.72300
H  3.33100 58.86200 40.50000
H  2.09800 57.19900 42.72000
H  3.21300 58.97100 43.40700
H  3.68500 60.09500 42.18900
H  4.88400 58.83500 42.84200
H  0.80000 56.01300 41.13600
H  1.31700 57.02200 39.76900
H  -0.80300 57.49200 41.76900
H  -0.17300 58.65500 40.54800
H  0.39500 58.57800 42.23800
H  0.91700 52.54700 42.89800
H  1.69300 51.41000 44.00300
H  1.02900 50.89800 42.45000
H  6.16500 49.20300 41.68000
H  6.06100 46.72400 38.33000
H  4.75900 46.03200 39.39400
H  6.53100 45.62000 39.59000

