158

Mg 54.48100 23.68600 44.27600
C  51.65800 25.68500 43.40100
C  52.75700 21.03700 42.78400
C  57.23100 21.87300 44.43100
C  55.97300 26.52000 45.48800
N  52.48800 23.47900 43.01100
C  51.56100 24.40900 42.82200
C  50.33600 23.84100 42.11900
C  50.47000 22.31900 42.42800
C  51.99300 22.25900 42.75900
C  49.61000 21.74200 43.65000
C  50.29800 24.04600 40.53700
C  48.82300 23.95300 39.96500
H  48.52200 23.31500 38.66700
N  54.92100 21.74600 43.75100
C  54.02100 20.77000 43.21400
C  54.75000 19.52700 43.08300
C  56.09200 19.77800 43.42000
C  56.13400 21.21300 43.84000
C  54.12300 18.21500 42.67400
C  57.30200 18.77200 43.24200
O  57.03800 17.58700 42.99900
C  58.74800 19.10100 43.55500
N  56.42100 24.07100 44.82300
C  57.40100 23.18900 44.95700
C  58.73200 23.87600 45.35300
C  58.37400 25.46000 45.34200
C  56.80800 25.38800 45.26100
C  59.09100 23.39800 46.76900
C  58.96500 26.18000 44.07700
C  58.06000 26.40300 42.81600
N  53.92400 25.73000 44.55800
C  54.58500 26.72100 45.14700
C  53.70500 27.86000 45.33900
C  52.49100 27.45800 44.70000
C  52.67800 26.19800 44.24700
C  54.07000 29.19400 45.98000
C  51.13800 27.92200 44.33900
O  50.43000 28.90500 44.62900
C  50.54900 26.68100 43.44300
C  50.04700 27.24100 42.15500
O  50.56300 27.88700 41.30000
O  48.68800 27.15300 42.13000
C  47.92700 28.06800 41.22400
H  52.10200 20.17800 42.61900
H  58.20400 21.37700 44.44300
H  56.39900 27.38000 46.00700
H  49.46200 24.29000 42.58900
H  50.27100 21.64400 41.59500
H  49.01000 20.86400 43.40800
H  49.12500 22.56800 44.17100
H  50.44700 21.28100 44.17400
H  50.87500 23.30000 39.99000
H  50.68600 25.04900 40.35900
H  48.52500 25.00100 39.92200
H  48.21300 23.42900 40.70200
H  54.49000 17.97300 41.67600
H  53.05500 18.37200 42.52900
H  54.39200 17.38400 43.32600
H  59.13500 19.91800 42.94600
H  59.30200 18.18700 43.33700
H  58.82800 19.37800 44.60600
H  59.39100 23.60500 44.52900
H  58.73300 25.96300 46.24000
H  58.97000 22.31900 46.86700
H  58.27500 23.76200 47.39300
H  60.10900 23.62800 47.08100
H  59.84200 25.65100 43.70300
H  59.39500 27.12700 44.40300
H  57.78500 27.45800 42.81800
H  57.10800 25.87200 42.84000
H  58.47900 26.05500 41.87200
H  54.57900 29.07500 46.93600
H  53.12000 29.72900 46.00100
H  54.72400 29.58400 45.20000
H  49.65800 26.30000 43.94200
H  48.37500 29.04100 41.42300
H  46.91000 28.14400 41.61000
H  47.84800 27.76500 40.18000
Mg -0.22900 43.07400 26.02800
C  2.07900 42.64700 28.66500
C  -2.68800 41.79300 27.96500
C  -2.21100 43.25400 23.33500
C  2.50100 43.98500 23.92800
N  -0.26500 42.28600 27.94800
C  0.72100 42.37800 28.92500
C  0.27300 42.14400 30.36600
C  -1.16900 41.36100 30.09000
C  -1.40300 41.81700 28.56900
C  -1.22200 39.86200 30.30600
C  0.23800 43.37300 31.29900
C  0.60100 43.15200 32.79900
H  0.29800 41.69600 33.46300
N  -2.21400 42.60200 25.71500
C  -3.07700 42.09500 26.56900
C  -4.39500 41.97600 25.95900
C  -4.33600 42.63400 24.67300
C  -2.84400 42.75600 24.45400
C  -5.55900 41.37700 26.63200
C  -5.41400 42.84000 23.59400
O  -5.15800 43.13300 22.41300
C  -6.84600 42.70400 23.96300
N  0.10500 43.47700 23.96900
C  -0.90500 43.57900 23.04300
C  -0.40000 44.20700 21.69400
C  1.04000 44.57600 22.04400
C  1.28600 43.89600 23.35500
C  -0.66500 43.23900 20.57800
C  1.28400 46.14000 22.13100
C  0.76600 46.93100 23.30400
N  1.90100 43.23900 26.18900
C  2.83700 43.64800 25.25300
C  4.12400 43.58700 25.92800
C  3.88900 43.31600 27.24000
C  2.52000 43.08500 27.34600
C  5.43800 43.80000 25.21200
C  4.51300 43.03400 28.54200
O  5.68000 42.99400 28.84800
C  3.27200 42.84800 29.53000
C  3.72500 41.63300 30.39400
O  3.88800 40.47700 30.03000
O  4.11500 41.98100 31.66000
C  4.68300 40.91500 32.52400
H  -3.45900 41.43300 28.64900
H  -2.86400 43.58800 22.52600
H  3.33700 44.21300 23.26400
H  1.00800 41.51300 30.86600
H  -1.97700 41.83400 30.64700
H  -2.19800 39.68100 30.75500
H  -0.34500 39.55300 30.87400
H  -1.34000 39.24800 29.41300
H  -0.78800 43.73800 31.34500
H  0.72000 44.27500 30.92300
H  0.06300 43.85000 33.44200
H  1.67400 43.33400 32.85900
H  -6.24800 42.20700 26.79300
H  -5.14200 40.87000 27.50100
H  -6.01400 40.55100 26.08500
H  -6.98500 43.14200 24.95200
H  -7.07100 41.63700 23.96100
H  -7.49300 43.17200 23.22100
H  -0.99300 45.10100 21.50100
H  1.81800 44.19400 21.38300
H  -1.00500 42.26100 20.91800
H  0.25000 43.00700 20.03300
H  -1.55700 43.50200 20.01000
H  0.98200 46.57100 21.17600
H  2.36300 46.21800 22.26400
H  0.07000 47.62900 22.83800
H  1.49500 47.59100 23.77300
H  0.35100 46.33200 24.11400
H  5.44100 43.32000 24.23300
H  6.20300 43.32200 25.82300
H  5.64700 44.85900 25.06300
H  3.17800 43.65500 30.25600
H  5.70100 40.68500 32.21100
H  4.03700 40.04200 32.61200
H  4.82000 41.22100 33.56100

