158

Mg 54.10700 25.80100 44.54700
C  51.51400 28.10000 43.77900
C  52.28700 23.30000 43.13500
C  56.90500 23.98900 44.67100
C  55.97700 28.66500 45.58900
N  52.23500 25.76900 43.55800
C  51.34200 26.82800 43.25400
C  50.21000 26.27100 42.35400
C  50.23900 24.76300 42.77500
C  51.68100 24.56400 43.18000
C  49.35300 24.32100 44.04300
C  50.50800 26.58100 40.81800
C  49.36700 27.07000 39.94100
H  49.06400 26.19200 38.80000
N  54.51900 23.82000 44.11200
C  53.55100 22.93500 43.55100
C  54.19800 21.62100 43.47100
C  55.61600 21.79500 43.84800
C  55.76500 23.24600 44.19200
C  53.43100 20.29800 43.15000
C  56.62000 20.61200 44.08200
O  56.32700 19.46800 43.69500
C  57.95400 20.91000 44.66200
N  56.18500 26.27800 44.84100
C  57.08800 25.31600 44.98700
C  58.33900 25.79200 45.59000
C  58.14500 27.34000 45.63500
C  56.68200 27.47600 45.42100
C  58.66200 25.04100 46.90800
C  58.97300 28.18600 44.59200
C  59.42400 29.55100 45.25600
N  53.79700 27.91400 44.80500
C  54.61300 28.94800 45.29900
C  53.87900 30.18600 45.40700
C  52.68200 29.95200 44.74400
C  52.66400 28.53100 44.43000
C  54.40100 31.48700 45.89500
C  51.47400 30.52800 44.30700
O  51.05000 31.68100 44.33700
C  50.67100 29.34500 43.73100
C  50.18700 29.77300 42.37900
O  50.92100 29.92200 41.41100
O  48.86400 29.75000 42.43400
C  48.23700 30.34000 41.22800
H  51.66300 22.53300 42.67100
H  57.81100 23.40800 44.85500
H  56.58400 29.47700 45.99500
H  49.19100 26.60200 42.55500
H  49.88500 24.10800 41.97800
H  48.45400 24.91000 44.22500
H  49.89100 23.99400 44.93300
H  48.89600 23.36400 43.79300
H  50.96400 25.65900 40.45900
H  51.23300 27.39500 40.81500
H  49.61700 28.08900 39.64400
H  48.46800 27.13100 40.55300
H  53.78600 20.06300 42.14600
H  52.34400 20.33500 43.08000
H  53.84800 19.62900 43.90300
H  58.51800 19.99300 44.83100
H  57.90500 21.37900 45.64600
H  58.51100 21.53000 43.96000
H  59.08800 25.54200 44.83800
H  58.36700 27.65700 46.65400
H  57.79600 24.85100 47.54200
H  59.43600 25.53300 47.49700
H  58.94000 24.01300 46.67800
H  58.40800 28.55700 43.73700
H  59.80800 27.52400 44.36000
H  60.51200 29.52200 45.20000
H  59.05600 29.58700 46.28100
H  59.13500 30.44200 44.69800
H  54.83000 32.11300 45.11300
H  55.17000 31.37400 46.66000
H  53.56300 32.01400 46.35000
H  49.82700 29.22800 44.41100
H  47.91800 29.53800 40.56300
H  48.95800 30.89300 40.62400
H  47.40800 31.02500 41.40500
Mg 48.53100 35.33600 28.60400
C  46.55200 33.60500 30.80100
C  48.42100 37.94700 30.77400
C  49.57500 37.33100 26.00400
C  48.14400 32.76200 26.25800
N  47.87100 35.59400 30.64200
C  47.00200 34.79900 31.36500
C  46.90900 35.23500 32.85900
C  47.12200 36.77200 32.54500
C  47.88600 36.79700 31.27800
C  45.86500 37.78400 32.52500
C  48.14500 34.64900 33.60300
C  47.93800 34.39300 35.09100
H  47.00500 35.43700 35.72300
N  49.09900 37.43200 28.46600
C  49.00900 38.33300 29.50800
C  49.47200 39.58500 28.97500
C  49.89700 39.38200 27.60500
C  49.55600 37.97200 27.29000
C  49.58500 40.84200 29.90200
C  50.51000 40.36500 26.68900
O  50.75700 40.14700 25.50500
C  50.90400 41.77900 27.20200
N  48.77000 35.11500 26.38800
C  49.25600 36.06600 25.60700
C  49.21400 35.60900 24.06600
C  48.91800 34.02700 24.19900
C  48.74500 33.92000 25.73300
C  48.33700 36.28800 23.01100
C  49.99200 33.19500 23.49300
C  49.95500 33.28300 21.97400
N  47.81000 33.54700 28.58300
C  47.72000 32.57600 27.57600
C  46.87600 31.47200 28.03000
C  46.42300 31.83400 29.25800
C  46.99300 33.10900 29.55400
C  46.57400 30.22700 27.31100
C  45.55300 31.40100 30.33400
O  44.91300 30.38800 30.53500
C  45.43100 32.63500 31.30000
C  45.57600 32.21500 32.69600
O  46.59500 31.64900 33.04200
O  44.51300 32.63300 33.51200
C  44.62400 32.34500 34.99500
H  48.21400 38.78500 31.44300
H  50.01700 37.87500 25.16600
H  47.97300 31.89500 25.61700
H  45.95700 35.03400 33.35200
H  47.84400 37.09300 33.29500
H  44.98100 37.24800 32.87100
H  45.76000 38.11800 31.49300
H  46.20100 38.65200 33.09300
H  49.07200 35.21200 33.49100
H  48.24700 33.64500 33.19100
H  48.80700 34.46400 35.74500
H  47.56000 33.37900 35.21900
H  50.60400 41.22800 29.94400
H  49.38900 40.49900 30.91800
H  48.81200 41.57600 29.67300
H  50.01200 42.15300 27.70500
H  51.26200 42.39200 26.37400
H  51.73200 41.65400 27.89900
H  50.25700 35.76400 23.78800
H  47.97700 33.68200 23.77100
H  47.53700 35.58800 22.77100
H  48.90700 36.64200 22.15200
H  47.88000 37.17600 23.44800
H  49.73700 32.17900 23.79600
H  50.94900 33.48300 23.92700
H  48.98200 33.61700 21.61500
H  50.22100 32.33100 21.51400
H  50.66200 34.04700 21.65100
H  47.29500 29.98000 26.53100
H  45.69300 30.49800 26.72900
H  46.36000 29.38300 27.96600
H  44.54300 33.24200 31.12500
H  43.86300 31.59300 35.19900
H  44.43700 33.27800 35.52700
H  45.63400 31.98500 35.19100

