158

Mg 16.35400 51.65400 25.64000
C  18.07800 50.65200 28.50100
C  13.64300 52.30400 27.59300
C  14.60100 51.81600 22.89400
C  19.08000 50.47100 23.67400
N  15.95300 51.52100 27.86900
C  16.84600 51.17800 28.83800
C  16.21500 51.30000 30.17900
C  14.69800 51.65100 29.91700
C  14.71800 51.83700 28.35100
C  13.65200 50.59200 30.43100
C  17.01100 52.26400 31.04200
C  16.94500 52.11900 32.56500
H  15.92900 51.28100 33.27700
N  14.49100 52.11900 25.33000
C  13.52000 52.39600 26.22400
C  12.28200 52.81000 25.60400
C  12.47900 52.52500 24.23300
C  13.91800 52.12500 24.12300
C  11.07600 53.33200 26.38800
C  11.47000 52.52700 23.09400
O  11.74200 52.19600 21.94700
C  10.09800 52.88300 23.42100
N  16.76000 51.08800 23.54900
C  15.85200 51.40800 22.59200
C  16.42700 51.19700 21.18300
C  17.91900 50.96400 21.48100
C  17.99800 50.89300 22.99100
C  15.72000 50.05300 20.40900
C  18.85200 52.08900 20.80200
C  20.18000 51.56300 20.14800
N  18.24500 50.82900 25.92800
C  19.20700 50.39700 25.09500
C  20.30900 49.71300 25.83500
C  19.87000 49.74900 27.13300
C  18.65400 50.48900 27.14300
C  21.46300 48.93500 25.26900
C  20.27500 49.43400 28.49500
O  21.33000 48.91900 28.93000
C  19.10500 49.93700 29.45400
C  18.61800 48.81300 30.32400
O  17.96000 47.88500 29.93300
O  19.03300 48.97200 31.61900
C  18.41300 48.05000 32.58000
H  12.79700 52.45500 28.26700
H  14.05400 52.01000 21.96900
H  19.95100 50.16200 23.09100
H  16.30100 50.34300 30.69400
H  14.45800 52.61400 30.36800
H  12.82800 51.15200 30.87300
H  14.07700 49.90400 31.16200
H  13.35700 50.02500 29.54900
H  16.65500 53.27000 30.81700
H  18.03400 52.32000 30.67100
H  16.62400 53.04900 33.03500
H  17.94100 51.86800 32.92900
H  10.75000 54.27800 25.95500
H  11.36500 53.50300 27.42500
H  10.21600 52.67800 26.52600
H  9.93300 53.82600 23.94200
H  9.60700 52.07300 23.96000
H  9.46800 53.03400 22.54500
H  16.36500 52.13800 20.63600
H  18.19500 49.98300 21.09400
H  16.46100 49.59600 19.75300
H  14.88300 50.47600 19.85300
H  15.14800 49.37900 21.04600
H  19.11700 52.94300 21.42500
H  18.33500 52.45300 19.91300
H  20.68400 50.70800 20.59700
H  20.93900 52.31700 20.35900
H  19.99600 51.31000 19.10400
H  22.36900 49.51800 25.10500
H  21.18200 48.40700 24.35800
H  21.78100 48.12700 25.92800
H  19.63500 50.65900 30.07500
H  17.32400 48.01700 32.58700
H  18.76400 48.31800 33.57600
H  18.84500 47.05800 32.44600
Mg -5.57300 25.24900 26.22100
C  -3.79000 26.69500 28.85700
C  -6.88200 23.00800 28.28700
C  -7.03200 23.83300 23.47400
C  -3.71100 27.27100 24.00100
N  -5.46700 25.07500 28.36800
C  -4.69300 25.72900 29.25000
C  -5.11200 25.29700 30.70200
C  -5.82700 23.90400 30.45400
C  -6.18000 24.05600 28.97300
C  -4.98500 22.65200 30.80200
C  -6.10500 26.35700 31.32400
C  -5.86400 26.63100 32.84500
H  -5.35700 25.30700 33.71000
N  -6.97100 23.78900 25.97900
C  -7.30200 22.86700 26.95800
C  -8.21800 21.88000 26.40100
C  -8.30800 22.16500 24.98900
C  -7.42900 23.33500 24.77500
C  -8.73800 20.72500 27.17100
C  -9.04000 21.49600 23.91900
O  -9.12200 21.85300 22.72700
C  -9.69000 20.23100 24.24400
N  -5.40000 25.44700 24.03200
C  -6.12100 24.79100 23.14300
C  -5.82200 25.17400 21.65700
C  -4.95200 26.41400 21.90900
C  -4.64400 26.38800 23.39000
C  -5.06300 24.02800 20.88600
C  -5.61300 27.76300 21.46100
C  -5.43300 28.14600 20.00500
N  -3.98200 26.67800 26.36500
C  -3.33600 27.37800 25.33000
C  -2.36600 28.22700 26.00100
C  -2.55600 28.02500 27.37400
C  -3.48100 27.05600 27.53400
C  -1.40400 29.31000 25.34200
C  -2.06100 28.41100 28.68700
O  -1.28700 29.29200 29.02000
C  -2.87600 27.51100 29.73200
C  -2.01300 26.66300 30.62800
O  -1.57000 25.55500 30.34400
O  -1.83900 27.22400 31.82700
C  -1.07600 26.58900 32.86400
H  -7.24500 22.15600 28.86600
H  -7.40700 23.30800 22.59300
H  -3.37900 27.99800 23.25700
H  -4.20700 25.15700 31.29400
H  -6.81100 23.79500 30.90900
H  -5.56600 21.93500 31.38100
H  -4.07100 22.99800 31.28500
H  -4.63500 22.23200 29.85900
H  -7.13100 25.99100 31.28400
H  -6.14400 27.33800 30.85100
H  -6.74900 27.10000 33.27400
H  -5.05500 27.35900 32.91500
H  -9.82000 20.82000 27.26000
H  -8.42400 20.58500 28.20500
H  -8.48500 19.78800 26.67500
H  -8.95600 19.50800 24.59800
H  -10.27600 19.83000 23.41700
H  -10.39100 20.45100 25.04900
H  -6.70600 25.50800 21.11200
H  -4.02600 26.38200 21.33600
H  -4.05000 24.34900 20.64300
H  -5.76000 23.81900 20.07500
H  -4.98400 23.11900 21.48200
H  -5.12000 28.63200 21.89700
H  -6.65500 27.91000 21.74400
H  -6.47500 28.30900 19.72700
H  -5.06200 27.28800 19.44400
H  -4.98900 29.12100 19.80300
H  -0.78600 28.97200 24.51100
H  -0.76600 29.75100 26.10800
H  -2.00200 30.09700 24.88300
H  -3.44400 28.17000 30.38900
H  -0.70000 25.57500 32.73100
H  -1.68800 26.67500 33.76200
H  -0.24300 27.29200 32.85100

