158

Mg 50.15300 35.38800 27.42500
C  47.93200 33.74200 29.59600
C  50.48300 37.88800 29.64300
C  52.01600 36.80000 25.15300
C  49.11400 32.97600 24.86900
N  49.24900 35.70800 29.49600
C  48.47800 34.92500 30.21500
C  48.42300 35.42500 31.68200
C  48.93000 36.90100 31.50000
C  49.63100 36.82600 30.09100
C  47.78800 38.01200 31.63200
C  49.24100 34.63200 32.67600
C  48.80800 34.56800 34.12300
H  47.63600 35.42000 34.52400
N  51.14500 37.11000 27.44400
C  51.21100 37.99800 28.45000
C  52.04800 39.11300 28.01300
C  52.42100 38.87200 26.69500
C  51.85000 37.52600 26.34500
C  52.30400 40.23900 28.99800
C  53.14500 39.75700 25.77300
O  53.37800 39.36000 24.65700
C  53.66700 41.14900 26.21700
N  50.31700 35.09400 25.14100
C  51.24200 35.76500 24.54100
C  51.66500 35.23300 23.22200
C  50.58800 34.08500 22.96100
C  49.97600 34.00900 24.40400
C  51.66900 36.34000 22.05600
C  51.11900 32.78400 22.48700
C  51.56300 31.81800 23.67300
N  48.74700 33.74200 27.21000
C  48.51000 32.89400 26.12600
C  47.54500 31.92500 26.63000
C  47.23200 32.28500 27.94600
C  48.10000 33.30200 28.30100
C  47.00400 30.78500 25.77500
C  46.49600 31.86200 29.08800
O  45.76400 30.89200 29.27400
C  46.81800 32.91600 30.17600
C  47.06500 32.11200 31.39800
O  48.12000 31.54400 31.66600
O  45.94300 32.00000 32.13600
C  46.17300 31.49300 33.49700
H  50.64700 38.56900 30.48100
H  52.68200 37.10700 24.34400
H  48.87300 32.21100 24.12700
H  47.38600 35.44600 32.01800
H  49.72600 37.10100 32.21700
H  46.83900 37.53200 31.87100
H  47.66200 38.43700 30.63600
H  48.03600 38.78300 32.36200
H  50.30100 34.87800 32.72700
H  49.29800 33.61400 32.29200
H  49.65600 34.63700 34.80500
H  48.58500 33.51700 34.30900
H  53.35300 40.27600 29.29300
H  51.76700 40.24900 29.94600
H  51.96800 41.17400 28.55100
H  52.83500 41.83400 26.38300
H  54.31700 41.56700 25.44900
H  54.22100 41.03400 27.14900
H  52.69600 34.87800 23.23500
H  49.74600 34.32200 22.31100
H  51.30900 37.29500 22.44000
H  50.97300 35.97000 21.30200
H  52.67200 36.45200 21.64600
H  52.03300 33.00500 21.93500
H  50.38400 32.28800 21.85300
H  51.76100 32.26300 24.64800
H  52.54300 31.45600 23.36200
H  50.89900 30.96400 23.80900
H  46.33200 31.28200 25.07500
H  46.44500 30.00800 26.29600
H  47.73400 30.28900 25.13600
H  45.99600 33.62600 30.26800
H  45.46900 31.95400 34.19000
H  47.13700 31.85200 33.85900
H  45.98900 30.42000 33.55400
Mg 0.27000 42.23300 25.12300
C  2.00700 42.47300 28.16100
C  -2.55200 41.30700 27.07700
C  -1.50200 41.87300 22.42800
C  3.19100 42.67600 23.43500
N  -0.17600 41.83100 27.34100
C  0.64200 42.21200 28.38200
C  -0.08900 42.11800 29.72700
C  -1.42600 41.51600 29.33300
C  -1.41000 41.58200 27.81200
C  -1.72900 40.05100 29.92300
C  -0.14700 43.60300 30.40100
C  0.42600 43.68500 31.85800
H  -0.68100 44.04500 32.87800
N  -1.76500 41.65000 24.72500
C  -2.69800 41.22000 25.68600
C  -3.91100 40.96100 24.98300
C  -3.65000 41.12400 23.62500
C  -2.27600 41.58200 23.53800
C  -5.13800 40.49200 25.62900
C  -4.50400 40.88400 22.41300
O  -4.16500 40.94500 21.24100
C  -5.99100 40.56200 22.66000
N  0.90700 41.94800 23.16700
C  -0.09700 41.93900 22.23200
C  0.54100 42.11300 20.77200
C  2.04000 42.40300 21.07600
C  2.06400 42.44000 22.65000
C  0.15300 40.93500 19.73300
C  2.57200 43.56700 20.24600
C  2.32800 44.99400 20.74800
N  2.25800 42.42200 25.66200
C  3.33200 42.68100 24.81800
C  4.51100 42.84500 25.69700
C  4.03500 42.70900 27.00600
C  2.61900 42.48200 26.93000
C  5.87600 43.23800 25.24800
C  4.46900 42.75500 28.37000
O  5.59100 42.79500 28.80400
C  3.10800 42.60100 29.19400
C  3.28000 41.49900 30.18700
O  3.18600 40.25800 30.08000
O  3.52300 42.08700 31.39500
C  3.51700 41.21100 32.59000
H  -3.50100 41.10300 27.57600
H  -2.01100 41.91300 21.46300
H  4.17700 42.82600 22.99000
H  0.37700 41.40700 30.40900
H  -2.28600 42.12200 29.61900
H  -0.90000 39.75300 30.56500
H  -1.76800 39.24400 29.19000
H  -2.65200 39.94400 30.49300
H  -1.18400 43.92600 30.49600
H  0.45900 44.34000 29.87500
H  1.24400 44.39100 32.00100
H  0.84000 42.70900 32.11200
H  -5.53800 39.60400 25.13900
H  -5.75300 41.39200 25.63400
H  -4.97200 40.20500 26.66800
H  -6.21000 39.61700 23.15600
H  -6.54400 40.52500 21.72100
H  -6.42500 41.27000 23.36500
H  0.17500 43.03400 20.31900
H  2.67500 41.53700 20.89000
H  -0.79100 40.58800 20.15300
H  0.86600 40.11000 19.71400
H  0.08900 41.33500 18.72100
H  2.17800 43.49200 19.23200
H  3.63900 43.35200 20.20500
H  1.53500 45.07200 21.49100
H  2.12700 45.60600 19.86800
H  3.17000 45.33900 21.34900
H  5.67900 44.16000 24.70100
H  6.25900 42.48200 24.56300
H  6.64500 43.38900 26.00500
H  2.98900 43.56200 29.69600
H  4.54500 40.87200 32.71800
H  2.80200 40.39100 32.51600
H  3.18400 41.76200 33.47000

