158

Mg 6.41800 53.37500 41.35300
C  6.10800 49.96800 40.22500
C  9.46800 53.39200 39.76500
C  6.28600 56.66800 41.21500
C  2.91200 53.17200 42.25100
N  7.58100 51.88600 40.05800
C  7.26400 50.60700 39.74800
C  8.30400 49.93300 38.83600
C  9.49900 50.91900 39.08600
C  8.81000 52.14700 39.63900
C  10.71500 50.35800 39.89900
C  7.85800 49.83400 37.30400
C  7.95600 48.44000 36.64200
H  6.92000 47.97800 35.57300
N  7.75200 54.86800 40.72900
C  9.01200 54.67800 40.22000
C  9.69700 55.89600 40.18200
C  8.80100 56.94900 40.53200
C  7.53700 56.20400 40.79300
C  11.16800 55.91900 39.69300
C  9.06900 58.45800 40.40700
O  10.21200 58.87500 40.05400
C  8.00200 59.41500 40.55600
N  4.79800 54.64400 41.52300
C  5.10000 56.04000 41.49700
C  3.80800 56.84300 41.82300
C  2.72300 55.73200 42.08900
C  3.49100 54.41800 41.97400
C  3.85500 57.89700 43.03200
C  1.50100 55.77700 41.15800
C  0.10700 55.47400 41.79100
N  4.89400 51.89800 41.52400
C  3.64500 51.92000 42.05500
C  3.16200 50.59800 42.21900
C  4.09300 49.80800 41.52800
C  5.10900 50.64800 41.05000
C  1.82000 50.25600 43.00600
C  4.40000 48.38000 41.06600
O  3.88200 47.33500 41.40600
C  5.73600 48.49000 40.24600
C  5.56800 47.74900 38.92700
O  4.88200 48.15200 38.00000
O  5.84500 46.42700 39.06300
C  5.40300 45.44700 38.09300
H  10.51400 53.34800 39.45400
H  6.27500 57.74300 41.40700
H  1.88000 53.02400 42.57500
H  8.57600 48.96600 39.26100
H  9.96300 51.28700 38.17100
H  11.40300 49.68900 39.38300
H  10.25000 49.90300 40.77400
H  11.38200 51.08500 40.36300
H  8.57000 50.38600 36.69100
H  6.83600 50.20800 37.24400
H  8.07200 47.80000 37.51600
H  8.90200 48.35800 36.10700
H  11.28800 55.23800 38.85000
H  11.91400 55.67700 40.44900
H  11.38400 56.96000 39.45100
H  8.20900 60.43600 40.23400
H  7.73400 59.32500 41.60900
H  7.17900 59.11600 39.90700
H  3.62400 57.39800 40.90300
H  2.37800 55.80400 43.12000
H  3.58800 58.86600 42.61000
H  4.83500 57.94200 43.50700
H  3.15000 57.57400 43.79800
H  1.57800 55.08600 40.31800
H  1.48700 56.77300 40.71600
H  -0.34000 56.46800 41.82300
H  0.14400 55.11500 42.81900
H  -0.54500 54.80800 41.22700
H  1.46600 49.47100 42.33800
H  1.00900 50.98100 43.07200
H  2.08700 49.95900 44.02100
H  6.41700 47.88500 40.84400
H  4.41100 45.69100 37.71300
H  5.21600 44.43100 38.44100
H  6.10100 45.33700 37.26400
Mg 1.94700 41.69100 25.03100
C  2.93000 42.09700 28.39500
C  -1.08400 40.43200 26.18900
C  1.20800 40.97100 21.79300
C  5.18000 42.62100 24.08500
N  0.99300 41.55900 27.07000
C  1.58800 41.78500 28.29600
C  0.55100 41.48300 29.40600
C  -0.49600 40.52900 28.72600
C  -0.19400 40.84400 27.23100
C  -0.41100 39.04900 28.98100
C  0.02900 42.80600 29.98300
C  0.01600 42.89100 31.53200
H  -0.81800 41.75800 32.20300
N  0.25000 40.89700 24.13100
C  -0.88000 40.42000 24.75300
C  -1.81800 39.88600 23.77700
C  -1.17200 40.01400 22.52000
C  0.16000 40.62900 22.77100
C  -3.14000 39.30700 24.18900
C  -1.68500 39.67500 21.14200
O  -1.10900 39.94800 20.13000
C  -3.06300 39.09800 20.86200
N  2.98800 41.72800 23.18200
C  2.44500 41.54400 21.95800
C  3.48300 41.82500 20.83800
C  4.57500 42.68000 21.59000
C  4.25500 42.35100 23.06900
C  4.22800 40.50400 20.35100
C  4.40800 44.21300 21.31400
C  3.03700 44.89200 21.70900
N  3.71800 42.21600 25.95900
C  4.93600 42.56900 25.47900
C  5.90000 42.76000 26.53500
C  5.11500 42.58200 27.68900
C  3.83800 42.27500 27.28500
C  7.34300 43.22400 26.29700
C  5.17300 42.64000 29.16400
O  6.14700 42.97900 29.85800
C  3.74700 42.37000 29.64400
C  3.80900 41.17000 30.57200
O  4.17900 40.05100 30.22000
O  3.25800 41.49700 31.81400
C  2.80200 40.32200 32.61300
H  -1.98300 39.96000 26.59000
H  0.99500 40.58600 20.79400
H  6.13800 42.99500 23.72100
H  1.16800 40.93900 30.12200
H  -1.54400 40.74500 28.93600
H  0.44600 39.03200 29.65400
H  -0.39800 38.28400 28.20400
H  -1.29000 38.86500 29.59900
H  -1.02100 42.99100 29.75900
H  0.55800 43.66700 29.57400
H  -0.38400 43.85800 31.83800
H  1.06100 42.86300 31.84000
H  -3.31700 38.29400 23.82700
H  -3.85800 39.89300 23.61500
H  -3.46300 39.38200 25.22800
H  -3.08100 38.80200 19.81300
H  -3.86300 39.82500 21.00800
H  -3.19400 38.22300 21.49900
H  3.01400 42.38900 20.03100
H  5.62400 42.42100 21.44700
H  4.47500 39.90800 21.22900
H  5.19000 40.72700 19.88800
H  3.62200 39.90500 19.67200
H  4.44900 44.45700 20.25200
H  5.24500 44.74700 21.76400
H  2.27800 44.16400 21.99300
H  2.77700 45.61000 20.93200
H  3.20200 45.47500 22.61500
H  8.06900 42.92700 27.05400
H  7.31300 44.30100 26.13100
H  7.66800 42.83000 25.33400
H  3.52500 43.27500 30.21000
H  2.17800 40.65000 33.44400
H  3.67500 39.77500 32.96900
H  2.15800 39.73600 31.95700

