158

Mg 0.66800 43.57300 25.59300
C  2.94700 43.05800 28.16100
C  -1.83900 42.66200 27.87600
C  -1.50000 43.56400 23.04600
C  3.29900 43.65400 23.34700
N  0.58600 43.00900 27.76500
C  1.58100 43.01500 28.67300
C  1.10600 42.82500 30.20400
C  -0.44200 42.61100 29.99100
C  -0.57600 42.65100 28.44500
C  -1.07200 41.36900 30.77400
C  1.51000 44.17400 30.98500
C  1.69100 44.04500 32.54200
H  1.25000 42.81100 33.29200
N  -1.35800 43.24700 25.50200
C  -2.21600 42.96900 26.54200
C  -3.54600 43.05500 26.01600
C  -3.49600 43.40300 24.71600
C  -2.05900 43.37600 24.34000
C  -4.84600 42.90200 26.95600
C  -4.64400 43.70500 23.75500
O  -4.44700 44.05200 22.55100
C  -6.06300 43.62000 24.23300
N  0.89500 43.83400 23.59000
C  -0.14600 43.69100 22.70400
C  0.32700 43.40700 21.29700
C  1.76000 43.78700 21.33000
C  2.02900 43.79300 22.82400
C  0.07700 41.98100 20.80400
C  1.95700 45.23000 20.70000
C  1.86500 46.54100 21.58200
N  2.78300 43.42400 25.64800
C  3.71800 43.59500 24.66500
C  5.05900 43.36700 25.22300
C  4.83500 43.18400 26.62100
C  3.39500 43.18800 26.84000
C  6.45700 43.51400 24.58400
C  5.44000 42.91800 27.93800
O  6.62500 42.88200 28.24900
C  4.26000 42.92000 28.96800
C  4.39000 41.74800 29.95100
O  4.44900 40.55600 29.79100
O  4.51300 42.30600 31.14600
C  5.14400 41.49700 32.18700
H  -2.62800 42.62900 28.63000
H  -2.20900 43.34600 22.24400
H  4.12000 43.88700 22.66600
H  1.52300 41.96100 30.72200
H  -1.04800 43.48200 30.24200
H  -1.85800 41.80900 31.38800
H  -0.34900 40.95700 31.47800
H  -1.59700 40.72300 30.07100
H  0.79400 44.98700 30.87000
H  2.33500 44.60700 30.41900
H  1.20200 44.95500 32.89000
H  2.72000 44.23700 32.84700
H  -5.27400 43.90000 27.05000
H  -4.52400 42.57500 27.94400
H  -5.53000 42.13100 26.60100
H  -6.27400 42.63200 24.64200
H  -6.84600 43.73000 23.48300
H  -6.33500 44.44800 24.88700
H  -0.35100 43.94800 20.63700
H  2.52800 43.14800 20.89500
H  0.84300 41.51300 20.18700
H  -0.88500 41.96100 20.29200
H  -0.07500 41.41000 21.72000
H  1.41400 45.22900 19.75500
H  2.98100 45.23300 20.32700
H  2.85500 46.71600 22.00500
H  1.11300 46.51600 22.37000
H  1.66600 47.39200 20.93000
H  6.42200 43.13400 23.56300
H  7.29600 43.03200 25.08400
H  6.71600 44.57300 24.57200
H  4.39700 43.81000 29.58200
H  5.76700 42.09900 32.84800
H  5.74400 40.67800 31.79200
H  4.36000 41.11300 32.83800
Mg -5.97400 24.89100 26.09100
C  -4.17200 26.43100 28.60500
C  -7.41500 22.89400 28.54000
C  -7.07000 22.92300 23.53300
C  -4.21900 26.96100 23.68900
N  -5.76200 24.61900 28.25300
C  -5.03400 25.50700 29.09700
C  -5.40900 25.24900 30.55600
C  -6.12800 23.90400 30.51200
C  -6.41700 23.76300 29.00800
C  -5.26500 22.85700 31.11800
C  -6.22700 26.40800 31.15600
C  -5.43000 27.00000 32.38800
H  -5.00500 25.99600 33.45400
N  -7.22100 23.25100 26.07900
C  -7.79400 22.68300 27.17300
C  -8.75800 21.67900 26.67200
C  -8.61400 21.66700 25.26000
C  -7.59200 22.64200 24.88700
C  -9.70200 20.96500 27.56500
C  -9.32900 20.78200 24.30400
O  -9.21400 20.79100 23.06700
C  -10.27100 19.79300 24.70700
N  -5.77200 24.94700 23.91000
C  -6.27600 24.01100 23.07700
C  -5.82800 24.23000 21.61400
C  -5.25000 25.70600 21.70700
C  -5.06400 25.92900 23.20200
C  -4.81300 23.10900 21.16400
C  -6.15500 26.82400 21.08500
C  -5.48400 27.56300 19.90700
N  -4.52600 26.36900 26.10100
C  -3.97600 27.14800 25.09400
C  -2.96200 28.03100 25.59900
C  -3.03800 27.75900 27.03700
C  -3.94500 26.72900 27.24000
C  -2.26300 29.08200 24.81700
C  -2.50600 28.15100 28.25500
O  -1.68900 28.97500 28.42600
C  -3.15900 27.31300 29.32800
C  -2.13000 26.56900 30.05600
O  -1.65700 25.45500 29.74900
O  -1.84600 27.28700 31.21300
C  -1.05900 26.63700 32.30300
H  -7.77000 22.28200 29.37200
H  -7.30100 22.28400 22.67800
H  -3.65200 27.59700 23.00500
H  -4.46100 25.16700 31.08700
H  -7.03300 23.96300 31.11700
H  -5.71700 22.69700 32.09700
H  -4.20100 23.04300 31.26700
H  -5.44700 21.97500 30.50400
H  -7.26200 26.16800 31.39700
H  -6.46500 27.22500 30.47400
H  -6.06600 27.76600 32.83100
H  -4.53200 27.56700 32.14300
H  -9.43500 19.97200 27.92800
H  -10.69500 21.02200 27.11900
H  -9.80800 21.57300 28.46300
H  -10.33300 19.04800 23.91300
H  -11.25000 20.27100 24.73600
H  -9.85500 19.31300 25.59300
H  -6.70900 24.26000 20.97400
H  -4.23900 25.76100 21.30200
H  -3.84900 23.61300 21.09600
H  -5.03900 22.69600 20.18100
H  -4.72000 22.32100 21.91200
H  -6.38300 27.67600 21.72600
H  -7.09000 26.40100 20.71700
H  -6.28600 27.49900 19.17200
H  -4.62300 27.03100 19.50200
H  -5.41200 28.60500 20.22000
H  -2.93700 29.72700 24.25200
H  -1.72300 28.53500 24.04400
H  -1.52600 29.62100 25.41200
H  -3.61900 27.93200 30.09800
H  -1.55400 25.81600 32.82200
H  -0.79000 27.34400 33.08800
H  -0.08600 26.26700 31.98000

