158

Mg 30.48100 58.37800 40.28800
C  27.49200 56.71300 39.13300
C  32.38300 55.83100 39.09100
C  33.06800 60.32700 41.05100
C  28.42300 61.27500 40.41200
N  30.00300 56.52900 39.29600
C  28.72300 55.97400 39.05500
C  28.82000 54.57700 38.47500
C  30.40500 54.25100 38.55700
C  31.02000 55.65300 38.96100
C  30.80900 53.10800 39.59800
C  28.33100 54.52000 36.93600
C  28.84600 55.73600 35.99200
H  27.87100 56.02400 34.86500
N  32.44000 58.03900 40.17600
C  33.12600 56.92800 39.64100
C  34.51800 57.08200 39.71800
C  34.73700 58.39500 40.31400
C  33.41400 59.01400 40.56500
C  35.50100 56.06400 39.06900
C  36.09400 58.88500 40.59500
O  37.07200 58.24300 40.21900
C  36.22800 60.15000 41.44300
N  30.73800 60.57500 40.67500
C  31.90800 61.08300 41.09000
C  31.79500 62.60600 41.23500
C  30.27300 62.91700 41.02800
C  29.72100 61.47800 40.79600
C  32.47500 63.27900 42.49000
C  29.90400 63.93800 39.92000
C  29.18400 65.18500 40.28100
N  28.34600 58.92100 40.06700
C  27.69300 60.12800 40.09100
C  26.31500 60.02500 39.70600
C  26.18700 58.68600 39.39800
C  27.44400 58.07400 39.54000
C  25.32500 61.18300 39.65400
C  25.25400 57.72500 39.02000
O  24.05200 57.75200 38.84100
C  26.08300 56.41200 38.85800
C  25.46300 55.35200 39.65900
O  25.47400 55.25500 40.87100
O  25.03100 54.34100 38.85900
C  24.10000 53.31100 39.54600
H  32.90200 54.90900 38.82200
H  33.89800 61.00200 41.26700
H  27.74900 62.13300 40.45600
H  28.18300 54.00300 39.14900
H  30.79000 53.98300 37.57200
H  31.22000 52.25000 39.06600
H  29.90400 52.86300 40.15500
H  31.58000 53.38800 40.31500
H  27.26000 54.31800 36.90800
H  28.79400 53.61200 36.54800
H  29.77700 55.39700 35.53800
H  29.08700 56.61200 36.59300
H  36.24300 55.79600 39.82200
H  35.94100 56.44800 38.14900
H  34.98100 55.11900 38.91000
H  35.61500 60.01600 42.33500
H  35.86000 61.05600 40.96100
H  37.21900 60.56600 41.62600
H  32.31800 63.00300 40.36500
H  29.89000 63.23700 41.99700
H  32.90700 62.58000 43.20600
H  31.74400 63.87600 43.03600
H  33.22500 64.02600 42.22800
H  29.40400 63.41300 39.10600
H  30.82200 64.30800 39.46400
H  28.72000 65.48200 39.34100
H  29.92500 65.90200 40.63700
H  28.47800 64.98200 41.08600
H  24.41700 60.85400 39.14800
H  25.80600 61.96700 39.06800
H  25.15300 61.47300 40.69100
H  25.97800 56.08800 37.82300
H  23.64400 52.85200 38.66900
H  23.35900 53.78800 40.18600
H  24.58700 52.53200 40.13300
Mg 36.01700 48.82400 25.85300
C  36.19600 47.06300 28.91600
C  35.07100 51.52600 27.58700
C  35.49000 50.35000 22.85000
C  36.64600 45.80800 24.15900
N  35.51400 49.17700 28.01700
C  35.87300 48.41200 29.09500
C  35.60000 49.10900 30.40400
C  35.02000 50.49100 29.96300
C  35.22400 50.43100 28.41600
C  33.50200 50.57600 30.34800
C  36.82500 49.40800 31.26400
C  36.65900 48.87200 32.73700
H  36.44500 49.93500 33.85000
N  35.52500 50.69100 25.27900
C  35.16900 51.68600 26.13400
C  35.14400 52.96200 25.39300
C  35.41900 52.60200 24.07600
C  35.38000 51.12300 24.04900
C  34.84800 54.29700 26.04000
C  35.48200 53.56300 22.90200
O  35.68000 53.19500 21.75700
C  35.27300 55.09700 23.16400
N  36.04500 48.10900 23.84300
C  35.75600 48.97300 22.75400
C  35.62000 48.22000 21.44500
C  36.47000 46.86500 21.81800
C  36.35400 46.88900 23.33700
C  34.18100 47.94400 20.92700
C  37.92800 46.90400 21.30400
C  38.23600 46.29300 19.93100
N  36.32600 46.82100 26.36200
C  36.56300 45.71700 25.58700
C  36.60800 44.50500 26.43000
C  36.48600 44.98000 27.73900
C  36.36100 46.40000 27.71100
C  36.84600 43.11400 25.96000
C  36.54800 44.56800 29.12200
O  36.70200 43.49200 29.60400
C  36.34400 45.91400 29.93200
C  35.10800 45.71700 30.78000
O  34.01400 45.29400 30.42200
O  35.51500 45.78700 32.09300
C  34.44700 45.71100 33.11800
H  34.84000 52.46500 28.09400
H  35.51800 50.81500 21.86300
H  36.93900 44.90600 23.61700
H  34.94000 48.49800 31.02000
H  35.48700 51.41300 30.31000
H  33.35700 51.42000 31.02300
H  33.16300 49.71700 30.92600
H  32.90100 50.60100 29.43900
H  37.17800 50.43900 31.29700
H  37.67000 48.87300 30.83000
H  37.49800 48.18600 32.85700
H  35.84200 48.18600 32.96200
H  35.74500 54.88200 25.83500
H  34.78700 54.17800 27.12200
H  33.98500 54.90900 25.77900
H  34.24300 55.29200 23.46200
H  35.45800 55.54000 22.18600
H  36.08800 55.41200 23.81600
H  36.17100 48.72100 20.64800
H  35.85700 46.05500 21.42200
H  33.45200 48.49700 21.51800
H  33.92200 46.88800 21.00200
H  34.05700 48.32500 19.91300
H  38.44700 46.31700 22.06100
H  38.34400 47.91200 21.31900
H  38.60800 47.04000 19.23100
H  37.29600 45.95900 19.49200
H  38.89600 45.43100 20.03300
H  36.14100 42.75700 25.20900
H  36.72600 42.52600 26.87000
H  37.88500 42.87200 25.73600
H  37.23800 46.12900 30.51800
H  34.56800 46.55900 33.79200
H  34.42800 44.87700 33.82000
H  33.45800 45.80500 32.67000

