158

Mg 5.83200 54.51500 41.88800
C  5.31900 51.02700 41.57400
C  8.75200 54.13900 40.37500
C  5.79600 57.84300 41.49500
C  2.44500 54.60500 42.90600
N  6.82600 52.80500 40.93900
C  6.47900 51.46200 40.95400
C  7.52600 50.56800 40.17100
C  8.67900 51.59000 40.15800
C  8.07500 52.92500 40.49700
C  9.66200 51.28600 41.31800
C  7.15400 49.99600 38.71400
C  6.13400 50.68200 37.87000
H  6.68900 51.47600 36.68800
N  7.19100 55.88800 41.12000
C  8.40800 55.46600 40.65700
C  9.21000 56.69600 40.43100
C  8.31400 57.80700 40.64800
C  7.02800 57.24500 41.09600
C  10.70200 56.71100 39.99100
C  8.62300 59.25000 40.52200
O  9.79500 59.53700 40.17800
C  7.69100 60.30500 40.93000
N  4.28300 55.92700 42.05400
C  4.54700 57.29800 41.85100
C  3.35900 58.18300 42.22900
C  2.28800 57.07700 42.59200
C  3.05600 55.77100 42.46100
C  3.66800 59.13800 43.41200
C  0.98700 57.11500 41.73500
C  -0.32400 57.29100 42.56900
N  4.22200 53.08600 42.25300
C  2.99900 53.32200 42.78800
C  2.31200 52.08400 43.03300
C  3.26000 51.18600 42.61000
C  4.37400 51.85600 42.17100
C  1.00900 51.83800 43.56700
C  3.47400 49.75400 42.43700
O  2.79600 48.78000 42.74200
C  4.92500 49.61400 41.89300
C  4.80500 48.77900 40.74900
O  4.37600 49.19800 39.68000
O  5.11500 47.50700 41.08600
C  4.99700 46.55000 39.92900
H  9.76700 54.07600 39.97800
H  5.85200 58.93300 41.48900
H  1.39800 54.67000 43.21100
H  7.66000 49.67600 40.78200
H  9.13000 51.68600 39.17100
H  9.30400 50.54900 42.03700
H  9.95300 52.19100 41.85100
H  10.58900 50.87700 40.91600
H  6.79500 48.97700 38.86200
H  8.12600 49.86900 38.23900
H  5.66900 51.43000 38.51300
H  5.38100 50.01100 37.45800
H  10.83100 57.10200 38.98100
H  10.97900 55.65800 39.94100
H  11.29300 57.22900 40.74600
H  6.86900 60.18600 40.22300
H  8.18700 61.23000 40.63600
H  7.37900 60.24400 41.97200
H  3.17100 58.74700 41.31500
H  1.96300 57.08600 43.63200
H  3.07000 59.07600 44.32100
H  3.53700 60.12400 42.96600
H  4.69100 59.12500 43.78700
H  0.88800 56.25000 41.07800
H  1.13900 57.97700 41.08500
H  -0.68200 56.26800 42.68300
H  -1.03400 57.87500 41.98300
H  -0.01700 57.74800 43.50900
H  0.20200 52.38600 43.08000
H  0.95300 52.25600 44.57300
H  0.76900 50.78000 43.66500
H  5.67600 49.11500 42.50600
H  5.56500 45.63100 40.07100
H  5.35500 47.05800 39.03300
H  3.96800 46.34500 39.63400
Mg -5.23100 25.71500 26.23700
C  -4.11800 27.46500 28.97200
C  -6.61200 23.35800 28.34800
C  -6.07500 23.77900 23.48300
C  -2.93200 27.48000 24.20000
N  -5.33500 25.39100 28.40800
C  -4.89900 26.34000 29.33000
C  -5.33400 26.01400 30.69600
C  -5.88400 24.48900 30.52400
C  -5.93500 24.37900 29.01100
C  -5.12300 23.31700 31.09300
C  -6.36700 27.02100 31.28100
C  -7.07900 26.58400 32.59700
H  -6.45400 25.48300 33.45700
N  -6.43300 24.06200 25.92700
C  -7.02300 23.36700 26.96600
C  -7.92100 22.33700 26.36800
C  -7.77600 22.47700 24.92500
C  -6.70800 23.48500 24.71500
C  -8.84600 21.41500 27.22300
C  -8.41800 21.83100 23.80200
O  -8.27400 22.10900 22.64100
C  -9.63100 20.81700 24.00700
N  -4.43500 25.55600 24.17200
C  -5.05200 24.71800 23.27600
C  -4.48800 24.97300 21.88900
C  -3.61300 26.35600 22.08800
C  -3.69100 26.52700 23.56500
C  -3.77500 23.78400 21.26200
C  -4.18000 27.53600 21.21700
C  -3.21700 28.69100 21.00600
N  -3.82100 27.14400 26.50000
C  -2.99700 27.78800 25.59000
C  -2.26200 28.78300 26.31000
C  -2.66700 28.62900 27.67700
C  -3.59500 27.61500 27.70100
C  -1.26300 29.82900 25.77600
C  -2.35200 29.11500 28.94500
O  -1.63800 29.96400 29.44100
C  -3.36500 28.48100 29.86400
C  -2.76700 27.84100 31.00300
O  -1.94500 26.93700 31.00500
O  -3.30500 28.39600 32.16900
C  -2.80600 27.69600 33.35100
H  -7.16900 22.64300 28.95700
H  -6.25200 23.27200 22.53200
H  -2.16200 28.09300 23.72700
H  -4.47000 25.81200 31.32900
H  -6.92100 24.44400 30.85700
H  -4.57000 22.76100 30.33700
H  -5.84600 22.75400 31.68400
H  -4.33800 23.63700 31.77800
H  -7.14900 27.19700 30.54200
H  -5.84000 27.95600 31.47200
H  -8.08600 26.37800 32.23600
H  -7.02600 27.45000 33.25700
H  -8.50900 20.39800 27.02000
H  -9.89300 21.70700 27.13900
H  -8.65400 21.46400 28.29500
H  -9.84000 20.43900 23.00600
H  -10.44800 21.36900 24.47100
H  -9.19400 19.97700 24.54800
H  -5.34500 25.19600 21.25500
H  -2.58800 26.13500 21.79200
H  -3.80000 22.99100 22.00900
H  -2.70900 23.97200 21.13200
H  -4.26700 23.41800 20.36200
H  -5.12400 27.84300 21.66600
H  -4.39200 27.15000 20.22000
H  -2.74800 28.64600 20.02300
H  -2.49700 28.80400 21.81600
H  -3.85400 29.56800 21.12100
H  -0.76800 29.62900 24.82600
H  -0.44400 29.88000 26.49300
H  -1.77200 30.78400 25.64500
H  -3.99800 29.32900 30.12500
H  -2.55000 26.63900 33.27900
H  -3.58800 27.64100 34.10800
H  -2.01200 28.34500 33.71900

