158

Mg 40.13700 8.82500 28.46500
C  42.02400 10.06300 31.03300
C  38.00900 7.44400 30.63200
C  38.21500 7.85800 25.79800
C  42.45900 9.97900 26.17800
N  40.10500 8.72600 30.57600
C  40.85400 9.44100 31.44700
C  40.29900 9.39300 32.86500
C  39.18400 8.31600 32.76600
C  39.10200 8.06300 31.19600
C  39.49600 7.03100 33.54300
C  39.75600 10.84000 33.33600
C  39.14500 11.04000 34.77600
H  39.39800 12.30600 35.49500
N  38.29200 7.79400 28.25500
C  37.59800 7.26100 29.30000
C  36.41000 6.68800 28.82300
C  36.36700 6.90000 27.43500
C  37.62600 7.57200 27.10700
C  35.29200 5.95400 29.70000
C  35.29900 6.55900 26.33700
O  35.42300 6.66100 25.13200
C  33.89900 6.16400 26.78400
N  40.33300 8.69800 26.29200
C  39.36800 8.45600 25.38800
C  39.82500 8.74000 24.00300
C  41.18200 9.41900 24.18900
C  41.35200 9.34200 25.70100
C  39.82500 7.47200 23.14700
C  41.14500 10.90600 23.60200
C  40.47900 12.03000 24.43500
N  41.90100 9.72700 28.61300
C  42.79100 10.15900 27.56100
C  43.95800 10.86200 28.18200
C  43.63300 10.84900 29.55700
C  42.47100 10.14700 29.64900
C  45.15700 11.39100 27.48100
C  44.05700 11.31000 30.88800
O  44.93900 12.07600 31.22900
C  43.00400 10.83300 31.88800
C  43.69400 9.99500 32.96700
O  44.28800 8.94600 32.76300
O  43.43500 10.53600 34.24200
C  43.70700 9.63100 35.30800
H  37.31200 7.24900 31.45000
H  37.66700 7.61600 24.88400
H  43.21200 10.33500 25.47200
H  41.18100 9.08300 33.42500
H  38.28000 8.76500 33.17600
H  40.50300 6.92100 33.94500
H  39.38500 6.14100 32.92300
H  38.80500 7.03800 34.38600
H  38.82800 11.03200 32.79800
H  40.52900 11.59400 33.18400
H  39.59900 10.21400 35.32300
H  38.07300 10.86000 34.68900
H  35.41900 6.04500 30.77800
H  35.42200 4.91100 29.41200
H  34.32400 6.42200 29.52200
H  33.49600 7.09100 27.19300
H  33.85600 5.42000 27.58000
H  33.40500 5.87200 25.85700
H  39.10800 9.46400 23.61700
H  41.94100 8.85200 23.65000
H  39.83500 6.58300 23.77900
H  40.71400 7.43600 22.51700
H  38.97100 7.44700 22.47000
H  40.73200 10.82500 22.59700
H  42.16500 11.25800 23.45000
H  40.24000 11.62200 25.41700
H  39.55600 12.36800 23.96600
H  41.19000 12.84500 24.56800
H  45.91200 11.30700 28.26300
H  44.91100 12.42900 27.25900
H  45.30100 10.69900 26.65100
H  42.56500 11.68300 32.41200
H  42.78500 9.59000 35.88800
H  44.59600 9.81400 35.91100
H  43.83100 8.62400 34.91000
Mg 36.15600 49.56800 24.97500
C  36.13200 47.98500 28.16200
C  34.66900 52.25200 26.51200
C  35.50100 50.77900 21.93900
C  37.12800 46.52900 23.46100
N  35.25900 49.91400 27.08800
C  35.64100 49.27700 28.20700
C  35.38600 50.18400 29.47300
C  34.60500 51.36900 28.87200
C  34.77400 51.14000 27.36700
C  33.11700 51.45100 29.19400
C  36.75500 50.49800 30.16500
C  36.96000 49.88600 31.57800
H  35.64600 49.79200 32.44800
N  35.36300 51.32300 24.31500
C  34.92000 52.36300 25.11200
C  34.65800 53.51200 24.34200
C  34.90000 53.09400 23.00500
C  35.20300 51.64500 23.02100
C  34.10100 54.86500 24.77700
C  34.78000 53.92800 21.69400
O  34.76700 53.41200 20.60900
C  34.64500 55.41300 21.73500
N  36.24700 48.75100 22.92700
C  35.94000 49.48500 21.88300
C  36.46400 48.92300 20.58600
C  36.97500 47.47300 21.01900
C  36.70100 47.52400 22.58200
C  35.59000 48.87500 19.23400
C  38.44700 47.16800 20.67100
C  39.55400 47.85200 21.50300
N  36.58700 47.69100 25.60400
C  37.01000 46.55400 24.89300
C  37.31000 45.46600 25.85900
C  37.02900 46.01700 27.14500
C  36.58400 47.35700 26.94800
C  37.60400 43.99900 25.56500
C  37.05600 45.70100 28.55200
O  37.61200 44.78300 29.14000
C  36.35100 46.97100 29.29700
C  35.10000 46.45100 29.82700
O  33.93200 46.48400 29.48000
O  35.35700 45.86400 31.10300
C  34.19400 45.27400 31.80400
H  34.28300 53.16700 26.96400
H  35.32900 51.20600 20.94900
H  37.57000 45.60800 23.07600
H  34.78000 49.65800 30.21100
H  35.05000 52.34300 29.08000
H  32.69500 50.52300 29.58000
H  32.59900 51.80400 28.30300
H  33.04100 52.17000 30.00900
H  36.86300 51.57700 30.04900
H  37.54400 50.08500 29.53700
H  37.52700 50.64300 32.12000
H  37.54400 48.97800 31.72700
H  34.81000 55.69100 24.72100
H  33.80000 54.76700 25.82100
H  33.19400 54.95800 24.17900
H  33.60700 55.67400 21.94200
H  34.88500 55.78300 20.73800
H  35.50900 55.80600 22.27300
H  37.29200 49.62200 20.47400
H  36.23600 46.73000 20.71800
H  35.49300 47.87900 18.80300
H  36.13100 49.35900 18.42100
H  34.62800 49.38700 19.26500
H  38.67100 47.51000 19.66100
H  38.62700 46.10200 20.81100
H  39.02600 48.37600 22.30000
H  40.01400 48.60800 20.86600
H  40.29400 47.21000 21.98000
H  38.61800 43.96100 25.16700
H  36.93800 43.66300 24.77100
H  37.41900 43.47100 26.50100
H  36.82500 47.34600 30.20400
H  34.66500 44.87100 32.70100
H  33.76000 44.42200 31.28100
H  33.47000 46.06900 31.98000

