158

Mg 42.39700 41.69400 26.14000
C  41.79000 44.03300 28.62000
C  43.59100 39.51500 28.54700
C  43.24600 39.62800 23.55400
C  41.55900 44.12700 23.70100
N  42.44600 41.72100 28.35800
C  42.26700 42.80200 29.18200
C  42.34900 42.41900 30.67500
C  43.28200 41.16700 30.57500
C  43.01100 40.72800 29.06400
C  44.74100 41.25700 30.99500
C  40.99500 42.27300 31.48000
C  40.60000 43.34700 32.48400
H  41.50300 43.61800 33.71600
N  43.24500 39.81200 26.13000
C  43.66100 39.10100 27.18000
C  44.10200 37.82500 26.66800
C  43.97600 37.79600 25.26500
C  43.43200 39.12100 24.86300
C  44.63100 36.74000 27.58400
C  44.33500 36.69400 24.27600
O  44.07000 36.74000 23.04900
C  45.03900 35.39700 24.70600
N  42.25900 41.77700 24.01800
C  42.70000 40.84200 23.16800
C  42.67000 41.30700 21.70500
C  41.78500 42.54000 21.80400
C  41.82100 42.83900 23.32600
C  44.06700 41.54900 21.05300
C  40.29500 42.34400 21.46800
C  39.60200 41.16500 22.09500
N  41.78300 43.60800 26.15400
C  41.60100 44.49800 25.05700
C  41.30700 45.82000 25.59500
C  41.28400 45.59900 27.00900
C  41.64700 44.27200 27.28200
C  41.04000 47.10100 24.85700
C  41.06500 46.31600 28.27700
O  40.67600 47.46300 28.49600
C  41.32900 45.32300 29.40100
C  42.36100 45.87800 30.34500
O  43.52300 45.53400 30.39700
O  41.81500 46.92600 31.08600
C  42.79800 47.50900 32.02200
H  43.92600 38.77100 29.27200
H  43.55700 39.05200 22.68000
H  41.20200 44.89300 23.01000
H  42.93900 43.17400 31.19400
H  42.94700 40.32600 31.18200
H  45.03800 42.28200 31.21600
H  45.31700 40.74500 30.22400
H  44.89700 40.66300 31.89500
H  40.76000 41.32100 31.95500
H  40.32800 42.32900 30.61900
H  39.57700 43.11900 32.78400
H  40.63200 44.32400 32.00200
H  45.72000 36.70700 27.58200
H  44.28300 35.78800 27.18300
H  44.43900 36.86400 28.64900
H  45.26800 34.91200 23.75600
H  44.43800 34.65400 25.23000
H  45.93200 35.80500 25.17900
H  42.07100 40.49900 21.28800
H  42.23500 43.40000 21.31000
H  44.30200 42.49600 20.56800
H  44.12700 40.75400 20.31000
H  44.87900 41.24600 21.71500
H  40.20000 42.26600 20.38500
H  39.70600 43.23300 21.69600
H  38.65600 41.51100 22.51300
H  40.17200 40.68100 22.88800
H  39.37100 40.44300 21.31200
H  41.44900 47.13700 23.84700
H  41.37900 47.96600 25.42700
H  39.95200 47.16200 24.84000
H  40.37400 45.20300 29.91300
H  43.22600 46.77300 32.70200
H  42.11400 48.11000 32.62100
H  43.58700 48.02100 31.47100
Mg 9.44100 47.19900 26.41100
C  7.65400 47.36600 29.42400
C  12.08800 48.57000 28.09300
C  11.05400 47.48700 23.44800
C  6.40600 46.83000 24.72000
N  9.76600 47.97600 28.59200
C  8.94000 47.83900 29.61600
C  9.63300 48.30600 30.92800
C  10.85300 49.08500 30.37400
C  10.90600 48.55600 28.94000
C  10.66200 50.62000 30.41400
C  10.00500 47.02700 31.74900
C  10.05100 47.28800 33.31300
H  9.98300 46.09700 34.27700
N  11.38900 47.75500 25.86200
C  12.35700 48.30400 26.71000
C  13.67800 48.25600 26.00800
C  13.39200 47.95900 24.60000
C  11.86400 47.69100 24.54400
C  14.99000 48.72800 26.67300
C  14.31100 47.94300 23.43000
O  13.90200 47.74400 22.31600
C  15.76100 48.19400 23.62900
N  8.78200 47.19800 24.42600
C  9.65200 47.31300 23.36500
C  8.92500 47.10900 22.01500
C  7.44100 46.93400 22.43800
C  7.51000 47.02800 23.91900
C  9.21400 48.29900 21.11400
C  6.69300 45.64600 22.00400
C  7.60600 44.32500 22.10800
N  7.43300 46.93900 26.92900
C  6.30600 46.83700 26.15900
C  5.09700 46.73800 27.10400
C  5.64100 46.88100 28.38100
C  6.99300 47.01900 28.22100
C  3.66700 46.42800 26.78400
C  5.22800 46.90900 29.74800
O  4.11600 46.89300 30.30700
C  6.59100 47.20100 30.52300
C  6.77400 46.07400 31.50000
O  6.94800 44.91500 31.06300
O  6.71900 46.46600 32.77900
C  6.90200 45.28300 33.69700
H  12.87600 49.06000 28.66900
H  11.52700 47.61700 22.47200
H  5.48300 46.66600 24.16000
H  8.96500 49.03500 31.38600
H  11.70300 48.69200 30.93200
H  9.82800 50.92900 31.04400
H  10.53200 50.87900 29.36300
H  11.58000 51.07900 30.78000
H  10.97500 46.69700 31.37900
H  9.31600 46.20700 31.54200
H  9.28200 47.96100 33.69300
H  10.96700 47.84300 33.51700
H  15.72500 47.92600 26.74000
H  14.86600 48.94000 27.73400
H  15.33500 49.64900 26.20400
H  16.36700 48.29400 22.72900
H  15.96200 47.22900 24.09500
H  16.01100 49.03600 24.27600
H  9.47300 46.33600 21.47600
H  6.99900 47.82900 22.00000
H  9.76600 49.08800 21.62600
H  8.26300 48.66000 20.72200
H  9.81200 48.02800 20.24400
H  6.53800 45.89500 20.95400
H  5.70700 45.42600 22.41400
H  7.88000 44.04900 21.09000
H  6.99500 43.57400 22.61000
H  8.56100 44.41200 22.62500
H  3.53200 46.19400 25.72800
H  3.01800 47.25600 27.06600
H  3.48000 45.52500 27.36500
H  6.39100 48.09500 31.11400
H  7.72700 44.63700 33.39700
H  6.03100 44.62800 33.70000
H  7.10400 45.62600 34.71200

