158

Mg 25.72800 0.96400 28.58600
C  27.86700 1.03300 31.47200
C  23.10400 1.58200 30.82000
C  23.61300 0.30400 26.13800
C  28.50100 0.00900 26.78600
N  25.53600 1.19900 30.87300
C  26.57000 1.38300 31.79700
C  25.98100 1.60300 33.17600
C  24.42100 1.69800 32.96200
C  24.33300 1.47600 31.45400
C  23.65100 0.59600 33.71500
C  26.63800 2.95000 33.78500
C  25.82700 3.50500 35.05800
H  26.50300 3.93600 36.36300
N  23.60600 1.13600 28.47700
C  22.76200 1.37000 29.50200
C  21.42500 1.47700 28.92300
C  21.52300 1.13500 27.51900
C  22.91800 0.74400 27.32400
C  20.16600 1.91500 29.74900
C  20.49900 1.03200 26.47300
O  20.65300 0.54200 25.37400
C  19.24200 1.52800 26.79100
N  25.98500 0.21200 26.84700
C  24.97300 0.11800 25.90500
C  25.49300 -0.10700 24.44100
C  26.96800 0.15400 24.67700
C  27.15500 0.07000 26.16500
C  25.16000 -1.48100 23.80300
C  27.34800 1.59500 24.20700
C  27.72100 1.75000 22.70500
N  27.75400 0.44100 29.07100
C  28.68800 0.07200 28.18600
C  29.90400 -0.34200 28.87200
C  29.60300 0.14000 30.14700
C  28.26900 0.54100 30.24900
C  31.21100 -0.89300 28.32500
C  30.21300 0.33900 31.42300
O  31.35700 0.09800 31.78800
C  29.11600 0.94300 32.37700
C  29.04600 0.14700 33.61100
O  28.61600 -0.98800 33.76800
O  29.42000 0.96200 34.63700
C  29.54100 0.33200 35.99000
H  22.21500 1.77000 31.42600
H  22.98400 0.16900 25.25500
H  29.34100 -0.13900 26.10500
H  26.36200 0.79200 33.79700
H  24.22500 2.72400 33.27300
H  24.31300 -0.25100 33.89500
H  22.85700 0.32200 33.02100
H  23.18900 0.90900 34.65200
H  26.58900 3.69100 32.98800
H  27.67600 2.82600 34.09300
H  25.07400 2.76000 35.31600
H  25.34700 4.44000 34.76700
H  19.80700 2.91100 29.48800
H  20.31100 1.80500 30.82300
H  19.36400 1.20900 29.53500
H  18.71900 0.85200 27.46700
H  18.64800 1.57000 25.87800
H  19.32900 2.53400 27.20300
H  25.03700 0.61100 23.75800
H  27.65600 -0.54700 24.20600
H  26.10600 -2.01900 23.73000
H  24.61000 -1.43400 22.86300
H  24.58100 -2.00400 24.56400
H  28.23000 1.93700 24.74900
H  26.60800 2.32100 24.54300
H  27.21200 2.64800 22.35300
H  27.42500 0.91500 22.07000
H  28.80700 1.80800 22.63000
H  31.10500 -1.19800 27.28400
H  31.48000 -1.82200 28.82700
H  32.02300 -0.18000 28.47400
H  29.34200 1.97300 32.65400
H  28.54700 0.29500 36.43400
H  30.17800 1.04400 36.51500
H  29.95800 -0.66700 35.86800
Mg -12.77100 38.88600 41.84700
C  -10.67200 35.97300 41.47800
C  -10.07200 40.72400 40.71600
C  -14.68100 41.65000 42.19200
C  -15.43800 36.84200 42.20900
N  -10.66700 38.35700 40.90900
C  -10.04100 37.13000 40.94600
C  -8.59700 37.24100 40.45300
C  -8.39000 38.74400 40.40500
C  -9.75900 39.33800 40.71300
C  -7.39300 39.29000 41.40700
C  -8.54600 36.59000 39.00200
C  -7.46700 35.51300 38.83500
H  -7.14000 34.85700 37.43200
N  -12.41600 40.91400 41.47100
C  -11.28300 41.47900 40.98200
C  -11.45100 42.91100 40.97300
C  -12.74400 43.23100 41.47100
C  -13.39000 41.92200 41.69400
C  -10.37700 43.83200 40.50600
C  -13.23500 44.66900 41.76700
O  -12.53800 45.64000 41.45400
C  -14.54500 44.97400 42.38700
N  -14.76100 39.21200 42.13500
C  -15.29600 40.37800 42.55500
C  -16.72300 40.19900 43.16500
C  -17.04800 38.66800 42.82600
C  -15.65900 38.18000 42.38100
C  -16.82600 40.73000 44.64200
C  -18.16000 38.52600 41.68400
C  -17.74500 38.62100 40.19400
N  -13.04900 36.83200 41.82300
C  -14.21700 36.15500 42.00200
C  -13.96700 34.70700 42.17800
C  -12.56600 34.59700 41.98600
C  -12.02200 35.91000 41.75700
C  -14.97700 33.67700 42.48600
C  -11.45200 33.69200 41.98900
O  -11.36400 32.55500 42.38200
C  -10.08700 34.54800 41.64100
C  -9.17200 34.40000 42.72000
O  -9.35300 34.61100 43.86200
O  -8.06500 33.73500 42.17400
C  -6.93300 33.66900 43.08300
H  -9.13900 41.23400 40.46600
H  -15.39500 42.45500 42.37600
H  -16.29700 36.19300 42.39100
H  -7.91700 36.68400 41.09800
H  -8.12900 39.06700 39.39700
H  -7.86600 39.77500 42.26100
H  -6.78500 40.00000 40.84700
H  -6.71100 38.52300 41.77400
H  -8.45100 37.24000 38.13200
H  -9.55000 36.17800 38.90600
H  -7.82400 34.70400 39.47300
H  -6.56100 35.90300 39.29800
H  -10.20900 44.68300 41.16700
H  -10.63100 44.19700 39.51100
H  -9.44300 43.28900 40.36500
H  -14.77000 44.45700 43.31900
H  -15.25900 44.79600 41.58300
H  -14.57900 45.99400 42.77000
H  -17.45400 40.80600 42.63100
H  -17.30900 38.08600 43.70900
H  -16.91900 39.86400 45.29700
H  -17.53800 41.52000 44.88300
H  -15.84300 41.18400 44.76400
H  -18.94700 39.27400 41.78600
H  -18.65300 37.56000 41.79100
H  -17.71800 37.59200 39.83700
H  -16.85800 39.19500 39.92700
H  -18.49600 39.11800 39.57900
H  -15.62300 33.93200 43.32600
H  -14.64500 32.69000 42.81000
H  -15.68500 33.34700 41.72500
H  -9.71100 34.16200 40.69400
H  -6.49000 32.67400 43.02800
H  -7.09800 33.87200 44.14100
H  -6.19400 34.42100 42.80500

