158

Mg 16.45100 -1.84900 27.85600
C  15.28700 0.50900 30.28000
C  18.46000 -3.22900 30.19300
C  17.76300 -3.58100 25.30700
C  14.26900 -0.18200 25.49500
N  16.97400 -1.31000 30.00700
C  16.20800 -0.45500 30.80500
C  16.52400 -0.63100 32.34100
C  17.52900 -1.85000 32.25900
C  17.58100 -2.26600 30.75500
C  18.93100 -1.52800 32.88600
C  15.39900 -0.98400 33.33000
C  15.46600 -0.46700 34.80900
H  16.85000 -0.02200 35.46500
N  17.88500 -3.33400 27.76800
C  18.64500 -3.72500 28.86700
C  19.52900 -4.80400 28.40300
C  19.28700 -4.89300 26.93700
C  18.30900 -3.88600 26.60300
C  20.42100 -5.53000 29.28100
C  19.99000 -5.77000 25.89500
O  19.83200 -5.61100 24.72400
C  21.18400 -6.68000 26.43500
N  15.96600 -1.95600 25.77300
C  16.66900 -2.70900 24.85300
C  16.43100 -2.33600 23.42600
C  15.14400 -1.55600 23.56600
C  15.15000 -1.12100 25.05000
C  17.47900 -1.44100 22.82800
C  13.76400 -2.31400 23.17100
C  12.88200 -3.06900 24.15800
N  14.83000 -0.37600 27.84500
C  14.14000 0.22300 26.80400
C  13.33300 1.34400 27.37900
C  13.72700 1.38900 28.71800
C  14.68900 0.41600 28.95700
C  12.29600 2.26400 26.61400
C  13.50900 2.13200 29.89800
O  12.89200 3.15200 30.11600
C  14.46700 1.58300 30.98900
C  15.25200 2.73200 31.50800
O  16.13400 3.36900 30.94700
O  14.91500 2.97900 32.80000
C  15.79700 3.87700 33.55500
H  19.09700 -3.79900 30.87200
H  18.14300 -4.16900 24.46900
H  13.53700 0.15200 24.75600
H  17.10600 0.25100 32.60900
H  17.22200 -2.74600 32.79900
H  19.66600 -1.85800 32.15200
H  19.15800 -2.21000 33.70500
H  19.00000 -0.48700 33.20100
H  15.25800 -2.05400 33.48700
H  14.50500 -0.63900 32.81200
H  14.95700 -1.10500 35.53200
H  14.84500 0.42800 34.80100
H  20.51100 -6.59600 29.07100
H  20.28600 -5.43100 30.35800
H  21.39200 -5.07300 29.09000
H  21.84900 -6.01700 26.98900
H  21.70200 -7.08400 25.56500
H  20.88800 -7.54200 27.03300
H  16.26700 -3.25400 22.86100
H  15.33200 -0.60700 23.06400
H  18.37400 -1.98100 22.52000
H  17.86000 -0.88100 23.68200
H  17.19600 -0.69500 22.08600
H  14.09600 -3.02500 22.41400
H  13.18600 -1.56600 22.63000
H  13.03700 -2.78700 25.20000
H  13.09100 -4.12400 23.98100
H  11.82100 -2.92300 23.95700
H  11.42900 2.34000 27.26900
H  12.03000 1.92700 25.61200
H  12.72600 3.25200 26.44900
H  13.80100 1.18100 31.75200
H  15.91600 4.83400 33.04700
H  16.73500 3.35700 33.75100
H  15.31200 4.10500 34.50400
Mg 36.41800 50.08800 25.24100
C  36.60300 48.37600 28.18600
C  34.61400 52.61100 26.98200
C  36.20400 51.80400 22.30200
C  37.73600 47.31100 23.55400
N  35.69900 50.40300 27.29600
C  36.05800 49.63500 28.38500
C  35.61800 50.23900 29.79800
C  34.80000 51.49000 29.25000
C  35.09300 51.55600 27.79000
C  33.28600 51.44700 29.53700
C  36.78000 50.51800 30.76200
C  36.72100 49.76700 32.10700
H  35.33100 49.55000 32.73900
N  35.55600 52.02300 24.78900
C  34.86000 52.90100 25.59600
C  34.40800 54.01800 24.78700
C  34.78900 53.72700 23.40700
C  35.57500 52.47800 23.44300
C  33.70600 55.26500 25.49700
C  34.29700 54.38800 22.11900
O  34.65900 53.97300 21.03000
C  33.44000 55.59200 22.09600
N  36.94700 49.69800 23.25100
C  36.86700 50.55100 22.24700
C  37.14600 49.82600 20.93400
C  37.84500 48.51800 21.30100
C  37.45600 48.46800 22.80100
C  35.85300 49.56900 19.97300
C  39.37200 48.71300 21.10000
C  40.17100 47.54600 20.47900
N  37.02400 48.22600 25.70200
C  37.57800 47.18500 24.92400
C  37.78000 46.00300 25.75800
C  37.50900 46.45400 27.03500
C  36.92200 47.77500 26.92500
C  38.19800 44.67300 25.20100
C  37.56900 46.12300 28.44300
O  38.01700 45.16100 29.04700
C  36.93000 47.25200 29.25400
C  35.71000 46.78200 30.00700
O  34.63100 47.24300 29.81700
O  36.01400 45.85900 30.94100
C  34.89600 45.28300 31.77500
H  34.03100 53.40400 27.45400
H  36.12900 52.26900 21.31600
H  38.08100 46.43300 23.00500
H  34.94900 49.47800 30.20100
H  35.17400 52.45600 29.58700
H  33.13200 50.60200 30.20700
H  32.71700 51.19000 28.64300
H  32.89600 52.29200 30.10500
H  36.90700 51.57400 30.99900
H  37.74800 50.19500 30.37700
H  37.33700 50.30000 32.83100
H  37.27700 48.84600 31.93400
H  34.44500 55.96900 25.88000
H  33.02200 55.02400 26.31000
H  33.15200 55.79900 24.72500
H  33.02400 55.90200 21.13700
H  34.05900 56.46200 22.31600
H  32.59100 55.41400 22.75600
H  37.87500 50.53100 20.53200
H  37.37100 47.68200 20.78600
H  34.97100 49.78800 20.57400
H  35.86600 48.52400 19.66400
H  36.06800 50.28100 19.17600
H  39.82800 48.93000 22.06600
H  39.62400 49.59700 20.51400
H  40.92300 47.23100 21.20300
H  40.71800 47.93200 19.61900
H  39.56500 46.68800 20.19000
H  37.51600 44.25900 24.45800
H  38.26400 43.99000 26.04800
H  39.21800 44.78300 24.83100
H  37.59200 47.60700 30.04400
H  34.64600 46.05900 32.49900
H  35.35900 44.44400 32.29500
H  34.04800 44.95300 31.17700

