158

Mg 49.53100 45.49300 42.90200
C  46.13600 45.24100 42.27700
C  49.88400 42.09800 42.01800
C  52.94500 45.82500 42.96400
C  49.27000 48.96200 43.02300
N  48.12100 43.84900 42.25600
C  46.75100 43.96500 42.14600
C  46.14700 42.59100 41.79100
C  47.37900 41.58400 41.69400
C  48.56600 42.58300 41.99000
C  47.33500 40.28700 42.53700
C  45.21800 42.51500 40.56100
C  45.62800 43.42100 39.40700
H  45.74500 42.68600 38.01900
N  51.14200 44.18200 42.51700
C  51.08400 42.77800 42.24600
C  52.42500 42.23300 42.22200
C  53.29900 43.33900 42.31300
C  52.46300 44.53500 42.56500
C  52.88100 40.77600 41.99400
C  54.78600 43.27200 42.28400
O  55.36600 42.17600 42.22500
C  55.67100 44.51300 42.20600
N  50.92600 47.16800 42.90900
C  52.22700 47.03100 43.19000
C  52.89800 48.35300 43.50700
C  51.72400 49.31500 43.47800
C  50.50400 48.51500 43.02700
C  53.74500 48.49300 44.78400
C  51.92600 50.59500 42.60600
C  52.82300 51.70700 43.33600
N  48.06900 46.87800 42.79000
C  48.06600 48.25000 42.83400
C  46.76200 48.76200 42.65100
C  45.89600 47.63000 42.50100
C  46.76200 46.50400 42.57200
C  46.38100 50.14100 42.43200
C  44.54800 47.22200 42.28400
O  43.47700 47.82800 42.06400
C  44.67900 45.61700 42.16000
C  43.77000 45.10800 43.29000
O  42.94100 44.23400 43.09700
O  44.14400 45.52300 44.54000
C  43.32800 45.15200 45.69000
H  49.92700 41.04100 41.74800
H  53.95700 45.78100 43.37200
H  49.10900 50.03400 43.15200
H  45.61400 42.26800 42.68500
H  47.61900 41.42500 40.64200
H  47.37900 39.46200 41.82600
H  46.46300 40.14500 43.17500
H  48.17800 40.27700 43.22900
H  44.29000 42.92300 40.96300
H  45.15600 41.45400 40.31800
H  46.54600 43.95500 39.65000
H  44.82300 44.15200 39.34000
H  52.09500 40.02100 42.03700
H  53.59200 40.57100 42.79400
H  53.53500 40.59600 41.14100
H  56.02800 44.92700 43.14900
H  55.09800 45.32400 41.75600
H  56.48300 44.45900 41.48100
H  53.54000 48.48400 42.63600
H  51.52800 49.60500 44.51000
H  53.73700 47.51500 45.26500
H  53.46300 49.13400 45.61900
H  54.77700 48.74500 44.53800
H  50.98100 51.09600 42.39600
H  52.35100 50.51000 41.60600
H  53.30900 51.26700 44.20600
H  52.23200 52.57000 43.64400
H  53.64600 52.01500 42.69000
H  45.63200 50.41700 43.17400
H  46.01400 50.26400 41.41300
H  47.28100 50.75400 42.49400
H  44.29000 45.42900 41.16000
H  43.32100 46.00500 46.36800
H  43.90700 44.35900 46.16400
H  42.36500 44.70900 45.43800
Mg 1.88800 41.99400 26.08400
C  3.59800 42.49000 28.96900
C  -0.86000 41.13800 27.87100
C  0.43000 40.89400 23.32300
C  4.81500 42.76900 24.25300
N  1.48900 41.79100 28.21300
C  2.25000 42.17800 29.22800
C  1.56900 42.10000 30.58100
C  0.11300 41.47300 30.10800
C  0.21100 41.46900 28.62800
C  -0.28900 40.09000 30.87900
C  1.52100 43.48000 31.41000
C  1.97600 43.41900 32.86800
H  1.75900 42.15300 33.69600
N  -0.03000 41.26400 25.65100
C  -1.03700 41.08200 26.50400
C  -2.25400 40.63800 25.83800
C  -1.89500 40.59200 24.41000
C  -0.45500 40.91800 24.43900
C  -3.58100 40.32400 26.56000
C  -2.78200 40.28300 23.20200
O  -2.46300 40.31200 22.02600
C  -4.29000 40.13700 23.58700
N  2.55300 41.76000 24.16200
C  1.78500 41.20200 23.19600
C  2.50200 40.92400 21.92100
C  3.78900 41.78600 22.07500
C  3.71900 42.19900 23.57400
C  2.58000 39.45600 21.45900
C  3.75000 43.15600 21.32600
C  5.24000 43.75700 20.95000
N  3.82100 42.55400 26.44400
C  4.87100 42.92200 25.64300
C  5.94900 43.35700 26.42900
C  5.54000 43.10000 27.74600
C  4.19100 42.69400 27.74000
C  7.29500 43.73100 25.96000
C  6.05000 42.92000 29.07000
O  7.21900 42.88100 29.52500
C  4.70800 42.65600 29.97500
C  5.03500 41.40500 30.71500
O  4.97600 40.27300 30.22200
O  5.37300 41.64800 32.06400
C  5.70700 40.45800 32.88700
H  -1.77000 41.03100 28.46500
H  -0.10900 40.58700 22.42400
H  5.67200 43.07400 23.65000
H  2.19900 41.40400 31.13500
H  -0.54400 42.25100 30.49700
H  -0.69500 39.34400 30.19600
H  -1.13300 40.35500 31.51600
H  0.55600 39.77600 31.49200
H  0.54800 43.96200 31.50700
H  2.06300 44.20900 30.80900
H  1.53900 44.29200 33.35300
H  3.06100 43.52400 32.89600
H  -4.25600 41.11500 26.23300
H  -3.49300 40.25400 27.64500
H  -3.94800 39.31500 26.37300
H  -4.51900 39.07300 23.64600
H  -4.88500 40.49600 22.74700
H  -4.70000 40.70500 24.42200
H  1.93900 41.52500 21.20700
H  4.78300 41.34000 22.03100
H  3.59400 39.07600 21.58500
H  2.22400 39.44000 20.42900
H  2.09500 38.75200 22.13500
H  3.18800 43.79300 22.00900
H  3.13700 43.27400 20.43300
H  5.37100 43.75100 19.86800
H  6.08200 43.15700 21.29700
H  5.48700 44.71800 21.40000
H  7.21000 44.11300 24.94300
H  7.96800 42.87500 26.00100
H  7.71200 44.38800 26.72300
H  4.46900 43.53800 30.57000
H  5.69500 40.89500 33.88500
H  6.68000 39.98200 32.76400
H  5.03100 39.63000 32.67200

