158

Mg 46.96000 17.01700 28.39600
C  44.95300 16.69600 31.07300
C  49.18700 18.83800 30.56200
C  48.72600 17.87700 25.67400
C  44.69500 15.43100 26.40500
N  47.06100 17.62800 30.56500
C  46.09200 17.34800 31.46600
C  46.51000 17.74400 32.90500
C  47.71700 18.72500 32.66400
C  48.09200 18.29500 31.21400
C  47.49100 20.30600 32.86400
C  46.80300 16.39200 33.71500
C  46.89400 16.48400 35.27400
H  46.47100 17.74200 35.97400
N  48.73600 18.08000 28.14200
C  49.44300 18.75200 29.15700
C  50.68700 19.26500 28.53400
C  50.64300 19.01900 27.07600
C  49.33500 18.32700 26.92000
C  51.76900 19.89200 29.42500
C  51.64500 19.46600 25.98400
O  51.51500 19.06600 24.86400
C  52.69100 20.55800 26.25500
N  46.85400 16.65100 26.37900
C  47.67100 17.05700 25.37700
C  47.36400 16.42200 24.02600
C  46.07500 15.50300 24.32400
C  45.89200 15.82000 25.81500
C  47.13400 17.52600 22.87000
C  46.40600 14.04600 24.17500
C  45.67100 13.36200 23.05200
N  45.06600 16.29600 28.55000
C  44.30800 15.55400 27.71600
C  43.13600 15.12500 28.42100
C  43.33100 15.56600 29.70800
C  44.53100 16.25600 29.75200
C  42.08000 14.42400 27.80000
C  42.80300 15.53200 30.99700
O  41.77600 14.98800 31.38300
C  43.76100 16.22200 31.94100
C  43.11700 17.29700 32.62800
O  42.61400 18.28700 32.04900
O  43.05200 16.99700 33.96000
C  42.16200 17.70200 34.81900
H  49.83700 19.48200 31.15700
H  49.25900 18.23800 24.79200
H  43.91600 14.89500 25.85900
H  45.64300 18.23900 33.34100
H  48.60300 18.49700 33.25600
H  48.30000 20.88800 33.30600
H  46.64600 20.48000 33.53000
H  47.17200 20.79500 31.94300
H  47.77700 16.13600 33.29600
H  46.12300 15.55500 33.55900
H  47.94200 16.30700 35.51600
H  46.24800 15.67300 35.60900
H  51.47600 20.89000 29.75300
H  52.71800 20.11600 28.93800
H  51.87800 19.27400 30.31600
H  52.87700 21.04300 25.29600
H  53.62700 20.14400 26.62900
H  52.37600 21.33200 26.95500
H  48.13700 15.76700 23.62500
H  45.15400 15.64200 23.75700
H  47.38000 18.49900 23.29500
H  46.08900 17.61700 22.57200
H  47.80700 17.34600 22.03100
H  46.26700 13.52400 25.12200
H  47.45300 13.85700 23.93800
H  45.04900 14.02800 22.45400
H  45.14500 12.53400 23.52700
H  46.34900 12.90800 22.32900
H  41.41900 14.84800 27.04400
H  41.31900 14.02200 28.46900
H  42.57300 13.60100 27.28300
H  44.13100 15.46500 32.63200
H  42.38800 18.76800 34.81200
H  42.29600 17.44200 35.86800
H  41.12000 17.68900 34.49900
Mg 48.73300 35.77100 29.03800
C  46.28500 33.98400 30.96900
C  48.66500 38.33900 31.21200
C  50.15500 37.57600 26.65300
C  48.14500 33.25800 26.52600
N  47.48500 36.11500 30.79500
C  46.75100 35.25300 31.53700
C  46.44600 35.87200 32.91400
C  46.98700 37.32100 32.80500
C  47.83200 37.23900 31.51000
C  46.05100 38.49500 32.86700
C  47.03700 35.05300 34.17700
C  48.51600 35.14100 34.54500
H  48.83000 35.90200 35.82900
N  49.44100 37.69600 28.98400
C  49.40500 38.52600 29.97900
C  50.06600 39.82900 29.56900
C  50.42900 39.63700 28.20100
C  49.96900 38.26500 27.86900
C  50.38600 40.93200 30.45500
C  51.14000 40.54600 27.23200
O  51.68000 40.11000 26.20600
C  51.23100 42.07000 27.56200
N  49.12100 35.43100 26.91600
C  49.83100 36.30900 26.18200
C  50.02700 35.85400 24.71400
C  49.57100 34.34900 24.78800
C  48.94900 34.32100 26.17500
C  49.27300 36.68000 23.59200
C  50.68200 33.33100 24.57400
C  50.40300 32.26500 23.43100
N  47.68300 33.92500 28.82700
C  47.54400 33.03900 27.77300
C  46.61600 31.96400 28.11500
C  46.11900 32.37100 29.37400
C  46.69200 33.56100 29.74200
C  46.17700 30.65600 27.35900
C  45.20500 31.84900 30.41700
O  44.51700 30.81800 30.53700
C  45.18400 32.98800 31.46300
C  45.40300 32.37400 32.80100
O  46.23200 31.55600 33.08700
O  44.37900 32.82500 33.62500
C  44.13300 32.31400 34.96300
H  48.72600 39.13500 31.95800
H  50.71400 38.10300 25.87600
H  47.82200 32.58600 25.72900
H  45.37200 35.97800 33.06400
H  47.75200 37.51900 33.55500
H  46.48200 39.40800 33.28000
H  45.25600 38.16500 33.53500
H  45.61500 38.75100 31.90100
H  46.95600 34.02300 33.83100
H  46.46000 35.36600 35.04600
H  49.08300 35.54600 33.70700
H  48.93500 34.13700 34.60900
H  51.34500 41.38700 30.20700
H  50.49600 40.58200 31.48100
H  49.58700 41.66100 30.32600
H  50.39600 42.40200 28.17900
H  51.26500 42.57100 26.59500
H  52.23800 42.13200 27.97400
H  51.10000 35.95800 24.55400
H  48.82600 34.12900 24.02300
H  48.54300 37.37900 23.99900
H  48.67000 36.10200 22.89200
H  49.97800 37.28900 23.02600
H  50.76700 32.78300 25.51300
H  51.67700 33.75000 24.43000
H  49.49400 32.45500 22.86100
H  50.30500 31.28400 23.89500
H  51.27200 32.19600 22.77700
H  45.67000 30.08100 28.13400
H  46.96100 30.06300 26.88700
H  45.60900 30.93800 26.47300
H  44.22500 33.50600 31.43600
H  44.03400 33.11300 35.69800
H  44.90800 31.71200 35.43700
H  43.16700 31.80800 34.97200

