158

Mg -2.08900 17.13700 26.71500
C  -2.63100 15.10600 29.50700
C  -2.91700 19.92800 28.76000
C  -1.75500 19.13700 24.12800
C  -2.09500 14.33300 24.63600
N  -2.69200 17.55300 28.89700
C  -2.70800 16.55300 29.84200
C  -2.97700 17.11400 31.24400
C  -3.30800 18.63600 30.93200
C  -2.97500 18.73800 29.42600
C  -4.71500 19.23500 31.15500
C  -1.78200 16.80300 32.17400
C  -2.16200 16.55000 33.64000
H  -1.12800 16.74400 34.76600
N  -2.25800 19.26600 26.48400
C  -2.53700 20.23500 27.42400
C  -2.47000 21.52900 26.75600
C  -2.08200 21.36300 25.46100
C  -2.04900 19.85300 25.27500
C  -2.86800 22.75500 27.48200
C  -1.73200 22.43600 24.48800
O  -1.48300 22.20600 23.32900
C  -1.80800 23.95000 24.88400
N  -2.04200 16.73300 24.68000
C  -1.94500 17.74500 23.77800
C  -1.81300 17.26400 22.36700
C  -1.70100 15.70900 22.54500
C  -1.90200 15.56100 24.04700
C  -2.87100 17.65700 21.29400
C  -0.40500 15.04800 22.12700
C  0.78900 15.37100 23.01800
N  -2.38600 15.11800 26.95900
C  -2.33600 14.10100 26.01500
C  -2.58900 12.85900 26.77700
C  -2.59300 13.18200 28.12700
C  -2.48900 14.58400 28.24200
C  -2.76200 11.48300 26.22300
C  -2.68800 12.63200 29.43100
O  -2.75200 11.44300 29.71600
C  -2.65000 13.86500 30.44700
C  -1.42100 13.57600 31.26100
O  -0.27100 13.61700 30.81400
O  -1.76100 13.24100 32.56500
C  -0.61100 12.95700 33.50900
H  -3.10900 20.78600 29.40800
H  -1.70000 19.75500 23.23000
H  -1.99100 13.43400 24.02400
H  -3.87900 16.58300 31.54900
H  -2.67700 19.33600 31.47900
H  -5.26800 18.36400 31.50600
H  -5.30400 19.65900 30.34200
H  -4.69200 19.97600 31.95400
H  -1.13800 17.67800 32.09500
H  -1.20000 16.06300 31.62400
H  -2.40400 15.48700 33.63000
H  -3.07400 17.11000 33.84500
H  -3.47700 22.44400 28.33000
H  -3.56200 23.37800 26.91800
H  -1.89500 23.20500 27.67600
H  -1.29400 24.43500 24.05400
H  -1.18200 24.09700 25.76300
H  -2.88500 24.09000 24.98400
H  -0.86900 17.70500 22.04900
H  -2.48200 15.13100 22.05000
H  -2.38700 17.60300 20.31900
H  -3.20200 18.68900 21.41000
H  -3.65900 16.90500 21.34700
H  -0.24200 15.41700 21.11400
H  -0.60300 13.97700 22.10200
H  0.58100 16.25500 23.62000
H  1.60700 15.58400 22.33000
H  1.01300 14.51100 23.64900
H  -3.83300 11.34700 26.07700
H  -2.27000 10.76600 26.88100
H  -2.42900 11.23700 25.21500
H  -3.45600 13.90700 31.17900
H  -0.31600 13.75300 34.19300
H  0.28500 12.53000 33.05900
H  -0.89100 12.10700 34.13000
Mg 24.19800 -5.12600 46.60300
C  26.42100 -2.92500 45.00900
C  21.74200 -4.10700 44.50100
C  22.49000 -7.69300 47.70500
C  27.11700 -6.41600 48.31400
N  24.12300 -3.66900 44.86500
C  25.13600 -2.88500 44.40500
C  24.60800 -2.00500 43.23600
C  23.06200 -2.36500 43.15500
C  22.92700 -3.40600 44.25500
C  22.09000 -1.08100 43.38600
C  25.34100 -2.24600 41.92000
C  26.10300 -1.05400 41.25600
H  25.87000 -0.92400 39.71400
N  22.34300 -5.83900 46.09300
C  21.45800 -5.28500 45.28400
C  20.17100 -6.03000 45.38400
C  20.35900 -7.11900 46.35300
C  21.76700 -6.91900 46.76300
C  18.94500 -5.62000 44.59500
C  19.31000 -8.15200 46.77300
O  18.15600 -8.10500 46.32100
C  19.60400 -9.28200 47.72800
N  24.78100 -6.91900 47.73500
C  23.82300 -7.80100 48.09700
C  24.48600 -9.01300 48.81400
C  25.91100 -8.46200 49.17800
C  25.95300 -7.16100 48.35300
C  23.68000 -9.69500 49.99800
C  27.11300 -9.39000 48.87500
C  27.60600 -9.54800 47.43500
N  26.33000 -4.75300 46.74700
C  27.34000 -5.32100 47.49400
C  28.54900 -4.59700 47.28000
C  28.28400 -3.56700 46.32300
C  26.91700 -3.79500 45.99200
C  29.76800 -4.92700 48.00200
C  28.77300 -2.40400 45.64900
O  29.84400 -1.80400 45.73800
C  27.57400 -1.98900 44.71700
C  27.16400 -0.56200 44.95200
O  26.54000 -0.14500 45.92400
O  27.50700 0.20200 43.84700
C  27.20200 1.62900 43.80200
H  20.90400 -3.59300 44.02500
H  21.99300 -8.61400 48.01700
H  28.08100 -6.71500 48.72900
H  24.78300 -1.00100 43.62200
H  22.70000 -2.79300 42.22000
H  21.48000 -1.21000 44.28000
H  21.42700 -0.88600 42.54300
H  22.86800 -0.33100 43.52800
H  24.59400 -2.61500 41.21600
H  26.14600 -2.95900 42.09500
H  27.16300 -1.26400 41.40100
H  25.76700 -0.17300 41.80100
H  19.18900 -4.89700 43.81700
H  18.22500 -5.12600 45.24800
H  18.51300 -6.48100 44.08400
H  19.69100 -8.96400 48.76700
H  20.47300 -9.76300 47.27800
H  18.84300 -10.05900 47.65500
H  24.68800 -9.75500 48.04100
H  25.94100 -8.11300 50.21000
H  24.16800 -9.68200 50.97300
H  23.68800 -10.75200 49.73100
H  22.69600 -9.23100 50.05900
H  26.81900 -10.37900 49.22500
H  27.90400 -9.17500 49.59400
H  27.74500 -10.61500 47.26000
H  28.61800 -9.14300 47.43200
H  26.99100 -9.05600 46.68300
H  30.40900 -5.75700 47.70600
H  29.56100 -5.17000 49.04500
H  30.45600 -4.08300 48.03300
H  27.90700 -2.15700 43.69300
H  27.52000 2.11600 44.72400
H  26.16700 1.81400 43.51600
H  27.69100 2.14500 42.97600

