158

Mg 54.20000 24.75700 45.18700
C  51.86600 27.18100 44.21100
C  52.17000 22.40600 43.74900
C  56.76500 22.55400 45.15000
C  56.28600 27.27500 46.31800
N  52.27400 24.82800 44.00600
C  51.47800 25.87200 43.80400
C  50.27200 25.56500 42.94400
C  50.17900 23.99900 43.17100
C  51.63400 23.68600 43.66300
C  49.04000 23.67100 44.20900
C  50.49900 26.18300 41.55200
C  50.79800 25.26800 40.34400
H  52.10200 25.43800 39.55500
N  54.40700 22.68600 44.60600
C  53.44400 21.87900 44.02500
C  53.90800 20.49800 44.00200
C  55.28800 20.59000 44.28100
C  55.56200 21.97900 44.77100
C  53.02300 19.32300 43.61100
C  56.25800 19.37200 44.12700
O  55.89300 18.22600 43.84200
C  57.77900 19.43200 44.25200
N  56.30300 24.89700 45.56200
C  57.15300 23.91000 45.39700
C  58.61500 24.28000 45.96500
C  58.33700 25.75400 46.51000
C  56.89400 26.01800 46.06400
C  59.18200 23.40000 47.15800
C  59.32500 26.84300 45.99100
C  59.84500 27.75600 47.11400
N  54.11500 26.82100 45.32500
C  54.94800 27.67800 46.01500
C  54.30800 28.91000 46.15800
C  53.14700 28.86100 45.39000
C  53.02100 27.51700 44.91900
C  54.96500 30.16800 46.76900
C  51.94600 29.52300 44.87400
O  51.64500 30.72200 44.87700
C  51.06400 28.43700 44.20400
C  50.69500 28.98200 42.85800
O  51.42300 29.59300 42.09800
O  49.29900 28.80900 42.72000
C  48.49700 29.42700 41.62200
H  51.50700 21.58900 43.45600
H  57.67500 21.95100 45.15700
H  57.00700 28.00400 46.69200
H  49.51600 26.10500 43.51400
H  49.84900 23.43700 42.29700
H  48.47500 24.49700 44.64100
H  49.45700 23.20100 45.10000
H  48.35700 22.98800 43.70400
H  51.37500 26.83000 41.59700
H  49.68300 26.83500 41.24200
H  49.98200 25.40700 39.63600
H  50.70400 24.21500 40.60700
H  52.59200 19.73700 42.70000
H  52.27100 19.24300 44.39600
H  53.52800 18.37100 43.44700
H  58.24100 18.46100 44.07400
H  58.04200 19.72300 45.26900
H  58.07400 20.16700 43.50300
H  59.33000 24.27700 45.14200
H  58.27200 25.75300 47.59800
H  58.53800 22.54100 47.34500
H  59.40600 23.95800 48.06700
H  60.12500 22.92100 46.89500
H  58.96200 27.56100 45.25500
H  60.23500 26.37900 45.61100
H  60.92200 27.69600 47.27000
H  59.42500 27.42500 48.06400
H  59.63600 28.77600 46.79100
H  54.13400 30.82300 47.03200
H  55.75800 30.65900 46.20400
H  55.43900 29.88800 47.70900
H  50.20800 28.41200 44.87900
H  48.18000 28.70100 40.87300
H  49.09600 30.23600 41.20500
H  47.63200 29.88000 42.10600
Mg 26.39500 49.61500 26.74700
C  24.15900 50.77400 29.21100
C  28.77600 48.94500 29.10000
C  28.70100 48.91500 24.15300
C  24.21700 50.65300 24.44100
N  26.44900 49.78400 28.88800
C  25.39900 50.21900 29.69600
C  25.76400 50.16300 31.20200
C  27.27700 49.73400 31.17600
C  27.52300 49.35500 29.64200
C  28.26700 50.83200 31.64400
C  24.92600 49.20200 32.09700
C  24.60600 49.73600 33.52900
H  24.58000 48.73700 34.69300
N  28.40100 48.98200 26.65500
C  29.22300 48.85200 27.74300
C  30.47900 48.47000 27.34900
C  30.58800 48.63900 25.96300
C  29.16500 48.83500 25.53400
C  31.73500 48.24700 28.25700
C  31.79400 48.55000 25.00900
O  31.58100 48.87700 23.81400
C  33.20800 48.39100 25.36000
N  26.50900 49.87000 24.62000
C  27.44300 49.38800 23.77800
C  26.93400 49.34100 22.28000
C  25.47600 49.98300 22.44900
C  25.35800 50.13000 23.92200
C  27.87800 49.87500 21.25200
C  24.39300 49.00600 21.80600
C  23.25800 49.62600 20.92800
N  24.66600 50.67500 26.81300
C  23.79400 50.91000 25.73600
C  22.59900 51.58700 26.15500
C  22.66700 51.57300 27.57600
C  23.90400 50.98400 27.89400
C  21.51000 52.16200 25.21800
C  21.99300 51.91500 28.86800
O  20.98600 52.56500 29.16500
C  22.98600 51.32600 29.98300
C  23.31800 52.50200 30.90200
O  24.17500 53.38200 30.75300
O  22.73400 52.29200 32.07100
C  22.84300 53.35200 33.12800
H  29.58600 48.84400 29.82500
H  29.43800 48.55100 23.43400
H  23.40400 50.80100 23.72700
H  25.62800 51.19600 31.52100
H  27.56500 48.92400 31.84600
H  28.99300 50.38800 32.32600
H  27.87300 51.69000 32.19000
H  28.88300 51.08900 30.78300
H  25.49300 48.27700 32.20300
H  23.96400 49.03000 31.61500
H  23.64600 50.22300 33.35700
H  25.38900 50.46500 33.73300
H  32.06900 47.20900 28.26300
H  31.42500 48.60700 29.23800
H  32.56900 48.86300 27.91800
H  33.38800 47.82600 26.27500
H  33.62300 49.39600 25.43800
H  33.78700 47.82700 24.62900
H  26.75700 48.30400 21.99400
H  25.47200 50.97300 21.99300
H  28.75700 50.44400 21.55600
H  27.27500 50.55500 20.65000
H  28.16600 49.12300 20.51700
H  23.86500 48.48800 22.60700
H  24.87500 48.25200 21.18400
H  23.61700 50.55700 20.49100
H  22.45800 49.92300 21.60600
H  22.81300 48.96300 20.18600
H  21.33600 51.42800 24.43100
H  21.83900 53.06200 24.69800
H  20.60300 52.21900 25.81800
H  22.59800 50.49700 30.57400
H  23.81600 53.31100 33.61700
H  22.05700 53.20800 33.86900
H  22.67200 54.36300 32.75600

