158

Mg 8.51600 3.76900 27.97000
C  9.53900 2.10100 30.87400
C  6.58100 5.83000 29.88000
C  7.04500 4.84200 25.19200
C  9.87100 1.04100 26.13500
N  8.03800 3.87700 30.11700
C  8.66600 3.12600 31.17200
C  8.32800 3.64500 32.56500
C  7.20500 4.67600 32.15400
C  7.18000 4.78500 30.62900
C  5.85000 4.26100 32.79200
C  9.56700 4.29300 33.38700
C  9.81500 3.61000 34.72700
H  9.94600 4.55800 35.92100
N  7.17700 5.28000 27.62000
C  6.53500 6.06900 28.52100
C  5.70700 7.03300 27.82100
C  5.87500 6.75800 26.42000
C  6.76300 5.56600 26.35300
C  4.95400 8.14200 28.54700
C  5.15200 7.44800 25.33100
O  5.29900 7.13500 24.15100
C  4.30900 8.57400 25.56800
N  8.40200 3.00000 26.01900
C  7.77200 3.71300 25.01900
C  8.06100 3.12100 23.65200
C  8.95400 1.91300 23.99400
C  9.05200 1.95300 25.50100
C  6.71000 2.90800 22.82200
C  10.36700 2.11900 23.27700
C  10.84900 0.80300 22.68100
N  9.64400 2.04900 28.31400
C  10.22500 1.06500 27.45800
C  11.13400 0.23500 28.20900
C  10.86700 0.60300 29.53600
C  9.94500 1.65200 29.58200
C  11.89400 -0.90500 27.69100
C  11.18600 0.27900 30.91500
O  11.96100 -0.54800 31.36400
C  10.32700 1.22700 31.79500
C  9.56300 0.35600 32.66900
O  8.54100 -0.22600 32.42700
O  10.11300 0.39500 33.99100
C  9.41300 -0.19300 35.15900
H  5.98400 6.45500 30.54800
H  6.70400 5.35700 24.29200
H  10.25300 0.27700 25.45400
H  7.86100 2.80700 33.08200
H  7.43900 5.67500 32.52300
H  6.15400 3.99000 33.80300
H  5.39000 3.38800 32.32900
H  5.12100 5.07100 32.79600
H  9.53300 5.38100 33.44900
H  10.38500 4.13200 32.68500
H  10.76700 3.07800 34.73300
H  9.00500 2.93200 34.99300
H  5.26800 8.19400 29.59000
H  3.88700 7.92900 28.48500
H  5.02100 9.11300 28.05600
H  3.98700 8.91100 24.58300
H  4.81400 9.40800 26.05600
H  3.44000 8.29300 26.16300
H  8.56200 3.89500 23.07000
H  8.53600 0.92700 23.79100
H  6.68400 3.65800 22.03100
H  5.85600 2.96600 23.49700
H  6.66900 1.88800 22.43900
H  11.12100 2.28200 24.04700
H  10.30600 2.84100 22.46200
H  11.92700 0.83500 22.52400
H  10.48000 0.72100 21.65800
H  10.50400 -0.07300 23.23000
H  11.89600 -1.10500 26.61900
H  11.50300 -1.85100 28.06600
H  12.93000 -0.79100 28.01000
H  11.14700 1.59000 32.41400
H  8.71700 -1.00600 34.95000
H  8.90300 0.68400 35.55800
H  10.06700 -0.47000 35.98500
Mg 27.24600 50.47500 26.19800
C  25.25200 51.37800 28.98000
C  29.56200 49.44700 28.63000
C  29.39000 50.05600 23.74700
C  24.82700 51.45100 24.07800
N  27.38100 50.42300 28.54800
C  26.46500 50.86600 29.44900
C  26.84000 50.64400 30.95100
C  28.35100 50.39000 30.73800
C  28.40800 49.96200 29.22900
C  29.44700 51.54000 31.01600
C  26.06800 49.38900 31.57500
C  25.00200 49.75700 32.64500
H  25.33400 49.24200 34.08300
N  29.10400 49.62500 26.13200
C  29.91400 49.27200 27.27100
C  31.21000 48.86700 26.81100
C  31.17000 49.04600 25.35100
C  29.90300 49.60500 25.00500
C  32.36800 48.35700 27.74400
C  32.28400 48.74600 24.38300
O  32.12100 48.94200 23.17200
C  33.73100 48.28000 24.75900
N  27.19000 50.81300 24.24900
C  28.15900 50.52900 23.35100
C  27.77900 50.93700 21.85600
C  26.19800 50.96600 22.07900
C  26.05000 51.11500 23.59200
C  28.36900 52.22900 21.26100
C  25.39700 49.68100 21.63500
C  24.10000 50.01200 20.94600
N  25.37900 51.26300 26.39700
C  24.47200 51.58100 25.43100
C  23.35300 52.20200 26.11400
C  23.61600 52.11400 27.48300
C  24.87200 51.56100 27.64000
C  22.26400 52.99600 25.45600
C  23.14000 52.49300 28.71800
O  22.02800 53.01000 29.03500
C  24.05400 51.88000 29.73400
C  24.41000 52.91900 30.77900
O  25.34600 53.68700 30.77300
O  23.31800 52.96000 31.66700
C  23.49800 54.07400 32.63600
H  30.35400 49.18100 29.33300
H  30.02400 49.92600 22.86800
H  24.03100 51.74000 23.38800
H  26.76700 51.57000 31.52200
H  28.74500 49.52500 31.27000
H  30.21200 51.16800 31.69700
H  29.06100 52.48400 31.40100
H  29.92500 51.91600 30.11100
H  26.70000 48.61100 32.00200
H  25.43100 48.97800 30.79300
H  24.07200 49.30600 32.29800
H  24.82500 50.83200 32.67700
H  32.19500 48.29000 28.81800
H  33.30900 48.90100 27.65700
H  32.66500 47.35100 27.44900
H  34.25600 48.84200 25.53100
H  34.26900 48.33300 23.81200
H  33.87600 47.23800 25.04500
H  27.95700 50.15400 21.12000
H  25.83100 51.84400 21.54600
H  29.13400 52.52500 21.97900
H  27.60100 53.00000 21.19700
H  28.83100 52.03400 20.29300
H  25.16800 49.02800 22.47700
H  26.01000 48.96900 21.08300
H  23.95000 49.60300 19.94600
H  23.97100 51.08100 20.77400
H  23.24700 49.78200 21.58400
H  21.22900 52.83200 25.75600
H  22.20500 52.85500 24.37700
H  22.58000 54.00800 25.70900
H  23.59700 51.02500 30.23200
H  23.61400 54.93600 31.97800
H  24.39300 53.81800 33.20300
H  22.60300 54.08900 33.25700

