158

Mg 45.06800 3.03000 46.96300
C  42.67900 5.81800 46.60700
C  42.42900 0.90200 46.69600
C  47.28300 0.65900 46.97400
C  47.61100 5.50600 46.91600
N  42.88600 3.41100 46.81200
C  42.18700 4.55000 46.45000
C  40.75600 4.12900 46.11800
C  40.64700 2.66800 46.69100
C  42.08400 2.29300 46.81000
C  39.87200 2.56400 48.03000
C  40.38700 4.28500 44.56500
C  39.25400 5.21600 44.15400
H  39.62600 6.13100 43.02300
N  44.84100 1.01000 46.83700
C  43.66800 0.34800 46.70300
C  44.04000 -1.07600 46.53600
C  45.45600 -1.18100 46.63200
C  45.88100 0.17700 46.82800
C  42.98700 -2.15400 46.28700
C  46.25900 -2.48200 46.58800
O  45.66000 -3.51200 46.31900
C  47.75000 -2.66700 46.87500
N  47.16100 3.04500 46.65600
C  47.83300 1.91900 47.06800
C  49.30700 2.19200 47.42400
C  49.46000 3.74700 47.14200
C  47.96600 4.13500 46.93400
C  49.73000 1.60500 48.81800
C  50.35400 4.08900 45.87700
C  51.63100 4.90700 46.20300
N  45.13300 5.24500 46.79800
C  46.26900 6.07200 46.90800
C  45.93500 7.46700 46.87100
C  44.48200 7.44700 46.81600
C  44.05800 6.05000 46.80000
C  46.90900 8.64300 46.79400
C  43.28800 8.25200 46.77600
O  43.18000 9.44400 46.64000
C  42.05700 7.23600 46.69900
C  41.39800 7.32500 48.01500
O  41.61900 6.70700 49.04500
O  40.46200 8.36800 47.77100
C  39.53900 8.58100 48.92400
H  41.53500 0.27500 46.67900
H  47.90600 -0.20100 47.22900
H  48.45400 6.15600 47.15800
H  40.13300 4.83500 46.66600
H  40.03600 2.00200 46.08100
H  40.51200 2.20300 48.83500
H  39.09100 1.81700 47.88800
H  39.30200 3.43200 48.36000
H  40.13300 3.27800 44.23400
H  41.26100 4.59200 43.99100
H  38.97500 5.66900 45.10500
H  38.42200 4.58800 43.83700
H  42.08000 -1.75500 45.83400
H  42.70200 -2.72500 47.17000
H  43.34600 -2.88500 45.56200
H  47.97500 -3.73000 46.95600
H  48.15000 -2.27500 47.81000
H  48.34900 -2.20800 46.08800
H  49.96900 1.72400 46.69500
H  49.85100 4.25300 48.02500
H  50.41900 0.76600 48.72700
H  48.81800 1.37500 49.36800
H  50.26600 2.33900 49.42000
H  49.86400 4.66100 45.08900
H  50.54400 3.16800 45.32500
H  52.41300 4.45500 45.59300
H  51.96500 4.77300 47.23200
H  51.62000 5.97400 45.97900
H  47.49200 8.42500 47.68900
H  46.45700 9.63200 46.86900
H  47.70300 8.60400 46.04900
H  41.31700 7.42900 45.92300
H  38.79900 7.78400 48.86400
H  38.95800 9.49700 48.80900
H  40.11200 8.49200 49.84700
Mg 47.20700 25.22900 28.24800
C  47.98400 27.44900 30.89200
C  46.37600 22.89100 30.68300
C  46.54100 23.09600 25.86300
C  48.32900 27.62900 26.04600
N  47.35600 25.16500 30.52800
C  47.47600 26.24900 31.38300
C  47.18700 25.88700 32.84000
C  46.79000 24.35900 32.78200
C  46.75400 24.14400 31.21800
C  47.62800 23.28200 33.54200
C  46.15000 26.77900 33.58600
C  45.50400 26.27700 34.86200
H  45.32000 27.11100 36.09400
N  46.59100 23.24900 28.25900
C  46.22500 22.49700 29.32900
C  45.77500 21.19000 28.86300
C  45.71800 21.20500 27.45900
C  46.29100 22.49900 27.12500
C  45.38600 20.06500 29.76500
C  45.47200 20.05600 26.51800
O  45.63200 20.16000 25.28100
C  44.91500 18.76400 27.05100
N  47.57900 25.20400 26.32500
C  47.12100 24.28000 25.49800
C  47.31100 24.66500 24.00800
C  47.52000 26.21200 24.05000
C  47.80400 26.40500 25.57900
C  48.27700 23.84400 23.06000
C  46.32900 27.02600 23.49000
C  46.10400 27.24200 21.97800
N  48.02200 27.14500 28.36600
C  48.40000 28.03300 27.39300
C  48.84500 29.26600 28.00800
C  48.72700 29.08800 29.36200
C  48.24600 27.76900 29.51100
C  49.32600 30.45000 27.21700
C  48.92600 29.76200 30.61700
O  49.37100 30.83900 30.81800
C  48.43000 28.69900 31.71500
C  49.47700 28.43400 32.76000
O  50.42600 27.71700 32.61300
O  49.25500 29.14600 33.92500
C  50.15100 28.90900 35.06300
H  46.22200 22.09700 31.41700
H  46.19400 22.42300 25.07600
H  48.41700 28.34300 25.22500
H  48.14100 25.89900 33.36800
H  45.72500 24.33000 33.01300
H  47.21200 22.30300 33.30300
H  47.51600 23.49400 34.60500
H  48.66300 23.28100 33.20200
H  45.35000 27.15300 32.94700
H  46.63600 27.74000 33.75500
H  45.99200 25.36200 35.19600
H  44.47400 25.97000 34.68100
H  44.35600 19.80800 29.51800
H  45.29200 20.39200 30.80000
H  46.06000 19.21100 29.70200
H  45.74400 18.25600 27.54400
H  44.69800 18.14400 26.18200
H  44.09600 18.90700 27.75700
H  46.29000 24.54000 23.64900
H  48.34300 26.55700 23.42500
H  48.74000 23.01100 23.58900
H  49.04200 24.34300 22.46500
H  47.62300 23.38400 22.31800
H  46.65000 28.02800 23.77600
H  45.50200 26.65700 24.09600
H  45.20300 26.66100 21.78100
H  46.97100 26.88900 21.41800
H  45.98400 28.27300 21.64400
H  49.10400 30.46100 26.15000
H  50.39900 30.50600 27.39700
H  48.78700 31.28300 27.66800
H  47.55900 29.14500 32.19500
H  50.03900 27.95900 35.58600
H  49.89300 29.64800 35.82100
H  51.19600 28.81800 34.76600

