158

Mg 29.89700 57.73600 40.09800
C  26.89200 56.09500 39.55900
C  31.53000 54.92400 38.94100
C  32.74400 59.57400 39.72900
C  28.09300 60.65800 40.92900
N  29.25800 55.74200 39.45300
C  28.01100 55.26500 39.21800
C  27.93900 53.82500 38.62100
C  29.39900 53.37900 38.82500
C  30.12700 54.75600 39.10700
C  29.81300 52.37400 39.97300
C  27.26900 53.74000 37.19200
C  28.25600 53.53900 35.97200
H  27.73400 53.85400 34.53100
N  31.83700 57.32900 39.48700
C  32.30000 56.06500 39.03700
C  33.71500 56.20500 38.61100
C  34.09900 57.51900 38.89600
C  32.88400 58.18100 39.42500
C  34.49000 55.09700 37.99900
C  35.48700 58.04800 38.85600
O  36.37100 57.40500 38.34500
C  35.98200 59.37400 39.39600
N  30.34100 59.81800 40.29000
C  31.59200 60.27900 40.01000
C  31.63600 61.78900 40.12300
C  30.22700 62.14300 40.64600
C  29.47200 60.81400 40.57400
C  32.75600 62.42100 40.96500
C  29.50400 63.27600 39.83700
C  28.18200 63.89100 40.31900
N  27.91900 58.29100 40.45700
C  27.34100 59.54700 40.73500
C  25.97600 59.34900 40.78500
C  25.73200 58.06800 40.39200
C  26.97700 57.43400 40.07600
C  25.01500 60.46700 41.11300
C  24.66600 57.02300 40.13700
O  23.44600 57.09000 40.31200
C  25.37400 55.72900 39.55200
C  25.03600 54.52500 40.24700
O  25.02200 54.46600 41.48300
O  24.58900 53.54700 39.41300
C  24.58400 52.11300 39.73800
H  32.01000 54.07300 38.45500
H  33.54900 60.29200 39.55900
H  27.60200 61.57000 41.27500
H  27.22200 53.22000 39.17600
H  29.91800 53.01300 37.93900
H  30.09100 51.43800 39.48700
H  28.98500 52.28300 40.67500
H  30.74200 52.63200 40.48100
H  26.78700 54.69400 36.98300
H  26.59900 52.88400 37.11100
H  28.30200 52.45000 35.95900
H  29.23100 53.94800 36.23500
H  33.96800 54.14100 38.01700
H  35.32200 54.89700 38.67400
H  34.86400 55.42000 37.02800
H  35.40600 59.61600 40.28900
H  35.75600 60.19400 38.71400
H  37.05700 59.35700 39.57100
H  31.84800 62.03300 39.08200
H  30.27300 62.50100 41.67400
H  33.03000 61.71100 41.74600
H  32.53200 63.39100 41.40800
H  33.61100 62.76000 40.38100
H  29.23800 62.94300 38.83400
H  30.11900 64.17600 39.83200
H  27.35300 63.34300 39.87200
H  28.21400 64.96500 40.13300
H  28.16700 63.80200 41.40500
H  24.93000 60.98100 40.15500
H  25.39600 61.19100 41.83300
H  24.05700 60.13500 41.51100
H  25.08200 55.54200 38.51900
H  25.38600 51.59100 39.21800
H  23.72300 51.67000 39.23700
H  24.65100 51.77600 40.77300
Mg 36.43500 49.38600 25.24600
C  36.69500 47.61000 28.12700
C  35.34400 51.99500 26.99800
C  36.00300 51.02900 22.23600
C  37.68500 46.61100 23.43200
N  35.89700 49.64300 27.29500
C  36.29200 48.85200 28.32200
C  36.06200 49.43500 29.74500
C  35.28400 50.77300 29.28300
C  35.56300 50.85300 27.77700
C  33.79300 50.64200 29.69400
C  37.41400 49.77900 30.46900
C  37.47200 49.55700 31.97100
H  36.20200 49.67200 32.82100
N  35.56600 51.22300 24.71100
C  35.31800 52.20900 25.61200
C  34.81800 53.39300 24.87300
C  34.95600 53.03800 23.45600
C  35.49400 51.67000 23.41000
C  34.50200 54.70300 25.53300
C  34.59000 53.89200 22.17900
O  34.78600 53.54600 21.01500
C  33.92900 55.23800 22.37600
N  36.68700 48.86000 23.08400
C  36.44900 49.70800 22.07000
C  36.73700 49.07500 20.67300
C  37.67600 47.89100 21.17200
C  37.29600 47.74200 22.67100
C  35.42100 48.55300 20.03400
C  39.24500 47.99200 20.88300
C  39.74700 46.78400 20.09200
N  37.07300 47.53500 25.66000
C  37.46900 46.51800 24.80000
C  37.87900 45.41100 25.62200
C  37.62500 45.78700 26.95200
C  37.03900 47.06400 26.89200
C  38.48600 44.11800 25.17300
C  37.74000 45.48900 28.38300
O  38.28100 44.63300 29.04300
C  36.98100 46.63000 29.27200
C  35.71100 46.00100 29.88000
O  34.64500 45.90700 29.35200
O  36.08200 45.76800 31.16300
C  34.94500 45.30300 31.95400
H  35.03900 52.82900 27.63500
H  35.95600 51.55600 21.28100
H  38.15300 45.79700 22.87500
H  35.45300 48.76000 30.34600
H  35.58600 51.68400 29.79900
H  33.29800 50.65600 28.72300
H  33.54100 51.54800 30.24700
H  33.51400 49.72600 30.21600
H  37.55100 50.84700 30.30000
H  38.19100 49.26100 29.90600
H  38.09000 50.35100 32.39100
H  38.06800 48.68500 32.23800
H  34.99900 55.56500 25.09000
H  34.59000 54.66000 26.61800
H  33.41700 54.79400 25.48300
H  33.24100 55.31200 23.21800
H  33.32400 55.44600 21.49400
H  34.71900 55.95400 22.60100
H  37.34300 49.76900 20.09100
H  37.39800 46.89300 20.83400
H  35.69500 47.77000 19.32700
H  34.88200 49.43700 19.69400
H  34.83200 48.01800 20.77900
H  39.81200 47.98000 21.81400
H  39.55800 48.89200 20.35300
H  38.97300 46.10500 19.73500
H  40.55200 46.29900 20.64500
H  40.16200 47.13000 19.14500
H  39.30300 44.39700 24.50700
H  37.78100 43.37400 24.80400
H  38.93400 43.69900 26.07400
H  37.62700 46.98900 30.07300
H  33.94900 45.68800 31.73400
H  35.17600 45.81600 32.88800
H  34.96300 44.22800 32.12800

