158

Mg 35.19900 2.01800 29.17900
C  32.63900 2.80000 31.43600
C  37.38600 1.95200 31.76000
C  37.53300 1.00200 26.97800
C  32.78700 2.27500 26.60400
N  35.03100 2.44300 31.38200
C  33.90500 2.66200 32.09100
C  34.19700 2.69900 33.61200
C  35.76200 2.72200 33.70000
C  36.14400 2.37100 32.18800
C  36.43400 4.00900 34.17000
C  33.58700 1.53000 34.53300
C  33.32900 1.73900 36.02900
H  34.01900 2.92900 36.69800
N  37.18300 1.49900 29.32000
C  37.94600 1.53500 30.51700
C  39.24900 1.06200 30.22500
C  39.37300 0.75500 28.87200
C  37.97900 1.01700 28.30600
C  40.24700 1.10600 31.37600
C  40.53000 0.19100 28.08500
O  40.34100 -0.16300 26.92800
C  41.75700 -0.12700 28.76000
N  35.20600 1.79800 27.10400
C  36.26200 1.29200 26.44400
C  35.92900 1.20800 24.89700
C  34.48600 1.65200 24.79500
C  34.12100 1.88500 26.24600
C  36.92600 1.97500 24.02100
C  33.49500 0.77700 23.96500
C  32.90600 -0.43600 24.76400
N  33.21200 2.50700 29.04500
C  32.35900 2.50700 27.94000
C  31.13200 3.06700 28.32400
C  31.17400 3.13500 29.68700
C  32.43800 2.76700 30.06800
C  30.01700 3.43000 27.38500
C  30.41000 3.36300 30.82800
O  29.17800 3.58400 30.92700
C  31.29400 3.16800 32.00300
C  31.40200 4.44000 32.82700
O  32.07200 5.45600 32.51700
O  30.58500 4.20500 33.94500
C  30.56600 5.22300 34.98600
H  38.08500 2.00800 32.59600
H  38.35400 0.66100 26.34300
H  32.07600 2.42400 25.78900
H  33.85800 3.65800 34.00300
H  36.21900 1.92100 34.28200
H  37.06500 3.81500 35.03700
H  35.69000 4.77400 34.39400
H  37.06000 4.43500 33.38600
H  34.24400 0.69300 34.29800
H  32.56300 1.32000 34.22500
H  33.73000 0.78300 36.36400
H  32.28000 1.64700 36.31300
H  39.86800 0.49700 32.19600
H  40.20900 2.14900 31.68900
H  41.29100 0.89500 31.14300
H  41.53000 -0.62100 29.70500
H  42.23500 0.82500 28.99100
H  42.47300 -0.65800 28.13200
H  36.07300 0.12800 24.88200
H  34.48400 2.62100 24.29600
H  36.48800 2.43700 23.13600
H  37.72600 1.26000 23.82900
H  37.45800 2.73300 24.59500
H  34.09000 0.36700 23.15000
H  32.78500 1.53600 23.63600
H  31.83600 -0.23600 24.81900
H  33.44000 -0.59800 25.70100
H  33.01600 -1.42200 24.31300
H  30.40700 3.94600 26.50700
H  29.24100 4.02200 27.87000
H  29.60600 2.50000 26.99300
H  30.72600 2.44100 32.58300
H  29.60000 5.70200 35.14500
H  31.37000 5.95300 34.89300
H  30.69600 4.58200 35.85700
Mg -4.88600 25.34200 27.57000
C  -3.52000 26.47500 30.50300
C  -6.85400 23.06100 29.49700
C  -5.76600 23.73800 24.80800
C  -2.72900 27.29300 25.78800
N  -5.23400 24.91100 29.72000
C  -4.55300 25.55700 30.70900
C  -5.05300 25.20900 32.10900
C  -5.95200 23.97100 31.91800
C  -6.05900 23.96000 30.31700
C  -5.34600 22.62300 32.48200
C  -5.79200 26.43200 32.77600
C  -5.58600 26.65100 34.25300
H  -5.07400 25.51600 35.12900
N  -6.22400 23.66100 27.14000
C  -6.94000 22.89000 28.05600
C  -7.85700 22.04600 27.28900
C  -7.62900 22.26200 25.92600
C  -6.54200 23.22400 25.88000
C  -8.95000 21.09700 27.98800
C  -8.20900 21.57100 24.68900
O  -7.76600 21.76100 23.57200
C  -9.43300 20.71300 24.75700
N  -4.40600 25.57300 25.54400
C  -4.77300 24.70700 24.60400
C  -4.21100 25.10000 23.24100
C  -3.30900 26.42500 23.56000
C  -3.49800 26.45400 25.02900
C  -3.32400 23.99300 22.56900
C  -3.75500 27.70000 22.82200
C  -2.77200 28.32700 21.87600
N  -3.46900 26.61800 28.00500
C  -2.65000 27.37300 27.18200
C  -1.81700 28.23200 27.94100
C  -2.04400 27.85300 29.21600
C  -3.06200 26.83400 29.22600
C  -0.89000 29.21400 27.38900
C  -1.78200 28.21700 30.66200
O  -0.98000 28.96900 31.19900
C  -2.71600 27.26200 31.44700
C  -1.86300 26.45000 32.33100
O  -0.99500 25.71800 31.95600
O  -2.11500 26.78500 33.61800
C  -1.08900 26.39600 34.57500
H  -7.37400 22.20000 29.92200
H  -5.95500 23.18400 23.88700
H  -1.98100 27.78200 25.16000
H  -4.11700 24.98000 32.61900
H  -6.97900 24.04400 32.27500
H  -4.61800 22.84000 33.26300
H  -4.88900 22.00800 31.70600
H  -6.20500 22.07500 32.87100
H  -6.85000 26.16900 32.78800
H  -5.82100 27.33200 32.16100
H  -6.52400 26.85200 34.77100
H  -4.88900 27.45400 34.49100
H  -9.04000 20.18400 27.40000
H  -9.91600 21.60100 27.97100
H  -8.69600 20.93000 29.03500
H  -10.23600 20.99100 25.43900
H  -8.98800 19.73700 24.95000
H  -9.80300 20.71000 23.73100
H  -5.05800 25.36300 22.60800
H  -2.28400 26.20000 23.26200
H  -2.41900 23.95900 23.17600
H  -3.31200 24.28700 21.52000
H  -3.75000 23.01700 22.80300
H  -4.03400 28.46500 23.54600
H  -4.73800 27.57200 22.36700
H  -1.85700 27.74600 21.76100
H  -2.51000 29.35300 22.13500
H  -3.25800 28.21700 20.90700
H  0.18100 29.05500 27.50900
H  -0.95900 30.13300 27.97100
H  -1.17700 29.56700 26.39800
H  -3.35400 27.90000 32.05800
H  -0.83700 25.33500 34.59500
H  -1.43400 26.79000 35.53100
H  -0.17300 26.96600 34.42000

