158

Mg 46.52100 17.12300 28.86600
C  44.88600 16.87100 31.89400
C  48.99800 19.03900 30.50700
C  47.96600 17.64400 25.77600
C  44.06100 15.46200 27.35300
N  47.02900 17.73600 31.08700
C  46.12000 17.46800 32.09100
C  46.59200 18.09100 33.40200
C  47.82900 18.99400 32.97300
C  47.95700 18.59400 31.41400
C  47.69900 20.57500 33.07400
C  46.90500 17.07100 34.53600
C  46.33400 17.40900 35.95000
H  46.49000 18.85300 36.41700
N  48.22900 18.12200 28.22500
C  49.14400 18.77600 29.06700
C  50.14800 19.37600 28.17200
C  49.94500 18.94300 26.83900
C  48.69700 18.13400 26.91800
C  51.23600 20.21900 28.73700
C  50.79100 19.24600 25.61100
O  50.53400 18.83000 24.51400
C  52.05000 20.07200 25.76100
N  46.10300 16.50400 26.95900
C  46.77800 16.91900 25.82500
C  45.98200 16.62000 24.53400
C  44.99300 15.53400 25.04000
C  45.09400 15.77400 26.58100
C  45.28900 17.96700 24.13500
C  45.31000 14.10100 24.49800
C  44.94100 13.86800 23.00600
N  44.83100 16.24200 29.50600
C  43.83700 15.72600 28.70500
C  42.69800 15.42100 29.48200
C  43.09800 15.79500 30.73500
C  44.36300 16.33000 30.68100
C  41.35200 14.83200 29.01400
C  42.60200 15.91600 32.12900
O  41.52100 15.60500 32.60900
C  43.75000 16.62600 32.95500
C  43.19500 17.82900 33.63200
O  43.38200 19.00600 33.33900
O  42.45200 17.44200 34.72400
C  41.83200 18.59700 35.49100
H  49.74800 19.63000 31.03500
H  48.36100 17.80200 24.77100
H  43.25400 14.88900 26.89200
H  45.80300 18.79200 33.67400
H  48.74300 18.78300 33.52900
H  46.81500 20.84600 33.65000
H  47.59000 20.96500 32.06100
H  48.59900 20.96800 33.54800
H  47.96500 16.89600 34.72100
H  46.38900 16.16500 34.21600
H  46.90700 16.79700 36.64600
H  45.28100 17.14600 36.04300
H  50.84400 20.57200 29.69100
H  51.52800 21.07600 28.13100
H  52.16600 19.69900 28.96900
H  52.74600 19.78000 24.97400
H  52.39100 19.79200 26.75700
H  51.90100 21.14500 25.64600
H  46.69500 16.35200 23.75500
H  43.95900 15.74600 24.77000
H  45.94800 18.66500 23.61800
H  44.83000 18.41300 25.01700
H  44.42500 17.78500 23.49700
H  44.83600 13.36500 25.14700
H  46.37400 14.05400 24.73100
H  44.02600 14.42000 22.79100
H  44.73100 12.80200 22.92000
H  45.77800 14.11400 22.35200
H  41.35000 13.74200 29.03200
H  41.23800 15.22300 28.00300
H  40.55600 15.24400 29.63400
H  43.99600 15.88500 33.71600
H  41.92800 18.41200 36.56100
H  40.77500 18.83600 35.37800
H  42.21300 19.59800 35.28600
Mg 31.51100 57.81700 39.85500
C  28.53700 56.17400 38.84900
C  33.34000 55.23500 38.55900
C  34.22300 59.94500 40.03200
C  29.43900 60.66000 40.62000
N  30.97600 56.00500 38.79100
C  29.71800 55.51300 38.49200
C  29.84500 54.24000 37.65400
C  31.29800 53.81500 38.03900
C  31.93000 55.12900 38.38100
C  31.35600 52.96400 39.26300
C  29.55300 54.36100 36.05800
C  28.49500 53.49100 35.44700
H  27.42900 54.33500 34.68100
N  33.45600 57.62300 39.34500
C  34.08300 56.43700 38.93100
C  35.49100 56.69300 38.75300
C  35.76700 57.99100 39.16000
C  34.44700 58.59000 39.54800
C  36.51700 55.68200 38.29900
C  37.17100 58.70000 39.19900
O  38.18100 58.03000 38.92800
C  37.33200 60.13400 39.34500
N  31.77800 59.94800 40.27400
C  32.98200 60.48700 40.47300
C  32.90400 61.97400 40.90800
C  31.37700 62.16000 41.03000
C  30.81500 60.86900 40.59100
C  33.70000 62.34900 42.10600
C  30.80300 63.36500 40.16900
C  30.18900 64.50000 41.10300
N  29.41800 58.25500 40.03800
C  28.74300 59.44700 40.28800
C  27.25900 59.23600 40.18500
C  27.19400 57.85100 39.78100
C  28.47400 57.38200 39.54900
C  26.04700 60.26200 40.38600
C  26.26900 56.73900 39.38700
O  25.02400 56.73400 39.37700
C  27.11200 55.59100 38.75600
C  26.88800 54.38400 39.49000
O  27.65200 53.76000 40.22500
O  25.69000 53.91800 39.02600
C  25.31300 52.63700 39.58700
H  34.02100 54.45600 38.21000
H  35.10500 60.57700 40.15800
H  28.80200 61.48200 40.95300
H  29.21900 53.43600 38.04100
H  31.92900 53.40500 37.25000
H  32.41300 52.77300 39.45000
H  30.75600 52.07900 39.05100
H  30.83800 53.34900 40.14100
H  30.49600 54.11100 35.57200
H  29.20700 55.38400 35.90900
H  27.85000 52.99600 36.17300
H  29.06500 52.86000 34.76500
H  37.47600 56.05400 37.93700
H  36.16400 54.98700 37.53800
H  36.75500 55.00900 39.12400
H  37.04300 60.49300 40.33200
H  36.78900 60.64000 38.54700
H  38.34500 60.48400 39.14500
H  33.21800 62.64100 40.10500
H  31.03200 62.32100 42.05100
H  33.10300 62.48400 43.00700
H  34.20300 63.27800 41.84000
H  34.43200 61.66700 42.54100
H  29.93100 63.09100 39.57600
H  31.62600 63.79900 39.60000
H  30.51000 65.40100 40.58100
H  30.62000 64.39900 42.09900
H  29.10400 64.57800 41.17200
H  26.34100 61.04800 41.08200
H  25.21100 59.69200 40.79100
H  25.74700 60.69800 39.43400
H  26.80000 55.35100 37.73900
H  25.03100 52.70700 40.63700
H  26.07100 51.87100 39.42600
H  24.34800 52.32200 39.18900

