158

Mg 25.82300 -0.72900 29.38800
C  27.89400 -0.88500 32.19900
C  23.14300 -0.49900 31.46000
C  23.94800 -0.70400 26.57100
C  28.58800 -1.50300 27.37600
N  25.59500 -0.55400 31.61200
C  26.59500 -0.63500 32.63700
C  26.05000 -0.34200 33.99600
C  24.52200 -0.25000 33.73100
C  24.40000 -0.56600 32.18300
C  23.73300 -1.33900 34.44400
C  26.68800 0.86900 34.72200
C  27.48800 0.51100 35.96600
H  27.38500 1.33000 37.20700
N  23.77100 -0.58800 29.05900
C  22.84000 -0.38600 30.03000
C  21.58100 -0.18200 29.40900
C  21.82200 -0.40300 28.08500
C  23.21400 -0.60900 27.80400
C  20.35300 -0.07200 30.13900
C  20.74900 -0.38600 26.96100
O  20.92300 -0.82100 25.80400
C  19.31500 0.12400 27.21400
N  26.17600 -1.11300 27.28200
C  25.28200 -0.89100 26.30900
C  25.90300 -0.77500 24.96700
C  27.41800 -0.89000 25.19000
C  27.44200 -1.17700 26.70700
C  25.32100 -1.80100 23.89500
C  28.27600 0.26900 24.72200
C  28.45300 1.52000 25.57100
N  27.85300 -1.08600 29.63200
C  28.82900 -1.39500 28.76300
C  30.07700 -1.52500 29.50200
C  29.77800 -1.32200 30.82800
C  28.38000 -1.09800 30.86900
C  31.40900 -1.93900 28.86200
C  30.37500 -1.34600 32.11500
O  31.53300 -1.52200 32.45900
C  29.18200 -1.04200 33.09000
C  29.04600 -2.16100 34.01800
O  28.49700 -3.26400 33.84600
O  29.57000 -1.76800 35.21800
C  29.48400 -2.69500 36.30500
H  22.30700 -0.28500 32.12800
H  23.36200 -0.43500 25.68900
H  29.49200 -1.53100 26.76400
H  26.19600 -1.30500 34.48600
H  24.17700 0.75500 33.97700
H  24.23000 -1.61200 35.37500
H  23.59200 -2.27000 33.89500
H  22.72300 -0.98900 34.65500
H  25.93100 1.58600 35.03900
H  27.39000 1.50100 34.17800
H  28.51900 0.64800 35.64000
H  27.35800 -0.55300 36.16500
H  19.91700 0.89700 29.89800
H  20.55900 -0.23900 31.19600
H  19.65500 -0.81400 29.75000
H  19.27100 1.00500 27.85400
H  18.69800 -0.68800 27.59800
H  18.86500 0.41100 26.26400
H  25.77600 0.25700 24.64000
H  27.77600 -1.79000 24.69000
H  25.86500 -2.74300 23.96500
H  25.39500 -1.35700 22.90200
H  24.26200 -2.06000 23.90800
H  27.97900 0.56500 23.71600
H  29.26100 -0.16500 24.54800
H  29.51100 1.75100 25.69600
H  27.91100 1.48400 26.51500
H  28.14300 2.44300 25.08100
H  32.10500 -1.10800 28.97500
H  31.38800 -2.35100 27.85300
H  31.81700 -2.65700 29.57400
H  29.33400 -0.09900 33.61500
H  28.43300 -2.61500 36.57900
H  30.07700 -2.17000 37.05400
H  29.85000 -3.71000 36.15300
Mg 41.86500 41.21700 26.88400
C  41.39600 43.70400 29.23000
C  42.43400 38.97600 29.47500
C  42.74600 39.01500 24.58200
C  41.51500 43.66900 24.36000
N  42.02800 41.37900 29.07500
C  41.74000 42.49000 29.81100
C  41.81800 42.23900 31.30600
C  42.29000 40.74100 31.30600
C  42.18400 40.25900 29.83700
C  43.73900 40.53900 31.77500
C  40.46800 42.57900 32.00400
C  40.63100 43.29100 33.31800
H  39.63100 42.98200 34.45800
N  42.26700 39.22600 27.01700
C  42.49700 38.48500 28.18000
C  42.89700 37.15200 27.76000
C  42.93700 37.12400 26.33800
C  42.69300 38.56400 25.94300
C  42.89200 36.00800 28.70200
C  43.11600 35.86100 25.35300
O  43.17600 35.99300 24.12200
C  43.22000 34.41300 25.85800
N  42.20800 41.32500 24.77800
C  42.46400 40.26400 24.00600
C  42.51300 40.54700 22.44300
C  42.03000 42.05900 22.47200
C  41.95600 42.42600 23.95700
C  43.81800 40.28900 21.67900
C  40.71800 42.32700 21.69100
C  39.52100 41.46300 22.29700
N  41.56600 43.26200 26.73400
C  41.39100 44.09200 25.68000
C  40.99000 45.37800 26.20700
C  41.01900 45.28200 27.57300
C  41.38600 43.97900 27.79900
C  40.59300 46.56300 25.35000
C  40.85900 46.05500 28.78000
O  40.79200 47.32700 28.91900
C  40.99200 45.02700 29.90200
C  42.21800 45.60200 30.63500
O  43.37500 45.52600 30.36500
O  41.77900 46.14600 31.81800
C  42.73900 47.06700 32.44400
H  42.62100 38.27700 30.29300
H  43.07100 38.26400 23.85900
H  41.44200 44.42000 23.57100
H  42.51400 42.94700 31.75700
H  41.59300 40.25600 31.98900
H  43.89500 39.88800 32.63600
H  44.25300 41.47000 32.01600
H  44.42300 40.17000 31.01100
H  39.87800 41.66700 32.10300
H  39.90300 43.19900 31.30800
H  40.48200 44.32100 32.99500
H  41.60300 43.15400 33.79200
H  43.89200 35.57800 28.75100
H  42.26300 35.22500 28.28000
H  42.56700 36.32400 29.69300
H  42.19300 34.19800 26.15300
H  43.69000 34.31800 26.83600
H  43.58800 33.64100 25.18200
H  41.79900 39.86300 21.98400
H  42.77800 42.72000 22.03500
H  44.63000 40.05600 22.36800
H  44.04100 41.16300 21.06600
H  43.58100 39.52100 20.94300
H  40.87300 41.89200 20.70400
H  40.48800 43.39300 21.68200
H  39.74100 41.04300 23.27800
H  39.24900 40.64800 21.62600
H  38.60700 42.01900 22.50100
H  39.69300 46.94700 25.83000
H  40.33100 46.33200 24.31700
H  41.17000 47.48700 25.30700
H  40.06100 45.16900 30.44900
H  43.22800 46.44000 33.18900
H  42.21000 47.89300 32.92000
H  43.55300 47.44500 31.82400

