158

Mg 7.78000 3.35400 28.07300
C  9.30000 1.79300 30.88200
C  6.27200 5.56200 30.16000
C  6.23800 4.60700 25.43700
C  8.93200 0.72300 26.15500
N  7.72300 3.52200 30.32700
C  8.59000 2.97200 31.21600
C  8.39400 3.67900 32.64600
C  7.27700 4.71300 32.42500
C  7.12200 4.63500 30.84800
C  5.91500 4.46400 33.12800
C  9.75600 4.29100 33.16100
C  10.27500 3.66900 34.45800
H  10.43800 4.51200 35.78300
N  6.47200 4.95200 27.79200
C  5.98500 5.73600 28.75600
C  5.25800 6.85300 28.12200
C  5.23900 6.57300 26.80400
C  5.94000 5.29200 26.58700
C  4.54100 8.05000 28.78000
C  4.70900 7.40800 25.56800
O  4.47300 6.89300 24.46800
C  4.39300 8.88600 25.78800
N  7.73700 2.86900 26.08000
C  7.08700 3.53700 25.14000
C  7.23700 2.89000 23.77400
C  8.17500 1.70600 23.99900
C  8.22000 1.70500 25.49600
C  5.96200 2.49500 23.07600
C  9.70000 1.78600 23.38600
C  10.35400 0.48100 22.99400
N  8.92800 1.62100 28.44300
C  9.35500 0.64700 27.47200
C  10.12600 -0.40000 28.13700
C  10.05500 0.00900 29.48000
C  9.35200 1.21300 29.61200
C  10.85100 -1.49700 27.52200
C  10.53000 -0.30300 30.80600
O  11.30800 -1.19100 31.15300
C  10.19500 0.85500 31.72700
C  9.46800 0.28600 32.91700
O  8.36600 -0.15700 33.05000
O  10.42100 0.37000 33.91200
C  10.03100 -0.05900 35.24900
H  5.96500 6.47100 30.68100
H  5.83700 5.01900 24.50900
H  9.32900 -0.08300 25.53500
H  8.01600 2.96600 33.37800
H  7.71300 5.68100 32.67000
H  5.12700 4.55400 32.37900
H  5.72000 5.27400 33.83000
H  5.84600 3.53000 33.68600
H  9.77100 5.37700 33.24200
H  10.53400 4.20800 32.40300
H  11.26500 3.24100 34.30100
H  9.66900 2.82500 34.78600
H  4.75500 8.00800 29.84800
H  3.51400 7.70600 28.65700
H  4.78100 9.06000 28.44800
H  5.16300 9.45600 26.30700
H  3.55100 8.93600 26.47700
H  4.15700 9.39900 24.85500
H  7.58300 3.67400 23.10100
H  7.81300 0.72900 23.67700
H  5.03400 2.63900 23.63100
H  5.91700 1.49400 22.64800
H  5.88400 3.20600 22.25400
H  10.38000 2.36300 24.01200
H  9.62700 2.46700 22.53900
H  10.73300 0.50300 21.97200
H  9.68300 -0.37300 23.08800
H  11.18200 0.26900 23.67000
H  10.67100 -1.58100 26.45000
H  10.65100 -2.47500 27.95800
H  11.91400 -1.30600 27.67200
H  10.93800 1.57300 32.07500
H  9.37000 0.70800 35.65200
H  10.99600 -0.11800 35.75200
H  9.68700 -1.09300 35.24500
Mg 6.43200 54.08300 40.48700
C  5.45100 50.68100 40.37900
C  9.72200 53.04800 39.68600
C  7.27500 57.34000 40.39200
C  3.11400 54.91100 40.98000
N  7.45600 52.06200 39.96700
C  6.78300 50.86900 40.06500
C  7.83300 49.71500 39.94600
C  9.20600 50.49300 40.10400
C  8.81100 51.96900 39.73100
C  9.89200 50.38800 41.53900
C  7.79800 49.10800 38.52800
C  7.94800 49.95200 37.25600
H  7.06500 49.44100 36.10100
N  8.23700 55.05900 40.17000
C  9.41200 54.49300 39.83000
C  10.31000 55.52800 39.54300
C  9.72500 56.83800 39.81500
C  8.35000 56.47000 40.24600
C  11.76600 55.22200 39.10800
C  10.29900 58.20300 39.58400
O  11.47500 58.32000 39.29300
C  9.56500 59.55700 39.69300
N  5.36900 55.85000 40.90200
C  5.91200 57.09700 40.71900
C  4.89200 58.22000 40.62300
C  3.51100 57.36600 40.68200
C  4.01600 55.94100 40.81100
C  5.25100 59.29900 41.63700
C  2.43600 57.57700 39.53600
C  1.00500 57.73000 40.11400
N  4.63500 53.05300 40.74300
C  3.41000 53.53800 41.05000
C  2.45200 52.46100 41.21200
C  3.25200 51.27700 41.00500
C  4.52300 51.70100 40.61800
C  1.05800 52.55400 41.67400
C  3.24900 49.87700 41.16000
O  2.41700 49.06600 41.54200
C  4.67700 49.43900 40.61800
C  4.37200 48.63100 39.44900
O  3.76600 48.89800 38.43900
O  4.92300 47.37500 39.71600
C  4.74100 46.37400 38.71300
H  10.76500 52.74700 39.56800
H  7.51700 58.40000 40.29000
H  2.09000 55.28500 41.05000
H  7.72900 48.97700 40.74200
H  9.91600 50.09100 39.38200
H  10.04700 51.36000 42.00900
H  10.83600 49.92500 41.25000
H  9.25200 49.76200 42.16000
H  6.85200 48.56900 38.49100
H  8.61000 48.38700 38.43300
H  8.96500 49.83500 36.88000
H  7.83100 51.02500 37.40300
H  12.13900 55.90800 38.34800
H  11.92700 54.22600 38.69700
H  12.41700 55.35100 39.97300
H  10.29800 60.34000 39.50000
H  9.15800 59.64500 40.70000
H  8.74400 59.59800 38.97700
H  4.99400 58.57300 39.59700
H  3.06300 57.73700 41.60400
H  5.83500 60.02400 41.07000
H  5.74600 58.97200 42.55100
H  4.28700 59.73500 41.89700
H  2.57700 56.72000 38.87700
H  2.61200 58.47900 38.95100
H  0.92800 57.79800 41.19900
H  0.39000 56.89300 39.78300
H  0.55600 58.63300 39.70200
H  0.39200 52.18300 40.89400
H  0.89400 53.60500 41.90900
H  0.90000 52.05500 42.63000
H  5.26300 48.89700 41.36100
H  5.29000 45.45400 38.91200
H  4.97900 46.70700 37.70200
H  3.70400 46.04100 38.76900

