158

Mg 46.86500 24.47500 28.28800
C  47.43400 26.64500 31.09100
C  46.15300 22.08300 30.73200
C  47.01100 22.36100 25.94000
C  48.13200 26.98400 26.26300
N  46.94300 24.36900 30.70000
C  47.09400 25.39000 31.58600
C  46.80000 24.99600 33.06300
C  46.55800 23.40800 32.98400
C  46.53700 23.27300 31.38200
C  47.66800 22.51800 33.69800
C  45.65600 25.80800 33.69900
C  45.83600 26.06200 35.18200
H  44.57000 25.91200 36.06900
N  46.48800 22.53100 28.29600
C  46.09200 21.72300 29.36800
C  45.67900 20.49400 28.78000
C  46.01600 20.53700 27.36300
C  46.61800 21.80100 27.16700
C  45.01200 19.41700 29.59500
C  45.75900 19.39900 26.32300
O  46.09200 19.54600 25.13100
C  45.18000 18.02400 26.71300
N  47.57800 24.63100 26.39300
C  47.51100 23.60200 25.57800
C  47.92800 23.98400 24.20500
C  48.25000 25.50400 24.24000
C  47.88000 25.76000 25.69400
C  49.04000 23.08800 23.64700
C  47.33800 26.35000 23.14400
C  46.02300 26.98100 23.72500
N  47.62000 26.42300 28.62300
C  48.06000 27.33800 27.60300
C  48.39400 28.57100 28.24500
C  48.08600 28.34500 29.61900
C  47.65600 27.03200 29.78900
C  49.07100 29.83000 27.64500
C  48.26500 28.97700 30.89200
O  48.63600 30.07600 31.27800
C  47.87500 27.87700 31.87400
C  49.04300 27.52800 32.71700
O  49.97500 26.88800 32.37600
O  48.83400 28.07000 34.02300
C  49.82300 27.62400 35.05100
H  45.70100 21.34900 31.40300
H  47.00900 21.59700 25.15900
H  48.55100 27.73700 25.59200
H  47.67900 25.10300 33.70000
H  45.60400 23.14400 33.44000
H  47.19000 21.84800 34.41300
H  48.40500 23.15500 34.18700
H  48.05400 21.88300 32.90100
H  44.68700 25.31100 33.75100
H  45.50900 26.73300 33.14200
H  46.24500 27.06200 35.32900
H  46.65000 25.43900 35.55400
H  44.00900 19.07800 29.33900
H  44.91700 19.68900 30.64600
H  45.53600 18.46800 29.48000
H  45.51200 17.59500 27.65900
H  45.16400 17.20900 25.98900
H  44.22000 18.49400 26.92600
H  47.07600 23.80200 23.55000
H  49.30400 25.66200 24.01000
H  49.48400 22.38300 24.35000
H  49.88200 23.67900 23.28700
H  48.61000 22.50500 22.83200
H  47.19400 25.73400 22.25600
H  47.98500 27.19700 22.91700
H  46.10500 28.03100 24.00700
H  45.62300 26.40700 24.56100
H  45.29400 26.84100 22.92700
H  48.45400 30.69200 27.89700
H  49.00600 29.78000 26.55800
H  50.08400 29.91900 28.03700
H  47.09400 28.27400 32.52300
H  49.40000 27.15900 35.94200
H  50.28700 28.50800 35.48900
H  50.61000 27.00900 34.61500
Mg -3.28400 34.32500 26.83200
C  -3.90600 32.36700 29.68800
C  -1.80800 36.73000 28.86400
C  -3.31000 36.54600 24.34100
C  -5.04300 32.07800 24.89500
N  -2.90800 34.45600 28.95900
C  -3.16300 33.50400 29.91500
C  -2.67800 33.93200 31.41100
C  -2.07300 35.32100 31.01600
C  -2.27400 35.55800 29.52500
C  -2.37600 36.54100 31.98700
C  -1.82100 32.91800 32.25500
C  -2.26000 32.54000 33.65200
H  -1.21300 32.56100 34.75300
N  -2.49200 36.30200 26.57200
C  -1.93300 37.12000 27.51700
C  -1.50700 38.40400 26.91700
C  -1.96100 38.35400 25.55500
C  -2.63800 37.01300 25.42500
C  -0.84100 39.44100 27.70300
C  -1.86100 39.41900 24.48100
O  -2.32600 39.27200 23.37300
C  -1.21400 40.77200 24.76600
N  -4.32500 34.37100 24.98300
C  -4.06200 35.38000 24.10800
C  -4.49100 35.06300 22.65100
C  -4.89800 33.56200 22.84000
C  -4.67500 33.26500 24.33900
C  -5.58500 35.96200 21.96300
C  -4.12200 32.63700 21.85100
C  -2.73800 32.03800 22.32100
N  -4.31900 32.58800 27.11400
C  -5.02600 31.76700 26.20600
C  -5.47300 30.65400 26.97200
C  -5.08100 30.87900 28.34300
C  -4.39300 32.08900 28.37200
C  -6.29800 29.53900 26.38600
C  -5.13100 30.36400 29.69500
O  -5.68300 29.34300 30.17100
C  -4.34200 31.32900 30.63600
C  -5.33100 31.89900 31.55900
O  -6.11600 32.74600 31.27500
O  -5.12900 31.49900 32.89300
C  -6.21300 31.81700 33.85700
H  -1.51500 37.45900 29.62300
H  -3.03200 37.17200 23.49100
H  -5.50400 31.36400 24.20900
H  -3.59400 34.06700 31.98500
H  -0.99300 35.18000 30.97000
H  -2.73400 36.26400 32.97800
H  -3.30800 37.01200 31.67700
H  -1.62800 37.32500 32.11200
H  -0.82000 33.34100 32.33300
H  -1.77600 32.03400 31.62000
H  -2.48100 31.47500 33.57900
H  -3.09800 33.18900 33.90700
H  -0.23300 39.00400 28.49500
H  -1.59700 40.03500 28.21600
H  -0.14200 39.97900 27.06100
H  -2.01200 41.32000 25.26800
H  -1.09000 41.30100 23.82100
H  -0.22100 40.77600 25.21600
H  -3.63200 35.18600 21.99100
H  -5.96600 33.44200 22.65600
H  -5.89300 36.68000 22.72400
H  -6.49700 35.48600 21.60400
H  -5.15000 36.54700 21.15400
H  -4.01500 33.08800 20.86400
H  -4.72700 31.76000 21.62000
H  -2.56500 32.12100 23.39400
H  -1.91500 32.46800 21.75000
H  -2.72400 30.96800 22.11500
H  -5.82000 29.15200 25.48600
H  -7.27000 29.97600 26.15600
H  -6.36000 28.79800 27.18300
H  -3.53600 30.80000 31.14400
H  -7.10400 32.10100 33.29700
H  -5.96100 32.53000 34.64200
H  -6.55600 30.90100 34.33800

