158

Mg 35.59800 3.55800 30.48100
C  32.88400 4.42700 32.53900
C  37.74500 3.78900 33.04800
C  37.95800 3.14600 28.27700
C  33.24500 3.85100 27.79200
N  35.31000 4.10400 32.49900
C  34.13800 4.22300 33.18300
C  34.34000 4.22400 34.69800
C  35.86400 4.51400 34.75400
C  36.36400 4.04500 33.33700
C  36.28500 5.92100 35.18800
C  33.90200 2.95100 35.49500
C  33.68900 3.21200 37.02700
H  34.42300 4.40600 37.62100
N  37.66600 3.39600 30.69400
C  38.38900 3.38900 31.80500
C  39.77800 3.04400 31.54300
C  39.81100 2.78100 30.11700
C  38.41400 3.01500 29.64300
C  40.84700 2.68900 32.53800
C  40.91500 2.20600 29.23900
O  40.86200 2.15300 28.06500
C  42.25900 1.74100 29.88900
N  35.60300 3.53100 28.27500
C  36.75700 3.41500 27.66000
C  36.50400 3.28100 26.09200
C  34.93600 3.55900 25.89500
C  34.52300 3.61400 27.38900
C  37.39100 4.23600 25.19200
C  34.28700 2.36300 25.15900
C  32.99700 2.70800 24.32000
N  33.40200 4.16200 30.16900
C  32.60200 4.10000 29.05100
C  31.25400 4.40400 29.43500
C  31.32300 4.51300 30.85100
C  32.62300 4.32800 31.17000
C  30.09700 4.52900 28.55900
C  30.50700 4.73100 32.01100
O  29.32400 4.93500 32.16500
C  31.52200 4.54300 33.18200
C  31.39100 5.72800 34.11800
O  31.80700 6.84000 33.81600
O  30.79600 5.33200 35.30300
C  30.77500 6.27800 36.42100
H  38.45100 3.77100 33.88100
H  38.61100 2.78300 27.48100
H  32.54400 3.98100 26.96500
H  33.79100 5.04300 35.16400
H  36.38700 3.89500 35.48300
H  35.91900 6.26000 36.15700
H  35.96700 6.72400 34.52300
H  37.36400 6.05800 35.25200
H  34.57300 2.09300 35.43500
H  32.90300 2.66800 35.16500
H  33.83200 2.32200 37.64100
H  32.63700 3.48800 37.09800
H  41.82100 3.06300 32.22400
H  40.96000 1.60600 32.59700
H  40.55400 3.02100 33.53400
H  42.89600 1.29500 29.12500
H  42.18400 1.00800 30.69200
H  42.56000 2.70200 30.30700
H  36.79600 2.25500 25.86900
H  34.64700 4.48800 25.40300
H  38.05900 4.87600 25.76900
H  36.75100 4.93000 24.64800
H  38.01800 3.62800 24.53900
H  33.86400 1.67100 25.88700
H  34.92100 1.87900 24.41600
H  32.90200 2.18000 23.37100
H  33.01100 3.78000 24.12400
H  32.12800 2.50900 24.94600
H  29.21000 4.62300 29.18400
H  30.00600 3.63000 27.94900
H  30.27800 5.45000 28.00400
H  31.36000 3.62700 33.75000
H  30.78300 7.31500 36.08600
H  31.65600 6.06500 37.02800
H  29.92400 6.07900 37.07200
Mg -1.77800 34.75100 27.21300
C  -3.67800 33.01300 29.63200
C  -0.84200 36.83300 29.80100
C  -0.19300 36.62600 24.96600
C  -3.31300 32.86600 24.67500
N  -2.27500 34.92500 29.53100
C  -3.02100 34.07000 30.27700
C  -2.85300 34.27000 31.78100
C  -2.02400 35.61000 31.72100
C  -1.62600 35.81800 30.26100
C  -2.72900 36.85500 32.31400
C  -2.17000 33.05800 32.39300
C  -1.15900 33.12800 33.54700
H  -1.48000 32.63500 34.92200
N  -0.61700 36.50500 27.39400
C  -0.32100 37.17400 28.47800
C  0.64400 38.25200 28.20100
C  0.85400 38.23800 26.77100
C  -0.01600 37.10700 26.34200
C  1.16300 39.22900 29.27300
C  1.61900 39.08000 25.87900
O  1.60900 38.97700 24.62600
C  2.48500 40.17000 26.50200
N  -1.73200 34.76400 25.12800
C  -0.99600 35.60500 24.44100
C  -1.00500 35.33600 22.88300
C  -1.85700 34.02600 22.85800
C  -2.35600 33.83400 24.30400
C  -1.49200 36.55500 21.99500
C  -1.21300 32.79000 22.24400
C  0.08900 32.33500 22.80400
N  -3.13300 33.21400 27.10300
C  -3.68100 32.60100 26.03100
C  -4.38800 31.42100 26.50900
C  -4.44300 31.58800 27.89800
C  -3.71400 32.73800 28.23300
C  -5.06200 30.37400 25.52800
C  -4.99900 31.07300 29.14200
O  -5.75900 30.12700 29.27300
C  -4.52000 31.96200 30.27600
C  -5.76600 32.45400 30.84600
O  -6.56100 33.30200 30.37900
O  -5.99200 31.91600 32.04400
C  -7.05500 32.22600 33.01400
H  -0.41000 37.49800 30.55100
H  0.30100 37.32100 24.28400
H  -3.85500 32.33400 23.89100
H  -3.89200 34.36300 32.09800
H  -1.05000 35.57600 32.21100
H  -2.88200 37.63700 31.57000
H  -2.13500 37.29500 33.11500
H  -3.69500 36.74500 32.80700
H  -1.62600 32.56400 31.58800
H  -2.97600 32.45000 32.80300
H  -1.08300 34.19000 33.78000
H  -0.19300 32.68700 33.30100
H  0.65600 39.05000 30.22100
H  0.98800 40.26300 28.97700
H  2.22900 39.07500 29.44000
H  3.19600 39.55900 27.05900
H  1.90900 40.94300 27.01000
H  3.03500 40.65500 25.69500
H  -0.01600 35.09200 22.49500
H  -2.62400 34.28900 22.12900
H  -1.63300 37.38100 22.69200
H  -2.43100 36.62100 21.44700
H  -0.70700 36.82800 21.28900
H  -1.15100 33.00900 21.17800
H  -1.95000 31.99600 22.36600
H  0.02500 31.37100 23.30900
H  0.55500 32.94600 23.57700
H  0.78100 32.28700 21.96200
H  -5.52200 29.56900 26.10100
H  -4.36200 29.99400 24.78400
H  -5.85000 30.78400 24.89700
H  -4.00300 31.28400 30.95500
H  -7.89100 32.86300 32.72500
H  -6.64100 32.70200 33.90300
H  -7.41100 31.29600 33.45500

