158

Mg 49.41200 35.22100 27.70100
C  47.27500 33.64600 29.86100
C  49.40300 37.92300 29.73000
C  50.90000 36.93600 25.27200
C  48.79300 32.63400 25.32700
N  48.30400 35.78100 29.51700
C  47.77300 34.84800 30.37700
C  47.65400 35.35500 31.81400
C  48.13800 36.87100 31.63900
C  48.60600 36.90900 30.23800
C  47.04900 38.00100 32.02500
C  48.43700 34.57700 32.86300
C  47.84800 34.25700 34.20400
H  46.89800 35.27900 34.77800
N  50.11200 37.16600 27.47600
C  50.13600 38.06900 28.48900
C  50.76100 39.33100 28.02000
C  51.08600 39.10400 26.59000
C  50.69100 37.66700 26.38900
C  50.92200 40.53700 28.87900
C  51.71000 40.13100 25.58900
O  52.06400 39.86100 24.45700
C  51.81700 41.66100 25.80400
N  49.77000 34.84200 25.52400
C  50.48900 35.65300 24.91500
C  50.83500 35.01600 23.52400
C  50.30200 33.58000 23.55400
C  49.60500 33.64500 24.88900
C  50.40500 35.94000 22.41600
C  51.40200 32.43400 23.50500
C  51.13300 31.11400 22.80800
N  48.26800 33.46700 27.55000
C  48.13700 32.50400 26.61100
C  47.09500 31.50900 26.99100
C  46.74300 31.89600 28.29500
C  47.44800 33.12300 28.54800
C  46.62800 30.39500 26.18000
C  46.01400 31.50400 29.53000
O  45.29700 30.56400 29.84800
C  46.36000 32.59500 30.55700
C  46.92300 31.84000 31.66800
O  48.07000 31.37800 31.68300
O  45.86900 31.59000 32.55800
C  46.28500 30.65400 33.61300
H  49.54500 38.74200 30.43800
H  51.30200 37.54900 24.46300
H  48.56700 31.75000 24.72700
H  46.61000 35.47800 32.10400
H  49.05300 36.97100 32.22300
H  46.34300 37.63000 32.76800
H  46.74200 38.47800 31.09500
H  47.65600 38.74200 32.54600
H  49.33100 35.12500 33.16200
H  48.76700 33.63900 32.41700
H  48.67900 34.28500 34.91000
H  47.32900 33.29900 34.18200
H  51.33200 41.41200 28.37500
H  51.59000 40.35000 29.72000
H  49.95500 40.73100 29.34300
H  52.10200 42.23900 24.92400
H  52.61200 41.87400 26.51800
H  50.85000 41.90800 26.24200
H  51.92400 35.01000 23.50800
H  49.53300 33.48200 22.78800
H  50.01400 35.34200 21.59300
H  51.35300 36.31000 22.02600
H  49.81800 36.81800 22.68600
H  51.47800 32.21000 24.56900
H  52.30200 32.99800 23.25900
H  52.00800 30.91600 22.18900
H  50.19700 31.10200 22.24800
H  51.11700 30.37300 23.60700
H  47.01300 30.42000 25.16000
H  45.55100 30.51100 26.05700
H  46.76800 29.43200 26.67100
H  45.53500 33.18300 30.95800
H  47.25700 30.94000 34.01500
H  46.33700 29.59400 33.36300
H  45.57300 30.83200 34.41900
Mg 41.54200 40.65600 27.68500
C  40.87200 43.28800 29.84200
C  42.72200 38.71700 30.36300
C  42.31300 38.20200 25.50400
C  40.74000 42.70800 24.98900
N  41.78900 41.02500 29.80900
C  41.36600 42.16700 30.51600
C  41.40700 41.90500 32.01900
C  42.34000 40.61400 32.15800
C  42.29000 40.02700 30.66400
C  43.75900 40.82200 32.54900
C  39.93400 41.84100 32.57100
C  39.39600 42.88600 33.64800
H  38.97900 42.29200 35.00800
N  42.30900 38.74200 27.86500
C  42.73600 38.14600 29.07300
C  43.32200 36.83400 28.70900
C  43.06300 36.58000 27.31300
C  42.59900 37.89400 26.80400
C  43.90300 35.94900 29.75100
C  43.35700 35.35000 26.57800
O  42.99100 35.07600 25.40000
C  43.98000 34.15300 27.24400
N  41.48400 40.51300 25.55300
C  41.81700 39.33100 24.88700
C  41.60100 39.45400 23.31200
C  41.02600 40.82100 23.22100
C  41.05000 41.38400 24.65000
C  42.92100 39.23500 22.54000
C  39.62000 40.89100 22.55000
C  38.48000 40.33500 23.42500
N  41.00300 42.58400 27.39200
C  40.77200 43.33500 26.25500
C  40.40300 44.74000 26.58100
C  40.41900 44.72800 28.01700
C  40.79500 43.37000 28.44100
C  40.09200 45.77900 25.55000
C  40.23000 45.54400 29.17300
O  39.89300 46.72800 29.30500
C  40.47700 44.58700 30.42900
C  41.51800 45.21600 31.22000
O  42.70000 45.17000 30.93500
O  40.98400 45.69700 32.38600
C  41.99800 46.18700 33.34900
H  43.17500 38.15600 31.18300
H  42.52000 37.36300 24.83600
H  40.43900 43.39800 24.19800
H  41.85000 42.74700 32.55100
H  41.89300 39.79100 32.71700
H  44.04000 41.84900 32.31900
H  44.34400 40.07300 32.01500
H  43.90900 40.60300 33.60600
H  39.75600 40.86300 33.01800
H  39.34100 41.77700 31.65900
H  38.50900 43.38400 33.25800
H  40.18000 43.62800 33.79700
H  43.36900 35.04900 30.05700
H  44.35400 36.40200 30.63300
H  44.72700 35.38300 29.31600
H  43.38300 33.82700 28.09600
H  44.99800 34.41800 27.52900
H  44.03700 33.38100 26.47700
H  40.83800 38.71000 23.08100
H  41.66100 41.48500 22.63400
H  43.68900 39.86100 22.99400
H  42.76100 39.54300 21.50600
H  43.23900 38.19300 22.49200
H  39.69500 40.28500 21.64700
H  39.37200 41.92600 22.31900
H  37.69900 41.06000 23.65300
H  38.74200 39.78500 24.32800
H  37.98300 39.59400 22.79800
H  40.15900 46.78300 25.96800
H  39.06600 45.76700 25.18000
H  40.75500 45.59200 24.70500
H  39.58900 44.42800 31.04100
H  42.45100 45.34400 33.87200
H  41.64500 46.85700 34.13200
H  42.77900 46.78100 32.87500

