158

Mg 6.62900 53.44400 41.46400
C  6.38600 49.95700 41.63900
C  9.89600 52.91500 40.28000
C  6.67000 56.59200 40.41500
C  3.17400 53.62600 42.21700
N  7.89400 51.61100 40.87500
C  7.57900 50.30300 41.11400
C  8.72400 49.37100 40.73900
C  9.97200 50.35400 40.70100
C  9.25300 51.70700 40.62700
C  11.06100 50.12900 41.82700
C  8.54900 48.46200 39.50600
C  7.89300 49.05500 38.24300
H  6.78900 48.26600 37.52800
N  8.06300 54.59600 40.57700
C  9.32400 54.19500 40.19500
C  10.05000 55.45600 39.73300
C  9.16100 56.56700 39.77900
C  7.92700 55.98600 40.28300
C  11.51500 55.45200 39.22300
C  9.42600 58.03000 39.39000
O  10.47700 58.42000 38.89800
C  8.43000 59.09500 39.45100
N  5.00300 54.78200 41.12400
C  5.40400 56.08300 40.85600
C  4.19100 57.00200 41.03600
C  3.09100 56.10200 41.68300
C  3.71300 54.77000 41.66300
C  4.45900 58.27300 41.87500
C  1.72300 55.92300 40.88500
C  0.42700 56.29000 41.62100
N  5.07900 52.16700 42.03600
C  3.73200 52.34400 42.38600
C  3.23700 51.07800 42.91900
C  4.27800 50.15200 42.68500
C  5.35200 50.83700 42.05700
C  1.91700 50.94700 43.56900
C  4.62200 48.74900 42.82900
O  4.02900 47.86100 43.39300
C  5.92200 48.58700 42.03400
C  5.53300 47.65000 40.92700
O  4.78100 47.97600 40.00300
O  5.89200 46.36700 41.25900
C  5.64500 45.28900 40.26300
H  10.95600 52.80200 40.04300
H  6.54400 57.66000 40.22400
H  2.16700 53.69300 42.63500
H  8.83600 48.65400 41.55300
H  10.47200 50.20600 39.74400
H  11.24200 50.98200 42.48100
H  11.93600 49.86400 41.23500
H  10.93900 49.20700 42.39500
H  8.09800 47.53600 39.86300
H  9.53900 48.15400 39.17000
H  8.69700 48.97700 37.51100
H  7.60800 50.10200 38.34900
H  12.23100 54.94400 39.86900
H  12.00700 56.42100 39.30100
H  11.69300 55.10900 38.20400
H  8.19000 59.35300 40.48300
H  7.54000 58.69000 38.97100
H  8.78700 59.94800 38.87400
H  3.82300 57.39300 40.08700
H  2.81000 56.37200 42.70100
H  4.13900 59.17400 41.35100
H  5.53500 58.27500 42.05000
H  3.95000 58.33600 42.83600
H  1.59500 54.94400 40.42400
H  1.80500 56.61200 40.04400
H  0.49000 56.21900 42.70700
H  -0.26800 55.48300 41.38800
H  0.14500 57.30500 41.33900
H  1.23000 50.74300 42.74700
H  1.56200 51.90900 43.93800
H  1.87400 50.11600 44.27300
H  6.75200 48.06200 42.50600
H  4.62000 45.37100 39.90300
H  5.76100 44.33500 40.77800
H  6.36100 45.46600 39.46000
Mg 9.35000 47.55500 27.51200
C  7.20700 47.26800 30.25600
C  12.00800 47.95000 29.72000
C  11.30500 48.33900 25.01200
C  6.54700 47.57900 25.50000
N  9.50600 47.78800 29.74700
C  8.49500 47.49200 30.66100
C  9.00300 47.60300 32.17600
C  10.56900 47.86900 31.86500
C  10.76000 47.78100 30.33800
C  11.21500 49.15800 32.50400
C  8.62300 46.48500 33.21900
C  9.40400 46.41900 34.51000
H  8.94900 45.62000 35.67700
N  11.42500 47.89000 27.30100
C  12.31900 48.04600 28.30900
C  13.60000 48.29800 27.72800
C  13.43100 48.28100 26.31100
C  11.99000 48.18500 26.13200
C  14.80000 48.32400 28.50500
C  14.42600 48.27600 25.17800
O  14.10600 48.10400 24.04100
C  15.78900 48.45300 25.50000
N  8.91200 48.03200 25.50200
C  9.93900 48.29000 24.70300
C  9.42400 48.34900 23.24500
C  7.83700 48.04100 23.38500
C  7.74200 47.80600 24.88700
C  9.79200 49.75100 22.55100
C  7.45100 46.79400 22.58000
C  6.02800 46.77700 21.93700
N  7.31700 47.36200 27.69800
C  6.25600 47.48100 26.81500
C  5.00300 47.30800 27.46900
C  5.31600 47.16300 28.81700
C  6.70400 47.30500 28.92700
C  3.71800 47.34300 26.81300
C  4.76600 47.07300 30.15600
O  3.61000 47.02700 30.52100
C  6.00200 46.93400 31.14000
C  6.05500 45.54200 31.78300
O  6.74000 44.61900 31.43600
O  5.22000 45.52800 32.87300
C  5.20700 44.22900 33.62900
H  12.78100 48.14700 30.46500
H  11.92300 48.60000 24.15000
H  5.66500 47.56200 24.85700
H  8.58200 48.50800 32.61400
H  11.03500 46.94000 32.19500
H  12.27500 48.93700 32.62800
H  10.81300 49.36100 33.49700
H  11.06300 50.09900 31.97600
H  8.70100 45.50900 32.74000
H  7.59500 46.66900 33.53000
H  9.60900 47.45200 34.79100
H  10.34100 45.93700 34.22800
H  15.59000 47.61600 28.25700
H  14.78100 48.30600 29.59500
H  15.31600 49.25400 28.26600
H  16.37100 48.23900 24.60400
H  16.07100 47.71500 26.25200
H  15.86500 49.49700 25.80500
H  9.86500 47.55200 22.64600
H  7.12200 48.86300 23.36000
H  10.23000 50.39500 23.31400
H  8.91200 50.18200 22.07300
H  10.52300 49.49700 21.78400
H  7.47000 45.92900 23.24300
H  8.17900 46.52300 21.81500
H  5.29100 46.20400 22.49900
H  6.04100 46.43500 20.90200
H  5.73700 47.81500 21.77600
H  3.32400 48.35900 26.86500
H  3.10900 46.74200 27.48800
H  3.89000 46.90100 25.83200
H  5.82400 47.76000 31.82900
H  6.19900 44.02500 34.03200
H  4.82800 43.35100 33.10600
H  4.64500 44.45400 34.53500

