158

Mg 30.92000 58.23400 40.06000
C  28.15800 56.52400 38.87400
C  32.90700 55.59700 39.13500
C  33.52300 60.24200 40.47300
C  28.86100 61.19600 40.24800
N  30.59500 56.28900 38.97400
C  29.38100 55.74800 38.78200
C  29.48600 54.18300 38.45600
C  31.05700 53.87200 38.74500
C  31.61500 55.36400 38.96800
C  31.15300 52.92200 39.91500
C  29.00600 53.75300 37.01100
C  29.73100 54.53500 35.82700
H  28.75600 55.36300 34.96000
N  32.92400 57.93200 39.89900
C  33.53100 56.81900 39.52200
C  34.96200 57.03800 39.51200
C  35.20700 58.35900 39.87300
C  33.89300 58.90100 40.16600
C  36.05000 56.01800 39.29800
C  36.60300 59.01100 39.97900
O  37.58500 58.34000 39.67100
C  36.82900 60.35700 40.52400
N  31.14300 60.48600 40.37600
C  32.38000 60.99500 40.56500
C  32.31600 62.49900 40.95500
C  30.75900 62.80400 40.75200
C  30.19800 61.40600 40.53200
C  32.93500 62.89900 42.34500
C  30.39500 63.75000 39.58700
C  30.32600 65.26500 39.79300
N  28.88600 58.75300 39.83400
C  28.28700 59.95500 39.88000
C  26.92700 59.75200 39.66600
C  26.77700 58.42500 39.34500
C  28.04700 57.86400 39.28500
C  25.79300 60.78600 39.68400
C  25.86100 57.32500 38.94800
O  24.61600 57.28200 38.78900
C  26.74200 56.05800 38.77100
C  26.51800 54.94700 39.76000
O  27.17500 54.71200 40.79600
O  25.56100 54.06400 39.27200
C  25.21400 52.98500 40.20700
H  33.47300 54.66700 39.04100
H  34.40200 60.86000 40.66600
H  28.18600 62.05200 40.30800
H  28.89900 53.66700 39.21500
H  31.61000 53.41400 37.92600
H  30.19300 52.69200 40.37700
H  31.62600 53.49900 40.71000
H  31.67500 52.00100 39.65300
H  27.94100 53.77700 36.78000
H  29.34300 52.72400 36.88700
H  30.22700 53.83700 35.15300
H  30.37100 55.28600 36.29000
H  36.73600 56.35600 38.52100
H  35.72300 54.97900 39.25600
H  36.66700 56.04100 40.19600
H  36.31600 60.55000 41.46600
H  36.60000 61.04600 39.71100
H  37.89900 60.42300 40.72000
H  32.79500 63.16300 40.23600
H  30.38200 63.25200 41.67200
H  32.21400 62.98600 43.15800
H  33.62800 63.73400 42.24800
H  33.59100 62.07000 42.61000
H  29.48100 63.43500 39.08400
H  31.09300 63.53300 38.77900
H  29.50400 65.71200 39.23400
H  31.23600 65.73900 39.42400
H  30.06800 65.44900 40.83600
H  26.20700 61.75300 39.39800
H  25.38300 60.86300 40.69100
H  25.08500 60.45400 38.92500
H  26.55000 55.69300 37.76200
H  24.40600 53.36100 40.83500
H  26.05900 52.63900 40.80300
H  24.94500 52.17500 39.52900
Mg -4.96800 25.94700 26.72900
C  -3.80400 27.52300 29.55900
C  -6.65200 23.83100 28.57200
C  -5.71200 24.32800 23.84200
C  -2.69400 27.97400 24.78900
N  -5.19500 25.75100 28.89600
C  -4.74600 26.53100 29.88400
C  -5.37400 26.18800 31.22000
C  -6.08900 24.78100 30.87300
C  -6.03000 24.78400 29.30800
C  -5.43200 23.50900 31.52500
C  -6.33100 27.27800 31.79200
C  -6.14000 27.67900 33.20400
H  -5.72700 26.66000 34.29600
N  -6.15100 24.39600 26.26700
C  -6.74300 23.64000 27.16300
C  -7.62900 22.65200 26.45300
C  -7.44000 22.84300 25.11900
C  -6.42900 23.97200 24.97500
C  -8.41500 21.56500 27.14400
C  -8.06800 22.10700 23.92200
O  -7.81000 22.53000 22.78900
C  -9.02000 20.93800 24.17200
N  -4.21600 26.12700 24.64200
C  -4.65700 25.25400 23.66900
C  -3.95500 25.42200 22.33500
C  -3.03900 26.62400 22.61800
C  -3.40100 27.01300 24.08400
C  -3.29600 24.18700 21.78700
C  -3.28100 27.79900 21.63300
C  -1.97900 28.12200 20.96300
N  -3.51400 27.51700 27.07700
C  -2.71600 28.22000 26.18600
C  -1.99500 29.17100 26.97900
C  -2.39000 28.97400 28.31500
C  -3.28300 27.93100 28.30300
C  -1.03000 30.23700 26.46200
C  -2.28400 29.38200 29.75000
O  -1.57700 30.26800 30.20800
C  -3.17300 28.43200 30.58400
C  -2.22800 27.68700 31.54000
O  -1.57800 26.67500 31.22900
O  -2.19500 28.29300 32.75300
C  -1.20000 27.71900 33.72900
H  -7.07400 23.01300 29.16000
H  -5.81400 23.71300 22.94600
H  -2.18800 28.74700 24.20700
H  -4.61700 25.99300 31.97900
H  -7.15800 24.73800 31.08400
H  -6.16200 22.89500 32.05300
H  -4.57600 23.84000 32.11300
H  -5.02800 22.88800 30.72600
H  -7.34900 26.91600 31.64300
H  -6.11000 28.18900 31.23500
H  -7.14200 27.98100 33.50900
H  -5.30500 28.37300 33.10600
H  -8.01400 20.58500 26.88300
H  -9.47400 21.73600 26.94700
H  -8.42900 21.72500 28.22200
H  -8.59900 20.26300 24.91600
H  -9.05400 20.45500 23.19500
H  -9.92400 21.48000 24.44900
H  -4.76400 25.69500 21.65800
H  -2.01200 26.26200 22.67000
H  -4.00000 23.74600 21.08100
H  -3.28000 23.47800 22.61400
H  -2.29600 24.32800 21.37700
H  -3.72600 28.63300 22.17400
H  -3.81800 27.46100 20.74600
H  -1.40100 28.73300 21.65600
H  -2.08100 28.35900 19.90400
H  -1.19100 27.37200 21.02800
H  -1.49200 30.97900 25.81000
H  -0.39000 29.78000 25.70700
H  -0.51200 30.67200 27.31700
H  -3.84700 29.06900 31.15600
H  -1.60400 26.74000 33.99000
H  -1.37400 28.25200 34.66400
H  -0.19600 27.69800 33.30700

