158

Mg 0.38800 7.70900 26.31700
C  1.03200 9.88900 28.96000
C  0.78200 5.02700 28.69200
C  0.10300 5.63300 23.84700
C  0.74000 10.36700 24.11300
N  0.94600 7.43600 28.55100
C  0.98900 8.55100 29.43700
C  1.24500 8.06300 30.85700
C  1.16800 6.49000 30.74800
C  0.94400 6.25500 29.23900
C  2.38200 5.76100 31.31400
C  0.11600 8.57000 31.83100
C  0.49000 8.59100 33.35000
H  1.72200 7.88500 33.87400
N  0.35000 5.63600 26.28400
C  0.43600 4.71400 27.34400
C  0.29400 3.36600 26.87800
C  0.08300 3.49400 25.42900
C  0.19700 4.93900 25.14300
C  0.43600 2.12800 27.80600
C  -0.11700 2.41800 24.36700
O  -0.39300 2.67300 23.18700
C  -0.10500 1.03000 24.77500
N  0.65900 7.97400 24.19400
C  0.29600 6.92700 23.41800
C  0.03700 7.36200 22.02200
C  0.42700 8.86000 22.05200
C  0.55600 9.12800 23.52300
C  0.68200 6.53800 20.87800
C  -0.57100 9.81300 21.31500
C  -2.01400 9.82800 21.77600
N  0.69700 9.63300 26.48600
C  0.75600 10.63000 25.52000
C  0.89500 11.91100 26.08600
C  0.93900 11.63200 27.46700
C  0.90600 10.23400 27.63900
C  0.97000 13.23600 25.36400
C  1.05100 12.29600 28.76900
O  1.19200 13.49500 28.99500
C  1.24500 11.18100 29.79900
C  2.46100 11.14800 30.63900
O  3.59900 11.18300 30.20800
O  2.12000 11.30000 31.98300
C  3.17600 11.23200 33.00000
H  0.73500 4.21300 29.41800
H  -0.18000 5.00400 23.00100
H  0.93000 11.15900 23.38500
H  2.15100 8.46500 31.31000
H  0.28000 6.03300 31.18300
H  2.79700 5.24700 30.44700
H  2.03700 5.02100 32.03600
H  3.06100 6.44500 31.82200
H  -0.78500 7.98000 31.66300
H  -0.20700 9.55800 31.50300
H  -0.43600 8.32100 33.85800
H  0.56700 9.61600 33.71300
H  0.33300 1.13600 27.36600
H  -0.35600 2.19800 28.55100
H  1.36900 2.25700 28.35400
H  -0.52300 0.31600 24.06500
H  -0.67400 0.90100 25.69700
H  0.92700 0.77000 25.00900
H  -1.04000 7.19800 21.96600
H  1.32400 9.00900 21.45100
H  1.39600 5.84900 21.33000
H  1.29000 7.18000 20.24000
H  0.04200 5.99200 20.18600
H  -0.65000 9.46700 20.28500
H  -0.23200 10.84800 21.26100
H  -2.76800 9.60700 21.02000
H  -2.14600 10.85600 22.11200
H  -2.24600 9.14900 22.59700
H  0.20100 13.25200 24.59100
H  1.93300 13.23300 24.85400
H  0.94100 14.14200 25.97000
H  0.41700 11.25200 30.50400
H  3.10200 10.48200 33.78700
H  3.22700 12.18800 33.52200
H  4.10200 11.03500 32.45900
Mg 17.29500 52.22300 26.18500
C  19.02400 50.90100 28.93300
C  14.80500 53.22900 28.42200
C  15.50500 53.32500 23.57900
C  19.60600 50.84300 23.97800
N  16.91600 52.00400 28.33900
C  17.81500 51.50000 29.26800
C  17.33900 51.69600 30.69200
C  15.85000 52.19900 30.54800
C  15.85000 52.52300 29.03000
C  14.89100 51.02600 30.70600
C  18.16200 52.75600 31.57700
C  18.24700 52.37500 33.07500
H  16.97900 51.78400 33.75300
N  15.51900 53.27900 26.08700
C  14.65700 53.55800 27.09100
C  13.59500 54.37800 26.54500
C  13.71400 54.34800 25.13200
C  14.96400 53.62400 24.88600
C  12.63400 55.09000 27.45400
C  12.77900 54.93900 24.03600
O  12.87000 54.75100 22.83300
C  11.59000 55.69900 24.43300
N  17.41100 51.92400 24.11200
C  16.61500 52.59800 23.23600
C  17.06400 52.48500 21.77500
C  18.49800 52.07500 22.05800
C  18.52900 51.56800 23.46500
C  16.18900 51.43200 21.02400
C  19.60200 53.26400 21.86400
C  20.82300 52.99100 21.03900
N  19.00800 50.95000 26.37200
C  19.80400 50.47200 25.38500
C  20.95200 49.86500 25.98600
C  20.65300 49.94000 27.37900
C  19.42200 50.62100 27.59000
C  22.08000 49.25200 25.20600
C  21.14600 49.59600 28.68200
O  22.23500 49.05800 28.89000
C  20.17600 50.30700 29.83800
C  19.68300 49.27600 30.76300
O  19.06700 48.26900 30.54700
O  20.01600 49.68800 32.04800
C  19.48600 48.90100 33.20500
H  14.06000 53.53400 29.16000
H  14.94900 53.75700 22.74400
H  20.50900 50.61500 23.40800
H  17.36300 50.78100 31.28400
H  15.59800 53.02500 31.21300
H  15.43500 50.24700 31.23900
H  14.34900 50.62600 29.84900
H  14.06500 51.36600 31.33000
H  17.78300 53.77600 31.64500
H  19.14300 52.66000 31.11100
H  18.55900 53.30600 33.54800
H  19.13000 51.74900 33.20600
H  11.75000 55.35200 26.87200
H  13.21500 55.88500 27.92100
H  12.35300 54.33100 28.18300
H  11.01300 54.94500 24.96800
H  11.05800 55.86600 23.49600
H  11.86600 56.62000 24.94500
H  16.98900 53.43200 21.24100
H  18.66000 51.25400 21.35800
H  15.10800 51.57200 21.05800
H  16.40300 50.50100 21.54900
H  16.57900 51.43600 20.00700
H  19.87800 53.71000 22.82000
H  19.01100 54.00500 21.32500
H  20.98300 53.58000 20.13600
H  20.91500 51.92000 20.85800
H  21.67500 53.17600 21.69400
H  21.89700 48.19100 25.03600
H  22.95900 49.42600 25.82700
H  22.31100 49.75200 24.26600
H  20.90200 50.96900 30.30900
H  18.56100 48.43100 32.87300
H  19.24600 49.53600 34.05800
H  20.29100 48.22100 33.48500

