158

Mg 41.22000 8.13300 29.71400
C  43.19600 9.62900 32.32000
C  39.05500 7.02400 32.11100
C  39.69600 6.46000 27.22900
C  43.88200 8.81500 27.57700
N  41.12800 8.36800 31.92000
C  42.00200 9.01300 32.78900
C  41.45700 9.06200 34.20500
C  40.26800 8.00900 34.14900
C  40.15400 7.73600 32.61700
C  40.48600 6.70300 34.96000
C  41.13700 10.51900 34.59200
C  40.44400 10.59200 35.94000
H  40.81400 11.52000 37.03400
N  39.55800 7.01400 29.64500
C  38.71200 6.65900 30.77500
C  37.55600 5.86100 30.29800
C  37.61700 5.90600 28.87200
C  39.00900 6.46500 28.52300
C  36.54600 5.19200 31.26300
C  36.69100 5.53200 27.78500
O  36.87600 5.58700 26.57000
C  35.35300 5.08300 28.16700
N  41.64700 7.84200 27.65000
C  40.93500 6.98500 26.84200
C  41.52400 6.86700 25.43500
C  42.86900 7.64400 25.54600
C  42.85000 8.11400 27.04000
C  41.61300 5.34900 24.94100
C  43.21000 8.69600 24.45800
C  42.53700 8.79400 23.09200
N  43.11600 9.07500 29.83800
C  44.01900 9.31700 28.87400
C  45.06300 10.12100 29.38800
C  44.73800 10.33200 30.69500
C  43.59800 9.61700 30.96900
C  46.21000 10.58800 28.60300
C  45.13700 11.03100 31.88500
O  46.06500 11.84900 32.02300
C  44.23500 10.51100 32.98100
C  44.95300 9.74800 34.02800
O  45.17000 8.52600 34.07500
O  45.14800 10.62500 35.03900
C  45.22900 10.10400 36.38800
H  38.35200 6.61300 32.83900
H  39.27100 5.80100 26.46900
H  44.74900 9.07300 26.96600
H  42.22500 8.73400 34.90500
H  39.34100 8.40000 34.56900
H  40.67700 5.83200 34.33400
H  39.65200 6.64800 35.66000
H  41.36700 6.85700 35.58200
H  40.66300 11.00700 33.74000
H  42.01500 11.14900 34.73300
H  40.34400 9.57100 36.30900
H  39.44600 10.90800 35.63500
H  36.09500 4.32300 30.78300
H  35.74700 5.88100 31.53600
H  37.01300 4.84200 32.18400
H  34.69300 5.02200 27.30100
H  34.93700 5.84400 28.82700
H  35.40800 4.10100 28.63800
H  40.77700 7.52600 24.99400
H  43.69000 6.93400 25.45100
H  42.58600 5.10000 24.51800
H  40.85900 5.11300 24.19000
H  41.44600 4.74300 25.83200
H  44.28800 8.85100 24.48400
H  42.85100 9.61800 24.91600
H  43.38400 8.93400 22.42000
H  41.92400 9.67100 22.88800
H  42.03200 7.84500 22.90900
H  46.05400 10.90800 27.57300
H  47.03300 9.87700 28.52400
H  46.50000 11.45200 29.20000
H  43.76200 11.41800 33.35700
H  44.25600 10.33900 36.81900
H  46.08500 10.59700 36.84900
H  45.29200 9.01700 36.42000
Mg -9.37000 39.98300 43.33900
C  -8.24000 36.91300 42.20000
C  -6.71600 41.52900 41.90800
C  -10.94900 42.90800 43.85400
C  -12.57600 38.32400 43.98900
N  -7.71300 39.27100 42.23200
C  -7.45900 37.97300 41.78600
C  -6.22600 37.95200 40.93200
C  -5.71100 39.45900 40.82700
C  -6.69400 40.14200 41.81700
C  -4.21600 39.73500 41.09600
C  -6.33300 37.29400 39.51700
C  -5.28300 36.12100 39.28200
H  -4.30700 36.40900 38.07900
N  -8.84700 41.97000 42.93000
C  -7.65500 42.38500 42.45600
C  -7.61300 43.89900 42.46700
C  -8.84800 44.32400 43.08800
C  -9.60600 43.04500 43.32200
C  -6.42500 44.73500 41.92700
C  -9.14200 45.69200 43.37000
O  -8.28200 46.53000 43.23100
C  -10.41300 46.11000 43.96700
N  -11.46900 40.52300 43.87400
C  -11.84300 41.81400 44.00500
C  -13.18200 41.97100 44.66600
C  -13.73300 40.52600 44.55400
C  -12.51700 39.73200 44.08200
C  -13.08800 42.39200 46.16100
C  -14.90000 40.30600 43.55100
C  -16.12000 39.71600 44.27400
N  -10.16900 38.02600 43.33100
C  -11.45800 37.52900 43.65800
C  -11.45800 36.06200 43.65000
C  -10.23100 35.75000 42.97500
C  -9.49900 36.99100 42.88800
C  -12.58600 35.16600 43.90100
C  -9.33600 34.73600 42.49600
O  -9.50200 33.52000 42.55800
C  -8.02100 35.38900 41.93000
C  -6.90300 34.88800 42.75300
O  -6.51200 35.23500 43.88300
O  -6.26200 33.98800 41.93300
C  -5.17900 33.13800 42.57400
H  -5.99100 42.03400 41.26600
H  -11.40300 43.88500 44.03700
H  -13.51600 37.88600 44.32900
H  -5.60200 37.42700 41.65600
H  -6.03800 39.80100 39.84500
H  -3.64700 38.83200 41.32100
H  -4.15500 40.29500 42.02900
H  -3.76800 40.19400 40.21400
H  -6.18400 37.99800 38.69900
H  -7.31400 36.85500 39.33200
H  -5.84100 35.22700 39.00400
H  -4.74100 35.88000 40.19700
H  -6.71300 45.28800 41.03400
H  -5.65000 44.02200 41.64500
H  -6.15500 45.39000 42.75600
H  -10.44600 47.19800 43.90900
H  -10.67400 45.76500 44.96700
H  -11.23500 45.77100 43.33700
H  -13.71300 42.74000 44.10500
H  -14.12500 40.19300 45.51500
H  -12.11100 42.82100 46.38600
H  -13.20200 41.56200 46.85800
H  -13.87900 43.08000 46.45600
H  -14.53800 39.66500 42.74700
H  -15.18500 41.19600 42.98900
H  -16.92300 40.22200 43.73700
H  -16.24400 39.94000 45.33400
H  -16.27400 38.65400 44.08500
H  -13.25300 34.91100 43.07700
H  -13.25100 35.61700 44.63700
H  -12.12500 34.26300 44.30000
H  -7.75100 35.17300 40.89700
H  -4.80000 32.25500 42.06000
H  -5.58800 32.78600 43.52100
H  -4.29500 33.72000 42.83700

