158

Mg 0.66500 8.26700 26.73400
C  1.07700 10.31200 29.62100
C  0.66500 5.48200 28.90700
C  0.91400 6.34900 24.11700
C  1.15900 11.09600 24.73300
N  0.86400 7.95100 29.00800
C  0.89200 8.98300 29.97400
C  0.74800 8.32600 31.36200
C  0.84600 6.78700 31.11800
C  0.80100 6.67800 29.61300
C  2.18400 6.20800 31.65600
C  -0.51100 8.86800 32.05700
C  -0.94200 8.04400 33.28200
H  -0.01200 7.83700 34.41200
N  0.64500 6.13900 26.54100
C  0.69200 5.19700 27.51600
C  0.69600 3.91500 26.84100
C  0.83400 4.15600 25.49400
C  0.76200 5.55800 25.28500
C  0.77200 2.62200 27.57700
C  0.90800 3.18800 24.29600
O  0.90000 3.54800 23.12600
C  0.86300 1.72900 24.52700
N  0.98900 8.65300 24.77300
C  0.96800 7.69100 23.81400
C  1.07000 8.34000 22.42600
C  0.87600 9.84900 22.65300
C  1.01900 9.89300 24.12900
C  2.41300 7.88300 21.80700
C  -0.41400 10.35700 22.14800
C  -0.42000 11.64400 21.25100
N  0.96300 10.30000 27.05000
C  1.18400 11.34900 26.12100
C  1.35000 12.57300 26.79600
C  1.26200 12.21600 28.20900
C  1.09800 10.82900 28.28200
C  1.40900 13.90900 26.13900
C  1.32600 12.73600 29.56200
O  1.48100 13.85900 29.98900
C  1.15600 11.47200 30.53100
C  2.24900 11.57400 31.58400
O  3.49100 11.50800 31.41500
O  1.71300 11.86600 32.79800
C  2.63900 11.86400 33.93300
H  0.74700 4.64700 29.60600
H  0.84100 5.78000 23.18800
H  1.13600 11.97400 24.08500
H  1.65200 8.60000 31.90600
H  -0.01600 6.21300 31.45600
H  2.04000 5.20300 32.05200
H  2.47100 6.78900 32.53300
H  2.92500 6.24200 30.85800
H  -1.31100 9.08200 31.34900
H  -0.06400 9.72800 32.55700
H  -1.48400 7.12800 33.04800
H  -1.62600 8.68600 33.83700
H  -0.09200 2.01600 27.30700
H  0.63900 2.68300 28.65700
H  1.64900 2.00400 27.37900
H  0.78500 1.16300 23.59900
H  -0.09900 1.58900 25.02000
H  1.78900 1.50100 25.05300
H  0.26200 8.01200 21.77200
H  1.68700 10.35000 22.12500
H  2.95400 8.79600 21.56000
H  2.27000 7.25600 20.92700
H  2.89200 7.30200 22.59500
H  -0.98500 10.53300 23.06000
H  -1.05900 9.69800 21.56800
H  0.61900 11.93700 21.10200
H  -0.95000 12.42400 21.79800
H  -0.88800 11.48800 20.27900
H  0.47000 14.43400 26.31500
H  1.59800 13.96700 25.06700
H  2.11500 14.52600 26.69500
H  0.27200 11.64200 31.14500
H  3.66300 11.56300 33.71000
H  2.19500 11.07200 34.53500
H  2.71400 12.80700 34.47500
Mg 16.80000 52.12600 26.04000
C  18.58400 50.75100 28.59500
C  14.26500 52.88600 28.22700
C  14.93700 53.44700 23.42500
C  19.05900 50.89600 23.73100
N  16.55100 51.91100 28.12500
C  17.47700 51.47400 28.98000
C  17.03200 51.83300 30.43000
C  15.48400 52.14800 30.29400
C  15.39900 52.31700 28.77500
C  14.42700 51.15300 30.89400
C  17.89800 52.94900 31.03900
C  18.44300 52.68200 32.49300
H  17.39700 52.06800 33.45000
N  14.97900 53.20500 25.82400
C  14.05500 53.34500 26.85900
C  12.93200 53.96100 26.39200
C  13.03800 54.11400 24.96700
C  14.34300 53.58400 24.67100
C  11.70300 54.20300 27.29800
C  11.98900 54.56200 23.96200
O  12.15800 54.55800 22.76200
C  10.67000 55.05500 24.44600
N  16.91200 52.11100 23.86700
C  16.04300 52.75000 23.05100
C  16.59300 52.84600 21.58900
C  17.91900 52.04900 21.74000
C  18.00200 51.70700 23.20000
C  15.58800 52.53400 20.42000
C  19.19200 52.83400 21.27400
C  19.86700 52.14300 20.03300
N  18.46900 51.07600 26.11200
C  19.30000 50.58800 25.15000
C  20.39300 49.85100 25.69300
C  20.18800 49.89900 27.06700
C  18.95700 50.59500 27.27100
C  21.50400 49.17600 24.89300
C  20.65700 49.46200 28.37300
O  21.44900 48.58300 28.64700
C  19.67900 50.12700 29.41800
C  19.17400 49.12000 30.35100
O  18.74600 48.01600 30.04800
O  19.44700 49.51100 31.64200
C  19.25300 48.47900 32.66500
H  13.38100 52.97000 28.86300
H  14.45000 53.91900 22.57000
H  19.78900 50.60500 22.97200
H  17.16600 50.93500 31.03400
H  15.38800 53.19500 30.58300
H  13.81500 50.66800 30.13300
H  13.69000 51.73700 31.44600
H  14.78300 50.38900 31.58500
H  17.53600 53.93400 30.74400
H  18.75300 52.94100 30.36300
H  18.91400 53.58300 32.88500
H  19.24000 51.95500 32.33700
H  10.95900 53.41300 27.19100
H  11.18000 55.13200 27.07000
H  11.94300 54.28100 28.35900
H  10.26000 55.28100 23.46100
H  10.72600 55.97600 25.02600
H  10.16600 54.19700 24.89100
H  16.74800 53.92400 21.53400
H  17.73100 51.09900 21.24100
H  16.05300 51.86600 19.69500
H  15.37600 53.38100 19.76900
H  14.65800 52.08500 20.76900
H  19.86400 52.98700 22.11800
H  18.80700 53.80800 20.97000
H  19.24800 52.40700 19.17600
H  20.04500 51.07700 20.17500
H  20.77700 52.62200 19.67000
H  21.89900 49.91400 24.19500
H  21.17200 48.25900 24.40400
H  22.33400 48.88300 25.53500
H  20.21100 50.88900 29.98700
H  18.20500 48.25600 32.46300
H  19.29900 48.76700 33.71500
H  19.83900 47.58700 32.44500

