158

Mg 26.36100 50.28400 26.02800
C  24.81300 51.34500 28.97200
C  29.03600 49.23000 27.92700
C  27.93800 49.48200 23.21100
C  23.74400 51.62500 24.24400
N  26.86600 50.29600 28.28900
C  26.02700 50.70200 29.27100
C  26.62100 50.30200 30.64600
C  28.09100 49.88400 30.31600
C  28.03600 49.73300 28.77800
C  29.12800 51.02300 30.69600
C  25.78400 49.22200 31.43200
C  25.05400 49.63200 32.72900
H  25.88400 50.14900 33.92500
N  28.22500 49.50400 25.62100
C  29.17200 49.09900 26.56800
C  30.21200 48.25200 25.95300
C  29.87200 48.26200 24.54600
C  28.69600 49.18500 24.39600
C  31.31400 47.44700 26.65400
C  30.46000 47.45700 23.39600
O  29.96400 47.46400 22.29500
C  31.64800 46.55600 23.67500
N  25.87600 50.63700 24.04000
C  26.69400 50.09100 23.03800
C  26.07700 50.32300 21.69600
C  24.67600 50.92700 22.06700
C  24.76000 51.16100 23.53000
C  26.95200 51.10000 20.70900
C  23.45600 49.96600 21.65800
C  22.33300 50.65100 20.86800
N  24.59100 51.25100 26.39200
C  23.60600 51.67000 25.62900
C  22.58000 52.25800 26.41300
C  23.00500 52.13500 27.75800
C  24.21800 51.47400 27.66800
C  21.25600 52.91200 26.02100
C  22.66000 52.40700 29.12500
O  21.66400 52.94800 29.62200
C  23.77900 51.79200 30.00600
C  24.28400 52.87200 30.94500
O  25.38100 53.37300 30.82600
O  23.38400 53.02800 31.92500
C  24.01300 53.54500 33.15800
H  29.95600 48.94300 28.44200
H  28.51200 49.14600 22.34400
H  22.94500 52.03200 23.62100
H  26.65900 51.20200 31.25900
H  28.31000 48.89900 30.72700
H  28.68600 51.77700 31.34700
H  29.52800 51.53800 29.82200
H  29.97900 50.47300 31.09600
H  26.38300 48.34000 31.65600
H  25.01200 48.85900 30.75400
H  24.50700 48.74700 33.05400
H  24.44900 50.52600 32.58100
H  31.12300 46.38200 26.52600
H  31.34200 47.71000 27.71200
H  32.26200 47.78000 26.23100
H  31.48600 45.77600 24.41900
H  32.45500 47.21700 23.99300
H  32.02900 46.18700 22.72300
H  26.05400 49.30100 21.32000
H  24.40800 51.92300 21.71300
H  27.69300 51.63700 21.30000
H  26.48500 51.88800 20.11800
H  27.39500 50.36900 20.03200
H  22.95300 49.49200 22.50100
H  23.80900 49.11900 21.07100
H  21.44200 50.67000 21.49700
H  22.02500 50.16100 19.94400
H  22.47200 51.69700 20.59600
H  20.91500 52.63500 25.02400
H  21.35600 53.98800 26.16600
H  20.55300 52.51000 26.75000
H  23.19000 51.02000 30.50100
H  24.00200 54.63100 33.07500
H  24.99000 53.10800 33.37000
H  23.39300 53.23100 33.99800
Mg -11.86400 38.80700 41.90300
C  -9.50900 36.22200 41.26700
C  -9.78900 40.83400 40.25600
C  -14.34100 40.97100 41.91100
C  -14.11000 36.21900 42.78200
N  -10.05200 38.45600 40.54700
C  -9.23600 37.37000 40.55100
C  -8.07400 37.59600 39.56900
C  -8.08400 39.12700 39.34000
C  -9.43000 39.51800 40.02800
C  -6.91100 39.96900 40.02400
C  -8.27300 36.70700 38.28200
C  -6.97800 36.06100 37.77100
H  -6.19900 36.79200 36.73400
N  -11.95100 40.70400 41.27300
C  -10.93200 41.42200 40.75600
C  -11.22200 42.79500 40.68400
C  -12.60900 42.82000 41.02900
C  -13.05700 41.42700 41.45900
C  -10.34900 43.99100 40.22200
C  -13.51000 44.02900 40.96300
O  -13.01500 45.09700 40.64300
C  -14.95500 44.09800 41.38600
N  -13.92100 38.57400 42.20800
C  -14.68100 39.69400 42.24800
C  -16.13800 39.35400 42.55700
C  -16.09100 37.84500 42.78900
C  -14.64200 37.48200 42.58700
C  -16.70300 40.30600 43.67900
C  -17.03600 36.96600 41.89500
C  -17.56800 35.56700 42.50700
N  -11.83700 36.62300 42.07400
C  -12.78400 35.76500 42.53800
C  -12.25900 34.45900 42.73900
C  -10.89900 34.58300 42.29100
C  -10.76600 35.87000 41.77900
C  -13.01500 33.26500 43.52100
C  -9.60200 33.94000 42.20600
O  -9.27300 32.81200 42.46900
C  -8.64700 34.89900 41.36900
C  -7.38800 34.98900 42.11300
O  -6.61400 34.01200 42.14600
O  -7.18400 36.27200 42.59000
C  -6.05200 36.45100 43.50600
H  -9.12600 41.60600 39.85900
H  -15.10000 41.74100 42.06500
H  -14.73400 35.35500 43.01800
H  -7.20900 37.43100 40.21200
H  -8.20000 39.47100 38.31300
H  -7.10900 40.36000 41.02200
H  -6.71500 40.75100 39.29100
H  -5.98200 39.40000 40.02400
H  -8.60900 37.34100 37.46200
H  -8.90500 35.83400 38.44600
H  -7.24300 35.03100 37.53000
H  -6.27600 35.98000 38.60100
H  -10.76000 44.57100 39.39500
H  -9.36100 43.63200 39.93200
H  -10.00900 44.68400 40.99100
H  -15.30200 45.12300 41.25900
H  -15.00900 43.81900 42.43800
H  -15.49400 43.35100 40.80200
H  -16.58300 39.63500 41.60200
H  -16.47500 37.54200 43.76300
H  -17.20800 41.21900 43.36300
H  -15.88800 40.56300 44.35500
H  -17.36800 39.69400 44.28800
H  -16.34800 36.80200 41.06600
H  -17.81300 37.59800 41.46400
H  -18.65000 35.50000 42.39500
H  -17.27600 35.39900 43.54400
H  -17.30100 34.74400 41.84400
H  -12.35100 32.51100 43.94300
H  -13.74500 32.81500 42.84800
H  -13.45600 33.72800 44.40300
H  -8.48600 34.46700 40.38200
H  -5.26600 36.90300 42.90100
H  -5.63000 35.49100 43.80200
H  -6.30800 37.08000 44.35800

