158

Mg 17.24600 51.72100 25.74200
C  19.01000 50.51500 28.38500
C  14.66500 52.62100 27.89400
C  15.46900 52.91700 23.13300
C  19.38200 50.12000 23.44900
N  16.84100 51.60400 27.87500
C  17.80000 51.18300 28.75700
C  17.39900 51.40300 30.16500
C  15.90600 51.72000 30.01700
C  15.76200 52.08600 28.55600
C  14.86200 50.56400 30.46700
C  18.30800 52.56600 30.72300
C  18.46600 52.60200 32.31600
H  17.38600 51.75600 33.08000
N  15.37500 52.78000 25.50800
C  14.44300 53.02300 26.56200
C  13.29100 53.70900 26.08600
C  13.51400 53.85600 24.68500
C  14.81100 53.14500 24.33500
C  12.21900 54.28400 27.01600
C  12.69700 54.52300 23.60800
O  12.95100 54.60900 22.41500
C  11.37300 55.26300 23.93600
N  17.48400 51.66400 23.59200
C  16.64400 52.32500 22.71800
C  17.10300 52.24000 21.22900
C  18.43800 51.36100 21.40900
C  18.41900 50.94800 22.88900
C  16.04300 51.59600 20.19600
C  19.71200 52.20700 21.02600
C  21.00100 51.55000 20.47800
N  18.89600 50.53100 25.81700
C  19.68700 49.96600 24.81400
C  20.73200 49.20300 25.47400
C  20.53800 49.39200 26.84400
C  19.42000 50.19300 27.02900
C  21.77100 48.41300 24.76800
C  21.07300 49.08700 28.19700
O  22.01800 48.43400 28.59400
C  20.08300 49.87100 29.24100
C  19.62200 48.85500 30.29900
O  19.10500 47.77100 30.15700
O  20.00200 49.27500 31.53800
C  19.90900 48.38500 32.65600
H  13.83900 52.78700 28.59000
H  14.85000 53.34200 22.34100
H  20.12400 49.62400 22.82000
H  17.51100 50.47100 30.72000
H  15.71900 52.65100 30.55300
H  14.03600 51.08200 30.95400
H  15.29100 49.85800 31.17800
H  14.43400 50.08000 29.58900
H  17.99900 53.54300 30.35300
H  19.26900 52.42100 30.23000
H  18.45500 53.66100 32.57400
H  19.42400 52.14900 32.57300
H  12.23400 55.36900 27.11700
H  12.27500 53.81800 28.00000
H  11.27100 53.88000 26.65900
H  10.60900 54.56800 24.28300
H  11.00400 55.83200 23.08300
H  11.61700 55.91100 24.77800
H  17.46100 53.23300 20.95900
H  18.36800 50.53800 20.69800
H  15.07500 52.07400 20.34400
H  15.94700 50.51800 20.31800
H  16.37600 51.83200 19.18500
H  20.00800 52.64800 21.97800
H  19.45300 53.05000 20.38500
H  20.93800 50.47800 20.28900
H  21.83000 51.65600 21.17700
H  21.31100 52.10600 19.59300
H  22.57600 48.31600 25.49700
H  22.21800 48.95700 23.93600
H  21.35500 47.47100 24.41000
H  20.72500 50.57000 29.77700
H  20.21400 47.35100 32.49300
H  18.91400 48.44900 33.09600
H  20.59600 48.73500 33.42700
Mg 0.07400 43.46200 26.34600
C  1.87900 43.41800 29.23800
C  -2.74500 42.86600 28.16400
C  -1.44600 42.65400 23.44500
C  3.04600 43.91400 24.47600
N  -0.33700 43.06100 28.48800
C  0.50800 43.22100 29.47900
C  -0.19600 43.03600 30.80200
C  -1.62700 42.50600 30.44600
C  -1.59700 42.91800 28.97300
C  -2.01300 41.06000 30.73300
C  -0.27100 44.41600 31.50900
C  0.33100 44.52800 32.88400
H  -0.02100 43.43400 33.97300
N  -1.80600 42.92300 25.88400
C  -2.87700 42.81600 26.75500
C  -4.07300 42.51200 25.98600
C  -3.76500 42.50800 24.55800
C  -2.27600 42.66900 24.57400
C  -5.42900 42.46300 26.75600
C  -4.60400 42.33500 23.33700
O  -4.15100 42.28400 22.20100
C  -6.07500 42.49700 23.59300
N  0.68500 43.37700 24.16900
C  -0.11200 42.96900 23.22500
C  0.57800 42.86600 21.93900
C  2.01000 43.52600 22.20800
C  1.95700 43.60700 23.76600
C  0.68800 41.40700 21.38900
C  2.08300 44.96100 21.52100
C  3.47500 45.30300 21.06600
N  2.05500 43.62500 26.72300
C  3.19800 43.82900 25.92400
C  4.36500 43.99500 26.73600
C  3.93600 43.83500 28.03300
C  2.50400 43.64300 27.97200
C  5.78100 44.20800 26.25200
C  4.28300 43.77400 29.40300
O  5.45000 43.88200 29.86900
C  2.95400 43.58400 30.26800
C  3.31300 42.45100 31.07300
O  3.42300 41.32200 30.68400
O  3.65900 42.89100 32.34100
C  3.98900 41.86100 33.30100
H  -3.58900 42.77400 28.85000
H  -1.82700 42.43000 22.44600
H  3.93300 43.97600 23.84200
H  0.32300 42.33400 31.45500
H  -2.37500 43.05800 31.01400
H  -1.16700 40.56800 31.21400
H  -2.29400 40.54800 29.81300
H  -2.77100 41.13900 31.51300
H  -1.29600 44.77300 31.60900
H  0.30100 45.05900 30.83900
H  -0.07800 45.44000 33.31900
H  1.41200 44.63500 32.79400
H  -6.03800 43.32000 26.46900
H  -5.35500 42.64000 27.82900
H  -5.90700 41.50000 26.57800
H  -6.63200 42.45400 22.65700
H  -6.11300 43.44400 24.13100
H  -6.45000 41.79100 24.33400
H  0.04100 43.47200 21.21000
H  2.81700 42.84900 21.93100
H  0.80300 40.66700 22.18100
H  1.67700 41.37900 20.93100
H  -0.23100 41.22800 20.83200
H  1.76500 45.69700 22.26000
H  1.44800 45.07800 20.64300
H  3.60600 44.74600 20.13900
H  4.23600 44.86300 21.71100
H  3.76200 46.35400 21.02600
H  6.36500 43.29100 26.17200
H  6.29200 44.80400 27.00900
H  5.85900 44.71300 25.28900
H  2.75500 44.47500 30.86400
H  4.63700 41.11400 32.84100
H  3.06400 41.37700 33.61300
H  4.39700 42.26700 34.22600

