158

Mg 6.48800 54.23700 41.94000
C  5.75300 50.89700 41.31500
C  9.14800 54.04400 39.93200
C  6.55800 57.67300 41.90200
C  3.05600 54.59600 43.27700
N  7.10400 52.81400 40.39600
C  6.83200 51.45300 40.53600
C  7.74000 50.58600 39.66600
C  9.00600 51.46100 39.81500
C  8.41000 52.83900 39.93100
C  9.93600 51.00400 40.95900
C  7.33500 50.49900 38.20000
C  8.10500 49.33200 37.43500
H  7.35500 48.44700 36.44700
N  7.71800 55.66800 41.10400
C  8.78300 55.37900 40.26900
C  9.56800 56.54400 40.05800
C  8.88200 57.59500 40.63900
C  7.63800 57.06900 41.21900
C  10.97200 56.51600 39.56000
C  9.38100 59.10000 40.79500
O  10.42700 59.42000 40.31500
C  8.61400 60.07300 41.60600
N  4.94600 55.91000 42.36600
C  5.37300 57.18500 42.49600
C  4.33300 58.10200 43.16900
C  3.17400 57.11900 43.33500
C  3.69700 55.77600 42.94400
C  4.84400 58.77000 44.45200
C  1.94900 57.46300 42.50800
C  1.26300 58.87300 42.73900
N  4.76900 53.03100 42.34800
C  3.54300 53.30800 42.99900
C  2.93000 52.01200 43.28700
C  3.73800 51.03100 42.72800
C  4.89200 51.65400 42.12800
C  1.58800 51.80900 43.97300
C  3.91200 49.61100 42.48300
O  3.26900 48.64300 42.84800
C  5.24000 49.49800 41.41400
C  4.67300 48.99800 40.16300
O  3.91300 49.64400 39.40900
O  5.08000 47.71800 39.96500
C  4.55800 46.98900 38.83000
H  10.13000 53.85900 39.49100
H  6.44400 58.74700 42.06300
H  2.11800 54.73900 43.81600
H  7.74400 49.64700 40.21900
H  9.59300 51.43200 38.89700
H  9.65800 50.00700 41.30000
H  9.92000 51.69400 41.80300
H  10.98100 50.98400 40.65200
H  7.59100 51.45300 37.73900
H  6.24700 50.54600 38.16700
H  8.57000 48.65500 38.15200
H  8.89800 49.83400 36.88100
H  11.11800 55.71100 38.83900
H  11.67200 56.24800 40.35100
H  11.33400 57.45800 39.14600
H  9.05800 61.05300 41.43600
H  8.70100 59.73000 42.63700
H  7.56700 60.25400 41.36300
H  4.06300 58.90100 42.47800
H  2.90300 57.05000 44.38900
H  4.62700 58.20100 45.35600
H  4.37300 59.72700 44.67200
H  5.92500 58.87500 44.54400
H  1.21900 56.68400 42.72800
H  2.22800 57.39300 41.45700
H  1.38200 59.48000 41.84200
H  1.67000 59.38600 43.61100
H  0.22500 58.68200 43.01300
H  0.95400 52.64700 43.68300
H  1.82500 51.73400 45.03400
H  1.07100 50.90100 43.66200
H  5.99600 48.78200 41.73900
H  4.95600 47.25600 37.85100
H  3.47000 46.94900 38.78800
H  4.76800 45.92700 38.95900
Mg 1.94400 41.64700 24.97600
C  2.57900 41.98300 28.44700
C  -1.14000 40.65500 25.83900
C  1.43700 40.90700 21.79800
C  5.31100 42.40700 24.39600
N  0.79200 41.47900 26.95100
C  1.28400 41.68500 28.23000
C  0.18700 41.58000 29.28300
C  -1.02600 40.92500 28.44000
C  -0.43200 40.97500 26.98000
C  -1.51800 39.47800 28.92600
C  -0.10800 42.98600 29.82600
C  -0.13600 43.04900 31.39500
H  -0.87500 41.91300 32.17200
N  0.31800 41.03400 23.93400
C  -0.84800 40.69300 24.44600
C  -1.75800 40.29100 23.36500
C  -1.04900 40.25500 22.15800
C  0.27700 40.69600 22.54600
C  -3.24400 40.09000 23.57700
C  -1.50600 39.89700 20.78000
O  -0.69400 39.84200 19.84100
C  -2.98000 39.68500 20.43700
N  3.18600 41.68100 23.35600
C  2.72600 41.34300 22.13300
C  3.86600 41.57800 21.04900
C  5.02300 42.21500 21.85500
C  4.47100 42.14500 23.25400
C  4.37200 40.30500 20.21400
C  5.36200 43.69200 21.45500
C  5.86000 43.81300 20.02000
N  3.66000 42.14800 26.10600
C  4.94100 42.46900 25.72700
C  5.74300 42.78300 26.93100
C  4.86400 42.53200 27.97200
C  3.63200 42.24400 27.49800
C  7.19300 43.15600 26.93700
C  4.77900 42.55700 29.44600
O  5.59200 42.59500 30.36800
C  3.30700 42.08100 29.79200
C  3.28600 40.78400 30.49400
O  3.90700 39.75900 30.15300
O  2.45600 40.85500 31.54000
C  2.26400 39.56300 32.27600
H  -2.14300 40.27900 26.05400
H  1.45700 40.70700 20.72400
H  6.35400 42.65200 24.18100
H  0.40200 40.78900 30.00100
H  -1.89600 41.57500 28.53300
H  -2.45400 39.67400 29.45000
H  -0.76700 39.01500 29.56700
H  -1.71500 38.88900 28.03000
H  -1.04100 43.43100 29.48000
H  0.78600 43.51900 29.50200
H  -0.63600 43.98000 31.65900
H  0.86900 43.11000 31.81200
H  -3.84500 40.82400 23.03900
H  -3.49000 40.00700 24.63500
H  -3.59100 39.14300 23.16400
H  -3.25100 38.68900 20.78400
H  -3.01300 39.66200 19.34800
H  -3.64100 40.46900 20.80600
H  3.56900 42.28300 20.27300
H  5.89400 41.57200 21.73400
H  4.16100 39.39600 20.77700
H  5.43700 40.39400 19.99600
H  3.99800 40.14800 19.20200
H  6.09600 44.13700 22.12700
H  4.48600 44.29900 21.68300
H  5.04100 44.37100 19.56500
H  5.99600 42.86900 19.49300
H  6.67700 44.51100 19.83700
H  7.74800 42.37900 27.46200
H  7.38100 44.02100 27.57200
H  7.58700 43.16800 25.92000
H  2.85600 42.83300 30.44100
H  2.94400 39.38600 33.10900
H  2.42300 38.67200 31.67000
H  1.29000 39.53900 32.76500

