158

Mg 53.37000 23.79400 44.90200
C  50.86300 26.22900 43.89200
C  51.22600 21.46100 44.02400
C  55.95800 21.83100 44.65600
C  55.53500 26.56500 45.56200
N  51.43800 23.79700 43.66600
C  50.58100 24.88700 43.51800
C  49.26000 24.40200 43.12100
C  49.24100 22.85700 43.59400
C  50.74700 22.69400 43.76800
C  48.38000 22.58500 44.86600
C  48.91200 24.53800 41.62400
C  50.09700 24.92300 40.73600
H  49.77900 25.16400 39.20900
N  53.54300 21.80600 44.49600
C  52.52500 20.95500 44.11700
C  53.02700 19.61300 44.13100
C  54.44200 19.65000 44.43300
C  54.72800 21.12800 44.57400
C  52.12400 18.40400 43.86600
C  55.46000 18.50100 44.47400
O  55.09700 17.35500 44.12600
C  56.98700 18.72300 44.78100
N  55.50200 24.21600 44.81500
C  56.32600 23.15000 44.75900
C  57.74900 23.74300 44.91300
C  57.57800 25.28100 45.09800
C  56.14900 25.39200 45.24500
C  58.46800 23.10800 46.16200
C  58.22400 26.16400 43.98600
C  59.69600 25.78900 43.48800
N  53.17600 25.99300 44.92600
C  54.14300 26.90400 45.32700
C  53.38500 28.15500 45.55500
C  52.11000 27.93100 45.02600
C  52.05000 26.64100 44.54800
C  53.99800 29.38400 46.18900
C  50.83600 28.53900 44.73000
O  50.54100 29.72700 44.93500
C  49.90700 27.37500 44.05700
C  49.25400 27.87700 42.77400
O  49.88900 28.21600 41.79000
O  47.92000 27.83400 42.83500
C  47.26500 28.52900 41.70700
H  50.57200 20.59500 44.14600
H  56.84900 21.21700 44.50400
H  56.18000 27.41400 45.80100
H  48.56800 25.00300 43.71000
H  48.81900 22.27700 42.77300
H  48.79700 21.73700 45.41000
H  47.45000 22.30000 44.37500
H  48.09100 23.41100 45.51500
H  48.12300 25.26800 41.44500
H  48.35900 23.65700 41.29900
H  50.77000 24.06600 40.76300
H  50.50800 25.85200 41.13000
H  51.14400 18.34500 44.33800
H  52.61500 17.43500 43.95400
H  51.84300 18.46300 42.81400
H  57.47300 17.76200 44.95300
H  57.19800 19.44700 45.56700
H  57.40400 19.26000 43.92900
H  58.40300 23.48500 44.07900
H  58.10600 25.63700 45.98300
H  57.87800 22.33500 46.65600
H  58.72300 23.76600 46.99200
H  59.28900 22.49000 45.79900
H  58.20000 27.19400 44.34200
H  57.55400 26.01400 43.14000
H  60.28100 25.05500 44.04300
H  60.31600 26.67900 43.59400
H  59.69600 25.50900 42.43500
H  55.07400 29.48100 46.04600
H  53.79600 29.38600 47.26000
H  53.49400 30.23800 45.73700
H  49.04500 27.21300 44.70500
H  46.20500 28.71400 41.87600
H  47.25300 27.74200 40.95300
H  47.70700 29.39800 41.22000
Mg -8.86600 18.51800 42.39900
C  -5.34000 18.23500 42.10800
C  -8.43600 21.92800 41.76900
C  -12.00900 18.68300 42.02200
C  -8.94600 14.92700 42.25000
N  -7.04800 19.89900 42.03200
C  -5.76400 19.54800 41.95800
C  -4.87200 20.77300 41.73600
C  -5.81200 21.99200 41.81100
C  -7.15600 21.26300 41.96500
C  -5.54000 23.06300 42.94300
C  -4.09400 20.76800 40.39800
C  -4.87800 20.56800 39.09400
H  -4.26000 19.81200 37.92800
N  -10.05700 20.12600 42.12500
C  -9.76100 21.39500 41.78400
C  -10.99000 22.17000 41.41700
C  -12.02800 21.23600 41.62700
C  -11.39100 19.91400 41.91800
C  -10.96800 23.63000 41.06200
C  -13.42100 21.60500 41.44700
O  -13.73700 22.76600 41.25700
C  -14.66500 20.70000 41.44500
N  -10.19600 16.89600 41.85600
C  -11.52700 17.34400 42.01700
C  -12.55700 16.12700 41.83000
C  -11.52200 14.92200 41.76500
C  -10.13700 15.62600 41.88300
C  -13.68300 16.06700 43.02600
C  -11.56300 14.02400 40.50200
C  -11.86400 12.49500 40.76800
N  -7.49000 16.83100 42.29700
C  -7.66800 15.48500 42.36600
C  -6.33500 14.84800 42.51200
C  -5.35400 15.87900 42.29600
C  -6.17500 17.07000 42.23900
C  -6.09900 13.38800 42.70500
C  -3.95600 16.17900 42.23800
O  -2.93900 15.48500 42.32000
C  -3.88000 17.69300 42.07000
C  -3.14100 18.28900 43.28300
O  -2.12300 18.97900 43.22500
O  -3.74800 18.12300 44.51000
C  -3.16800 18.76600 45.68500
H  -8.32000 22.99300 41.55400
H  -13.08700 18.81500 41.91000
H  -9.05700 13.84300 42.31200
H  -4.18400 20.70200 42.57900
H  -5.77000 22.52400 40.86000
H  -6.45200 23.26700 43.50400
H  -5.10700 23.95300 42.48700
H  -4.75000 22.77800 43.63800
H  -3.28800 20.04600 40.53600
H  -3.56600 21.70300 40.21300
H  -4.97200 21.59600 38.74300
H  -5.88800 20.19300 39.26100
H  -10.94900 23.80400 39.98600
H  -10.00600 24.06900 41.32900
H  -11.80100 24.16000 41.52300
H  -14.63900 20.13100 42.37400
H  -14.76400 20.04000 40.58300
H  -15.47600 21.41700 41.31200
H  -12.97000 16.36200 40.84900
H  -11.55300 14.30800 42.66500
H  -13.40300 16.65300 43.90100
H  -13.77400 15.00000 43.23000
H  -14.66600 16.29000 42.61000
H  -10.65600 14.02600 39.89900
H  -12.23800 14.54300 39.82100
H  -12.17100 12.32100 41.79900
H  -10.97200 11.91300 40.53700
H  -12.59700 12.05100 40.09400
H  -6.99400 12.82600 42.43500
H  -5.89900 13.35700 43.77600
H  -5.16900 13.10800 42.21200
H  -3.39100 18.01900 41.15200
H  -3.77600 19.50200 46.21100
H  -2.18800 19.23500 45.58500
H  -3.21600 17.87800 46.31500

