158

Mg 40.53400 7.58700 29.94900
C  42.48000 8.91600 32.53700
C  38.39200 6.38000 32.29600
C  38.92200 5.92200 27.37000
C  43.16700 8.19400 27.76700
N  40.49500 7.61200 32.19400
C  41.26800 8.38500 33.03200
C  40.78300 8.28200 34.47900
C  39.56500 7.29500 34.33600
C  39.50900 6.95600 32.82300
C  39.75700 5.94000 35.19500
C  40.54700 9.69800 35.09200
C  39.61800 9.76100 36.37700
H  40.39400 9.96600 37.70400
N  38.81300 6.50900 29.78700
C  38.03000 6.05900 30.90400
C  36.82900 5.41400 30.43200
C  36.89100 5.37000 28.97400
C  38.25000 5.97200 28.65200
C  35.76700 4.96700 31.37000
C  35.84000 4.88900 28.00400
O  36.06500 4.89400 26.77700
C  34.55800 4.42200 28.53100
N  40.99200 7.19000 27.76900
C  40.19900 6.45000 26.97600
C  40.83400 6.32800 25.61700
C  42.15900 7.15400 25.67700
C  42.12700 7.62300 27.13500
C  40.97600 4.84200 25.09800
C  42.25800 8.37400 24.63600
C  41.42600 9.49400 24.99500
N  42.45600 8.30700 30.08500
C  43.42600 8.47100 29.10100
C  44.48500 9.21500 29.70300
C  44.20100 9.37800 31.07700
C  42.94100 8.84400 31.18700
C  45.76700 9.55700 28.88100
C  44.75300 9.83600 32.34500
O  45.82300 10.28800 32.60500
C  43.59300 9.53100 33.40200
C  44.11500 8.64000 34.51400
O  44.15600 7.40500 34.54000
O  44.50100 9.36300 35.60000
C  45.07800 8.78100 36.68600
H  37.69200 5.94700 33.01400
H  38.38200 5.39500 26.58000
H  43.90800 8.43500 27.00200
H  41.65700 7.84600 34.96400
H  38.59600 7.69900 34.62700
H  38.87100 5.65600 35.76300
H  40.71300 6.05200 35.70600
H  39.81400 5.11200 34.48900
H  40.18600 10.35100 34.29600
H  41.52600 10.13300 35.29200
H  39.19500 8.75900 36.45000
H  38.88600 10.56900 36.37300
H  35.01300 5.73900 31.53100
H  36.27000 4.67400 32.29100
H  35.21500 4.10000 31.00700
H  34.15800 5.15800 29.22800
H  34.69200 3.44300 28.99200
H  33.88000 4.28500 27.68900
H  40.11500 6.95500 25.08900
H  42.98000 6.45200 25.52500
H  41.87600 4.47300 24.60600
H  40.16900 4.72800 24.37400
H  40.65100 4.32100 25.99900
H  41.86300 7.88600 23.74400
H  43.30300 8.66000 24.51600
H  40.66200 9.23900 25.73000
H  40.73400 9.60800 24.16100
H  42.03200 10.37200 25.22100
H  46.63300 9.42000 29.52900
H  45.69000 10.62600 28.68500
H  45.82500 8.87300 28.03400
H  43.28800 10.48500 33.83200
H  45.92500 8.21500 36.29600
H  44.33900 8.07200 37.05900
H  45.33400 9.38800 37.55400
Mg 9.50200 47.31900 25.85600
C  7.38700 47.02400 28.48900
C  12.05100 48.12300 27.95600
C  11.48500 47.71600 23.14900
C  6.76700 46.99400 23.54300
N  9.75700 47.56900 27.94600
C  8.72900 47.28400 28.88700
C  9.23100 47.57700 30.35100
C  10.75000 47.83400 30.15800
C  10.87900 47.82300 28.58000
C  11.21700 49.20700 30.81600
C  8.80900 46.46200 31.29300
C  9.80300 46.06500 32.38200
H  9.23600 45.43900 33.68500
N  11.50800 47.89500 25.55300
C  12.41100 48.18300 26.56700
C  13.71100 48.42500 25.99800
C  13.57700 48.21200 24.52300
C  12.14500 47.91900 24.34500
C  14.97700 48.62700 26.84000
C  14.68600 48.23400 23.31800
O  14.40100 48.09000 22.10000
C  16.15700 48.46600 23.72000
N  9.15600 47.48700 23.58800
C  10.17100 47.61300 22.74200
C  9.77700 47.47600 21.27900
C  8.15000 47.37800 21.41100
C  8.03400 47.25400 22.94000
C  10.19100 48.72500 20.33300
C  7.49900 46.18300 20.65700
C  6.84500 46.65100 19.37200
N  7.48200 47.05700 25.91000
C  6.47000 46.94000 24.96900
C  5.20100 46.84400 25.58500
C  5.51200 46.83300 26.96600
C  6.91000 46.93000 27.13800
C  3.83400 46.77300 24.87100
C  4.91600 46.71700 28.30000
O  3.75800 46.47200 28.54700
C  6.12400 46.96400 29.31600
C  6.01900 45.82500 30.32800
O  6.22600 44.68500 30.08500
O  5.54100 46.36400 31.48300
C  5.18400 45.35700 32.51000
H  12.89200 48.19700 28.64800
H  12.11400 47.66600 22.25900
H  5.85800 47.03500 22.93800
H  8.77000 48.52100 30.64200
H  11.36200 47.06500 30.62900
H  10.49400 49.69800 31.46700
H  11.49600 49.83000 29.96600
H  11.98500 49.17000 31.58800
H  8.66300 45.60000 30.64200
H  7.91000 46.73300 31.84600
H  10.42000 46.92200 32.65100
H  10.47600 45.25300 32.10800
H  14.78800 48.47600 27.90300
H  15.31300 49.62200 26.54700
H  15.78400 47.97300 26.51100
H  16.24600 49.35600 24.34200
H  16.62000 48.59000 22.74100
H  16.59000 47.49500 23.96000
H  10.25900 46.54300 20.98500
H  7.69500 48.34400 21.19300
H  10.44600 49.55500 20.99300
H  9.39600 49.07200 19.67300
H  11.04500 48.56500 19.67500
H  6.77500 45.69700 21.31100
H  8.21800 45.44500 20.29900
H  7.22200 46.05300 18.54200
H  7.06300 47.70400 19.19300
H  5.75800 46.58100 19.34800
H  3.21000 46.16800 25.52900
H  4.02400 46.23200 23.94400
H  3.48000 47.78300 24.66900
H  5.90600 47.95300 29.71800
H  4.73900 44.42400 32.16700
H  4.53600 45.87800 33.21500
H  6.17400 45.18800 32.93400

