158

Mg -2.50700 17.25800 27.70700
C  -2.64600 15.37100 30.59400
C  -3.05300 20.09700 29.62900
C  -2.36100 19.18800 24.84300
C  -2.19300 14.37800 25.69200
N  -2.81500 17.67100 29.87400
C  -2.76300 16.77000 30.92900
C  -2.63500 17.45300 32.29900
C  -2.95100 18.93800 31.95700
C  -2.96300 18.91400 30.41000
C  -4.24200 19.59100 32.62300
C  -1.29700 17.18800 33.13200
C  -0.95800 18.03200 34.41200
H  -0.77300 17.40700 35.82800
N  -2.69800 19.31000 27.22600
C  -2.86200 20.29200 28.21300
C  -2.65700 21.60900 27.54100
C  -2.57000 21.40200 26.17800
C  -2.60000 19.86900 26.00900
C  -2.49300 22.92600 28.27100
C  -2.28600 22.41600 25.01000
O  -2.13200 22.13600 23.82500
C  -2.08500 23.76500 25.34800
N  -2.23500 16.80900 25.59700
C  -2.24700 17.80300 24.63100
C  -2.09900 17.16900 23.30200
C  -1.56400 15.73700 23.61400
C  -2.12400 15.59600 25.01800
C  -3.42500 17.21900 22.40800
C  -0.04300 15.40500 23.52200
C  0.97800 16.39100 24.10400
N  -2.51300 15.29700 28.05200
C  -2.37100 14.20400 27.14900
C  -2.43700 12.98500 27.94400
C  -2.40800 13.36100 29.23400
C  -2.49100 14.78900 29.26300
C  -2.38800 11.60600 27.43800
C  -2.44300 12.85800 30.60700
O  -2.68400 11.71300 30.97200
C  -2.50900 14.10200 31.54400
C  -1.24700 13.94600 32.34300
O  -0.10800 14.07400 31.92400
O  -1.58600 13.60700 33.66300
C  -0.45300 13.16700 34.41200
H  -3.19200 20.97400 30.26500
H  -2.30900 19.80100 23.94100
H  -2.11800 13.51000 25.03400
H  -3.38500 17.06200 32.98700
H  -2.15400 19.58600 32.32200
H  -4.61600 18.86100 33.34100
H  -5.05600 19.80800 31.93200
H  -4.00900 20.44100 33.26500
H  -0.53600 17.33600 32.36600
H  -1.08200 16.15800 33.42000
H  -1.77400 18.75500 34.42200
H  -0.07500 18.58900 34.10100
H  -3.26800 23.59100 27.89100
H  -1.56000 23.44500 28.05100
H  -2.55000 22.71700 29.33900
H  -1.86600 24.45900 24.53700
H  -1.23900 23.71000 26.03200
H  -2.99700 24.11500 25.83000
H  -1.35800 17.65600 22.66700
H  -2.13900 15.02600 23.02200
H  -4.09400 17.91300 22.91700
H  -3.93700 16.25800 22.46000
H  -3.19800 17.56200 21.39900
H  0.21300 15.43800 22.46300
H  0.17100 14.39100 23.85900
H  0.47500 17.20500 24.62600
H  1.54600 16.85000 23.29500
H  1.69800 15.85200 24.71900
H  -1.91900 11.62700 26.45400
H  -3.40600 11.24800 27.27900
H  -1.97800 11.02900 28.26600
H  -3.41900 13.93500 32.11900
H  -0.69500 12.54100 35.27100
H  -0.10100 14.11900 34.80900
H  0.37300 12.73400 33.84800
Mg 8.40000 3.79100 27.76500
C  9.72800 2.33600 30.76400
C  6.51800 5.84100 29.96400
C  6.77400 4.93000 25.15700
C  9.43400 1.01300 26.02100
N  8.21600 4.11700 30.08000
C  8.90800 3.41100 31.05700
C  8.75200 4.08000 32.46800
C  7.66500 5.11300 32.10300
C  7.40800 5.00700 30.65400
C  6.47100 5.20400 33.03900
C  10.06400 4.67800 32.90900
C  10.01000 5.26500 34.30500
H  10.96100 4.81400 35.44000
N  6.88800 5.24700 27.62600
C  6.21000 5.94000 28.55700
C  5.40200 6.92700 27.97800
C  5.45500 6.74400 26.58700
C  6.36200 5.55100 26.40700
C  4.57500 7.96700 28.75300
C  4.94700 7.56200 25.48000
O  5.08500 7.32500 24.30600
C  4.20000 8.85800 25.73200
N  8.27500 3.20100 25.86100
C  7.63500 3.87900 24.91400
C  7.57000 3.17000 23.54600
C  8.25100 1.83900 23.92600
C  8.75100 2.01900 25.36300
C  6.22900 3.16300 22.81000
C  9.37900 1.51700 22.90600
C  9.11300 0.23900 22.22300
N  9.43700 2.03600 28.20400
C  9.76200 0.97300 27.44700
C  10.51800 -0.03900 28.17700
C  10.57500 0.48900 29.51200
C  9.89200 1.73000 29.46500
C  10.90600 -1.42700 27.65600
C  10.97800 0.17300 30.81100
O  11.63200 -0.75300 31.27100
C  10.51700 1.45600 31.69100
C  9.72100 0.91600 32.81500
O  8.60100 0.45900 32.77100
O  10.46600 1.16600 33.97800
C  9.81600 0.87100 35.23400
H  5.94100 6.46200 30.65300
H  6.40100 5.22300 24.17300
H  9.67600 0.14800 25.40000
H  8.35600 3.40100 33.22400
H  8.14500 6.08600 32.20700
H  6.16800 4.22400 33.40800
H  5.55800 5.33900 32.46100
H  6.45800 6.00600 33.77700
H  10.40300 5.38400 32.15000
H  10.85700 3.94000 32.79300
H  8.98300 5.15300 34.65200
H  10.13600 6.34700 34.28200
H  5.18800 8.86800 28.72200
H  4.53100 7.60900 29.78200
H  3.59600 8.11200 28.29600
H  4.22700 9.45500 24.82100
H  4.69800 9.41900 26.52300
H  3.21900 8.70800 26.18300
H  8.16700 3.68700 22.79400
H  7.62700 0.94600 23.97400
H  5.40700 3.45600 23.46300
H  6.05600 2.11300 22.57500
H  6.28900 3.76100 21.90100
H  10.38900 1.54300 23.31300
H  9.52600 2.27100 22.13400
H  9.32600 0.40700 21.16700
H  8.15100 -0.24900 22.37600
H  9.82600 -0.50800 22.57400
H  10.04200 -1.86700 27.15900
H  11.17700 -2.04600 28.51100
H  11.83800 -1.37200 27.09200
H  11.41200 1.94900 32.06900
H  10.65800 0.67800 35.89800
H  9.14700 0.01500 35.13900
H  9.25700 1.79900 35.35400

