158

Mg 48.24600 34.65600 27.14100
C  46.16200 33.70100 29.63100
C  49.26100 37.41300 28.88200
C  49.80100 35.67500 24.36500
C  47.10500 31.73200 25.21600
N  47.84200 35.39600 29.03200
C  46.99900 34.75700 29.92800
C  47.14700 35.28900 31.32100
C  47.70100 36.77500 31.04100
C  48.34600 36.56800 29.58800
C  46.57200 37.88400 31.01400
C  48.11200 34.37700 32.09600
C  48.49000 34.94700 33.43100
H  47.49900 35.85200 34.20300
N  49.38100 36.37000 26.70600
C  49.71400 37.36800 27.53800
C  50.51300 38.36900 26.80900
C  50.77200 37.84400 25.48900
C  49.98400 36.59100 25.43800
C  50.99700 39.60900 27.43000
C  51.60300 38.49800 24.34100
O  51.67300 38.03200 23.20500
C  52.42900 39.72500 24.62300
N  48.37900 33.82200 25.08000
C  49.14900 34.48500 24.17600
C  49.03700 33.74000 22.75000
C  48.46400 32.32200 23.14700
C  47.95700 32.58100 24.60000
C  48.25400 34.52000 21.70000
C  49.63400 31.18200 23.08100
C  49.26800 29.89400 22.34000
N  46.92100 33.02400 27.30500
C  46.56200 31.94300 26.50800
C  45.51800 31.12100 27.18700
C  45.27300 31.86400 28.33200
C  46.20700 32.91900 28.39900
C  44.82500 29.85300 26.63700
C  44.41700 31.96400 29.48300
O  43.42700 31.33200 29.82600
C  44.98300 33.05700 30.37100
C  45.49200 32.38500 31.61400
O  46.37100 31.52100 31.57200
O  44.67500 32.82300 32.61700
C  45.00800 32.14100 33.83800
H  49.63900 38.15100 29.59300
H  50.40900 35.85100 23.47500
H  46.74300 30.86200 24.66400
H  46.17900 35.36900 31.81600
H  48.58000 37.06500 31.61700
H  45.68900 37.28500 31.23900
H  46.54300 38.41600 30.06300
H  46.86400 38.63200 31.75000
H  48.99500 34.49100 31.46700
H  47.86100 33.31700 32.11500
H  49.37700 35.56700 33.29900
H  48.82400 34.13700 34.08000
H  52.08000 39.60000 27.55200
H  50.69500 39.74300 28.46900
H  50.60600 40.40400 26.79600
H  53.18900 39.46400 25.36000
H  51.92500 40.61700 24.99500
H  53.00700 39.87600 23.71100
H  50.06600 33.66600 22.39900
H  47.64700 32.04000 22.48400
H  47.86100 35.34600 22.29300
H  47.50000 33.92300 21.18700
H  48.99400 34.87600 20.98400
H  49.83100 30.90000 24.11500
H  50.61900 31.47800 22.72000
H  48.30000 29.95800 21.84200
H  49.32000 29.00000 22.96100
H  49.88400 29.67100 21.46900
H  45.51400 29.02500 26.46800
H  44.51900 30.30300 25.69300
H  43.89200 29.54300 27.11000
H  44.29600 33.83000 30.71500
H  45.16600 32.86500 34.63800
H  45.93200 31.56300 33.80700
H  44.18500 31.50800 34.17000
Mg -4.24000 25.52700 26.89100
C  -2.94000 27.01500 29.76700
C  -6.24400 23.53700 28.84400
C  -4.84600 23.70900 24.04300
C  -1.91400 27.30200 25.04400
N  -4.56200 25.33700 29.12100
C  -3.87000 25.97600 30.13400
C  -4.49200 25.61700 31.53400
C  -5.35100 24.29600 31.20900
C  -5.40700 24.35500 29.65400
C  -4.67100 22.91100 31.71200
C  -5.45500 26.80000 32.01200
C  -5.60400 26.91300 33.54800
H  -5.31200 25.75400 34.59500
N  -5.41400 24.04200 26.51400
C  -6.22700 23.36800 27.43800
C  -7.16600 22.72600 26.63700
C  -6.84300 22.72600 25.29900
C  -5.60500 23.52300 25.23000
C  -8.20700 21.84200 27.27700
C  -7.57500 22.10700 24.13600
O  -7.25500 22.23100 23.01900
C  -8.91300 21.28600 24.29700
N  -3.45500 25.46800 24.88700
C  -3.77800 24.63900 23.89200
C  -2.94000 24.84700 22.59200
C  -2.18000 26.20300 22.88200
C  -2.54000 26.34500 24.38500
C  -1.99000 23.73800 22.20300
C  -2.79300 27.36700 22.02200
C  -1.95200 28.46100 21.48400
N  -2.78900 26.92500 27.25400
C  -1.99700 27.63700 26.43000
C  -1.25400 28.61700 27.12800
C  -1.54700 28.34200 28.44600
C  -2.51600 27.33900 28.48000
C  -0.27700 29.52800 26.54200
C  -1.37000 28.79300 29.79700
O  -0.61600 29.69900 30.18200
C  -2.18300 27.89400 30.74100
C  -1.42400 27.39300 31.83900
O  -0.42800 26.65200 31.83500
O  -1.94900 27.84500 33.00700
C  -1.44900 27.19500 34.22400
H  -6.75200 22.84300 29.51700
H  -5.02600 23.05800 23.18600
H  -1.14400 27.86500 24.51100
H  -3.68100 25.25900 32.16900
H  -6.33900 24.34300 31.66500
H  -4.23700 22.92800 32.71200
H  -3.92600 22.57800 30.98900
H  -5.39000 22.09200 31.69600
H  -6.46700 26.70800 31.61700
H  -5.15000 27.78100 31.64900
H  -6.60000 27.30900 33.75000
H  -4.95000 27.72300 33.87200
H  -7.88300 20.83100 27.02900
H  -9.13700 22.04500 26.74600
H  -8.35500 22.05100 28.33600
H  -9.74900 21.88800 24.65400
H  -8.74000 20.50500 25.03700
H  -9.16600 20.83200 23.33900
H  -3.68400 24.92400 21.79900
H  -1.09100 26.14900 22.87000
H  -1.01400 24.17700 22.41000
H  -2.12000 23.55300 21.13700
H  -2.17300 22.92400 22.90400
H  -3.66000 27.80400 22.51700
H  -3.19600 26.89700 21.12500
H  -0.92400 28.24800 21.77900
H  -2.16900 29.49400 21.75700
H  -1.91300 28.39700 20.39700
H  -0.36400 29.60800 25.45900
H  0.72800 29.22900 26.84100
H  -0.41100 30.52600 26.95900
H  -2.87800 28.63000 31.14500
H  -0.39400 27.39800 34.41000
H  -1.67600 26.13400 34.12500
H  -1.94700 27.62200 35.09500

