158

Mg 54.42900 24.45100 44.39800
C  51.70000 26.46500 43.40900
C  52.76900 21.70600 43.24400
C  57.32300 22.64400 44.55400
C  56.14900 27.45100 44.98400
N  52.43200 24.14100 43.46000
C  51.50100 25.07800 43.17200
C  50.31400 24.41200 42.40600
C  50.49700 22.91600 42.82500
C  51.96000 22.89700 43.26900
C  49.55300 22.39000 43.98900
C  50.32200 24.65800 40.90000
C  48.86700 24.51700 40.28300
H  48.80400 24.24200 38.74000
N  54.94300 22.43000 44.09800
C  54.08500 21.47000 43.65500
C  54.77400 20.20400 43.62600
C  56.12500 20.49000 44.00900
C  56.17300 21.89200 44.22800
C  54.09000 18.82800 43.20600
C  57.31200 19.50900 43.87300
O  57.10500 18.34100 43.71300
C  58.71200 19.87500 43.59100
N  56.48600 24.96800 44.44700
C  57.47100 24.01600 44.58900
C  58.83100 24.74000 44.80800
C  58.43300 26.19300 45.10700
C  56.90100 26.19000 44.86300
C  59.85500 24.21800 45.82300
C  59.35000 27.25500 44.44500
C  59.83300 28.43300 45.32000
N  54.03800 26.56500 44.39500
C  54.77000 27.62400 44.73000
C  54.01400 28.83200 44.64900
C  52.75600 28.41200 44.17000
C  52.83900 27.04200 43.97800
C  54.44800 30.24900 45.18000
C  51.47300 28.88000 43.92300
O  50.89000 29.87800 44.17300
C  50.83000 27.71600 43.12000
C  50.74800 28.07400 41.67800
O  51.66500 28.46800 40.92100
O  49.44400 27.99700 41.26300
C  49.17000 28.21700 39.77700
H  52.17500 20.82800 42.98300
H  58.25600 22.08300 44.63200
H  56.79800 28.30400 45.18700
H  49.35800 24.80600 42.75300
H  50.42600 22.29300 41.93300
H  48.59000 22.89200 44.07900
H  50.09200 22.60100 44.91300
H  49.36800 21.32100 43.87600
H  50.87100 23.90300 40.33800
H  50.64300 25.69500 40.79400
H  48.45800 25.52500 40.34600
H  48.25400 23.85600 40.89600
H  54.42300 18.43100 42.24700
H  53.00200 18.83700 43.13800
H  54.44100 18.07900 43.91500
H  58.84800 20.68700 42.87700
H  59.08100 18.95200 43.14300
H  59.25500 20.09500 44.51000
H  59.35400 24.74200 43.85200
H  58.49000 26.43100 46.16900
H  59.33900 24.06400 46.77100
H  60.48400 25.07300 46.07200
H  60.41200 23.35400 45.46100
H  58.70700 27.61500 43.64200
H  60.22100 26.74100 44.03900
H  60.92000 28.49200 45.37500
H  59.45400 28.27900 46.33000
H  59.46600 29.36500 44.89200
H  53.84200 31.07800 44.81300
H  55.47100 30.54200 44.94400
H  54.43200 30.28300 46.26900
H  49.82200 27.54200 43.49500
H  48.93700 29.27300 39.91100
H  48.31400 27.62900 39.44600
H  50.06900 28.15200 39.16400
Mg 48.78800 35.08500 26.47200
C  46.84500 33.51100 28.96900
C  48.91100 37.85200 28.60200
C  50.12100 36.72800 23.95500
C  48.24200 32.30800 24.33700
N  48.06800 35.52200 28.62200
C  47.33000 34.72100 29.38300
C  47.34600 35.24200 30.79800
C  47.68900 36.68700 30.63800
C  48.31000 36.75000 29.22200
C  46.45900 37.69700 30.88800
C  48.44700 34.41800 31.62300
C  48.13600 33.94900 33.07100
H  47.72900 34.97000 34.11700
N  49.36400 37.02800 26.30500
C  49.31700 38.05700 27.24900
C  49.91200 39.29300 26.66100
C  50.27700 38.95700 25.31200
C  49.93300 37.54500 25.12700
C  50.07400 40.58400 27.45400
C  50.91900 39.79300 24.26600
O  51.29600 39.38400 23.16700
C  51.35900 41.16900 24.68000
N  48.99500 34.63100 24.32800
C  49.78800 35.42000 23.63700
C  50.16300 34.82700 22.26600
C  49.68700 33.29400 22.45200
C  48.94400 33.41600 23.78700
C  49.48400 35.47600 21.11300
C  50.71500 32.15700 22.61000
C  50.40200 30.75700 22.05500
N  47.78800 33.27700 26.55700
C  47.65100 32.22800 25.65700
C  46.82700 31.14300 26.20400
C  46.45100 31.63300 27.48900
C  47.08000 32.93300 27.69900
C  46.34700 29.87000 25.56600
C  45.70000 31.33800 28.65300
O  44.94600 30.42500 28.94600
C  45.72700 32.61700 29.47600
C  45.79600 32.34100 30.95200
O  46.52500 31.54500 31.45500
O  44.82700 32.98500 31.54500
C  44.64500 32.81900 32.99200
H  48.97800 38.79000 29.15600
H  50.61800 37.12700 23.06800
H  48.09400 31.41900 23.72000
H  46.41400 35.10200 31.34500
H  48.58300 36.92900 31.21200
H  46.34300 38.42300 30.08300
H  46.66700 38.39000 31.70300
H  45.50800 37.19700 31.07200
H  49.44000 34.86700 31.62000
H  48.63300 33.46700 31.12500
H  49.01500 33.64800 33.64100
H  47.44000 33.11500 33.16800
H  49.28900 40.46900 28.20100
H  49.84900 41.39400 26.75900
H  51.13400 40.72800 27.66600
H  50.62300 41.97200 24.73200
H  52.06300 41.58800 23.96000
H  51.84600 41.07800 25.65100
H  51.22000 34.87800 22.00700
H  48.90900 32.97600 21.75800
H  48.64600 36.07800 21.46600
H  49.15100 34.74500 20.37600
H  50.24300 36.10900 20.65200
H  50.91100 31.98000 23.66700
H  51.71000 32.47500 22.29800
H  50.42100 30.09500 22.92000
H  51.12500 30.42200 21.31100
H  49.37900 30.66900 21.68900
H  45.27000 29.92000 25.40400
H  46.60100 29.00800 26.18400
H  46.84800 29.89500 24.59900
H  44.82600 33.18000 29.23200
H  43.75500 32.25000 33.26200
H  44.58200 33.82100 33.41500
H  45.48500 32.24200 33.37900

