158

Mg 25.35400 1.56500 29.24800
C  27.39300 1.03800 31.97200
C  22.59500 1.72200 31.47400
C  23.26900 1.67200 26.58200
C  28.00800 0.92200 27.09700
N  25.08900 1.38700 31.44800
C  26.10800 1.33600 32.38600
C  25.60900 1.48100 33.85900
C  24.01700 1.43100 33.58200
C  23.86400 1.57900 32.06700
C  23.45000 0.08300 34.13100
C  26.25900 2.57900 34.71200
C  26.46300 2.21900 36.21500
H  26.19800 3.36700 37.26000
N  23.24400 1.68100 29.05000
C  22.26500 1.69800 30.06700
C  20.96900 1.79400 29.51900
C  21.12600 1.61100 28.09400
C  22.59800 1.65200 27.87500
C  19.79700 1.94900 30.33500
C  20.07100 1.39400 27.01100
O  20.34700 1.34900 25.76900
C  18.55800 1.16200 27.45200
N  25.58100 1.43900 27.14100
C  24.60500 1.61500 26.27300
C  25.06000 1.53500 24.81400
C  26.66900 1.51100 24.98600
C  26.77000 1.31600 26.52300
C  24.65900 0.29700 24.02100
C  27.22000 2.83500 24.44000
C  26.88700 4.01700 25.33900
N  27.28900 1.00300 29.44500
C  28.29700 0.77000 28.47400
C  29.61300 0.42400 29.17000
C  29.32500 0.62600 30.56300
C  27.89800 0.94300 30.66700
C  30.99700 0.14300 28.58900
C  29.84100 0.53900 31.97000
O  30.97500 0.33700 32.34300
C  28.64700 0.88100 32.90900
C  28.53900 -0.23800 33.95200
O  27.94500 -1.29700 33.81200
O  29.08900 0.19500 35.16400
C  28.94000 -0.72700 36.28600
H  21.88700 1.91900 32.28100
H  22.58400 1.80100 25.74200
H  28.86300 0.79700 26.43000
H  25.87600 0.51600 34.29000
H  23.49500 2.30000 33.98200
H  22.58300 0.40500 34.70900
H  24.02500 -0.63300 34.71800
H  23.09000 -0.41300 33.23000
H  25.62700 3.46200 34.80300
H  27.14900 2.98500 34.23300
H  27.51900 1.94800 36.17900
H  25.99200 1.26900 36.46700
H  20.04800 2.44400 31.27300
H  19.43300 1.03400 30.80200
H  18.90000 2.38200 29.89400
H  18.58100 0.61700 28.39500
H  18.02100 0.72000 26.61200
H  18.15600 2.16700 27.58000
H  24.72300 2.39100 24.23000
H  27.14400 0.63100 24.55200
H  25.52700 -0.21600 23.60700
H  24.07900 0.65900 23.17100
H  24.07700 -0.38100 24.64400
H  26.63800 3.14200 23.57100
H  28.25500 2.86400 24.10100
H  26.80300 3.86100 26.41500
H  26.00600 4.58300 25.03600
H  27.77600 4.64500 25.27600
H  31.22800 0.66700 27.66100
H  30.97400 -0.93900 28.45900
H  31.73400 0.40000 29.34900
H  29.14000 1.76400 33.31400
H  28.03900 -0.40500 36.80800
H  29.76700 -0.53900 36.97100
H  28.94800 -1.77600 35.99100
Mg 17.02700 52.82200 26.39600
C  19.27600 51.53500 28.76800
C  14.75800 53.19300 28.93200
C  14.77500 53.81100 24.11700
C  19.18600 51.87100 23.83400
N  17.05500 52.46300 28.48600
C  18.08700 51.97300 29.31300
C  17.79300 52.28000 30.75900
C  16.23800 52.35000 30.77600
C  16.01400 52.69700 29.29500
C  15.52500 51.05300 31.21100
C  18.58000 53.55700 31.24100
C  19.03800 53.54700 32.70800
H  18.20300 52.83200 33.75900
N  14.98900 53.44600 26.49000
C  14.24700 53.52800 27.64500
C  13.06500 54.24600 27.33200
C  12.97300 54.28900 25.88100
C  14.27700 53.85900 25.41900
C  12.15900 54.75800 28.38000
C  11.79600 54.77800 24.94300
O  11.80400 54.62700 23.73600
C  10.69900 55.56500 25.46500
N  17.09100 52.93400 24.29600
C  15.96300 53.30300 23.58100
C  16.18700 53.20100 22.05200
C  17.69700 52.68300 21.96800
C  18.03400 52.53700 23.41300
C  15.22000 52.35900 21.27300
C  18.56200 53.73700 21.16900
C  19.32700 54.82200 22.02400
N  18.92300 51.93100 26.24200
C  19.66400 51.56400 25.12600
C  20.80200 50.73000 25.66700
C  20.74700 50.88700 27.03600
C  19.55500 51.48800 27.33300
C  21.83100 50.14800 24.84000
C  21.41000 50.45300 28.27500
O  22.40500 49.82800 28.46300
C  20.48400 51.06700 29.51400
C  20.20400 49.96600 30.47500
O  19.32900 49.09400 30.30900
O  20.90000 50.10700 31.62400
C  20.58900 49.17800 32.68400
H  14.03000 53.40000 29.71900
H  14.04900 54.07200 23.34400
H  19.85900 51.48100 23.06800
H  18.07000 51.34400 31.24300
H  15.94000 53.08000 31.52800
H  15.42400 51.13700 32.29300
H  16.05200 50.11900 31.01600
H  14.55800 51.04900 30.70800
H  17.96800 54.41500 30.96000
H  19.49100 53.58700 30.64300
H  19.14100 54.55900 33.09900
H  20.06300 53.21000 32.86000
H  12.59600 54.64600 29.37200
H  11.11800 54.43600 28.39000
H  12.01300 55.81700 28.16500
H  10.23100 54.72400 25.97700
H  10.03500 55.87000 24.65600
H  11.00900 56.32500 26.18200
H  16.09800 54.20500 21.63900
H  17.72800 51.69500 21.50800
H  15.73400 51.63000 20.64700
H  14.61800 52.93900 20.57400
H  14.57800 51.76400 21.92300
H  17.99800 54.33300 20.45200
H  19.38700 53.28600 20.61600
H  19.81500 54.39900 22.90200
H  18.81900 55.69000 22.44400
H  20.11000 55.18100 21.35700
H  22.30700 51.03800 24.42700
H  21.48400 49.34900 24.18600
H  22.64300 49.69200 25.40700
H  21.02300 51.86600 30.02200
H  19.61600 49.34800 33.14400
H  21.36200 49.24500 33.45000
H  20.61000 48.17400 32.26000

