158

Mg -0.25000 6.74400 26.06000
C  0.58800 8.52100 28.80900
C  -0.22300 3.85700 27.94000
C  -0.88500 4.92900 23.20100
C  0.33100 9.58300 24.02200
N  0.03900 6.20800 28.09700
C  0.31500 7.18300 29.05000
C  0.26800 6.58800 30.51200
C  0.03400 5.05600 30.22900
C  -0.12200 4.99500 28.65100
C  1.16000 4.19200 30.66000
C  -0.82500 7.23100 31.37800
C  -0.55400 7.22000 32.95700
H  0.77300 6.86200 33.55400
N  -0.52500 4.66800 25.64300
C  -0.33800 3.65300 26.53500
C  -0.45100 2.34100 25.86900
C  -0.79500 2.66100 24.51000
C  -0.70400 4.13000 24.36900
C  -0.37500 1.07500 26.67400
C  -1.17300 1.68600 23.40300
O  -1.51600 2.10900 22.31100
C  -0.95900 0.26800 23.78900
N  -0.24000 7.14800 23.95100
C  -0.74200 6.29800 23.04700
C  -0.91900 6.96200 21.70100
C  -0.36900 8.34800 21.90200
C  -0.02600 8.37100 23.38300
C  -0.22100 6.22100 20.49700
C  -1.31800 9.52200 21.47100
C  -2.54200 9.87600 22.44400
N  0.33000 8.71600 26.27800
C  0.53700 9.75300 25.39900
C  0.89800 10.91100 26.19000
C  0.91000 10.48400 27.47600
C  0.57400 9.13800 27.51400
C  1.29200 12.26400 25.64800
C  1.15900 10.88100 28.84400
O  1.70800 11.89000 29.29500
C  0.91000 9.69800 29.74400
C  2.01700 9.54300 30.77000
O  3.02200 8.85700 30.70100
O  1.74300 10.19900 31.92400
C  2.89500 10.58800 32.77000
H  -0.31000 2.99300 28.60200
H  -1.05400 4.32800 22.30500
H  0.45400 10.52000 23.47400
H  1.23300 6.87000 30.93100
H  -0.89300 4.70100 30.67900
H  1.90100 4.76700 31.21500
H  1.55300 3.72200 29.75800
H  0.88700 3.40400 31.36100
H  -1.61600 6.49900 31.21300
H  -1.22800 8.22000 31.15800
H  -1.34400 6.56900 33.33100
H  -0.74300 8.22000 33.34600
H  0.31000 0.39700 26.16600
H  -1.37400 0.63800 26.67500
H  -0.00500 1.20700 27.69000
H  -1.70000 0.02100 24.54900
H  0.08600 0.11500 24.06100
H  -1.14100 -0.43700 22.97700
H  -1.98600 7.15000 21.58700
H  0.59000 8.58900 21.44400
H  0.59700 5.57000 20.80500
H  0.25100 6.97200 19.86400
H  -0.90300 5.75300 19.78700
H  -1.70000 9.20300 20.50100
H  -0.71000 10.41500 21.32700
H  -2.47300 9.30700 23.37100
H  -3.42000 9.66100 21.83600
H  -2.43500 10.94900 22.60200
H  0.42600 12.81900 25.28700
H  2.03100 12.24200 24.84700
H  1.78900 12.94400 26.34000
H  0.03500 9.92300 30.35300
H  3.39400 9.79100 33.32300
H  2.60000 11.31100 33.53000
H  3.67000 11.01200 32.13100
Mg 25.26000 0.55900 29.58700
C  27.46000 0.15900 32.36000
C  22.61900 0.54200 31.87600
C  23.23700 0.39700 27.02800
C  27.94700 -0.30700 27.43800
N  25.08300 0.35400 31.82600
C  26.08600 0.44400 32.73600
C  25.54900 0.60800 34.24400
C  23.98700 0.48000 33.98800
C  23.85100 0.38100 32.48800
C  23.33900 -0.75400 34.79300
C  26.01900 1.90800 34.92300
C  26.92600 1.85500 36.12400
H  26.56800 2.83500 37.15900
N  23.26500 0.60300 29.48600
C  22.36500 0.62200 30.51300
C  21.03600 0.75700 29.92900
C  21.16900 0.84100 28.54700
C  22.58100 0.56800 28.30800
C  19.73100 0.91800 30.65600
C  20.10300 1.00000 27.41000
O  20.44200 1.01500 26.27000
C  18.53200 1.22400 27.65600
N  25.54400 -0.11000 27.46700
C  24.54100 0.03800 26.62400
C  25.04800 -0.09900 25.20200
C  26.59900 -0.18000 25.23500
C  26.75900 -0.16600 26.75500
C  24.32500 -1.21600 24.30900
C  27.36200 0.97800 24.53400
C  28.37300 0.52500 23.48900
N  27.28800 0.02500 29.71700
C  28.25400 -0.23500 28.78300
C  29.55100 -0.40900 29.46200
C  29.22500 -0.27500 30.85000
C  27.83800 -0.04300 31.00400
C  30.87200 -0.57200 28.78600
C  29.84400 -0.23300 32.14000
O  31.00100 -0.43300 32.44900
C  28.69900 0.11500 33.16900
C  28.64000 -0.91700 34.23300
O  28.11000 -2.03100 34.08400
O  29.43700 -0.60000 35.32200
C  29.50300 -1.59000 36.43700
H  21.69900 0.55200 32.46500
H  22.61700 0.50500 26.13500
H  28.78500 -0.60400 26.80400
H  26.03200 -0.27300 34.66700
H  23.42900 1.29500 34.44800
H  24.04600 -1.55600 35.00500
H  22.50200 -1.20500 34.25800
H  22.80700 -0.18500 35.55500
H  25.10500 2.39100 35.26700
H  26.55100 2.45600 34.14500
H  27.94300 1.98900 35.75600
H  26.72900 0.89800 36.60800
H  18.98800 0.23000 30.25200
H  19.25500 1.87900 30.46300
H  19.72800 0.85500 31.74400
H  17.97500 1.39800 26.73500
H  18.32100 1.94000 28.45100
H  18.28300 0.20800 27.96100
H  24.82700 0.89600 24.81500
H  26.94000 -1.12200 24.80600
H  23.48400 -1.74500 24.75700
H  25.06700 -1.96600 24.03600
H  23.86000 -0.67800 23.48400
H  27.89600 1.52200 25.31300
H  26.72500 1.75800 24.11900
H  28.46400 -0.56100 23.48300
H  29.27000 1.08500 23.75600
H  27.89600 0.88300 22.57700
H  31.61400 0.08300 29.24300
H  30.72000 -0.21800 27.76600
H  31.28000 -1.58100 28.72700
H  29.03400 1.06500 33.58500
H  29.45600 -2.61400 36.06500
H  28.63700 -1.39900 37.07100
H  30.41600 -1.39800 37.00000

