158

Mg 29.61100 57.36100 40.97400
C  26.74000 55.42800 39.95000
C  31.51200 54.84100 39.61500
C  32.02200 59.59300 40.80000
C  27.24100 59.94900 41.68300
N  29.14700 55.34700 39.86200
C  27.92000 54.77100 39.60100
C  28.02400 53.54100 38.62200
C  29.57600 53.19300 38.89100
C  30.11600 54.51300 39.44600
C  29.92500 52.10700 39.97000
C  27.88400 53.97300 37.15800
C  26.76700 53.25300 36.34900
H  25.96400 54.14800 35.48000
N  31.54400 57.24300 40.39700
C  32.15500 56.07100 39.95300
C  33.52900 56.39700 39.74500
C  33.77800 57.75600 40.17400
C  32.38900 58.28300 40.47700
C  34.54400 55.28600 39.26500
C  35.14500 58.45900 40.29300
O  36.14600 57.90900 39.87300
C  35.27600 59.73100 40.92300
N  29.63400 59.56100 41.05000
C  30.76600 60.19900 41.04200
C  30.59600 61.68400 41.40400
C  29.02900 61.77900 41.63600
C  28.55200 60.38400 41.46600
C  31.53700 62.26000 42.49600
C  28.23900 62.69900 40.65200
C  27.42800 63.90000 41.22700
N  27.44700 57.62100 41.09800
C  26.69300 58.70700 41.39100
C  25.28400 58.36400 41.17600
C  25.22200 57.06900 40.65300
C  26.59200 56.70500 40.52100
C  24.13100 59.29400 41.26100
C  24.42300 55.98000 40.15900
O  23.23200 55.79100 40.11800
C  25.33300 54.91500 39.59300
C  25.04000 53.67900 40.26000
O  25.19900 53.32600 41.45400
O  24.48400 52.89200 39.37700
C  23.66000 51.69000 39.82600
H  32.13000 53.98400 39.34000
H  32.82900 60.31200 40.64200
H  26.60600 60.77200 42.01700
H  27.35800 52.77900 39.02800
H  30.25300 52.85100 38.10900
H  30.47600 52.61000 40.76400
H  30.49600 51.22100 39.69300
H  28.98600 51.77600 40.41300
H  28.87600 53.83100 36.73000
H  27.60000 55.02300 37.22700
H  26.05500 52.72100 36.97900
H  27.28400 52.52600 35.72200
H  34.36000 54.87200 38.27300
H  34.52300 54.41100 39.91500
H  35.56100 55.65800 39.38200
H  35.20000 60.62500 40.30400
H  36.26800 59.75800 41.37300
H  34.66600 59.86200 41.81700
H  30.77300 62.31800 40.53500
H  28.85600 62.10500 42.66100
H  31.09000 63.06300 43.08100
H  32.54600 62.47600 42.14300
H  31.72900 61.46600 43.21800
H  27.52200 62.11800 40.07200
H  28.86600 63.16900 39.89500
H  27.25800 63.60000 42.26100
H  26.41400 63.93900 40.82800
H  27.88400 64.88300 41.11200
H  24.29300 59.70100 40.26200
H  24.03400 60.01500 42.07100
H  23.21300 58.71300 41.17500
H  25.31500 54.80700 38.50800
H  22.68400 51.99700 39.45100
H  23.53000 51.47500 40.88700
H  23.94600 50.77700 39.30400
Mg -10.57400 17.37200 41.26700
C  -7.15500 17.39400 41.52700
C  -10.32100 20.62000 40.08700
C  -13.79400 17.38700 40.35200
C  -10.59600 13.85400 41.62800
N  -8.89700 18.67200 40.69100
C  -7.56700 18.49400 40.81100
C  -6.73400 19.66900 40.34400
C  -7.83000 20.78700 40.39700
C  -9.14800 20.01400 40.28300
C  -7.74500 21.65100 41.71200
C  -6.13100 19.46700 38.97900
C  -4.61100 19.18900 38.86300
H  -4.19200 17.99400 38.06900
N  -11.83300 18.82800 40.44500
C  -11.58700 20.07900 40.07900
C  -12.77600 20.78600 39.87800
C  -13.81600 19.90400 40.15800
C  -13.17600 18.61300 40.39100
C  -12.86300 22.24400 39.56100
C  -15.34100 20.25700 40.21100
O  -15.70500 21.37500 39.96500
C  -16.43200 19.28300 40.70700
N  -12.02000 15.81600 41.01900
C  -13.25600 16.07500 40.48200
C  -14.13800 14.81400 40.61400
C  -13.09100 13.63900 40.96600
C  -11.86000 14.44300 41.22500
C  -15.29900 15.10900 41.62000
C  -12.98200 12.61900 39.83800
C  -13.63200 11.23600 40.07500
N  -9.31600 15.92700 41.75500
C  -9.40900 14.55100 41.90100
C  -8.13700 13.94600 42.21700
C  -7.25000 15.04400 42.08300
C  -8.01900 16.22600 41.74800
C  -8.00500 12.49300 42.54100
C  -5.84900 15.45600 42.17900
O  -4.84000 14.80000 42.37400
C  -5.71900 16.96600 41.83300
C  -5.14000 17.68000 43.00800
O  -3.96300 17.48200 43.43000
O  -6.03700 18.56100 43.59600
C  -5.60100 19.01500 44.87100
H  -10.30000 21.70200 39.94000
H  -14.88100 17.38700 40.24000
H  -10.54200 12.76500 41.56700
H  -5.87500 19.88300 40.97900
H  -7.75900 21.47100 39.55200
H  -7.83000 22.67000 41.33500
H  -6.77800 21.70400 42.21200
H  -8.64100 21.46500 42.30400
H  -6.29200 20.44600 38.52700
H  -6.82100 18.79500 38.46900
H  -4.09100 19.04600 39.81100
H  -4.13100 20.05000 38.39800
H  -12.39700 22.58600 38.63700
H  -12.36600 22.74600 40.39100
H  -13.86100 22.65500 39.40800
H  -16.60700 18.55800 39.91200
H  -17.34600 19.85600 40.86600
H  -16.08100 18.80900 41.62300
H  -14.59100 14.70300 39.62900
H  -13.43400 13.09900 41.84900
H  -15.12800 16.02700 42.18200
H  -15.34700 14.31700 42.36800
H  -16.27400 15.05900 41.13600
H  -11.92300 12.49700 39.60900
H  -13.51000 13.06300 38.99400
H  -13.97500 10.97400 41.07500
H  -12.88900 10.49300 39.78300
H  -14.43900 11.14600 39.34800
H  -8.79500 12.25900 43.25500
H  -7.01400 12.19500 42.88400
H  -8.16700 11.89500 41.64400
H  -5.10500 17.02900 40.93500
H  -6.38100 19.67200 45.25500
H  -4.70500 19.63300 44.80700
H  -5.35000 18.18000 45.52500

