158

Mg 17.56300 -1.03200 28.04800
C  16.25500 1.04000 30.54500
C  19.06400 -2.90200 30.50700
C  19.24200 -2.69200 25.66900
C  16.29400 1.22400 25.62100
N  17.66700 -0.87800 30.32300
C  16.91900 -0.04500 31.08200
C  17.01000 -0.43500 32.60200
C  18.16400 -1.52600 32.50100
C  18.28400 -1.85400 31.07100
C  19.52000 -1.10200 33.24000
C  15.58800 -0.88200 33.18800
C  15.39400 -0.58900 34.64700
H  16.47800 -0.03400 35.52800
N  19.00000 -2.58000 28.07000
C  19.37300 -3.28000 29.18100
C  20.31200 -4.31100 28.85200
C  20.46800 -4.23100 27.42500
C  19.57600 -3.09400 26.98200
C  20.94100 -5.15200 29.89400
C  21.38500 -5.07300 26.50100
O  21.36400 -4.85400 25.30400
C  22.23300 -6.15000 27.02900
N  17.84100 -0.65100 25.96100
C  18.43300 -1.62500 25.21300
C  18.35700 -1.24500 23.69200
C  17.37200 -0.02000 23.71400
C  17.13500 0.20200 25.23900
C  19.67700 -0.85500 22.98200
C  16.00800 0.00200 22.90400
C  15.90900 0.88200 21.58600
N  16.37400 0.77400 28.01000
C  15.98400 1.58300 27.00500
C  15.23100 2.65200 27.55500
C  15.35300 2.50400 28.98200
C  16.04200 1.38000 29.17600
C  14.35800 3.63100 26.81200
C  14.97100 3.14300 30.23300
O  14.37900 4.21500 30.46000
C  15.46800 2.17500 31.28400
C  16.35000 2.93000 32.10200
O  17.56400 2.76100 32.18700
O  15.62300 3.66200 33.06800
C  16.30700 4.48900 34.07000
H  19.47700 -3.56700 31.26800
H  19.76400 -3.23700 24.88000
H  15.90400 1.90500 24.86100
H  17.37800 0.47600 33.07400
H  17.70000 -2.38600 32.98400
H  19.44700 -0.04200 33.48600
H  20.39800 -1.27200 32.61600
H  19.51800 -1.57300 34.22200
H  15.51800 -1.94900 32.97900
H  14.75000 -0.42500 32.66200
H  14.92000 -1.45600 35.10600
H  14.73100 0.27600 34.64300
H  20.19300 -5.57600 30.56400
H  21.59700 -4.56000 30.53300
H  21.44000 -6.02200 29.46700
H  22.77300 -5.84700 27.92600
H  23.01300 -6.40700 26.31200
H  21.61200 -7.03700 27.15100
H  17.96100 -2.07500 23.10700
H  17.91900 0.90700 23.54400
H  19.59500 0.12200 22.50600
H  19.76600 -1.48700 22.09900
H  20.52000 -0.91100 23.67200
H  15.16400 0.24000 23.55200
H  15.95100 -1.04100 22.59200
H  15.22600 1.73000 21.53300
H  15.72000 0.19200 20.76400
H  16.89000 1.31400 21.38700
H  13.32300 3.35000 27.01100
H  14.57000 3.52800 25.74700
H  14.65100 4.61900 27.16500
H  14.55800 1.88100 31.80800
H  16.03100 5.54000 33.98400
H  17.38800 4.35500 34.11500
H  15.89600 4.22800 35.04600
Mg 35.62500 49.11300 26.11400
C  35.91400 47.15900 29.00300
C  34.59500 51.70000 28.03700
C  34.93900 50.63800 23.35000
C  36.35400 46.17000 24.30500
N  34.95000 49.26800 28.19600
C  35.30500 48.42400 29.24100
C  35.29400 49.16400 30.55900
C  34.42600 50.41300 30.18900
C  34.69700 50.45500 28.72200
C  32.93600 50.32500 30.57700
C  36.71500 49.42300 31.20600
C  36.70300 49.48900 32.76200
H  35.40500 49.58100 33.55500
N  34.94800 50.99900 25.72800
C  34.62500 51.95000 26.66900
C  34.39200 53.22100 25.99500
C  34.47700 52.90300 24.54900
C  34.80200 51.48400 24.45500
C  34.35000 54.53800 26.80100
C  34.32600 53.85000 23.33000
O  34.39600 53.40000 22.19600
C  34.14500 55.30100 23.58300
N  35.76300 48.43400 24.05700
C  35.35600 49.31200 23.14300
C  35.39400 48.68100 21.76600
C  36.02300 47.29400 21.97700
C  36.11200 47.28500 23.52600
C  33.93900 48.57800 21.15900
C  37.40000 47.02300 21.19100
C  38.66500 47.46500 21.88300
N  36.12300 47.07100 26.51700
C  36.41700 46.05800 25.67500
C  36.94500 44.88800 26.40400
C  36.80400 45.29400 27.80500
C  36.26100 46.62300 27.78500
C  37.30600 43.55700 25.79300
C  36.99400 44.83700 29.20100
O  37.42500 43.83900 29.67600
C  36.50500 46.10500 29.97500
C  35.55700 45.63600 31.00500
O  34.40800 45.41200 30.73700
O  36.03400 45.58200 32.29900
C  35.04900 45.32400 33.37200
H  34.51800 52.58900 28.66700
H  34.87100 51.23300 22.43700
H  36.48800 45.23400 23.75800
H  34.74000 48.59600 31.30700
H  34.83100 51.34700 30.57800
H  32.59900 49.29600 30.45500
H  32.29700 51.00700 30.01700
H  32.91300 50.57900 31.63700
H  37.10500 50.29800 30.68600
H  37.34500 48.68000 30.71700
H  37.35600 50.25900 33.17400
H  37.10300 48.49500 32.96200
H  33.32700 54.68400 27.14800
H  34.69200 55.40300 26.23300
H  34.88800 54.41700 27.74100
H  33.99300 55.71900 22.58800
H  35.05600 55.66000 24.06000
H  33.23600 55.40000 24.17600
H  35.87300 49.34800 21.05000
H  35.39500 46.45400 21.68100
H  33.34300 49.33400 21.67000
H  33.41400 47.69800 21.53100
H  33.87400 48.79000 20.09200
H  37.47600 47.37800 20.16300
H  37.43000 45.93500 21.13800
H  39.52100 47.67600 21.24200
H  38.92800 46.64700 22.55400
H  38.50600 48.30600 22.55700
H  37.24500 43.43000 24.71200
H  36.69000 42.86500 26.36800
H  38.33800 43.44200 26.12200
H  37.38200 46.47500 30.50500
H  35.67800 45.13100 34.24200
H  34.29000 44.54800 33.27500
H  34.50700 46.26600 33.44300

