158

Mg 27.04300 51.68400 26.52000
C  24.91400 53.09900 28.95200
C  29.01500 50.48300 29.08600
C  29.16300 50.37200 24.19500
C  25.01600 52.86500 23.96200
N  27.02100 51.89100 28.69700
C  26.03300 52.38500 29.49700
C  26.24200 52.15100 30.96400
C  27.65500 51.50000 30.98000
C  27.86300 51.20200 29.51600
C  28.90800 52.28900 31.59000
C  25.09300 51.39500 31.75800
C  24.38500 52.17600 32.84100
H  25.21000 52.64100 33.98200
N  28.95800 50.73500 26.65200
C  29.58100 50.29700 27.80300
C  30.77600 49.57400 27.43000
C  30.86200 49.51500 25.99100
C  29.65000 50.26000 25.50700
C  31.63500 49.09900 28.53900
C  31.86700 48.77200 25.10500
O  31.75900 48.81200 23.89400
C  32.89500 47.95400 25.66900
N  27.13300 51.69600 24.42900
C  28.09300 51.03300 23.71100
C  27.63400 50.74700 22.30400
C  26.27900 51.57200 22.23100
C  26.12800 52.11000 23.60300
C  28.67300 51.07000 21.23900
C  25.14600 50.87800 21.49200
C  24.57800 49.61000 22.28600
N  25.33200 52.82300 26.42100
C  24.57200 53.22600 25.28900
C  23.49500 54.03100 25.79100
C  23.56400 53.92200 27.20000
C  24.69100 53.21000 27.54200
C  22.42000 54.73700 24.85000
C  22.81000 54.27400 28.42900
O  21.70400 54.79200 28.64000
C  23.74900 53.73900 29.57200
C  24.22100 54.80900 30.44100
O  25.30400 55.38500 30.30000
O  23.24400 55.07600 31.34300
C  23.65000 55.97500 32.42100
H  29.59100 49.97000 29.85900
H  29.64000 49.74800 23.43700
H  24.34700 53.12500 23.13900
H  26.26000 53.13600 31.43200
H  27.70500 50.59200 31.58200
H  28.58000 53.32000 31.72300
H  29.73600 52.32100 30.88200
H  29.27300 51.82400 32.50600
H  25.31100 50.44300 32.24200
H  24.38700 50.96900 31.04500
H  23.54200 51.59800 33.22100
H  23.94200 53.07000 32.40200
H  32.67500 49.15400 28.21500
H  31.41700 48.06500 28.80500
H  31.45600 49.63700 29.47100
H  33.63100 48.60900 26.13500
H  33.46000 47.45200 24.88400
H  32.53500 47.27800 26.44400
H  27.33400 49.71300 22.13500
H  26.44700 52.51700 21.71500
H  29.64400 51.36400 21.63600
H  28.49000 51.86500 20.51700
H  28.83900 50.10900 20.75200
H  25.54300 50.48900 20.55400
H  24.36200 51.63000 21.40000
H  24.52200 49.84600 23.34800
H  25.15900 48.75300 21.94600
H  23.51500 49.38900 22.18700
H  22.61400 54.65100 23.78100
H  22.60500 55.76300 25.16700
H  21.46200 54.40500 25.24900
H  23.22700 52.99000 30.16700
H  24.13500 56.85500 31.99800
H  24.30000 55.43100 33.10700
H  22.74300 56.22500 32.97200
Mg -4.29400 25.47700 26.21300
C  -2.99700 26.82800 29.17500
C  -6.20400 23.37100 28.08000
C  -5.06900 23.85400 23.36400
C  -2.29000 27.62100 24.38200
N  -4.39100 25.02100 28.33300
C  -3.90200 25.75900 29.37200
C  -4.34500 25.26300 30.77700
C  -5.30000 24.05600 30.35200
C  -5.30300 24.16300 28.82600
C  -4.99200 22.66000 31.08700
C  -5.21500 26.39700 31.40200
C  -5.27000 26.61700 32.96500
H  -4.89500 25.39300 33.85200
N  -5.57900 23.92900 25.74900
C  -6.32600 23.26500 26.68100
C  -7.29700 22.41100 25.98900
C  -6.98300 22.52100 24.54800
C  -5.81500 23.46100 24.50600
C  -8.44300 21.52100 26.72100
C  -7.67300 21.90700 23.30700
O  -7.34700 22.20300 22.13200
C  -8.80200 20.96400 23.51100
N  -3.67400 25.72000 24.11500
C  -4.13900 24.86600 23.17600
C  -3.49300 25.18200 21.84400
C  -2.74700 26.52000 22.14300
C  -2.88700 26.65500 23.58300
C  -2.71400 23.90200 21.22100
C  -3.36100 27.73800 21.35500
C  -2.37200 28.62800 20.64000
N  -2.87300 26.86000 26.63400
C  -2.21300 27.73600 25.83100
C  -1.41500 28.66800 26.55600
C  -1.69400 28.30700 27.86800
C  -2.59100 27.25300 27.88500
C  -0.47400 29.78200 26.08700
C  -1.36500 28.61700 29.18700
O  -0.55300 29.44000 29.61500
C  -2.26500 27.72600 30.15500
C  -1.42700 26.98500 31.12500
O  -0.68300 25.98500 30.94700
O  -1.79700 27.49100 32.34700
C  -1.06900 26.82400 33.41500
H  -6.84800 22.74600 28.70200
H  -5.29400 23.33800 22.42900
H  -1.64600 28.30100 23.82100
H  -3.60600 24.81400 31.44200
H  -6.34100 24.29900 30.56600
H  -4.81700 21.97400 30.25800
H  -5.93400 22.43900 31.58800
H  -4.11700 22.77900 31.72600
H  -6.25200 26.35400 31.07000
H  -4.91100 27.33500 30.93900
H  -6.26200 27.03900 33.12400
H  -4.54800 27.38000 33.25500
H  -9.37700 21.70100 26.18800
H  -8.51100 21.87500 27.75000
H  -8.10600 20.48400 26.72300
H  -8.37700 20.09600 24.01500
H  -9.15700 20.68300 22.52000
H  -9.68800 21.40900 23.96400
H  -4.39700 25.35600 21.26000
H  -1.72100 26.23400 21.91200
H  -3.19200 23.48000 20.33700
H  -2.54000 23.08500 21.92100
H  -1.72500 24.26600 20.94300
H  -4.10800 28.28000 21.93500
H  -4.00900 27.26400 20.61800
H  -1.32800 28.54700 20.94300
H  -2.67500 29.66700 20.76500
H  -2.39800 28.43000 19.56800
H  -1.13900 30.54300 25.67800
H  0.24000 29.38300 25.36700
H  0.07700 30.16700 26.94400
H  -2.95800 28.31100 30.75900
H  -1.24500 25.75000 33.35000
H  -1.41300 27.18600 34.38400
H  -0.02200 27.03200 33.19700

