158

Mg 44.43400 4.81400 45.81900
C  42.54800 7.80800 45.84300
C  41.37800 3.14000 45.24200
C  46.18200 1.93300 45.03700
C  47.23000 6.59200 46.26400
N  42.17800 5.45900 45.43000
C  41.70500 6.65800 45.52000
C  40.13700 6.62800 45.36400
C  39.77400 5.13900 45.47900
C  41.19900 4.51400 45.39600
C  38.92400 4.81500 46.74500
C  39.48700 7.43800 44.12100
C  40.41700 7.82600 42.94800
H  40.42800 6.84100 41.71400
N  43.92900 2.83200 45.19600
C  42.59400 2.38400 45.06900
C  42.71800 0.97900 44.80400
C  44.02400 0.61000 44.46600
C  44.82100 1.79600 44.89000
C  41.46700 0.04500 44.72100
C  44.52100 -0.77300 43.95200
O  43.77500 -1.64400 43.77700
C  45.94500 -0.95800 43.62400
N  46.43700 4.38400 45.45200
C  46.90600 3.12600 45.36400
C  48.47200 3.07700 45.70000
C  48.81200 4.59100 45.98900
C  47.41500 5.29700 45.82100
C  48.88200 2.03100 46.71100
C  49.97100 5.13200 45.03400
C  49.52700 5.56500 43.59900
N  44.88900 6.81400 45.81500
C  46.09400 7.38500 46.22800
C  45.88400 8.77100 46.50000
C  44.47900 8.98500 46.34400
C  43.94400 7.75000 45.95800
C  46.99900 9.67400 46.84600
C  43.42900 9.99200 46.41400
O  43.45400 11.16200 46.68700
C  42.05800 9.26500 46.07700
C  41.16500 9.36000 47.28000
O  41.23800 8.67700 48.33400
O  40.17100 10.29300 47.06400
C  39.05500 10.31600 48.01100
H  40.41600 2.62400 45.25200
H  46.91500 1.15900 44.80100
H  48.20600 7.07200 46.35800
H  39.75600 7.17200 46.22800
H  39.21900 4.69700 44.65100
H  39.60300 4.61300 47.57300
H  38.42500 3.89600 46.43900
H  38.28900 5.62500 47.10600
H  38.91500 8.29700 44.47100
H  38.72900 6.73900 43.76700
H  41.47500 7.90400 43.19800
H  40.12200 8.82900 42.63800
H  41.50200 -0.39700 43.72500
H  40.51900 0.57700 44.80000
H  41.48000 -0.73400 45.48300
H  46.18400 -1.94400 43.22600
H  46.53700 -0.88000 44.53600
H  46.15500 -0.22000 42.84900
H  49.00900 2.85700 44.77700
H  49.03000 4.83900 47.02800
H  48.09700 2.09300 47.46500
H  49.85400 2.34500 47.09300
H  48.76800 1.08100 46.19000
H  50.67400 4.33800 44.78300
H  50.53200 5.96200 45.46300
H  48.97600 6.50500 43.62200
H  48.76500 4.88900 43.20900
H  50.39100 5.57800 42.93500
H  47.08700 9.80700 47.92400
H  46.64700 10.61800 46.42800
H  47.93700 9.43900 46.34200
H  41.54400 9.69300 45.21600
H  39.38500 10.53300 49.02700
H  38.67600 9.29500 48.04700
H  38.39700 11.07000 47.58000
Mg 6.10700 53.21800 40.46000
C  5.94000 49.61100 40.33600
C  9.47700 52.95900 39.63300
C  6.08700 56.56000 39.56200
C  2.65800 53.30000 40.65600
N  7.50000 51.44800 40.04400
C  7.26000 50.07400 40.06800
C  8.51900 49.28700 39.87600
C  9.58900 50.45500 39.97200
C  8.80700 51.72100 39.82000
C  10.51600 50.42200 41.30100
C  8.63900 48.39300 38.62000
C  8.75200 49.16700 37.29500
H  7.64200 48.84900 36.35600
N  7.61400 54.56900 39.93700
C  8.96300 54.27700 39.68700
C  9.63300 55.51600 39.18300
C  8.75400 56.54500 39.35800
C  7.38800 55.95300 39.72400
C  11.09000 55.57300 38.78400
C  9.09300 58.07800 39.27100
O  10.22300 58.49400 38.90800
C  8.03000 59.05200 39.61200
N  4.49400 54.72200 39.92900
C  4.81800 56.04000 39.74900
C  3.57700 56.86300 39.90300
C  2.45000 55.78500 40.11700
C  3.23400 54.52600 40.35700
C  3.71400 57.86500 41.06100
C  1.40900 55.68500 38.94900
C  -0.05800 56.10100 39.28800
N  4.60700 51.76700 40.53500
C  3.26900 52.00200 40.67400
C  2.58600 50.74000 40.80000
C  3.56900 49.75500 40.70600
C  4.78400 50.42600 40.41700
C  1.21100 50.49600 41.24700
C  3.88700 48.41300 40.85500
O  3.21600 47.43800 41.14600
C  5.41800 48.19800 40.49100
C  5.42800 47.28400 39.30500
O  5.13200 47.65000 38.22500
O  5.78600 46.00300 39.57600
C  5.76300 45.17300 38.36200
H  10.53300 52.88400 39.36400
H  6.15200 57.57500 39.16400
H  1.58800 53.41100 40.84100
H  8.52000 48.73800 40.81700
H  10.26600 50.28000 39.13600
H  11.55900 50.41200 40.98200
H  10.21500 49.54400 41.87200
H  10.22600 51.27400 41.91600
H  7.75100 47.76600 38.69000
H  9.50300 47.73000 38.57000
H  9.70300 48.92700 36.81900
H  8.99700 50.22600 37.37000
H  11.21800 56.47500 38.18500
H  11.50200 54.77600 38.16500
H  11.70900 55.69400 39.67300
H  8.39200 60.05300 39.84600
H  7.56000 58.64100 40.50500
H  7.35700 59.08500 38.75500
H  3.40300 57.43700 38.99300
H  1.79700 55.87000 40.98600
H  4.07800 58.78900 40.61100
H  4.46000 57.39500 41.70200
H  2.76700 57.88800 41.60000
H  1.49500 54.68100 38.53100
H  1.83300 56.26300 38.12800
H  -0.74100 55.57000 38.62400
H  -0.13700 57.18200 39.39900
H  -0.12100 55.55100 40.22700
H  0.83600 51.42900 41.66800
H  1.23900 49.63700 41.91800
H  0.57400 50.26400 40.39400
H  5.73800 47.73500 41.42400
H  4.88900 45.36400 37.73800
H  5.78600 44.10500 38.57900
H  6.66400 45.36200 37.77900

