158

Mg 25.87800 1.15500 29.26200
C  27.83200 0.75000 32.13100
C  23.14000 1.55800 31.26600
C  24.13500 1.37600 26.43800
C  28.78600 0.22300 27.40800
N  25.58800 0.97400 31.51800
C  26.55300 1.04700 32.44600
C  25.96200 1.30700 33.82700
C  24.40900 1.33500 33.54800
C  24.33900 1.29100 32.03700
C  23.57300 0.21000 34.30200
C  26.45400 2.58100 34.50400
C  26.91600 2.51600 35.99000
H  26.37100 3.61700 36.97700
N  23.92500 1.39200 28.89400
C  22.88800 1.59000 29.81600
C  21.61200 1.84500 29.15800
C  21.87200 1.75600 27.75700
C  23.35600 1.51900 27.63200
C  20.37400 2.15800 29.98700
C  20.92400 1.87600 26.59600
O  21.29000 1.65300 25.44200
C  19.47100 2.19500 26.73300
N  26.41400 0.78500 27.23700
C  25.49200 1.01300 26.22800
C  26.12600 0.82000 24.91300
C  27.64200 0.62700 25.22100
C  27.63300 0.49900 26.71700
C  25.53000 -0.33500 23.98800
C  28.64100 1.78000 24.73900
C  28.48600 3.16800 25.29100
N  27.86200 0.50600 29.60600
C  28.89900 0.21200 28.76100
C  30.12300 0.07700 29.53300
C  29.73000 0.37400 30.85100
C  28.33800 0.52500 30.82600
C  31.47400 -0.23000 29.06900
C  30.25300 0.61100 32.17700
O  31.41300 0.57000 32.60000
C  29.05500 0.81800 33.07000
C  28.98600 -0.15800 34.16200
O  28.83600 -1.36900 34.03700
O  29.12700 0.53700 35.33700
C  29.44400 -0.31600 36.47400
H  22.26400 1.75500 31.88700
H  23.60200 1.48300 25.49000
H  29.66100 0.01300 26.78900
H  26.16500 0.42100 34.42800
H  24.05600 2.31700 33.86300
H  23.07000 -0.42400 33.57300
H  22.78800 0.65600 34.91200
H  24.20600 -0.39500 34.95100
H  25.61300 3.27300 34.50200
H  27.19100 3.02100 33.83200
H  27.99500 2.65200 35.91000
H  26.88300 1.58600 36.55600
H  20.32700 3.22500 30.20800
H  20.42400 1.66700 30.95900
H  19.48100 1.92800 29.40500
H  18.88500 1.95800 25.84600
H  19.18300 3.13800 27.19900
H  19.20800 1.42100 27.45300
H  26.04000 1.75600 24.36100
H  28.01500 -0.38500 25.07000
H  24.96500 -0.99800 24.64300
H  26.34500 -0.86400 23.49300
H  24.84500 0.11300 23.26700
H  28.50500 1.83100 23.65900
H  29.61700 1.30000 24.81800
H  27.81300 3.17700 26.14900
H  28.20500 3.94600 24.58100
H  29.41800 3.51900 25.73400
H  31.44900 -1.29900 28.85500
H  32.27000 -0.09900 29.80200
H  31.68900 0.36400 28.18100
H  29.22000 1.80700 33.49900
H  28.65000 -0.37100 37.21800
H  30.21800 0.05500 37.14500
H  29.74500 -1.33100 36.21500
Mg 0.58400 43.49400 25.97800
C  2.86700 43.54600 28.63700
C  -1.99300 43.06800 28.28700
C  -1.45200 42.91700 23.43000
C  3.30900 44.02900 23.86400
N  0.50900 43.21600 28.21100
C  1.51700 43.39400 29.04600
C  1.06500 43.26200 30.50400
C  -0.50500 42.94200 30.35000
C  -0.68300 43.10700 28.88500
C  -0.86700 41.43800 30.81900
C  1.38300 44.61500 31.23500
C  1.77500 44.54900 32.73000
H  1.45000 43.36800 33.61900
N  -1.47500 43.11300 25.85200
C  -2.37900 42.98400 26.94500
C  -3.73200 42.75200 26.41900
C  -3.48200 42.51400 25.02600
C  -2.11300 42.86100 24.71100
C  -5.01800 42.67600 27.27300
C  -4.39700 41.91800 24.01500
O  -4.03500 41.67900 22.87500
C  -5.81600 41.81500 24.37700
N  0.93600 43.38500 23.97200
C  -0.09300 43.12500 23.12500
C  0.37800 43.24600 21.66400
C  1.86700 43.84600 21.77500
C  2.09200 43.78000 23.29900
C  0.38900 42.00800 20.77800
C  1.98000 45.34300 21.31300
C  1.74100 45.57700 19.84500
N  2.64400 43.86600 26.14000
C  3.62300 44.00700 25.20300
C  4.87900 44.27000 25.78800
C  4.69800 43.95800 27.16400
C  3.31700 43.69300 27.36400
C  6.16400 44.71500 25.05600
C  5.30000 43.74700 28.51600
O  6.51200 43.71100 28.84200
C  4.13100 43.51700 29.50400
C  4.31500 42.28500 30.34800
O  3.85400 41.22600 30.08200
O  5.14600 42.62400 31.43100
C  5.47700 41.50500 32.33200
H  -2.73700 42.99300 29.08300
H  -2.05600 42.96500 22.52200
H  4.04400 44.31000 23.10700
H  1.57100 42.38200 30.90000
H  -1.05500 43.72300 30.87500
H  0.02500 41.01100 31.27700
H  -1.28900 40.83900 30.01200
H  -1.59100 41.47000 31.63300
H  0.60000 45.37300 31.20200
H  2.19900 45.09500 30.69500
H  1.43700 45.36600 33.36700
H  2.86300 44.60900 32.71400
H  -5.84500 43.25700 26.86600
H  -4.88400 43.21600 28.21000
H  -5.36600 41.67500 27.53000
H  -5.87600 41.27800 25.32400
H  -6.26500 41.15800 23.63200
H  -6.31700 42.78200 24.34700
H  -0.31000 43.92600 21.16000
H  2.61400 43.20300 21.30900
H  -0.35700 42.06700 19.98500
H  0.05000 41.17400 21.39300
H  1.36500 41.75100 20.36800
H  2.94500 45.80600 21.52000
H  1.22900 45.92800 21.84400
H  0.70200 45.89500 19.76000
H  1.82100 44.62800 19.31500
H  2.35400 46.37100 19.41600
H  6.47500 45.73800 25.27000
H  6.01600 44.64200 23.97800
H  6.93100 43.99900 25.34900
H  4.12900 44.41000 30.12700
H  6.23200 41.67300 33.09900
H  5.71700 40.55700 31.85000
H  4.56900 41.29700 32.89900

