158

Mg 25.94400 -1.29800 29.03400
C  27.95100 -1.26500 31.95700
C  23.20800 -0.58800 31.26100
C  23.93700 -1.28800 26.37300
C  28.57200 -2.43900 27.16100
N  25.61700 -1.07600 31.38600
C  26.61800 -0.95700 32.31700
C  26.06400 -0.47000 33.73100
C  24.55500 -0.38000 33.45700
C  24.43800 -0.79400 31.93500
C  23.69800 -1.05700 34.53000
C  26.58600 0.88500 34.38800
C  27.32500 0.86900 35.68200
H  26.98800 1.81500 36.85600
N  23.89000 -0.98600 28.82400
C  22.98300 -0.69600 29.83200
C  21.75000 -0.45800 29.12800
C  21.93200 -0.51400 27.76800
C  23.32900 -0.99800 27.57300
C  20.39600 -0.33000 29.78900
C  20.93600 -0.15200 26.66200
O  21.32200 -0.07700 25.48900
C  19.54200 0.27100 26.90500
N  26.15700 -1.95100 27.07700
C  25.26000 -1.69300 26.14100
C  25.74600 -2.12200 24.72300
C  27.24400 -2.35500 24.98500
C  27.36400 -2.19100 26.50800
C  25.03200 -3.33500 24.13200
C  28.23800 -1.44100 24.19700
C  28.00500 0.05200 24.27800
N  27.82800 -1.87600 29.44600
C  28.78200 -2.25600 28.53500
C  30.03500 -2.31500 29.22900
C  29.74100 -1.91200 30.59300
C  28.41000 -1.67100 30.67400
C  31.30500 -2.84400 28.60500
C  30.36000 -1.68900 31.88500
O  31.49700 -1.78800 32.36500
C  29.19100 -1.17300 32.76000
C  29.01300 -2.01600 34.06500
O  28.60000 -3.14400 34.14700
O  29.65100 -1.30500 35.03900
C  29.61200 -1.83300 36.44900
H  22.37100 -0.23000 31.86500
H  23.35200 -1.10800 25.46900
H  29.46200 -2.70900 26.58800
H  26.46500 -1.26800 34.35600
H  24.17800 0.62900 33.62400
H  22.79900 -0.46100 34.69000
H  24.16700 -1.32700 35.47700
H  23.22300 -1.98400 34.20700
H  25.85700 1.68500 34.50800
H  27.26800 1.26100 33.62500
H  28.40200 0.83900 35.51400
H  27.03100 -0.10500 36.07100
H  20.44600 -0.42500 30.87300
H  19.79300 -1.18300 29.47700
H  19.83800 0.55800 29.49100
H  19.03800 -0.57300 27.37600
H  19.08400 0.45100 25.93300
H  19.44000 1.16800 27.51600
H  25.68600 -1.31000 23.99800
H  27.47100 -3.40000 24.77400
H  24.61300 -3.04200 23.17000
H  24.28300 -3.68100 24.84500
H  25.77200 -4.12500 24.00500
H  28.29000 -1.77300 23.16000
H  29.20300 -1.63000 24.66500
H  27.06600 0.29600 24.77400
H  28.10800 0.48900 23.28500
H  28.75600 0.55100 24.89100
H  31.39500 -2.64100 27.53700
H  31.36700 -3.92700 28.71500
H  32.16700 -2.43200 29.12900
H  29.32200 -0.12500 33.03000
H  28.64900 -1.75800 36.95500
H  30.39200 -1.54100 37.15200
H  29.76400 -2.91000 36.38100
Mg 44.23100 2.94800 46.50200
C  42.30800 5.86000 46.25000
C  41.43800 1.08900 46.08700
C  46.25400 0.27300 46.26900
C  47.07900 5.01600 46.40200
N  42.11700 3.44300 46.25900
C  41.56100 4.64800 46.15400
C  40.04000 4.54200 46.17600
C  39.74400 3.01800 46.39900
C  41.15000 2.42900 46.23100
C  39.03700 2.58600 47.71800
C  39.22000 5.28000 45.07100
C  39.56800 4.84500 43.67600
H  40.31100 5.83500 42.82100
N  43.83500 0.88900 46.21200
C  42.60100 0.36200 46.09900
C  42.71900 -1.07700 45.88700
C  44.10500 -1.33700 45.93100
C  44.84700 -0.07300 46.13000
C  41.54400 -1.99200 45.69300
C  44.71900 -2.73300 45.82300
O  43.95800 -3.70000 45.71200
C  46.08700 -3.06000 45.68500
N  46.37200 2.68100 46.35700
C  46.90500 1.47000 46.36200
C  48.40600 1.55300 46.51300
C  48.66700 3.10400 46.21100
C  47.29900 3.64900 46.41000
C  48.80000 0.99500 47.90300
C  49.31900 3.43000 44.83500
C  50.75600 4.03100 44.98500
N  44.67400 5.06300 46.35100
C  45.88800 5.75700 46.42200
C  45.66200 7.20200 46.47800
C  44.27900 7.28400 46.43700
C  43.74100 5.99800 46.38600
C  46.71400 8.36000 46.49900
C  43.21100 8.17500 46.47700
O  43.19200 9.45100 46.63900
C  41.87600 7.28200 46.25200
C  40.87700 7.82000 47.21400
O  40.66300 7.44500 48.37900
O  40.10800 8.77200 46.55600
C  39.01000 9.38100 47.36300
H  40.47600 0.57300 46.08000
H  46.85600 -0.63600 46.21700
H  48.01900 5.56900 46.33900
H  39.82700 5.06400 47.10800
H  39.09600 2.67000 45.59400
H  39.15100 3.30500 48.52900
H  39.54800 1.67700 48.03400
H  37.99700 2.46600 47.41400
H  39.55200 6.30900 45.20800
H  38.15500 5.06000 45.14100
H  38.64400 4.57400 43.16600
H  40.24200 3.99100 43.75200
H  41.81600 -2.70000 44.91000
H  40.54200 -1.58300 45.55800
H  41.52000 -2.42800 46.69100
H  46.57600 -2.61500 44.81900
H  46.22000 -4.13400 45.55100
H  46.59400 -2.84900 46.62700
H  48.98400 0.93200 45.82900
H  49.30000 3.39100 47.05100
H  49.43500 0.11100 47.97200
H  47.94300 0.75300 48.53200
H  49.31200 1.78600 48.45100
H  48.78400 4.13200 44.19600
H  49.43700 2.54200 44.21400
H  50.85600 4.88300 44.31200
H  51.46700 3.22400 44.80600
H  51.05800 4.49200 45.92500
H  46.46900 9.22500 45.88400
H  47.68200 7.97300 46.18100
H  46.83600 8.75600 47.50700
H  41.61800 7.69900 45.27800
H  38.01100 9.00200 47.14800
H  39.00500 10.46100 47.21500
H  39.19800 9.35100 48.43700

