158

Mg 45.36300 5.48300 48.32300
C  43.44300 8.14500 47.45000
C  42.92700 3.30000 47.21400
C  47.60700 2.83400 48.43400
C  48.08400 7.58900 48.73700
N  43.56700 5.72700 47.27900
C  42.86800 6.90600 47.12800
C  41.59900 6.70200 46.41100
C  41.28900 5.19900 46.69000
C  42.67500 4.68400 47.11700
C  40.16100 4.91500 47.67500
C  41.60700 7.09200 44.86800
C  40.50100 7.94600 44.30800
H  39.90700 7.54700 43.00100
N  45.26100 3.35200 48.03200
C  44.09800 2.66300 47.64600
C  44.34600 1.22900 47.67200
C  45.67200 1.08500 48.15400
C  46.26300 2.48000 48.23400
C  43.33200 0.23800 47.48500
C  46.34000 -0.30600 48.50800
O  45.67200 -1.33000 48.44700
C  47.66700 -0.54200 49.01500
N  47.57100 5.27700 48.51700
C  48.20000 4.11900 48.57800
C  49.70900 4.20700 48.85000
C  49.86100 5.79200 48.91200
C  48.38000 6.29100 48.70900
C  50.18700 3.60400 50.22800
C  50.82900 6.37400 47.88400
C  51.58400 7.59500 48.48900
N  45.77200 7.52900 48.28600
C  46.89400 8.20400 48.40000
C  46.63500 9.61800 48.12900
C  45.25200 9.66400 47.84500
C  44.77300 8.32900 47.96200
C  47.62400 10.75100 48.06700
C  44.14100 10.49200 47.48800
O  44.02200 11.65900 47.36000
C  42.92600 9.50200 47.28700
C  41.73100 9.82400 48.13800
O  41.63400 9.41400 49.32100
O  40.85900 10.55700 47.44400
C  39.69000 11.00800 48.11700
H  42.21300 2.56600 46.83600
H  48.41600 2.10600 48.51400
H  48.80200 8.35800 49.03100
H  40.82200 7.26700 46.92600
H  41.03000 4.62800 45.79800
H  39.76700 5.80800 48.15900
H  40.56100 4.36000 48.52300
H  39.38100 4.33300 47.18400
H  41.65600 6.20900 44.23100
H  42.56700 7.60300 44.79900
H  40.82300 8.98600 44.26200
H  39.65800 7.91800 44.99800
H  43.48400 -0.40900 46.62100
H  42.34500 0.55800 47.15100
H  43.18400 -0.37100 48.37700
H  48.01200 -1.55000 49.24800
H  47.66800 -0.00000 49.96100
H  48.37000 -0.14200 48.28500
H  50.29300 3.75700 48.04800
H  50.02200 6.07100 49.95400
H  50.93700 4.26700 50.65700
H  50.51000 2.58200 50.03000
H  49.32700 3.43800 50.87700
H  50.26000 6.86000 47.09100
H  51.58300 5.65300 47.56700
H  52.29900 7.97000 47.75700
H  52.07700 7.10900 49.33100
H  50.83600 8.35000 48.73200
H  48.58200 10.39900 47.68500
H  47.68500 11.03500 49.11800
H  47.18500 11.50700 47.41500
H  42.65300 9.58400 46.23500
H  39.53700 12.03700 47.79300
H  39.77800 10.97300 49.20300
H  38.85400 10.35600 47.86500
Mg 35.52000 3.21200 30.62000
C  32.93900 4.14300 32.87700
C  37.79800 3.86700 33.16700
C  37.98100 3.04400 28.38400
C  33.19000 3.09700 28.11100
N  35.33500 3.88800 32.73700
C  34.23000 4.15800 33.47600
C  34.53300 4.24800 34.99600
C  36.12300 4.44900 34.92500
C  36.47900 4.03900 33.52500
C  36.87500 5.71300 35.45900
C  33.76400 3.10900 35.80600
C  34.51900 2.58800 37.02900
H  34.95100 3.55200 38.14900
N  37.62200 3.17300 30.78500
C  38.42200 3.30700 31.95800
C  39.80800 3.00300 31.59900
C  39.88700 2.82200 30.21000
C  38.45000 3.06200 29.71800
C  40.81500 2.82700 32.72300
C  41.08900 2.35300 29.34500
O  40.99600 2.18400 28.10500
C  42.35000 2.08400 29.95600
N  35.53800 3.14200 28.54800
C  36.67000 3.04400 27.83800
C  36.47200 2.73000 26.41100
C  34.84800 2.66700 26.30600
C  34.45400 2.95300 27.71000
C  37.20300 3.51500 25.23900
C  34.26900 1.28300 25.77600
C  33.10300 1.28700 24.82800
N  33.49500 3.58800 30.41600
C  32.64900 3.53800 29.36400
C  31.23700 3.85000 29.71900
C  31.31500 4.00100 31.08200
C  32.67200 3.90300 31.45100
C  30.01200 3.99600 28.83900
C  30.59300 4.34700 32.22200
O  29.41300 4.59300 32.29400
C  31.55500 4.27300 33.47000
C  31.41500 5.52700 34.30300
O  31.59600 6.66400 33.88100
O  31.13900 5.18400 35.63800
C  31.25400 6.30700 36.59200
H  38.56800 4.05800 33.91700
H  38.76900 3.06000 27.62800
H  32.54900 2.82000 27.27100
H  34.16100 5.22200 35.31500
H  36.50700 3.57200 35.44400
H  37.53700 5.31700 36.22900
H  36.11600 6.32900 35.94100
H  37.50800 6.27000 34.76800
H  33.59400 2.23800 35.17300
H  32.74900 3.44200 36.02100
H  35.39400 2.04100 36.67800
H  34.02700 1.76800 37.55100
H  41.53800 3.64300 32.69700
H  41.26600 1.85100 32.54300
H  40.36100 2.82400 33.71400
H  43.05100 1.93700 29.13400
H  42.24300 1.17100 30.54100
H  42.53800 2.96100 30.57500
H  36.79200 1.68900 26.36300
H  34.42100 3.45000 25.67800
H  37.01600 2.93900 24.33200
H  38.28100 3.43300 25.37000
H  36.87900 4.55100 25.13800
H  33.78000 0.89400 26.66900
H  35.05500 0.53800 25.65500
H  32.15800 0.86400 25.16700
H  33.31600 0.84400 23.85500
H  32.92700 2.32500 24.54600
H  30.33000 4.77000 28.14100
H  29.19900 4.35400 29.47000
H  29.60700 3.12500 28.32400
H  31.41100 3.48600 34.21000
H  30.85000 7.21800 36.15000
H  32.25800 6.39100 37.00800
H  30.62100 6.09600 37.45400

