158

Mg 23.45500 -7.18700 47.33500
C  25.64400 -4.73000 45.78900
C  21.07100 -5.80100 45.43500
C  21.56300 -9.65300 48.40300
C  26.28800 -8.64400 48.62600
N  23.37800 -5.45100 45.79300
C  24.35100 -4.61900 45.38600
C  23.88000 -3.58300 44.35900
C  22.30600 -3.74300 44.41400
C  22.18700 -5.00700 45.28200
C  21.54800 -2.47900 45.05200
C  24.43000 -3.64100 42.98200
C  25.35100 -2.46600 42.47800
H  24.99900 -1.82600 41.11800
N  21.53000 -7.70000 46.83800
C  20.73400 -7.01700 46.06600
C  19.38800 -7.63800 46.15200
C  19.47700 -8.82300 46.96000
C  20.86000 -8.77500 47.47100
C  18.20600 -7.16400 45.41700
C  18.40000 -9.80600 47.28200
O  17.25200 -9.60100 46.91700
C  18.65000 -11.01200 48.08000
N  23.89600 -8.92800 48.30000
C  22.92600 -9.76800 48.82600
C  23.52300 -10.95100 49.49600
C  25.01300 -10.52400 49.69000
C  25.09400 -9.31200 48.77500
C  22.76800 -11.37600 50.77000
C  26.06900 -11.65400 49.24300
C  27.08100 -12.09100 50.28300
N  25.57700 -6.71700 47.41200
C  26.60600 -7.45300 47.96800
C  27.86000 -6.69400 47.87200
C  27.55000 -5.59900 47.02000
C  26.17400 -5.70100 46.73900
C  29.15800 -7.06200 48.37400
C  28.09100 -4.46100 46.38500
O  29.19900 -3.93000 46.35800
C  26.91500 -3.85400 45.50200
C  26.82200 -2.41100 45.99300
O  26.29200 -2.08900 47.06300
O  27.44700 -1.59700 45.07600
C  27.73900 -0.32800 45.81100
H  20.21400 -5.28300 45.00000
H  20.84600 -10.39400 48.76200
H  27.24300 -8.95500 49.05400
H  23.99200 -2.64400 44.90100
H  21.81100 -3.86400 43.45100
H  21.55300 -2.60800 46.13500
H  20.55800 -2.34600 44.61500
H  22.16500 -1.67000 44.66300
H  23.67600 -3.62200 42.19500
H  24.97100 -4.57000 42.80000
H  26.41700 -2.68800 42.52900
H  25.25900 -1.67500 43.22200
H  17.73800 -6.30300 45.89300
H  17.40800 -7.84500 45.12000
H  18.48400 -6.62900 44.50900
H  17.69000 -11.52200 48.16200
H  18.76900 -10.84600 49.15000
H  19.32700 -11.70100 47.57600
H  23.46900 -11.74700 48.75400
H  25.26000 -10.25100 50.71600
H  21.92100 -10.77900 51.10700
H  23.52300 -11.45400 51.55200
H  22.40500 -12.39100 50.60600
H  26.62100 -11.50200 48.31500
H  25.46900 -12.54400 49.05500
H  28.03400 -11.73700 49.89000
H  27.10900 -13.17600 50.38300
H  26.92200 -11.57700 51.23100
H  28.97700 -7.65600 49.26900
H  29.81200 -6.25800 48.71300
H  29.67500 -7.67500 47.63500
H  27.27100 -3.88700 44.47300
H  26.79600 0.17300 46.02700
H  28.22900 0.45600 45.23300
H  28.31200 -0.51100 46.72000
Mg 30.30800 58.25200 39.53900
C  27.24200 56.39200 38.55000
C  32.02600 55.51700 38.37600
C  32.94900 60.20800 39.86300
C  28.10200 61.04500 40.08800
N  29.54000 56.19200 38.66100
C  28.37100 55.66500 38.29800
C  28.56500 54.24300 37.68000
C  30.10300 54.06300 37.61000
C  30.63600 55.36200 38.26100
C  30.64200 52.74800 38.24700
C  27.67800 53.88500 36.47100
C  27.42300 55.01300 35.47100
H  28.05000 54.90300 34.08000
N  32.26000 57.94300 39.18300
C  32.77600 56.71500 38.77500
C  34.18000 56.87600 38.74300
C  34.57800 58.19500 39.16800
C  33.24400 58.84900 39.47400
C  35.08900 55.87200 38.32000
C  36.00800 58.69800 39.25700
O  37.02900 58.12500 38.96500
C  36.15700 60.04100 39.72900
N  30.47000 60.28300 40.09700
C  31.75900 60.86100 40.18800
C  31.60200 62.37600 40.30600
C  30.08500 62.59300 40.63400
C  29.47100 61.27200 40.19700
C  32.57000 62.97900 41.34400
C  29.54200 63.91500 40.00900
C  28.24800 64.57900 40.46300
N  28.15600 58.64500 39.58700
C  27.40700 59.82500 39.78300
C  26.01700 59.60500 39.58300
C  25.90800 58.30600 39.14300
C  27.21700 57.74800 39.15400
C  24.97700 60.64400 39.81200
C  24.93800 57.29800 38.71300
O  23.73500 57.31000 38.72600
C  25.76500 56.00800 38.47500
C  25.28500 54.83700 39.37700
O  25.55000 54.68400 40.57300
O  24.59800 53.89900 38.62500
C  23.98500 52.75800 39.27000
H  32.59500 54.64000 38.06000
H  33.75300 60.94400 39.93300
H  27.44400 61.91500 40.13800
H  28.23300 53.51300 38.41700
H  30.43200 53.97900 36.57400
H  31.36100 52.42600 37.49300
H  29.79300 52.09300 38.44300
H  31.14800 53.03600 39.16800
H  26.75600 53.46900 36.87700
H  28.06300 52.98500 35.99000
H  27.89000 55.95800 35.74700
H  26.34700 55.08200 35.30900
H  34.61500 54.96300 37.95200
H  35.65200 55.52400 39.18700
H  35.84300 56.10900 37.56900
H  35.54900 60.15200 40.62600
H  35.71100 60.58100 38.89400
H  37.19800 60.25300 39.97400
H  31.89000 62.81500 39.35000
H  30.00200 62.58100 41.72000
H  33.44500 63.45000 40.89700
H  32.81100 62.31200 42.17200
H  32.02900 63.74400 41.90000
H  29.49600 63.77200 38.92900
H  30.30500 64.64200 40.28500
H  27.45300 64.51200 39.72000
H  28.35200 65.66000 40.55100
H  27.89100 64.08000 41.36500
H  24.06000 60.29800 39.33400
H  25.33800 61.58100 39.38700
H  24.88700 60.73800 40.89400
H  25.57300 55.58000 37.49200
H  24.61000 51.86500 39.25300
H  23.06900 52.48500 38.74600
H  23.70100 53.02700 40.28700

