158

Mg -2.12500 17.60300 25.68300
C  -2.39300 15.20800 28.43000
C  -2.56700 20.02100 27.94500
C  -1.87200 19.71300 23.19300
C  -1.94900 14.82200 23.51900
N  -2.45400 17.52900 27.93100
C  -2.52900 16.51900 28.91800
C  -2.97100 16.98600 30.28200
C  -3.05200 18.54100 29.99000
C  -2.63000 18.72800 28.56300
C  -4.47300 19.25500 30.33500
C  -2.14100 16.52100 31.59100
C  -2.95100 16.09800 32.82300
H  -2.25300 15.28300 33.99900
N  -2.15400 19.62400 25.57800
C  -2.37500 20.42400 26.60400
C  -2.37700 21.79200 26.16800
C  -2.25000 21.75100 24.74100
C  -2.09600 20.34500 24.41700
C  -2.61500 22.91900 26.97400
C  -2.32900 22.86600 23.67900
O  -2.38500 22.64200 22.47500
C  -2.24600 24.27200 24.12300
N  -1.83200 17.26000 23.66500
C  -1.69300 18.30600 22.84100
C  -1.50200 17.80900 21.37000
C  -1.35900 16.23700 21.54300
C  -1.66800 16.06700 23.01000
C  -2.60100 18.29600 20.40600
C  0.05800 15.68500 21.22800
C  -0.00800 14.39100 20.42800
N  -2.18500 15.45200 25.82600
C  -2.16600 14.46700 24.86600
C  -2.50500 13.17600 25.47700
C  -2.50800 13.43600 26.87300
C  -2.33900 14.81400 27.03200
C  -2.74700 11.88700 24.77600
C  -2.50500 12.82500 28.19800
O  -2.57500 11.64400 28.48600
C  -2.36900 13.91600 29.20500
C  -1.17400 13.66000 29.96600
O  -0.06900 14.07600 29.66400
O  -1.41700 12.86700 31.07000
C  -0.29300 12.56700 31.85300
H  -2.88800 20.86300 28.56200
H  -1.76800 20.33000 22.29800
H  -1.81700 14.11300 22.69900
H  -3.98000 16.66500 30.54100
H  -2.26700 19.07700 30.52500
H  -4.37800 19.87100 31.22900
H  -5.26200 18.53300 30.54500
H  -4.80600 19.79100 29.44700
H  -1.68200 17.46100 31.89700
H  -1.40700 15.76300 31.31800
H  -3.80800 15.52500 32.46800
H  -3.26900 17.02100 33.30700
H  -3.47400 23.37700 26.48300
H  -1.71800 23.51800 27.12600
H  -3.04900 22.58100 27.91500
H  -1.33900 24.32700 24.72600
H  -3.11800 24.69600 24.62000
H  -2.07700 24.88800 23.24000
H  -0.59900 18.28700 20.98900
H  -2.18100 15.80300 20.97300
H  -2.23600 19.21400 19.94400
H  -3.48900 18.49300 21.00700
H  -2.80200 17.59100 19.60000
H  0.59200 15.30900 22.10100
H  0.73900 16.43600 20.82600
H  0.36400 14.55600 19.41600
H  -1.03300 14.02100 20.40700
H  0.64600 13.67800 20.93200
H  -2.31800 11.98300 23.77800
H  -3.82400 11.72800 24.82100
H  -2.17800 11.10600 25.27900
H  -3.20500 13.93400 29.90500
H  -0.64700 11.78100 32.52000
H  -0.02700 13.41900 32.48000
H  0.46700 11.98700 31.32900
Mg 49.39600 45.33000 42.81800
C  46.13600 46.32300 42.17400
C  48.52700 42.06200 42.20200
C  52.73200 44.67500 42.63000
C  50.13500 48.73400 43.32400
N  47.46100 44.26100 42.34500
C  46.28800 44.91400 41.96200
C  45.36500 43.91500 41.24100
C  46.02100 42.53700 41.68500
C  47.41300 42.93000 42.17300
C  45.17800 41.71600 42.72300
C  45.29300 44.10400 39.67700
C  44.02600 43.44900 39.13500
H  43.48000 43.77200 37.71500
N  50.43300 43.63700 42.56300
C  49.86900 42.43500 42.35800
C  50.94500 41.43500 42.37400
C  52.15900 42.11600 42.51300
C  51.80800 43.53400 42.61400
C  50.66400 39.94800 42.08300
C  53.50500 41.43900 42.49300
O  53.56900 40.21900 42.34800
C  54.79300 42.15800 42.67600
N  51.20800 46.54200 42.88400
C  52.47000 46.03100 42.82700
C  53.53400 47.18900 42.91900
C  52.68900 48.47900 43.17600
C  51.24400 47.90000 43.16900
C  54.71000 46.95100 43.97500
C  52.97100 49.60600 42.10700
C  52.09900 49.64600 40.82700
N  48.37200 47.20000 42.78000
C  48.76000 48.50000 43.09100
C  47.65300 49.39000 43.12100
C  46.61100 48.60700 42.76600
C  47.09300 47.27400 42.60200
C  47.68100 50.87900 43.45800
C  45.18600 48.58800 42.37100
O  44.38100 49.51600 42.31900
C  44.81400 47.13100 41.93400
C  43.67700 46.58800 42.72000
O  43.62900 46.68800 43.93100
O  42.73300 45.96700 41.93600
C  41.52700 45.54200 42.71800
H  48.28500 41.03300 41.92800
H  53.78000 44.38300 42.72700
H  50.32200 49.80300 43.44000
H  44.38000 43.96200 41.70600
H  46.12700 41.91600 40.79600
H  44.29200 42.27300 43.02800
H  45.77700 41.45400 43.59400
H  44.92500 40.78100 42.22200
H  46.21700 43.72300 39.24200
H  45.43200 45.17200 39.51000
H  43.25300 43.95800 39.71100
H  44.08400 42.38800 39.38100
H  51.23700 39.60600 41.22200
H  49.62000 39.67400 41.93100
H  50.90300 39.38800 42.98700
H  54.94600 42.77300 41.78900
H  55.67600 41.51900 42.69300
H  54.79300 42.70600 43.61800
H  53.94500 47.30200 41.91500
H  52.66000 48.85700 44.19800
H  54.83100 47.89100 44.51500
H  55.69500 46.75700 43.55200
H  54.44800 46.15100 44.66700
H  54.01400 49.46400 41.82500
H  52.99200 50.53500 42.67600
H  51.67900 50.64300 40.68900
H  51.35800 48.84800 40.79800
H  52.77900 49.50800 39.98600
H  46.69100 51.14600 43.08600
H  48.42900 51.52300 42.99600
H  47.75700 50.91500 44.54400
H  44.53000 47.13900 40.88100
H  40.74900 45.25500 42.01100
H  41.19600 46.29600 43.43300
H  41.78100 44.65000 43.29100

