158

Mg 1.48900 7.47700 25.79200
C  1.83900 9.69000 28.38800
C  1.93800 4.83300 27.90200
C  0.82700 5.61800 23.19500
C  1.75500 10.32700 23.57500
N  2.08200 7.31600 27.82800
C  2.01700 8.35200 28.80700
C  2.08000 7.81500 30.25500
C  2.23500 6.25800 30.01300
C  1.99000 6.11700 28.47700
C  3.55400 5.56200 30.46100
C  0.82000 8.19800 31.11700
C  1.07800 8.82700 32.53000
H  2.05000 8.08700 33.47100
N  1.46800 5.47100 25.59700
C  1.78900 4.50100 26.55700
C  1.64500 3.20800 25.93000
C  1.12900 3.38500 24.59300
C  1.03600 4.87200 24.47600
C  2.10200 1.99100 26.64400
C  0.86200 2.31400 23.48900
O  0.55800 2.64500 22.34400
C  0.97300 0.83300 23.76400
N  1.45400 7.87100 23.63200
C  1.11700 6.91900 22.84600
C  0.86400 7.40100 21.44200
C  1.21600 8.96500 21.43500
C  1.39200 9.08800 23.00700
C  1.63100 6.60300 20.39100
C  0.06900 9.84500 20.96800
C  0.33000 10.88300 19.82500
N  1.73700 9.62700 25.91600
C  1.79200 10.57900 24.96600
C  1.89000 11.95200 25.66000
C  1.85400 11.55900 27.02600
C  1.82700 10.18400 27.08500
C  2.03000 13.26200 24.96100
C  1.90900 12.12100 28.32400
O  1.95600 13.33400 28.64600
C  1.89200 10.94100 29.35100
C  3.18300 10.91700 30.12600
O  4.25000 10.47600 29.70600
O  3.04500 11.48300 31.31000
C  4.28500 11.39700 32.06600
H  2.19200 4.06400 28.63400
H  0.69500 4.94200 22.34700
H  1.93900 11.13200 22.86000
H  3.02500 8.17200 30.66400
H  1.49200 5.72800 30.60900
H  4.22600 6.18700 31.04900
H  4.16900 5.28200 29.60600
H  3.29600 4.67100 31.03300
H  0.15600 7.36500 31.34900
H  0.12700 8.80800 30.53700
H  0.15900 8.92900 33.10700
H  1.50600 9.81700 32.37800
H  2.77000 1.41300 26.00700
H  1.19500 1.41200 26.81900
H  2.48300 2.27900 27.62400
H  0.13300 0.61400 24.42300
H  1.95900 0.68200 24.20400
H  1.04600 0.20000 22.88000
H  -0.21500 7.33000 21.30800
H  2.14900 9.21200 20.92800
H  2.57600 7.08800 20.14400
H  1.02900 6.27500 19.54300
H  1.96200 5.63300 20.76200
H  -0.31900 10.45100 21.78700
H  -0.79300 9.22800 20.71500
H  0.23700 10.41000 18.84700
H  1.39100 11.10300 19.94000
H  -0.35500 11.72300 19.94500
H  3.03100 13.26000 24.53000
H  1.84300 14.08800 25.64700
H  1.31400 13.31900 24.14100
H  0.98700 11.05500 29.94800
H  4.18500 12.14700 32.85100
H  5.15300 11.79600 31.54200
H  4.51900 10.36100 32.31400
Mg 9.21400 3.26800 27.29500
C  10.58000 1.83100 30.15800
C  7.92500 5.75800 29.27500
C  7.67500 4.52600 24.60400
C  10.46900 0.77600 25.43800
N  9.14500 3.68000 29.56300
C  9.78400 2.90800 30.54000
C  9.53100 3.60000 31.93000
C  8.78500 4.91900 31.50200
C  8.56700 4.77600 30.06200
C  7.55800 5.35600 32.36300
C  10.90100 3.84400 32.66800
C  10.81000 4.80400 33.81200
H  11.55000 4.54200 35.10900
N  8.06700 4.95100 26.99400
C  7.62900 5.86600 27.92600
C  6.70000 6.77200 27.32200
C  6.49900 6.29500 25.98000
C  7.40900 5.19100 25.79500
C  6.15700 8.00900 27.96800
C  5.53000 6.87300 25.00500
O  5.38300 6.39100 23.85700
C  4.76100 8.11300 25.26400
N  9.28200 2.92000 25.27000
C  8.50600 3.48600 24.36800
C  8.61600 2.82100 22.95500
C  9.75400 1.80700 23.21200
C  9.85500 1.80800 24.72000
C  7.36300 2.18600 22.37200
C  11.05200 2.10000 22.47200
C  10.96000 1.76000 20.96700
N  10.41600 1.67700 27.67000
C  10.75100 0.69400 26.80100
C  11.43800 -0.43000 27.49200
C  11.45900 0.02000 28.83300
C  10.84200 1.31200 28.88200
C  12.08300 -1.53200 26.78000
C  11.82800 -0.27800 30.18800
O  12.50700 -1.22800 30.64200
C  11.35300 0.87400 31.09100
C  10.62300 0.34800 32.29000
O  9.47700 -0.12300 32.22300
O  11.38600 0.39300 33.43000
C  10.68600 -0.11500 34.63400
H  7.67200 6.63200 29.87800
H  7.05900 4.78000 23.73900
H  10.89700 0.03900 24.75500
H  8.85800 2.96700 32.50800
H  9.44300 5.78800 31.53700
H  7.18800 6.34000 32.07200
H  7.69000 5.32800 33.44500
H  6.72400 4.69300 32.13400
H  11.68300 4.23400 32.01600
H  11.22800 2.93400 33.17100
H  9.79800 4.97100 34.18000
H  11.32500 5.68500 33.42900
H  6.15600 8.84300 27.26600
H  6.86100 8.34800 28.72800
H  5.14000 7.77600 28.28300
H  4.01900 8.04300 24.46800
H  5.40000 8.99400 25.20200
H  4.32400 8.01400 26.25700
H  8.88000 3.62200 22.26400
H  9.41200 0.80300 22.96400
H  6.58100 2.24900 23.12900
H  7.40200 1.18500 21.94300
H  7.02100 2.83000 21.56200
H  11.78100 1.42500 22.92100
H  11.18800 3.16900 22.63800
H  10.10800 1.09000 20.84200
H  11.94200 1.35500 20.72700
H  10.72000 2.53100 20.23600
H  11.37600 -2.36200 26.77200
H  12.98400 -1.85600 27.30000
H  12.30000 -1.28200 25.74200
H  12.30400 1.23600 31.48400
H  10.18300 0.70900 35.14000
H  11.41700 -0.52400 35.33100
H  9.94700 -0.89300 34.44300

