158

Mg 30.03900 57.54800 40.55900
C  27.33500 55.55100 39.93400
C  32.19800 55.17800 39.46200
C  32.68600 59.71700 40.75100
C  27.96100 60.05100 41.77900
N  29.77700 55.65700 39.61400
C  28.55500 54.98000 39.61300
C  28.77600 53.55400 39.19000
C  30.30400 53.46900 39.21700
C  30.81400 54.79800 39.51300
C  30.90500 52.41300 40.13900
C  28.06900 53.28700 37.82100
C  28.49200 54.10000 36.61500
H  27.47600 54.95700 35.76700
N  32.11300 57.50100 39.94300
C  32.76400 56.40200 39.50700
C  34.13600 56.64200 39.27600
C  34.30000 57.94400 39.66600
C  33.01200 58.50200 40.18100
C  35.10500 55.76900 38.65100
C  35.55700 58.78000 39.51400
O  36.64100 58.23300 39.33100
C  35.58500 60.34800 39.67900
N  30.26700 59.63900 40.94200
C  31.47600 60.26600 41.03500
C  31.27500 61.74300 41.37800
C  29.89400 61.73100 42.08300
C  29.29200 60.34600 41.56300
C  32.32100 62.53200 42.22900
C  28.99500 62.94700 41.81200
C  28.55700 63.61800 43.16200
N  28.07700 57.77900 40.79700
C  27.35700 58.87200 41.31800
C  25.91500 58.50500 41.38800
C  25.84800 57.24200 40.77200
C  27.22600 56.81200 40.44600
C  24.72600 59.48100 41.62400
C  25.04400 56.09300 40.27300
O  23.83800 56.04400 40.24800
C  25.92400 55.01800 39.81300
C  25.56400 53.83900 40.61000
O  25.97700 53.59800 41.72000
O  24.61200 53.07400 39.92100
C  24.05000 51.92600 40.51100
H  32.97800 54.46000 39.19700
H  33.57000 60.30300 41.01000
H  27.36600 60.79900 42.30600
H  28.34200 52.90600 39.95200
H  30.50900 53.27000 38.16500
H  30.60900 51.38900 39.91100
H  30.49900 52.67200 41.11700
H  31.98200 52.46400 40.29400
H  26.98000 53.26200 37.86200
H  28.32900 52.24900 37.61100
H  28.97300 53.41800 35.91400
H  29.19500 54.86900 36.93600
H  35.82200 56.31100 38.03500
H  34.73700 54.95400 38.02700
H  35.67300 55.18600 39.37600
H  34.67900 60.77700 39.25200
H  36.35600 60.58200 38.94500
H  35.77500 60.56900 40.73000
H  31.19200 62.19900 40.39100
H  30.05000 61.61100 43.15500
H  33.17000 61.85100 42.27900
H  31.92200 62.79100 43.21000
H  32.61300 63.45900 41.73700
H  28.09000 62.63000 41.29500
H  29.56900 63.67300 41.23600
H  28.95300 64.60800 43.38500
H  28.68500 63.04700 44.08100
H  27.47700 63.73700 43.25000
H  25.04900 60.27500 42.29700
H  23.88100 58.94300 42.05400
H  24.42300 59.91200 40.67000
H  25.63100 54.95100 38.76500
H  23.03200 51.92000 40.12200
H  24.12500 51.82100 41.59400
H  24.54900 50.99700 40.23400
Mg 0.58400 43.49400 25.97800
C  2.86700 43.54600 28.63700
C  -1.99300 43.06800 28.28700
C  -1.45200 42.91700 23.43000
C  3.30900 44.02900 23.86400
N  0.50900 43.21600 28.21100
C  1.51700 43.39400 29.04600
C  1.06500 43.26200 30.50400
C  -0.50500 42.94200 30.35000
C  -0.68300 43.10700 28.88500
C  -0.86700 41.43800 30.81900
C  1.38300 44.61500 31.23500
C  1.77500 44.54900 32.73000
H  1.45000 43.36800 33.61900
N  -1.47500 43.11300 25.85200
C  -2.37900 42.98400 26.94500
C  -3.73200 42.75200 26.41900
C  -3.48200 42.51400 25.02600
C  -2.11300 42.86100 24.71100
C  -5.01800 42.67600 27.27300
C  -4.39700 41.91800 24.01500
O  -4.03500 41.67900 22.87500
C  -5.81600 41.81500 24.37700
N  0.93600 43.38500 23.97200
C  -0.09300 43.12500 23.12500
C  0.37800 43.24600 21.66400
C  1.86700 43.84600 21.77500
C  2.09200 43.78000 23.29900
C  0.38900 42.00800 20.77800
C  1.98000 45.34300 21.31300
C  1.74100 45.57700 19.84500
N  2.64400 43.86600 26.14000
C  3.62300 44.00700 25.20300
C  4.87900 44.27000 25.78800
C  4.69800 43.95800 27.16400
C  3.31700 43.69300 27.36400
C  6.16400 44.71500 25.05600
C  5.30000 43.74700 28.51600
O  6.51200 43.71100 28.84200
C  4.13100 43.51700 29.50400
C  4.31500 42.28500 30.34800
O  3.85400 41.22600 30.08200
O  5.14600 42.62400 31.43100
C  5.47700 41.50500 32.33200
H  -2.73700 42.99300 29.08300
H  -2.05600 42.96500 22.52200
H  4.04400 44.31000 23.10700
H  1.57100 42.38200 30.90000
H  -1.05500 43.72300 30.87500
H  0.02500 41.01100 31.27700
H  -1.28900 40.83900 30.01200
H  -1.59100 41.47000 31.63300
H  0.60000 45.37300 31.20200
H  2.19900 45.09500 30.69500
H  1.43700 45.36600 33.36700
H  2.86300 44.60900 32.71400
H  -5.84500 43.25700 26.86600
H  -4.88400 43.21600 28.21000
H  -5.36600 41.67500 27.53000
H  -5.87600 41.27800 25.32400
H  -6.26500 41.15800 23.63200
H  -6.31700 42.78200 24.34700
H  -0.31000 43.92600 21.16000
H  2.61400 43.20300 21.30900
H  -0.35700 42.06700 19.98500
H  0.05000 41.17400 21.39300
H  1.36500 41.75100 20.36800
H  2.94500 45.80600 21.52000
H  1.22900 45.92800 21.84400
H  0.70200 45.89500 19.76000
H  1.82100 44.62800 19.31500
H  2.35400 46.37100 19.41600
H  6.47500 45.73800 25.27000
H  6.01600 44.64200 23.97800
H  6.93100 43.99900 25.34900
H  4.12900 44.41000 30.12700
H  6.23200 41.67300 33.09900
H  5.71700 40.55700 31.85000
H  4.56900 41.29700 32.89900

