158

Mg 41.42500 8.82600 29.16000
C  43.15200 9.77900 32.12200
C  38.83500 7.54200 31.04900
C  40.15700 7.60200 26.31000
C  44.44100 9.83300 27.37900
N  41.02700 8.65800 31.32900
C  41.83200 9.21300 32.32400
C  41.04000 9.03800 33.65300
C  39.90800 8.02600 33.33700
C  39.85900 8.07700 31.79200
C  40.18600 6.58000 33.72100
C  40.75500 10.46100 34.19000
C  40.10900 10.55100 35.62900
H  40.90500 11.31800 36.70400
N  39.73700 7.73000 28.76400
C  38.72900 7.32900 29.62100
C  37.67200 6.67600 28.89600
C  37.93400 6.84800 27.53900
C  39.33100 7.38500 27.50000
C  36.42500 6.15500 29.68300
C  37.07300 6.47900 26.28800
O  37.60500 6.49800 25.18500
C  35.62400 6.03800 26.44600
N  42.28100 8.50800 27.21200
C  41.49900 8.05200 26.19700
C  42.25900 8.13300 24.77000
C  43.55500 8.96700 25.13900
C  43.42100 9.07000 26.71300
C  42.49000 6.69400 24.16900
C  43.46300 10.35900 24.43300
C  42.59500 11.45300 25.05700
N  43.43100 9.62500 29.59200
C  44.48200 10.02400 28.75200
C  45.52700 10.62300 29.57900
C  45.04900 10.51700 30.88900
C  43.77000 9.94300 30.86100
C  46.73200 11.25400 29.05100
C  45.45000 10.75900 32.25500
O  46.44200 11.22600 32.78600
C  44.16100 10.32600 33.10600
C  44.47300 9.37500 34.20400
O  44.96900 8.23900 34.05100
O  43.95400 9.85300 35.36300
C  44.02000 8.97600 36.56500
H  38.16700 6.94900 31.67700
H  39.80200 7.10700 25.40300
H  45.30200 10.17500 26.80100
H  41.78600 8.56500 34.29100
H  39.06300 8.31700 33.96100
H  40.18300 5.83200 32.92800
H  39.37200 6.33500 34.40200
H  41.08800 6.56200 34.33300
H  39.98200 10.83900 33.52000
H  41.64500 11.09000 34.17800
H  40.10100 9.54800 36.05700
H  39.08700 10.92000 35.54800
H  36.51800 6.18300 30.76900
H  36.09500 5.21200 29.24800
H  35.64100 6.82200 29.32500
H  35.30800 5.36600 25.64800
H  35.04700 6.96200 26.48400
H  35.45600 5.48500 27.37000
H  41.66700 8.68500 24.04000
H  44.52800 8.53700 24.90300
H  42.09800 5.96200 24.87500
H  43.52900 6.40600 24.00800
H  42.12800 6.55100 23.15100
H  43.09800 10.16700 23.42400
H  44.46300 10.79300 24.42800
H  41.76300 11.48200 24.35400
H  43.07300 12.43200 25.03100
H  42.17100 11.26900 26.04400
H  47.29100 11.73700 29.85200
H  46.40400 11.95300 28.28200
H  47.27400 10.45400 28.54500
H  43.97300 11.27500 33.60800
H  43.29600 9.28800 37.31800
H  45.03100 8.92600 36.96800
H  43.74000 7.94400 36.35300
Mg -12.68900 15.80400 42.47400
C  -9.66100 14.08800 42.15400
C  -11.08300 18.47000 41.05000
C  -15.81100 17.15100 41.64500
C  -14.25500 12.92100 43.39600
N  -10.54400 16.20700 41.76000
C  -9.50600 15.33000 41.62500
C  -8.23300 16.06100 41.07300
C  -8.65700 17.56300 41.12000
C  -10.18100 17.44300 41.30900
C  -7.96500 18.50800 42.14400
C  -7.78000 15.47200 39.69700
C  -6.39400 15.50300 39.32000
H  -6.14100 16.32100 38.11300
N  -13.34000 17.68800 41.47400
C  -12.45800 18.65600 41.02900
C  -13.26400 19.76100 40.61800
C  -14.66700 19.48900 40.97000
C  -14.66800 18.05900 41.35800
C  -12.65000 21.04900 40.03100
C  -15.84600 20.36700 40.82100
O  -15.72100 21.54000 40.35600
C  -17.20800 20.09900 41.26300
N  -14.72500 15.10600 42.34000
C  -15.85100 15.83000 42.16700
C  -17.16800 15.08500 42.44300
C  -16.56600 13.81600 43.21700
C  -15.09000 13.95800 42.94100
C  -18.34600 15.88900 43.11200
C  -17.17600 12.38100 42.63200
C  -17.94700 11.50100 43.68800
N  -12.05700 13.85800 42.87600
C  -12.81900 12.81600 43.32600
C  -11.98400 11.76600 43.64600
C  -10.69200 12.20200 43.20400
C  -10.79100 13.51700 42.74300
C  -12.28000 10.42600 44.24600
C  -9.28800 11.77900 43.05600
O  -8.62800 10.80300 43.45100
C  -8.58600 12.97400 42.31900
C  -7.38600 13.38900 43.01400
O  -7.35900 14.11500 44.05300
O  -6.31300 12.96900 42.30900
C  -4.99900 13.69500 42.68600
H  -10.44300 19.29300 40.72500
H  -16.79100 17.54800 41.37000
H  -14.73900 12.19600 44.05200
H  -7.49200 15.90000 41.85600
H  -8.43100 18.08900 40.19300
H  -7.81300 17.94900 43.06700
H  -8.65500 19.32600 42.35100
H  -7.01200 18.95000 41.85200
H  -8.37500 16.06500 39.00300
H  -8.16100 14.45100 39.73100
H  -5.98800 14.49600 39.22200
H  -5.73400 15.92300 40.07900
H  -12.56200 21.85800 40.75600
H  -13.21400 21.41700 39.17400
H  -11.62800 20.77000 39.77300
H  -17.75600 19.53000 40.51200
H  -17.69100 21.06000 41.44000
H  -17.14000 19.52300 42.18600
H  -17.51300 14.72500 41.47400
H  -16.87700 13.91800 44.25600
H  -18.11800 16.95200 43.02800
H  -18.53200 15.68500 44.16700
H  -19.32300 15.71000 42.66300
H  -16.38000 11.80200 42.16300
H  -17.79700 12.43700 41.73800
H  -17.44500 10.54300 43.82300
H  -18.98300 11.42800 43.35500
H  -17.96800 11.99900 44.65700
H  -13.03200 10.50300 45.03100
H  -11.40500 10.00600 44.74200
H  -12.49500 9.59200 43.57800
H  -8.35400 12.65000 41.30400
H  -4.30300 13.35800 41.91700
H  -4.63700 13.56400 43.70500
H  -5.14800 14.77300 42.62600

