158

Mg 41.27600 9.75200 29.14100
C  43.38100 10.47800 31.83900
C  39.06700 8.40300 31.22800
C  39.71100 8.40200 26.42200
C  44.03700 10.45700 26.95200
N  41.26600 9.47700 31.30900
C  42.10800 9.96100 32.26000
C  41.52700 9.84700 33.68000
C  40.20200 9.14700 33.41100
C  40.12800 9.05900 31.86900
C  40.09200 7.71800 34.07400
C  41.33400 11.19700 34.42700
C  40.89700 11.18200 35.92100
H  41.99900 11.44100 36.93800
N  39.65700 8.52200 28.83600
C  38.78500 8.11300 29.84200
C  37.65800 7.38000 29.30200
C  37.77500 7.64000 27.87000
C  39.13900 8.17500 27.66100
C  36.57100 6.72900 30.14500
C  36.77100 7.40800 26.76500
O  36.97200 7.65900 25.57200
C  35.43400 6.87500 27.05900
N  41.88000 9.37200 26.95900
C  40.95600 8.94600 26.04400
C  41.42000 9.17400 24.58000
C  42.72600 9.88700 24.82800
C  42.92300 9.93400 26.33400
C  41.57200 7.81900 23.79400
C  42.57600 11.28600 24.21600
C  42.09000 12.47500 25.14600
N  43.27700 10.36200 29.30400
C  44.23100 10.66900 28.34700
C  45.42500 11.12800 28.95900
C  45.13500 11.10200 30.33300
C  43.82300 10.65800 30.50400
C  46.69400 11.38200 28.23700
C  45.70700 11.30200 31.63500
O  46.84600 11.63300 32.02900
C  44.55100 10.89700 32.69700
C  44.92800 9.93100 33.69600
O  44.99100 8.74300 33.46600
O  45.24600 10.54300 34.85200
C  45.66400 9.63700 35.92700
H  38.41600 7.91200 31.95400
H  39.27800 7.84900 25.58600
H  44.75200 10.87400 26.23900
H  42.16400 9.16800 34.24800
H  39.31900 9.77100 33.54100
H  40.97500 7.41800 34.63800
H  39.92300 6.88800 33.38700
H  39.18300 7.94800 34.63000
H  40.68100 11.92500 33.94400
H  42.32700 11.63700 34.34100
H  40.43200 10.24400 36.22400
H  40.08500 11.90000 36.03600
H  36.79200 6.83500 31.20700
H  36.36700 5.68000 29.92600
H  35.64700 7.28700 29.99400
H  34.85100 6.88200 26.13800
H  34.93400 7.62100 27.67600
H  35.50800 5.89400 27.52800
H  40.71600 9.68500 23.92400
H  43.55400 9.43000 24.28600
H  41.44300 6.96500 24.46000
H  42.55300 7.67000 23.34200
H  40.78500 7.92500 23.04900
H  42.03600 11.40000 23.27600
H  43.59600 11.55100 23.93700
H  42.96700 13.06100 25.41900
H  41.56600 12.12700 26.03700
H  41.41300 13.08300 24.54500
H  47.52400 11.23400 28.92700
H  46.91100 12.36000 27.80700
H  46.75900 10.73000 27.36600
H  44.34200 11.81400 33.24900
H  44.73600 9.31300 36.39900
H  46.32300 10.16500 36.61600
H  46.29800 8.82900 35.56400
Mg -2.40000 33.92100 27.68900
C  -4.09400 31.86200 29.95800
C  -1.31500 35.81000 30.26300
C  -1.28000 36.17700 25.43500
C  -3.96800 32.22800 25.08500
N  -2.72000 33.80700 29.83200
C  -3.36900 32.86800 30.57600
C  -3.17400 33.00600 32.09200
C  -2.29600 34.35500 32.15500
C  -2.07500 34.69700 30.66000
C  -2.97000 35.56200 33.00600
C  -2.55400 31.79700 32.83100
C  -3.15500 31.30400 34.17400
H  -2.14100 31.25300 35.33600
N  -1.33900 35.68700 27.85600
C  -0.86000 36.22000 28.98400
C  -0.00500 37.31600 28.63500
C  0.04400 37.41400 27.19600
C  -0.90800 36.46000 26.72100
C  0.69300 38.04100 29.68700
C  0.90900 38.30300 26.35000
O  0.83600 38.40900 25.12000
C  1.99800 39.09700 27.03300
N  -2.55700 34.07200 25.57800
C  -2.01700 35.13800 24.86500
C  -2.19500 34.93300 23.35800
C  -2.92800 33.56100 23.26800
C  -3.21900 33.28800 24.73700
C  -3.01900 36.10200 22.63400
C  -1.99200 32.40800 22.73900
C  -0.68200 31.92400 23.47900
N  -3.65100 32.27800 27.49900
C  -4.21800 31.68600 26.38300
C  -5.15800 30.70000 26.82500
C  -5.04900 30.65100 28.23100
C  -4.14600 31.66100 28.59000
C  -6.00600 29.89200 25.97100
C  -5.61200 30.02400 29.43500
O  -6.54100 29.18800 29.57700
C  -4.88000 30.69300 30.62800
C  -5.90600 31.06900 31.65900
O  -6.43400 32.17800 31.81300
O  -5.92600 29.97600 32.54300
C  -6.94700 30.05700 33.55100
H  -0.96700 36.42500 31.09600
H  -0.94800 36.92200 24.70800
H  -4.54600 31.69700 24.32500
H  -4.11600 33.15400 32.61900
H  -1.36000 34.17100 32.68300
H  -3.69500 35.93100 32.28100
H  -2.23000 36.29700 33.32200
H  -3.49600 35.12500 33.85500
H  -1.50800 32.00100 33.05900
H  -2.56100 31.06500 32.02300
H  -3.53000 30.29300 34.01500
H  -4.01500 31.87100 34.53000
H  0.47200 37.90000 30.74500
H  0.40000 39.08400 29.56300
H  1.73900 37.78200 29.52100
H  1.53900 39.72700 27.79400
H  2.46200 39.75000 26.29400
H  2.76600 38.47900 27.49900
H  -1.17500 34.85800 22.98200
H  -3.74700 33.68100 22.55800
H  -2.23900 36.83000 22.40700
H  -3.74900 36.59900 23.27300
H  -3.44800 35.79600 21.68000
H  -1.79200 32.72000 21.71400
H  -2.68200 31.56900 22.64500
H  -0.80900 30.84300 23.53500
H  -0.64900 32.29400 24.50400
H  0.29600 32.15000 23.05400
H  -5.72900 28.89100 26.30000
H  -5.79800 29.82000 24.90300
H  -7.04600 30.11800 26.20800
H  -4.04800 30.01800 30.82700
H  -7.56400 30.94500 33.40800
H  -6.45300 30.18000 34.51500
H  -7.53700 29.14100 33.55000

