158

Mg 24.87700 1.18000 30.09300
C  27.25200 0.72700 32.61100
C  22.47700 1.61900 32.53200
C  22.55500 1.29400 27.57100
C  27.34300 0.21300 27.62600
N  24.89800 1.15900 32.32100
C  26.01700 1.11100 33.12300
C  25.68200 1.31500 34.56600
C  24.13900 1.43200 34.61100
C  23.76800 1.40300 33.06100
C  23.29800 0.32700 35.44400
C  26.39800 2.58300 35.15100
C  27.24100 2.59300 36.40900
H  26.51900 1.89300 37.59300
N  22.81700 1.40500 30.02700
C  22.02300 1.56000 31.15500
C  20.64000 1.68900 30.71000
C  20.66000 1.67700 29.31300
C  21.99900 1.47300 28.91900
C  19.53900 1.86300 31.75000
C  19.42000 1.70600 28.35800
O  19.44700 1.45000 27.13600
C  18.13000 2.09600 28.90700
N  24.94800 0.82400 27.86700
C  23.84300 1.03500 27.12500
C  24.22200 1.19400 25.68200
C  25.72100 0.76700 25.66700
C  26.06800 0.59700 27.11400
C  23.33700 0.30500 24.68100
C  26.58000 1.74300 24.86100
C  26.75500 3.13100 25.57400
N  26.78200 0.42200 30.09900
C  27.69100 0.23600 29.02300
C  29.01200 -0.06300 29.55600
C  28.87700 0.05700 30.95800
C  27.50200 0.43200 31.22000
C  30.21800 -0.40300 28.63400
C  29.61400 -0.02800 32.13600
O  30.74100 -0.47300 32.39000
C  28.54700 0.41700 33.28500
C  28.45000 -0.60500 34.42700
O  27.79300 -1.62000 34.47300
O  29.42600 -0.24600 35.38000
C  29.32400 -1.00400 36.60900
H  21.74100 1.82100 33.31400
H  21.82200 1.53800 26.79900
H  28.15500 -0.01300 26.93200
H  25.93600 0.39300 35.08700
H  23.90400 2.39300 35.06700
H  22.99300 0.85200 36.34900
H  23.88700 -0.53400 35.75900
H  22.46200 -0.06800 34.86700
H  25.63900 3.34800 35.31800
H  26.99700 2.96800 34.32600
H  27.52100 3.59600 36.73200
H  28.14400 2.05200 36.12600
H  19.82300 1.68800 32.78800
H  18.66000 1.24400 31.57000
H  19.26100 2.91700 31.77100
H  17.91400 1.29700 29.61700
H  17.39900 1.89500 28.12400
H  18.05600 3.12300 29.26300
H  24.18200 2.26400 25.47600
H  25.80200 -0.27400 25.35300
H  22.82500 0.87900 23.90900
H  22.61800 -0.25500 25.27900
H  23.91700 -0.38300 24.06500
H  26.17100 1.81800 23.85400
H  27.58100 1.33300 24.72800
H  26.42200 2.94000 26.59400
H  26.27700 3.95600 25.04600
H  27.75900 3.54600 25.66700
H  31.07900 -0.57800 29.27900
H  30.37500 0.26100 27.78400
H  29.95900 -1.39000 28.25100
H  28.92100 1.32000 33.76800
H  29.88000 -1.94200 36.63500
H  28.29700 -1.27200 36.85800
H  29.76500 -0.29400 37.30900
Mg 36.23100 49.22600 26.31300
C  36.45000 47.19000 29.06900
C  34.71300 51.63800 28.16400
C  35.40900 50.91700 23.46200
C  37.18100 46.57300 24.28400
N  35.58500 49.31400 28.33000
C  35.96100 48.43300 29.29100
C  35.45800 48.92300 30.71200
C  34.87100 50.29000 30.37900
C  34.99800 50.44100 28.86400
C  33.39800 50.55200 30.89600
C  36.56100 48.90400 31.79800
C  36.25500 48.47700 33.30400
H  34.98400 48.93200 34.03600
N  35.42900 51.13900 25.89800
C  34.82100 51.94800 26.85600
C  34.56200 53.19100 26.12800
C  34.82200 52.98600 24.73200
C  35.25200 51.64800 24.63900
C  33.96500 54.42800 26.80100
C  34.86900 53.88500 23.49400
O  35.28200 53.63400 22.34300
C  34.37800 55.30000 23.71000
N  36.37400 48.77100 24.21100
C  35.87600 49.61700 23.23000
C  36.15300 49.03900 21.79400
C  36.82000 47.67000 22.13600
C  36.87900 47.69300 23.66300
C  35.00400 48.91500 20.81300
C  38.15100 47.39600 21.46100
C  39.38700 48.02100 22.14500
N  36.74000 47.23100 26.56200
C  37.07300 46.24500 25.64800
C  37.37100 45.00800 26.31200
C  37.13100 45.31800 27.72900
C  36.69700 46.64000 27.72600
C  37.82500 43.70400 25.70200
C  37.20200 44.83400 29.00700
O  37.35000 43.67500 29.43000
C  36.72100 45.95300 29.98700
C  35.43600 45.42600 30.55000
O  34.35600 45.31300 29.96600
O  35.56200 45.20100 31.91300
C  34.47300 44.46100 32.47700
H  34.19400 52.35500 28.80400
H  35.12400 51.37900 22.51500
H  37.53700 45.76700 23.63900
H  34.72200 48.13000 30.84700
H  35.61500 50.91900 30.86700
H  33.20700 49.79600 31.65700
H  32.67000 50.37100 30.10600
H  33.31200 51.60000 31.18500
H  37.05200 49.85700 31.99700
H  37.34000 48.21800 31.46500
H  37.17200 48.73700 33.83200
H  36.21300 47.39000 33.24400
H  33.09100 54.89800 26.35000
H  34.77500 55.15000 26.69700
H  33.72600 54.11000 27.81600
H  35.08500 55.92000 24.26000
H  33.39100 55.30000 24.17300
H  34.29500 55.75300 22.72100
H  36.85200 49.70600 21.29000
H  36.13100 46.87900 21.84200
H  34.03900 49.15800 21.25800
H  34.86900 47.90600 20.42500
H  35.26400 49.42800 19.88700
H  38.16600 47.70900 20.41700
H  38.25100 46.31100 21.48100
H  39.78100 48.63800 21.33700
H  40.10400 47.21200 22.28200
H  39.11800 48.57400 23.04500
H  38.90500 43.57500 25.77500
H  37.49000 43.65400 24.66600
H  37.25900 42.97100 26.27600
H  37.54300 46.04100 30.69700
H  34.75400 43.84700 33.33200
H  34.08100 43.66300 31.84600
H  33.74600 45.17400 32.86700

