158

Mg -3.00500 17.42600 27.77200
C  -3.63800 15.17000 30.42600
C  -3.42500 20.04200 29.86600
C  -2.85400 19.41900 25.14600
C  -3.11600 14.62500 25.59200
N  -3.39400 17.53500 29.89100
C  -3.44000 16.48000 30.84000
C  -3.65200 17.12500 32.24800
C  -3.89400 18.65700 31.92200
C  -3.55200 18.78400 30.43000
C  -5.27200 19.30200 32.28200
C  -2.39700 16.82200 33.16200
C  -2.28300 17.56300 34.55600
H  -2.25900 16.76000 35.82000
N  -2.93400 19.48400 27.57300
C  -3.20300 20.39600 28.51300
C  -2.93900 21.69400 27.95700
C  -2.62800 21.53200 26.57400
C  -2.86300 20.08000 26.34300
C  -3.02800 22.87500 28.79400
C  -2.10200 22.49800 25.61400
O  -1.91100 22.24000 24.40900
C  -1.62900 23.77800 26.00200
N  -2.99300 17.07600 25.65500
C  -2.91300 18.07400 24.79300
C  -2.88000 17.64400 23.34500
C  -2.92800 16.09300 23.45700
C  -3.00500 15.89900 24.99100
C  -4.05500 18.16800 22.45900
C  -1.81500 15.29800 22.72800
C  -0.46700 15.24500 23.42100
N  -3.33200 15.32000 27.87400
C  -3.40000 14.35100 26.94600
C  -3.86300 13.12200 27.59900
C  -3.96000 13.37500 28.91900
C  -3.57800 14.70400 29.06900
C  -4.10300 11.80500 26.83600
C  -4.30600 12.77000 30.21800
O  -4.70100 11.65200 30.50900
C  -4.04800 13.92700 31.27800
C  -3.01200 13.32000 32.19500
O  -1.74700 13.36700 32.04200
O  -3.62000 12.69600 33.28200
C  -2.79100 12.12100 34.29500
H  -3.43500 20.91300 30.52400
H  -2.83500 20.05800 24.26000
H  -3.09300 13.74600 24.94400
H  -4.55800 16.73900 32.71500
H  -3.13200 19.29000 32.37800
H  -5.17500 20.00200 33.11200
H  -6.08400 18.62900 32.55900
H  -5.67800 20.02500 31.57400
H  -1.47700 16.91900 32.58600
H  -2.51100 15.74800 33.31200
H  -3.09100 18.28900 34.65400
H  -1.41800 18.22500 34.55600
H  -2.97900 23.75500 28.15200
H  -2.18300 22.82400 29.48000
H  -3.94200 22.94500 29.38500
H  -0.90000 23.50600 26.76500
H  -2.37800 24.54400 26.20400
H  -0.98800 24.20300 25.23000
H  -1.93900 18.00100 22.92500
H  -3.94900 15.82500 23.18500
H  -4.88300 18.53000 23.06800
H  -4.37000 17.44500 21.70700
H  -3.54400 19.00300 21.97700
H  -1.70800 15.73900 21.73600
H  -2.09700 14.27500 22.47600
H  -0.44500 15.65200 24.43300
H  0.26700 15.81200 22.84800
H  -0.09100 14.22500 23.50200
H  -3.19700 11.22300 27.00600
H  -4.25400 12.11900 25.80300
H  -5.01700 11.33600 27.20000
H  -4.98100 14.09500 31.81500
H  -3.21900 11.17900 34.64000
H  -2.80500 12.82200 35.13000
H  -1.77300 11.89900 33.97700
Mg 49.38600 45.54400 43.32400
C  46.19300 46.13000 42.32400
C  49.23800 42.42100 42.04600
C  52.66800 45.35500 43.61100
C  49.64300 49.08100 44.16500
N  47.90400 44.49700 42.13300
C  46.68300 44.93300 41.85600
C  45.91800 44.00800 40.89600
C  46.79200 42.67100 41.08300
C  48.04100 43.18300 41.80300
C  46.06400 41.56900 41.90200
C  45.85000 44.58500 39.38100
C  44.47600 44.60600 38.76900
H  44.30800 43.54600 37.64800
N  50.71300 44.07500 43.04600
C  50.45100 42.81600 42.48800
C  51.68200 42.00100 42.48600
C  52.71600 42.80300 43.06100
C  52.08200 44.15000 43.28400
C  51.72500 40.48700 42.10600
C  54.13600 42.37900 43.24400
O  54.47600 41.20900 42.88800
C  55.25000 43.20700 43.82600
N  50.88900 47.05400 43.72800
C  52.19500 46.66400 43.74800
C  53.17200 47.80600 43.92200
C  52.19400 48.91700 44.41300
C  50.82400 48.35300 44.09300
C  54.35900 47.66500 45.01100
C  52.42200 50.35600 43.79600
C  52.43500 51.43200 44.83200
N  48.11700 47.21600 43.42900
C  48.31600 48.52500 43.94000
C  47.07200 49.27600 43.79600
C  46.18300 48.40100 43.22200
C  46.91400 47.17900 42.98600
C  46.87700 50.68700 44.27500
C  44.84400 48.15900 42.69200
O  43.94200 48.93900 42.61800
C  44.79300 46.63600 42.16100
C  43.77400 46.11100 43.17100
O  43.97900 45.87600 44.40000
O  42.59300 45.87700 42.52000
C  41.67500 44.97200 43.18700
H  49.10700 41.40500 41.66700
H  53.74500 45.18000 43.63800
H  49.78500 50.09100 44.55300
H  44.90900 43.73300 41.20500
H  47.05500 42.32600 40.08300
H  44.97800 41.55500 41.80500
H  46.17000 41.46500 42.98200
H  46.38800 40.65400 41.40600
H  46.54800 44.09700 38.70000
H  46.08800 45.64800 39.38500
H  44.36600 45.57900 38.28900
H  43.60800 44.60100 39.42900
H  52.41100 40.26300 41.28900
H  50.77400 40.05400 41.79600
H  52.13800 39.91400 42.93600
H  56.09200 42.53600 44.00000
H  54.94400 43.43900 44.84600
H  55.55500 44.05600 43.21400
H  53.55000 48.06800 42.93400
H  52.30400 48.91800 45.49800
H  54.51100 46.66000 45.40300
H  54.17600 48.35000 45.83900
H  55.29500 47.98700 44.55500
H  51.71600 50.67900 43.03200
H  53.40400 50.37000 43.32400
H  53.45400 51.81800 44.86800
H  52.16500 51.15200 45.85000
H  51.75200 52.13300 44.35100
H  47.60700 51.09500 44.97500
H  45.96200 50.60800 44.86200
H  46.73800 51.29500 43.38000
H  44.38600 46.53900 41.15500
H  41.17800 45.37100 44.07200
H  42.38500 44.17600 43.40900
H  40.94100 44.51200 42.52500

