158

Mg 46.84900 16.81800 28.09700
C  45.08900 16.59800 31.24600
C  49.24100 18.68600 29.74000
C  48.30600 17.02700 25.11700
C  44.10400 15.26700 26.67200
N  47.16300 17.52600 30.26800
C  46.29100 17.27700 31.36200
C  47.00000 17.74200 32.77700
C  48.12800 18.66700 32.13500
C  48.27500 18.23000 30.63900
C  47.75500 20.14500 32.24400
C  47.54100 16.47000 33.59900
C  47.66200 16.49800 35.08900
H  47.45100 17.80700 35.90800
N  48.55100 17.78200 27.52900
C  49.38100 18.55800 28.34600
C  50.46300 19.02800 27.53800
C  50.23000 18.51000 26.18100
C  48.96800 17.73600 26.21800
C  51.68100 19.83700 28.08900
C  51.07600 18.63800 24.90600
O  50.79500 18.05100 23.89700
C  52.17200 19.61300 24.89600
N  46.31500 16.19900 26.06300
C  47.11200 16.28300 25.02100
C  46.41300 15.73600 23.71500
C  45.14200 15.12800 24.27600
C  45.15500 15.56300 25.77500
C  46.10800 16.83700 22.68100
C  45.19400 13.58100 24.08800
C  44.71600 13.17600 22.66900
N  44.98300 16.08200 28.72000
C  44.03400 15.39600 27.99000
C  42.95200 15.01500 28.82200
C  43.33300 15.41200 30.14300
C  44.59300 16.08500 30.02000
C  41.70200 14.43000 28.36600
C  42.91800 15.46700 31.57600
O  41.92700 14.93600 32.08000
C  44.15100 16.13600 32.31700
C  43.74300 17.28500 33.23400
O  43.82600 18.48000 32.92800
O  43.13300 16.83500 34.35700
C  42.47800 17.72500 35.34800
H  50.06300 19.29500 30.12200
H  48.79700 16.98900 24.14200
H  43.29100 14.64300 26.29600
H  46.37700 18.34500 33.43700
H  49.07900 18.58100 32.66100
H  48.50500 20.81200 32.67000
H  46.91200 20.33900 32.90700
H  47.56600 20.63900 31.29200
H  48.50900 16.15300 33.21100
H  46.89900 15.59300 33.51700
H  48.65300 16.12800 35.35200
H  46.88500 15.89600 35.56200
H  52.62300 19.31900 27.90900
H  51.51200 20.05000 29.14500
H  51.54000 20.79100 27.58100
H  51.71100 20.58800 25.05100
H  52.47800 19.61500 23.85000
H  52.95100 19.41800 25.63300
H  47.11600 15.01100 23.30500
H  44.19500 15.49000 23.87500
H  46.84500 17.62700 22.82100
H  45.09800 17.24500 22.70800
H  46.36600 16.43500 21.70100
H  44.63800 13.09100 24.88700
H  46.22000 13.22100 24.16200
H  45.52400 12.75900 22.06700
H  44.27000 14.00100 22.11400
H  44.01400 12.35600 22.82300
H  41.65500 13.34100 28.37300
H  41.34400 14.70700 27.37500
H  40.87600 14.69100 29.02800
H  44.65600 15.43200 32.97800
H  41.70300 18.21200 34.75500
H  43.19400 18.39800 35.81800
H  41.99000 17.02300 36.02300
Mg 51.09600 47.04100 42.06700
C  47.86400 48.23400 41.16700
C  50.17000 44.07500 40.73900
C  54.22600 46.13700 42.67600
C  51.84500 50.17600 43.40400
N  49.19800 46.29500 41.08800
C  48.05300 46.94600 40.77100
C  47.09500 46.10100 39.94600
C  47.80500 44.70600 39.97800
C  49.14400 45.05900 40.64800
C  47.05100 43.64600 40.86100
C  46.85500 46.75700 38.52900
C  45.33900 46.85600 38.41000
H  44.69500 46.15100 37.09500
N  52.08500 45.33800 41.72100
C  51.48400 44.19700 41.15200
C  52.51000 43.14500 41.08500
C  53.72400 43.72200 41.61500
C  53.38800 45.09700 42.08800
C  52.30200 41.75400 40.53600
C  55.05500 42.98900 41.72900
O  55.12300 41.84800 41.25100
C  56.20500 43.61700 42.44800
N  52.84900 48.09900 42.84300
C  54.02500 47.49000 42.96100
C  55.05100 48.37800 43.58400
C  54.29300 49.71500 43.77700
C  52.91600 49.33300 43.28500
C  55.76000 47.75000 44.84400
C  54.90400 50.88100 42.93800
C  54.41300 52.35200 43.36600
N  50.12500 48.88100 42.28600
C  50.52100 50.05300 42.88700
C  49.48800 51.06300 42.90000
C  48.41200 50.32100 42.22800
C  48.87000 49.05700 41.85600
C  49.42700 52.45600 43.42200
C  47.05000 50.49500 41.66100
O  46.27700 51.42800 41.69400
C  46.63400 49.12600 40.97900
C  45.47200 48.70900 41.76000
O  45.41900 48.18500 42.85800
O  44.37500 48.92700 40.99600
C  43.10500 48.39400 41.53000
H  49.71800 43.14100 40.39700
H  55.26900 45.90900 42.90600
H  52.02600 51.21600 43.68600
H  46.25500 45.98200 40.63000
H  47.95000 44.35400 38.95600
H  46.71100 42.84400 40.20600
H  46.14900 43.98700 41.37100
H  47.77800 43.28000 41.58600
H  47.31900 46.10400 37.78900
H  47.40900 47.68700 38.39800
H  45.06900 47.90400 38.27700
H  44.78900 46.50500 39.28300
H  53.13200 41.34400 39.96100
H  51.38800 41.82500 39.94600
H  52.15300 41.02400 41.33200
H  57.06200 42.96400 42.60900
H  55.87600 43.77900 43.47400
H  56.53200 44.51700 41.92700
H  55.72600 48.62700 42.76500
H  54.34000 50.01800 44.82300
H  55.47600 46.72400 45.08000
H  55.60400 48.42400 45.68600
H  56.83200 47.72000 44.64600
H  54.53800 50.65600 41.93600
H  55.96900 50.78100 42.72900
H  55.24800 52.98400 43.66600
H  53.78800 52.40600 44.25800
H  53.72500 52.69500 42.59400
H  49.47300 53.09000 42.53600
H  50.34800 52.51700 44.00000
H  48.51700 52.70000 43.97000
H  46.53200 49.25500 39.90100
H  43.06000 48.37900 42.61900
H  42.92200 47.36500 41.22000
H  42.29700 49.01700 41.14600

