158

Mg 42.89600 41.99800 27.43100
C  41.86300 44.37200 29.87500
C  44.05600 40.10000 30.01700
C  43.97500 39.80500 25.10500
C  42.00500 44.29800 25.01900
N  42.90500 42.22300 29.66400
C  42.41000 43.22200 30.39200
C  42.47300 42.91900 31.89400
C  43.39100 41.64600 31.98800
C  43.47800 41.28000 30.47500
C  44.80200 41.76000 32.52700
C  41.08500 42.61100 32.56000
C  40.72400 43.41300 33.73500
H  40.25000 42.64500 35.01100
N  43.84800 40.07900 27.52200
C  44.20600 39.52100 28.68900
C  44.81100 38.21600 28.32600
C  44.68400 38.12100 26.94900
C  44.12100 39.35500 26.46800
C  45.16500 37.19100 29.37700
C  45.04100 36.96200 26.02400
O  44.66300 36.93800 24.85300
C  45.74800 35.81000 26.53300
N  43.20600 42.07700 25.38200
C  43.52800 41.02800 24.57200
C  43.31900 41.31800 23.06100
C  42.51000 42.63900 23.09200
C  42.63900 43.09400 24.63400
C  44.58700 41.47800 22.26500
C  41.12500 42.41400 22.52000
C  40.18900 41.32500 23.21600
N  42.24300 44.02800 27.36300
C  41.83000 44.80100 26.34500
C  41.25400 46.04400 26.79100
C  41.21000 45.90700 28.21000
C  41.82300 44.64300 28.49200
C  40.79700 47.16600 25.95100
C  40.79200 46.47600 29.42900
O  40.26700 47.57100 29.57100
C  41.15000 45.56000 30.48800
C  42.10800 46.35500 31.33400
O  43.33500 46.36200 31.19900
O  41.34300 47.04500 32.26300
C  41.98700 48.09500 33.03700
H  44.43400 39.34500 30.71000
H  44.02300 39.14200 24.23800
H  41.55000 44.92000 24.24500
H  42.88700 43.74300 32.47400
H  42.99800 40.82800 32.59200
H  44.77900 42.82200 32.76900
H  45.57700 41.51600 31.80000
H  44.80700 41.23400 33.48100
H  41.11300 41.56700 32.87500
H  40.22500 42.62200 31.89000
H  39.94300 44.12500 33.46900
H  41.47500 44.14900 34.02300
H  44.38000 37.30100 30.12600
H  46.12300 37.60700 29.68900
H  45.09300 36.14700 29.07300
H  45.99900 35.26600 25.62200
H  45.27700 35.01400 27.11100
H  46.64900 36.15400 27.04000
H  42.78700 40.43200 22.71300
H  43.01100 43.45400 22.56900
H  44.73700 40.70100 21.51500
H  45.41700 41.41100 22.96700
H  44.64000 42.41900 21.71600
H  41.37600 42.12100 21.50100
H  40.65000 43.39400 22.56700
H  39.91900 40.65600 22.39900
H  39.25700 41.63600 23.68900
H  40.80000 40.81100 23.95700
H  40.53300 46.67600 25.01400
H  41.41300 48.02600 25.68800
H  39.84300 47.48200 26.37300
H  40.26600 45.11800 30.94600
H  42.80300 48.49600 32.43500
H  42.47600 47.50900 33.81400
H  41.39900 48.83000 33.58700
Mg 26.51600 50.15300 26.17300
C  24.59800 51.34600 28.78500
C  28.75800 49.19500 28.59000
C  28.61500 49.30300 23.69400
C  24.18400 51.25000 23.86800
N  26.51400 50.12300 28.46800
C  25.63300 50.60700 29.34600
C  26.01400 50.43000 30.75500
C  27.59600 49.94800 30.65100
C  27.65400 49.79600 29.15000
C  28.83100 50.90700 31.21300
C  25.03300 49.40600 31.44000
C  24.43300 49.56600 32.81900
H  25.19600 50.25600 33.97900
N  28.40900 49.26900 26.12900
C  29.20600 48.88400 27.22600
C  30.42800 48.20600 26.71800
C  30.41000 48.42000 25.35200
C  29.10800 49.11300 24.93100
C  31.39600 47.41700 27.66200
C  31.60100 48.09900 24.42400
O  31.57200 48.47500 23.25800
C  32.86200 47.43700 24.87000
N  26.53100 50.38600 24.07100
C  27.42500 49.85900 23.20600
C  27.04600 49.96400 21.67900
C  25.57900 50.66200 21.87000
C  25.38500 50.68900 23.35900
C  28.03400 50.82000 20.90200
C  24.45500 49.87500 21.13400
C  24.13500 50.32900 19.76900
N  24.79700 51.18000 26.25800
C  23.86300 51.46100 25.28500
C  22.69000 52.20000 25.85300
C  22.91600 52.10300 27.24000
C  24.20700 51.53000 27.47200
C  21.52800 52.79300 25.14600
C  22.40300 52.50900 28.52300
O  21.39600 53.14900 28.80100
C  23.46100 51.92900 29.64600
C  23.90700 53.11000 30.47900
O  24.70900 53.92600 30.13500
O  23.33500 53.08700 31.68100
C  23.67400 54.18700 32.63900
H  29.48900 48.80600 29.30200
H  29.25400 48.87900 22.91600
H  23.48700 51.61400 23.11100
H  26.08500 51.39100 31.26600
H  27.61700 48.91800 31.00800
H  28.37800 51.60800 31.91300
H  29.41400 51.34800 30.40400
H  29.46200 50.13600 31.65500
H  25.45700 48.40800 31.32100
H  24.14600 49.30500 30.81400
H  24.29200 48.53300 33.13500
H  23.45300 50.04100 32.76800
H  31.47200 46.36400 27.39300
H  31.09100 47.42200 28.70800
H  32.35100 47.94300 27.66800
H  33.35100 48.11200 25.57300
H  33.47500 47.22000 23.99500
H  32.47000 46.50600 25.28000
H  26.92000 48.95200 21.29400
H  25.53700 51.69800 21.53100
H  28.86800 51.20200 21.49100
H  27.55400 51.65300 20.38800
H  28.37800 50.05300 20.20800
H  23.54200 50.02200 21.71000
H  24.70500 48.81400 21.11900
H  24.49700 49.62700 19.01800
H  24.76500 51.17900 19.50800
H  23.07800 50.56200 19.63700
H  20.59500 52.26200 25.33800
H  21.68000 52.66400 24.07400
H  21.45000 53.81700 25.51100
H  22.88700 51.20300 30.22200
H  24.01600 55.08000 32.11500
H  24.41700 53.74200 33.30100
H  22.83700 54.47900 33.27300

