158

Mg 7.97100 2.42500 27.99500
C  9.73100 1.07700 30.90400
C  6.05100 4.00200 30.27400
C  6.24800 3.44300 25.39600
C  9.69700 0.03400 26.13000
N  7.88400 2.47900 30.25800
C  8.77000 2.03300 31.23000
C  8.55200 2.67400 32.62500
C  7.26400 3.46800 32.40800
C  7.01300 3.28900 30.85600
C  6.09300 2.96800 33.28300
C  9.83600 3.47200 33.19100
C  10.36700 2.93700 34.55600
H  10.33800 3.98000 35.72200
N  6.42000 3.50200 27.82800
C  5.73200 4.12700 28.92400
C  4.59800 4.86800 28.34400
C  4.70200 4.78700 26.89700
C  5.85500 3.89700 26.62900
C  3.57800 5.58400 29.20300
C  3.91600 5.39300 25.76500
O  4.09800 5.13600 24.58400
C  2.88800 6.34700 26.08100
N  8.04400 1.90600 26.01600
C  7.16700 2.45900 25.10500
C  7.38100 1.79600 23.69400
C  8.55200 0.84400 23.93800
C  8.78000 0.88100 25.45600
C  6.07500 1.19500 23.09900
C  9.88200 1.22300 23.18700
C  10.80000 0.11000 22.77100
N  9.50200 0.80800 28.34500
C  10.01600 -0.03800 27.46000
C  10.96600 -0.87800 28.17400
C  10.88400 -0.44700 29.54100
C  9.95400 0.49200 29.59300
C  11.85800 -1.88300 27.52200
C  11.45000 -0.65800 30.88800
O  12.32800 -1.45300 31.20500
C  10.62200 0.33000 31.81700
C  9.71400 -0.53800 32.66100
O  8.75300 -1.19500 32.26300
O  10.05800 -0.41900 33.95700
C  9.40100 -1.23400 35.00200
H  5.52800 4.61400 31.01100
H  5.70700 3.59200 24.45800
H  10.25400 -0.67000 25.50800
H  8.42400 1.80200 33.26700
H  7.51300 4.48000 32.72800
H  6.49600 2.36100 34.09300
H  5.19500 2.56900 32.81000
H  5.71000 3.83200 33.82700
H  9.64800 4.52600 33.39700
H  10.68100 3.40300 32.50600
H  11.37100 2.51700 34.50700
H  9.76900 2.16300 35.03800
H  2.69300 4.95400 29.29300
H  3.08600 6.42900 28.72100
H  3.90100 5.76900 30.22700
H  2.12500 5.92800 26.73600
H  2.46200 6.64300 25.12300
H  3.34400 7.18800 26.60500
H  7.76900 2.45300 22.91500
H  8.16900 -0.09700 23.54200
H  6.11100 0.14100 22.82500
H  5.73300 1.84200 22.29200
H  5.28600 1.17300 23.85000
H  10.40500 1.91500 23.84700
H  9.72100 1.76700 22.25600
H  10.94700 0.09000 21.69100
H  10.40000 -0.83100 23.14800
H  11.78800 0.26200 23.20800
H  12.06800 -1.71400 26.46600
H  11.26200 -2.79500 27.55600
H  12.80700 -1.97500 28.05000
H  11.42300 0.93700 32.23900
H  10.13200 -1.94500 35.38400
H  8.55700 -1.82200 34.64100
H  8.97400 -0.61500 35.79200
Mg 34.57500 2.97400 29.70400
C  32.52100 4.09100 32.27800
C  37.28200 3.37200 31.79800
C  36.49200 2.62500 26.95500
C  31.70700 3.31000 27.49900
N  34.90400 3.76600 31.78300
C  33.89900 4.05400 32.69000
C  34.40600 4.04100 34.13000
C  35.95400 4.00400 33.86800
C  36.07500 3.60300 32.40200
C  36.70600 5.31100 34.26000
C  33.88400 2.77800 34.91800
C  33.53200 3.04500 36.46600
H  34.16800 4.30600 37.14300
N  36.58900 2.76300 29.47700
C  37.51000 3.01800 30.45100
C  38.86400 2.90500 29.90800
C  38.67100 2.72800 28.48400
C  37.17100 2.66300 28.23500
C  40.15700 3.15800 30.76200
C  39.63200 2.62600 27.30100
O  39.35700 2.41300 26.10800
C  41.13300 2.73400 27.63200
N  34.08900 2.87400 27.49900
C  35.12500 2.88100 26.58400
C  34.59800 2.94800 25.17700
C  33.03800 2.83900 25.36100
C  32.89100 2.99900 26.83100
C  35.12700 4.24100 24.45500
C  32.39700 1.52000 24.89500
C  32.36200 0.26500 25.78200
N  32.57300 3.44000 29.76600
C  31.47700 3.47000 28.87500
C  30.31500 3.99000 29.52600
C  30.62500 4.07700 30.90900
C  32.00600 3.85100 30.94500
C  28.95200 4.12700 28.98000
C  30.08200 4.38600 32.19500
O  28.96400 4.73900 32.47600
C  31.35500 4.40300 33.15400
C  31.46100 5.77300 33.76000
O  32.09000 6.70000 33.31700
O  30.76000 5.83000 34.86700
C  30.86900 7.10100 35.66300
H  38.15200 3.47000 32.45100
H  37.06300 2.64000 26.02500
H  30.81000 3.57400 26.93500
H  34.17700 5.03200 34.52200
H  36.40600 3.24800 34.51000
H  37.51600 4.89800 34.86200
H  36.15500 5.95900 34.94200
H  37.00200 5.85600 33.36300
H  34.61600 1.97900 34.79700
H  33.00400 2.47100 34.35200
H  33.88500 2.16700 37.00600
H  32.45800 3.03400 36.65100
H  40.17200 4.24100 30.88300
H  41.07100 2.69300 30.39400
H  39.87800 2.64900 31.68500
H  41.22800 3.68400 28.15700
H  41.60000 2.68500 26.64800
H  41.57400 1.99000 28.29500
H  34.85500 2.11300 24.52500
H  32.58500 3.76400 25.00500
H  34.65900 5.15900 24.81000
H  35.10700 4.17100 23.36700
H  36.17900 4.33600 24.72200
H  32.76300 1.18800 23.92300
H  31.33700 1.70800 24.72600
H  33.21300 0.22600 26.46200
H  32.33700 -0.64400 25.18100
H  31.47600 0.27200 26.41700
H  28.20700 3.93400 29.75300
H  28.84600 3.38600 28.18800
H  28.70700 5.09900 28.55300
H  31.11600 3.59500 33.84500
H  31.86100 7.26800 36.08200
H  30.26700 7.02400 36.56900
H  30.46800 7.94200 35.09600

