158

Mg 44.45200 4.07100 48.31600
C  41.94000 6.34800 47.42300
C  42.10800 1.61000 48.03000
C  46.90700 1.97900 48.40000
C  46.80700 6.79500 47.96500
N  42.28000 3.98500 47.61000
C  41.41100 5.06900 47.55200
C  39.99000 4.67700 47.19000
C  40.01600 3.10100 47.50300
C  41.57400 2.85500 47.68800
C  39.08600 2.69300 48.62100
C  39.60500 4.98600 45.72300
C  38.24700 5.60200 45.48500
H  37.79700 5.92300 44.01800
N  44.50300 2.03200 48.30200
C  43.49300 1.16200 48.25000
C  44.00100 -0.17900 48.38700
C  45.42400 -0.13600 48.55700
C  45.63300 1.38700 48.42100
C  43.05200 -1.35000 48.29400
C  46.30300 -1.37100 48.80300
O  45.83400 -2.52800 48.93900
C  47.84000 -1.23700 48.96200
N  46.63700 4.36900 48.20000
C  47.38600 3.29700 48.33900
C  48.88400 3.72600 48.44800
C  48.89400 5.26400 48.07800
C  47.39600 5.52600 48.14200
C  49.59600 3.39400 49.78100
C  49.52800 5.62600 46.72600
C  51.11700 5.61100 46.65500
N  44.42000 6.18800 47.98500
C  45.48700 7.06900 47.79000
C  44.89700 8.36700 47.47900
C  43.53300 8.10300 47.36800
C  43.21400 6.76900 47.57500
C  45.64200 9.70000 47.19700
C  42.28100 8.81300 47.12500
O  42.04700 10.02300 46.97500
C  41.18300 7.71000 47.28800
C  40.34900 8.10500 48.41400
O  40.41200 7.57100 49.48900
O  39.46700 9.19400 48.12200
C  38.67000 9.72800 49.21200
H  41.38800 0.79400 47.94600
H  47.76100 1.29900 48.38600
H  47.40800 7.70000 47.85400
H  39.25500 5.16600 47.83000
H  39.78500 2.50100 46.62300
H  39.66400 2.24900 49.43100
H  38.44100 1.98900 48.09600
H  38.47900 3.49100 49.04800
H  39.76600 4.17600 45.01100
H  40.24000 5.79600 45.36400
H  38.43700 6.59700 45.88500
H  37.52300 5.08600 46.11600
H  42.89500 -1.86300 49.24300
H  43.52500 -2.01100 47.56800
H  42.19100 -1.14400 47.65800
H  48.22400 -0.71300 48.08700
H  48.22900 -2.24300 48.81000
H  48.10500 -0.73100 49.89000
H  49.38400 3.16200 47.66200
H  49.54100 5.81900 48.75800
H  48.86900 2.91500 50.43600
H  50.17600 4.15900 50.29700
H  50.32400 2.60300 49.60000
H  49.13700 6.60400 46.44500
H  49.14400 4.97700 45.93900
H  51.39700 5.09600 45.73600
H  51.53200 5.16400 47.55800
H  51.37100 6.66600 46.54700
H  46.27500 9.66100 46.31000
H  46.19500 10.03200 48.07600
H  44.82700 10.39300 46.99100
H  40.50800 7.68400 46.43300
H  38.77900 9.21600 50.16800
H  37.61400 9.86500 48.98000
H  39.03400 10.74500 49.35100
Mg -2.43800 35.42800 26.25200
C  -3.69600 33.51500 28.91400
C  -1.18100 37.72700 28.54900
C  -1.22100 37.21600 23.75000
C  -3.86100 33.16300 24.09100
N  -2.47500 35.58700 28.46400
C  -3.01900 34.67700 29.32600
C  -2.83200 35.08600 30.82000
C  -1.92500 36.42100 30.62400
C  -1.85800 36.61400 29.12100
C  -2.31600 37.67200 31.39300
C  -2.28100 34.02500 31.79500
C  -1.25500 34.43300 32.82700
H  -1.21500 33.59700 34.10900
N  -1.28400 37.21400 26.13000
C  -0.83300 37.92900 27.20200
C  -0.02900 39.04300 26.72600
C  -0.01000 38.95000 25.26300
C  -0.79300 37.69400 25.00300
C  0.69700 40.01800 27.68200
C  0.69800 39.80900 24.15000
O  0.58800 39.58000 22.97400
C  1.49600 40.93800 24.61700
N  -2.83300 35.44700 24.23700
C  -2.13000 36.28400 23.44800
C  -2.45000 35.99000 22.02800
C  -3.01700 34.57200 22.05100
C  -3.25000 34.27800 23.53400
C  -3.36200 37.11500 21.55100
C  -2.09800 33.47800 21.32300
C  -0.64700 33.32700 21.81800
N  -3.60600 33.71800 26.41600
C  -4.10300 32.86000 25.42100
C  -4.79100 31.75400 25.99300
C  -4.64700 31.97500 27.37600
C  -3.88700 33.16100 27.58300
C  -5.31400 30.55700 25.25100
C  -4.95900 31.44700 28.62000
O  -5.68000 30.49100 28.89300
C  -4.30900 32.42200 29.66800
C  -5.43800 32.87900 30.59600
O  -6.39700 33.56500 30.25300
O  -5.24400 32.28700 31.84000
C  -6.31800 32.57600 32.82600
H  -0.76600 38.31700 29.36900
H  -0.83600 37.70800 22.85400
H  -4.23600 32.44000 23.36400
H  -3.76000 35.45600 31.25400
H  -0.96200 36.11100 31.03100
H  -3.10200 37.53000 32.13500
H  -2.50100 38.52600 30.74100
H  -1.54700 37.93300 32.11900
H  -1.75400 33.20300 31.31100
H  -3.17000 33.60300 32.26400
H  -1.46900 35.46900 33.08800
H  -0.30800 34.16600 32.35600
H  -0.08200 40.78000 27.67100
H  1.70800 40.28700 27.37500
H  0.81300 39.49500 28.63200
H  0.84900 41.57300 25.22200
H  1.87700 41.54800 23.79800
H  2.38200 40.55300 25.12300
H  -1.54900 36.07600 21.42200
H  -3.99600 34.46400 21.58400
H  -4.42500 36.89100 21.46000
H  -3.07500 37.44100 20.55100
H  -3.22500 38.03300 22.12300
H  -1.93600 33.72400 20.27300
H  -2.54000 32.49100 21.45200
H  -0.39200 34.15400 22.48000
H  0.09300 33.36800 21.01900
H  -0.47600 32.38300 22.33400
H  -5.41200 29.70000 25.91700
H  -4.57500 30.22800 24.52100
H  -6.17900 30.77300 24.62300
H  -3.61600 31.75800 30.18400
H  -5.87500 33.25500 33.55400
H  -6.61100 31.56700 33.11800
H  -7.18700 33.17200 32.54700

