158

Mg 35.58100 2.37200 30.29300
C  33.31300 3.59900 32.75000
C  37.95700 2.54000 32.72800
C  37.62800 1.30100 28.02700
C  32.99100 2.65200 28.03600
N  35.54400 3.01400 32.50300
C  34.49700 3.37800 33.30100
C  34.89400 3.47500 34.80200
C  36.50500 3.35200 34.73500
C  36.70700 3.01600 33.25000
C  37.30200 4.59600 35.22500
C  34.13200 2.42400 35.57500
C  33.58500 2.75400 36.92800
H  34.38500 3.86200 37.62600
N  37.50600 2.03100 30.32300
C  38.27200 2.01000 31.47100
C  39.64100 1.54300 31.06500
C  39.59600 1.12900 29.68400
C  38.16700 1.39700 29.31000
C  40.82800 1.50500 32.00000
C  40.63200 0.54400 28.82600
O  40.29000 -0.03800 27.78900
C  42.07200 0.63200 29.18400
N  35.35000 2.21500 28.15800
C  36.40300 1.74000 27.46700
C  35.94400 1.29200 25.98100
C  34.42700 1.80500 26.07500
C  34.19400 2.24600 27.46400
C  36.80500 1.88600 24.90200
C  33.35400 0.85100 25.34900
C  32.56900 1.44500 24.15300
N  33.56500 2.97500 30.29100
C  32.61800 3.04900 29.30800
C  31.38200 3.43300 29.75600
C  31.63300 3.73100 31.07700
C  32.92200 3.40300 31.39600
C  30.19300 3.64300 28.99800
C  30.98400 4.20000 32.32600
O  29.88300 4.71100 32.43700
C  32.03700 4.16800 33.43300
C  32.18300 5.52900 34.18100
O  32.40500 6.63800 33.72200
O  31.89100 5.29100 35.51200
C  31.82500 6.58500 36.28700
H  38.77900 2.32100 33.41200
H  38.32800 0.97100 27.25600
H  32.13000 2.68500 27.36600
H  34.61900 4.46400 35.16800
H  36.80800 2.51200 35.36100
H  36.61800 5.43000 35.38800
H  37.96700 4.93300 34.43000
H  37.92700 4.35700 36.08600
H  34.71600 1.50700 35.64700
H  33.24400 2.11800 35.02400
H  33.44000 1.86600 37.54400
H  32.58300 3.14900 36.76400
H  41.41900 2.38200 31.73500
H  41.38300 0.58200 31.83300
H  40.65500 1.69500 33.06000
H  42.71800 0.42300 28.33100
H  42.19400 -0.16900 29.91300
H  42.32600 1.63300 29.53200
H  35.88800 0.20700 25.89000
H  34.30600 2.78100 25.60600
H  37.65700 2.49600 25.20100
H  36.22900 2.30700 24.07800
H  37.37200 1.08100 24.43400
H  32.69600 0.53700 26.16000
H  33.74500 -0.08700 24.95600
H  33.03700 2.33700 23.73800
H  31.52000 1.62000 24.39100
H  32.48200 0.63200 23.43200
H  29.78300 2.68700 28.67400
H  30.54300 4.20100 28.12900
H  29.38800 4.14800 29.53200
H  31.80500 3.40900 34.18000
H  30.93500 7.16300 36.03600
H  32.75300 7.15500 36.25300
H  31.70300 6.32900 37.34000
Mg 43.78000 42.64800 26.22000
C  42.63200 44.82400 28.90500
C  45.03600 40.59900 28.51700
C  44.61700 40.57700 23.75800
C  42.79700 45.10200 23.90300
N  43.79900 42.75200 28.51700
C  43.25600 43.67400 29.35800
C  43.37600 43.18400 30.87100
C  44.30000 41.90200 30.66900
C  44.42000 41.67000 29.16500
C  45.67300 42.04600 31.42100
C  41.99000 42.92000 31.52300
C  41.63800 43.66200 32.84300
H  42.68900 43.55000 34.02300
N  44.76700 40.92400 26.13000
C  45.24800 40.25100 27.17300
C  46.09900 39.08700 26.74300
C  45.85000 38.98200 25.35800
C  45.04700 40.18000 25.00100
C  46.97900 38.32100 27.69600
C  46.41600 37.96800 24.31500
O  46.27400 38.10100 23.09400
C  47.09800 36.86300 24.89200
N  43.78400 42.86800 24.21500
C  44.13600 41.85100 23.34500
C  44.00800 42.27600 21.87900
C  43.07400 43.51000 22.02700
C  43.19500 43.83500 23.48600
C  45.36700 42.57600 21.15700
C  41.53100 43.20100 21.62100
C  41.03400 41.67800 21.88600
N  42.90700 44.54800 26.32900
C  42.65600 45.45900 25.31800
C  42.10300 46.64600 25.85500
C  42.13800 46.41500 27.21600
C  42.65900 45.16500 27.49000
C  41.49100 47.79900 25.17100
C  41.76000 46.97200 28.44600
O  41.26600 48.08700 28.63100
C  42.01800 45.94500 29.60100
C  43.01000 46.62400 30.54100
O  44.22800 46.63800 30.58400
O  42.31700 47.33100 31.51900
C  43.11800 47.94500 32.53600
H  45.42000 39.91000 29.27200
H  44.74700 39.83800 22.96400
H  42.33300 45.77600 23.18100
H  43.85900 44.04100 31.34000
H  43.84800 40.96600 30.99600
H  46.50700 42.16500 30.73000
H  45.70000 41.15800 32.05200
H  45.65200 42.89700 32.10200
H  41.81600 41.85300 31.66600
H  41.29700 43.22500 30.73900
H  40.71100 43.15800 33.11700
H  41.52600 44.74500 32.78500
H  46.60500 37.33100 27.95600
H  47.07200 38.88800 28.62300
H  47.97000 38.15300 27.27600
H  46.93700 36.06200 24.17100
H  46.58600 36.52000 25.79100
H  48.11500 37.23800 25.01200
H  43.47800 41.45000 21.40400
H  43.37700 44.31200 21.35200
H  45.22000 42.08600 20.19400
H  46.23200 42.17100 21.68100
H  45.47900 43.65500 21.05000
H  41.53300 43.33700 20.54000
H  40.82000 43.84900 22.13600
H  40.84800 41.14600 20.95300
H  40.15500 41.60000 22.52600
H  41.71700 41.07100 22.48000
H  41.99300 48.05100 24.23700
H  41.41700 48.63900 25.86200
H  40.50000 47.48300 24.84500
H  41.07200 45.60900 30.02700
H  43.73300 47.15500 32.96700
H  42.49400 48.31800 33.34800
H  43.69000 48.71600 32.02000

