158

Mg 16.68300 52.40200 26.54800
C  18.84200 51.29000 29.05200
C  14.53400 53.21700 29.02900
C  14.84400 53.82900 24.29900
C  19.09700 51.64600 24.19600
N  16.62700 52.11900 28.78800
C  17.63700 51.70300 29.55900
C  17.26200 51.99600 31.02600
C  15.72900 52.16000 30.97700
C  15.57300 52.47500 29.47800
C  15.02200 50.85400 31.37700
C  17.98700 53.25500 31.54600
C  18.24100 53.25000 33.06600
H  17.23700 52.53500 33.98300
N  14.95800 53.54400 26.63500
C  14.25200 53.78000 27.77000
C  13.21000 54.77200 27.41300
C  13.20500 54.92500 26.00900
C  14.35200 54.14100 25.55100
C  12.34200 55.51000 28.48200
C  12.32400 55.79200 25.06600
O  12.63600 55.82300 23.86900
C  11.12800 56.65300 25.67700
N  16.93900 52.60500 24.55600
C  15.99600 53.21000 23.85700
C  16.39500 53.24900 22.35900
C  17.76100 52.53000 22.31200
C  17.94200 52.28100 23.80100
C  15.33300 52.78000 21.24300
C  18.84400 53.19700 21.42600
C  19.80500 54.18900 22.01600
N  18.49500 51.48100 26.50100
C  19.37900 51.24600 25.50000
C  20.58600 50.54200 25.93800
C  20.43400 50.56200 27.41500
C  19.14300 51.15200 27.68700
C  21.69800 49.91500 25.20000
C  21.06200 50.27600 28.63700
O  22.16800 49.67900 28.73500
C  20.09300 50.79800 29.84200
C  19.86200 49.61000 30.78500
O  19.46600 48.52700 30.52700
O  20.23500 50.01200 32.09000
C  20.12800 49.06700 33.23400
H  13.78300 53.45600 29.78600
H  14.47300 54.34200 23.41000
H  19.95400 51.33800 23.59300
H  17.61100 51.10400 31.54700
H  15.41600 52.90600 31.70800
H  14.47000 51.11600 32.28000
H  15.74700 50.09500 31.67100
H  14.39400 50.36700 30.63100
H  17.35000 54.09200 31.26400
H  18.99400 53.34500 31.13900
H  18.19300 54.30600 33.33400
H  19.25800 52.91400 33.26900
H  12.78800 55.40100 29.47100
H  11.35500 55.05000 28.51300
H  12.17700 56.57900 28.34400
H  10.53400 56.02300 26.33900
H  10.51900 56.99800 24.84200
H  11.56700 57.53500 26.14300
H  16.67300 54.30300 22.31900
H  17.61700 51.58800 21.78300
H  14.84400 51.90100 21.66300
H  15.92500 52.61700 20.34200
H  14.63100 53.59500 21.06900
H  18.35000 53.85000 20.70700
H  19.43700 52.42500 20.93500
H  20.76300 53.72300 21.78800
H  19.68000 54.27600 23.09600
H  19.85400 55.24500 21.75200
H  21.82000 50.27400 24.17800
H  21.78700 48.83200 25.29000
H  22.52000 50.40400 25.72300
H  20.57300 51.60100 30.40100
H  21.17800 48.93900 33.50000
H  19.68400 48.08500 33.07200
H  19.54100 49.42600 34.07900
Mg 0.36700 43.54100 25.89600
C  2.20900 43.43600 28.92700
C  -2.45900 42.78000 27.73800
C  -1.10100 42.80400 23.05500
C  3.36700 44.07100 24.29900
N  -0.10900 43.21200 28.13000
C  0.82000 43.31700 29.19000
C  0.06100 43.32900 30.54600
C  -1.44100 42.99200 30.10800
C  -1.40000 43.13000 28.53600
C  -1.76000 41.53800 30.45600
C  0.23500 44.71400 31.31700
C  0.93400 44.62700 32.66900
H  0.48800 43.45000 33.55200
N  -1.56200 42.98100 25.44900
C  -2.58500 42.70200 26.32900
C  -3.74400 42.51000 25.61000
C  -3.43100 42.44000 24.19100
C  -1.98800 42.75400 24.15300
C  -5.15800 42.37500 26.27700
C  -4.23500 42.05800 22.96800
O  -3.75800 41.94900 21.84000
C  -5.71000 41.83400 23.10900
N  1.12100 43.40700 23.93600
C  0.30900 43.07600 22.94100
C  1.03400 43.23600 21.61100
C  2.38400 43.95500 22.00600
C  2.31000 43.72300 23.48500
C  1.19500 41.99200 20.86500
C  2.39400 45.46100 21.70900
C  3.81000 46.11300 21.83100
N  2.38200 43.59100 26.40800
C  3.50000 43.92200 25.64100
C  4.68900 44.21100 26.49800
C  4.25600 43.88300 27.80600
C  2.82600 43.60600 27.68100
C  6.15400 44.62800 26.10900
C  4.71000 43.81500 29.15800
O  5.86100 43.93900 29.56800
C  3.36700 43.54100 30.00400
C  3.59300 42.39400 30.89200
O  3.31400 41.22900 30.63500
O  4.25500 42.81800 32.03200
C  4.53400 41.84800 33.14000
H  -3.42300 42.62700 28.22700
H  -1.44100 42.53800 22.05200
H  4.29100 44.34500 23.78400
H  0.50800 42.47200 31.05000
H  -2.15200 43.69600 30.54100
H  -0.86300 40.96400 30.68900
H  -2.35400 40.96900 29.74100
H  -2.24600 41.68600 31.42100
H  -0.75200 45.15400 31.45900
H  0.79000 45.42200 30.70200
H  0.53900 45.57800 33.02700
H  2.00500 44.70800 32.48300
H  -5.57200 43.33200 26.59600
H  -5.15400 41.75700 27.17400
H  -5.81900 41.95800 25.51700
H  -6.07000 42.79400 23.47900
H  -6.00500 40.98600 23.72700
H  -6.22700 41.70800 22.15700
H  0.51600 43.91000 20.92800
H  3.32900 43.48400 21.73400
H  2.06700 41.92400 20.21500
H  0.31500 41.99900 20.22200
H  1.19500 41.16000 21.56800
H  1.72700 46.03000 22.35700
H  2.05600 45.49400 20.67300
H  4.67100 45.47100 22.01600
H  3.75900 46.95100 22.52700
H  3.97400 46.54900 20.84500
H  6.09900 45.30200 25.25300
H  6.86300 43.83600 25.86800
H  6.51200 45.14900 26.99700
H  3.14000 44.43400 30.58600
H  5.57700 42.01600 33.40700
H  4.34200 40.80000 32.90800
H  3.90600 42.16800 33.97100

