158

Mg 9.02500 4.82000 27.90400
C  10.21700 3.00300 30.60300
C  7.01900 6.61200 30.08000
C  7.46500 6.26500 25.17400
C  10.68200 2.64000 25.71600
N  8.55400 4.70400 30.10800
C  9.30900 4.02300 31.02500
C  8.83600 4.33300 32.50700
C  7.89200 5.44500 32.21300
C  7.85000 5.59000 30.69000
C  6.50600 5.46200 32.90600
C  10.10500 4.47500 33.44800
C  9.75500 5.37800 34.59100
H  10.61200 5.28000 35.89800
N  7.64200 6.35700 27.68000
C  6.94500 6.99600 28.66400
C  6.16300 8.06200 28.04800
C  6.26900 7.96800 26.63100
C  7.15500 6.80600 26.44200
C  5.31400 8.95300 28.82800
C  5.80600 8.83300 25.51100
O  6.05800 8.55900 24.36500
C  5.18900 10.15800 25.82900
N  9.13100 4.59500 25.75600
C  8.39600 5.22800 24.88600
C  8.57500 4.66000 23.49300
C  9.63700 3.46600 23.59800
C  9.84800 3.59600 25.12700
C  7.29700 4.30600 22.64000
C  10.95200 3.55200 22.80200
C  11.17800 2.19800 21.94400
N  10.20800 3.26200 28.02700
C  10.84700 2.45400 27.08800
C  11.57000 1.45200 27.75600
C  11.42100 1.64200 29.11900
C  10.56400 2.75100 29.23100
C  12.28800 0.33200 27.07700
C  11.74100 1.16300 30.44000
O  12.50300 0.30300 30.84000
C  11.07200 2.13700 31.45600
C  10.42100 1.31400 32.47200
O  9.35300 0.69400 32.34800
O  11.21400 1.32000 33.68900
C  10.36300 0.93900 34.81600
H  6.45800 7.23200 30.78200
H  6.93300 6.60500 24.28200
H  11.18100 1.93400 25.04800
H  8.27200 3.48600 32.89700
H  8.47900 6.29400 32.56500
H  6.42500 4.61700 33.59000
H  5.69500 5.33900 32.18900
H  6.27900 6.36600 33.47100
H  10.92500 4.97700 32.93500
H  10.45000 3.49900 33.78800
H  8.68500 5.37100 34.80000
H  9.90500 6.39900 34.24000
H  5.23300 8.76400 29.89800
H  4.34900 8.79800 28.34600
H  5.72200 9.94400 28.63200
H  5.92300 10.92500 26.07400
H  4.50400 10.03700 26.66900
H  4.57900 10.48100 24.98500
H  9.03400 5.44000 22.88500
H  9.02900 2.58200 23.40300
H  6.35400 4.76400 22.93700
H  6.99400 3.27200 22.80900
H  7.44100 4.57700 21.59400
H  11.81400 3.74100 23.44100
H  10.85700 4.41800 22.14700
H  10.23600 1.65700 21.85400
H  11.98600 1.53900 22.26200
H  11.53300 2.52500 20.96700
H  13.05100 0.79700 26.45200
H  11.71700 -0.29800 26.39600
H  12.83200 -0.29600 27.78200
H  11.84800 2.77200 31.88300
H  10.52600 -0.13600 34.89200
H  9.30700 1.20700 34.79400
H  10.73800 1.55000 35.63800
Mg 16.52900 51.18000 25.92100
C  18.55000 49.63000 28.47000
C  14.20300 51.80400 28.14800
C  14.56500 52.39000 23.27100
C  18.78300 49.87500 23.56400
N  16.42300 50.63700 28.09100
C  17.37100 50.24900 28.94700
C  16.97600 50.53000 30.38600
C  15.46900 50.93800 30.27800
C  15.37900 51.18100 28.73900
C  14.37200 50.00800 30.82400
C  17.93100 51.59000 30.97100
C  17.71200 52.07000 32.42100
H  16.68900 51.32800 33.35000
N  14.70500 51.95800 25.72400
C  13.91300 52.17300 26.80600
C  12.76400 52.94200 26.38900
C  12.75800 53.04000 24.92300
C  14.05900 52.42500 24.59900
C  11.76100 53.38600 27.38300
C  11.78300 53.79000 24.06000
O  11.86300 53.74400 22.82500
C  10.61200 54.53400 24.61100
N  16.69900 51.12100 23.72200
C  15.87200 51.83000 22.92100
C  16.40600 51.77800 21.38500
C  17.76200 51.05100 21.48000
C  17.72800 50.62600 22.97400
C  15.41300 51.33700 20.23700
C  18.93800 51.97000 21.05800
C  19.42600 53.07700 21.99200
N  18.31700 50.05800 25.98800
C  19.15500 49.68200 24.90900
C  20.33300 49.11000 25.46000
C  20.18500 49.04000 26.85600
C  18.91700 49.57400 27.12900
C  21.47400 48.64100 24.67700
C  20.76600 48.59200 28.06800
O  21.75100 47.96600 28.29800
C  19.65600 48.94200 29.13400
C  19.16500 47.90100 30.05900
O  18.59300 46.84900 29.73700
O  19.54600 48.29100 31.35200
C  19.21000 47.47200 32.44400
H  13.52200 51.91500 28.99500
H  14.05200 52.74000 22.37300
H  19.52500 49.49500 22.85900
H  17.20400 49.64100 30.97400
H  15.28900 51.80700 30.91200
H  14.35200 49.10300 30.21700
H  13.40400 50.47900 30.65300
H  14.41500 49.76400 31.88500
H  17.80500 52.47200 30.34400
H  18.92800 51.14900 30.94800
H  17.49800 53.13500 32.32500
H  18.63500 51.96900 32.99200
H  11.89600 53.05400 28.41200
H  10.74400 53.15500 27.06500
H  11.75800 54.46900 27.50300
H  10.95600 55.13100 25.45500
H  10.08500 53.62100 24.88700
H  10.13400 55.14500 23.84400
H  16.58300 52.84500 21.24900
H  17.83700 50.10800 20.93700
H  15.11500 52.13200 19.55300
H  14.50600 50.97700 20.72200
H  15.71000 50.53200 19.56400
H  18.54800 52.59600 20.25500
H  19.74600 51.28700 20.79600
H  18.73500 53.14500 22.83200
H  19.66100 54.05300 21.56600
H  20.37600 52.75500 22.41800
H  21.85700 49.36000 23.95200
H  21.02100 47.79700 24.15600
H  22.24800 48.20400 25.30700
H  20.08400 49.80300 29.64700
H  19.14100 48.02700 33.38000
H  19.97200 46.72900 32.68100
H  18.31200 46.86900 32.30700

