158

Mg 23.90200 -4.52400 45.60800
C  26.18200 -2.43400 44.06800
C  21.35500 -3.33800 43.53200
C  22.10300 -7.31200 46.13500
C  26.68100 -6.14100 47.10400
N  23.85700 -3.10800 43.89900
C  24.93600 -2.36200 43.52700
C  24.46100 -1.33900 42.42300
C  22.92400 -1.30300 42.67500
C  22.64900 -2.68800 43.40600
C  22.46700 -0.07300 43.55700
C  24.90700 -1.96500 41.04500
C  25.71300 -1.07400 40.05500
H  25.45200 -1.16800 38.55200
N  21.90200 -5.10600 45.09100
C  21.01300 -4.47600 44.20200
C  19.80000 -5.22700 44.14600
C  19.95300 -6.39300 44.93300
C  21.34100 -6.32800 45.46000
C  18.52900 -4.71800 43.29600
C  18.84900 -7.35600 45.31700
O  17.69100 -7.20400 44.82700
C  19.02100 -8.55700 46.30700
N  24.34700 -6.40500 46.45500
C  23.40500 -7.38200 46.67300
C  24.04000 -8.70100 47.10100
C  25.44200 -8.23300 47.62800
C  25.53500 -6.85000 47.08900
C  23.27700 -9.29500 48.30400
C  26.57100 -9.12900 47.02000
C  27.68100 -9.62300 48.00400
N  26.00000 -4.19100 45.84100
C  26.97900 -4.93200 46.49500
C  28.24400 -4.20100 46.35400
C  27.96900 -3.19000 45.43000
C  26.62500 -3.26900 45.11600
C  29.57300 -4.36900 47.08500
C  28.48600 -2.01500 44.84300
O  29.57800 -1.50700 44.97100
C  27.36000 -1.42900 43.89100
C  27.14700 -0.01700 44.24000
O  26.47900 0.34300 45.22400
O  27.71100 0.85400 43.36200
C  27.45600 2.34200 43.54500
H  20.64400 -2.71300 42.98800
H  21.44000 -8.15200 46.35300
H  27.57500 -6.49800 47.62100
H  24.93200 -0.35700 42.39300
H  22.36300 -1.31600 41.74000
H  23.33600 0.41800 43.99600
H  21.89400 -0.34200 44.44400
H  21.89100 0.67000 43.00500
H  23.97600 -2.14500 40.50900
H  25.38700 -2.92000 41.26000
H  26.76900 -1.28100 40.22600
H  25.60700 -0.03000 40.34700
H  18.86000 -4.15700 42.42200
H  17.78200 -4.17000 43.86900
H  18.06900 -5.60700 42.86300
H  19.57200 -9.34100 45.78900
H  18.02100 -8.85700 46.62100
H  19.43800 -8.12800 47.21800
H  24.19300 -9.42600 46.30100
H  25.54400 -8.14600 48.71000
H  22.39500 -8.73800 48.62000
H  23.94500 -9.50500 49.13900
H  22.85700 -10.25600 48.00700
H  26.97700 -8.56400 46.18000
H  26.22500 -10.00200 46.46600
H  27.31700 -9.39900 49.00700
H  28.50400 -8.91500 47.90300
H  28.03200 -10.64600 47.86700
H  29.49400 -5.37400 47.49900
H  29.64500 -3.58200 47.83500
H  30.30600 -4.33700 46.27800
H  27.72300 -1.43300 42.86400
H  26.78500 2.44200 44.39900
H  27.06600 2.73800 42.60800
H  28.43400 2.71800 43.84500
Mg 49.44900 46.11800 42.88900
C  46.01600 46.21500 41.87600
C  49.59100 42.76300 41.95900
C  52.76400 46.48900 42.70300
C  49.06400 49.52900 43.65800
N  48.02900 44.72300 41.87400
C  46.68700 44.99400 41.69200
C  46.04900 43.69800 41.17100
C  47.05900 42.56400 41.60200
C  48.33800 43.34100 41.79100
C  46.77400 41.56700 42.77100
C  45.76100 43.62700 39.64900
C  44.53100 42.82000 39.24000
H  44.01900 43.12800 37.85200
N  51.03400 44.76900 42.47400
C  50.84300 43.42200 42.15300
C  52.19900 42.89500 41.96500
C  53.16400 43.92800 42.26800
C  52.38700 45.12900 42.47400
C  52.48500 41.42900 41.78700
C  54.63100 43.76700 42.41400
O  55.19000 42.70500 42.16600
C  55.58500 44.87700 42.98600
N  50.79800 47.69800 43.28400
C  52.09000 47.64800 43.08400
C  52.80000 48.93200 43.45400
C  51.65200 49.89200 43.85800
C  50.35300 49.03900 43.53800
C  53.92000 48.91600 44.53500
C  51.67500 51.30100 43.11000
C  51.20600 52.51300 43.90600
N  47.91800 47.61300 42.82900
C  47.91400 48.86900 43.27500
C  46.52700 49.32600 43.27900
C  45.85100 48.37000 42.67300
C  46.67400 47.34600 42.41500
C  46.09900 50.64400 43.86700
C  44.50600 48.06700 42.30000
O  43.58200 48.87300 42.30400
C  44.54600 46.65100 41.76000
C  43.69700 45.84400 42.61100
O  43.86600 45.59800 43.76900
O  42.70600 45.26000 41.83200
C  41.77900 44.32700 42.40200
H  49.49000 41.69100 41.77600
H  53.82300 46.75600 42.67400
H  48.91700 50.58500 43.89600
H  45.12400 43.55400 41.73000
H  47.12500 41.79300 40.83400
H  45.82500 41.90500 43.18900
H  47.60200 41.59000 43.47800
H  46.57500 40.55000 42.43300
H  46.70500 43.30000 39.21100
H  45.55000 44.59800 39.20200
H  43.69800 42.97500 39.92600
H  44.78700 41.76700 39.35900
H  51.55200 40.98800 41.43700
H  52.59600 40.89800 42.73300
H  53.26300 41.12000 41.08900
H  55.67500 45.71000 42.29000
H  56.56400 44.47600 43.24800
H  55.16100 45.18400 43.94300
H  53.24400 49.41800 42.58500
H  51.49400 50.02100 44.92900
H  54.90500 49.03200 44.08400
H  54.08700 48.02500 45.14000
H  53.81000 49.73500 45.24600
H  51.00300 51.29300 42.25200
H  52.69200 51.42000 42.73600
H  50.90100 52.28800 44.92800
H  50.34200 52.98900 43.44200
H  51.98400 53.27600 43.86900
H  46.59800 51.52500 43.46300
H  46.42200 50.72600 44.90400
H  45.02000 50.79200 43.83100
H  44.02000 46.74800 40.81100
H  41.17400 43.71000 41.73700
H  41.15400 44.98200 43.00900
H  42.33500 43.65700 43.05700

