158

Mg 8.09300 2.71500 29.31200
C  9.56000 1.12200 32.19100
C  6.42700 4.79800 31.45700
C  6.59300 4.00900 26.68900
C  9.75700 0.40100 27.39700
N  7.86600 2.71000 31.63000
C  8.71200 2.18800 32.52400
C  8.50900 2.86000 33.91100
C  7.28400 3.79000 33.68700
C  7.19200 3.79300 32.12100
C  5.96100 3.41400 34.31800
C  9.78900 3.67000 34.35100
C  10.23700 3.61800 35.85900
H  9.15800 3.20000 36.98400
N  6.70000 4.20000 29.16800
C  6.19600 5.01500 30.11300
C  5.34700 6.05200 29.54000
C  5.36900 5.84700 28.15200
C  6.20700 4.64400 27.91900
C  4.56100 7.05100 30.29600
C  4.73800 6.68300 26.96400
O  4.91900 6.39300 25.81500
C  3.93600 7.93400 27.15300
N  7.96800 2.05500 27.32500
C  7.38500 2.84600 26.39600
C  7.74100 2.37800 24.98600
C  8.77600 1.28200 25.19000
C  8.88800 1.26300 26.72300
C  6.50400 1.94200 24.14500
C  10.06900 1.56100 24.34600
C  11.16700 2.57500 24.98900
N  9.32000 1.07000 29.64200
C  9.91800 0.20000 28.74300
C  10.75300 -0.77000 29.45200
C  10.63400 -0.46300 30.75700
C  9.79800 0.70400 30.87400
C  11.64800 -1.77000 28.68500
C  11.20200 -0.73100 32.10800
O  11.99100 -1.59700 32.49800
C  10.57500 0.32200 33.08500
C  9.87400 -0.43800 34.14200
O  8.92700 -1.20500 34.01700
O  10.45300 -0.22900 35.31300
C  9.79200 -0.84400 36.50500
H  5.90400 5.44100 32.16800
H  6.40300 4.52200 25.74400
H  10.34600 -0.32200 26.82800
H  8.12500 2.10500 34.59800
H  7.48600 4.80300 34.03500
H  5.33600 2.88800 33.59600
H  5.37000 4.23200 34.72900
H  6.10500 2.62600 35.05800
H  9.67600 4.74100 34.17700
H  10.62900 3.24800 33.79900
H  10.57400 4.58700 36.22600
H  11.06900 2.92200 35.97000
H  4.87800 7.08100 31.33800
H  3.51000 6.76800 30.36800
H  4.62000 8.05000 29.86300
H  3.18700 7.79000 27.93100
H  3.28100 8.13100 26.30400
H  4.56100 8.73800 27.54200
H  8.27300 3.17100 24.46000
H  8.39100 0.29300 24.94300
H  5.72400 1.84200 24.90000
H  6.64500 0.91600 23.80600
H  6.19700 2.54900 23.29300
H  9.86200 1.87900 23.32500
H  10.63200 0.64000 24.19000
H  12.04500 1.96800 25.20900
H  10.69400 2.91200 25.91200
H  11.31200 3.44000 24.34200
H  10.97300 -2.30400 28.01600
H  12.14400 -2.50800 29.31500
H  12.38400 -1.32300 28.01600
H  11.36200 1.00000 33.41500
H  10.55600 -1.48400 36.94600
H  8.88900 -1.44300 36.38700
H  9.43700 -0.05900 37.17200
Mg 42.65200 41.11200 26.84000
C  42.08500 43.54700 29.35200
C  43.65800 38.99500 29.30100
C  43.47100 39.01800 24.36200
C  41.94400 43.59300 24.46900
N  43.02000 41.32800 29.11300
C  42.56700 42.35900 29.90700
C  42.55500 41.95400 31.44900
C  43.36300 40.57500 31.34400
C  43.37900 40.24400 29.82100
C  44.69200 40.47100 32.10300
C  41.15300 41.92000 32.05600
C  40.80000 42.64400 33.37600
H  40.09400 41.74500 34.41700
N  43.50000 39.23400 26.78000
C  43.76200 38.49400 27.94900
C  44.12000 37.12100 27.53500
C  44.15400 37.17300 26.03700
C  43.70700 38.48600 25.63200
C  44.37600 36.00700 28.60000
C  44.54700 36.07400 25.04700
O  44.48500 36.15000 23.86900
C  45.15300 34.89200 25.64100
N  42.77300 41.28400 24.76300
C  43.05500 40.23800 23.95600
C  42.64200 40.57200 22.50200
C  41.93800 41.97600 22.61400
C  42.26100 42.33300 24.03700
C  43.86600 40.45600 21.55900
C  40.43200 41.84800 22.33400
C  39.56000 41.05400 23.36500
N  42.08500 43.14700 26.83900
C  41.88800 44.00900 25.80300
C  41.41200 45.29300 26.28900
C  41.41600 45.12900 27.68100
C  41.79700 43.76900 27.99400
C  40.85700 46.44700 25.47700
C  41.25400 45.88000 28.92800
O  41.07500 47.05200 29.26700
C  41.44400 44.77800 30.08300
C  42.36500 45.30600 31.08300
O  43.36100 45.99600 30.76800
O  41.84300 45.33600 32.30000
C  42.56100 46.16100 33.34700
H  43.94700 38.32000 30.10900
H  43.66600 38.38400 23.49400
H  41.64500 44.32600 23.71700
H  43.08900 42.73000 31.99700
H  42.70500 39.80600 31.74800
H  45.44700 40.72500 31.35800
H  44.77300 39.49700 32.58400
H  44.70300 41.26500 32.84900
H  40.82700 40.88200 32.11700
H  40.52800 42.51600 31.39100
H  40.09500 43.46400 33.24000
H  41.73500 43.03200 33.78000
H  45.44700 35.84200 28.48200
H  43.84200 35.10500 28.30200
H  44.16800 36.37100 29.60600
H  45.96800 35.29600 26.24100
H  45.68900 34.27500 24.91900
H  44.60300 34.16100 26.23400
H  41.93600 39.79300 22.21300
H  42.42000 42.74500 22.01100
H  44.85400 40.63400 21.98500
H  43.82200 41.35200 20.94000
H  43.78300 39.50600 21.03000
H  40.26200 41.45100 21.33300
H  40.03200 42.85500 22.21600
H  39.99200 41.18000 24.35800
H  39.52500 40.01100 23.04800
H  38.54500 41.44900 23.34400
H  40.92500 46.36700 24.39200
H  41.27800 47.37200 25.87200
H  39.79400 46.52000 25.70700
H  40.43100 44.54300 30.40900
H  43.61200 46.34600 33.12400
H  42.49400 45.76700 34.36100
H  42.12700 47.14600 33.51900

