158

Mg 36.44200 1.00500 29.69200
C  33.99100 2.04800 32.09800
C  38.71900 1.02400 32.18400
C  38.68000 0.45600 27.31200
C  33.95400 1.41000 27.13000
N  36.31800 1.47400 31.90500
C  35.22700 1.78000 32.64900
C  35.54400 1.74600 34.11400
C  37.11300 1.79000 34.19900
C  37.45400 1.37600 32.69300
C  37.68000 3.19200 34.61600
C  34.92900 0.56300 34.91200
C  34.28600 0.79300 36.31400
H  34.64200 2.16500 37.01300
N  38.46600 0.82000 29.68800
C  39.21600 0.76800 30.83800
C  40.57800 0.36200 30.50900
C  40.57500 0.18000 29.09100
C  39.19100 0.50200 28.65200
C  41.71300 0.33000 31.56900
C  41.60900 -0.30200 28.12900
O  41.44700 -0.49200 26.90200
C  42.88900 -0.81100 28.67600
N  36.22300 0.72500 27.54100
C  37.34700 0.60100 26.85600
C  37.13600 0.76700 25.36900
C  35.53800 0.80200 25.23300
C  35.20200 0.95600 26.69700
C  37.77700 2.16300 24.91500
C  34.78900 -0.36100 24.54000
C  34.39500 -1.54800 25.54200
N  34.37500 1.52900 29.61800
C  33.50100 1.58700 28.50700
C  32.19400 2.07900 28.96200
C  32.39300 2.26500 30.37800
C  33.67100 1.93100 30.73800
C  30.92100 2.37500 28.07800
C  31.61900 2.62200 31.54500
O  30.51000 3.01800 31.76500
C  32.70100 2.50700 32.72100
C  32.83400 3.85900 33.36000
O  33.49300 4.80700 32.96000
O  31.99000 3.82900 34.46600
C  31.56800 4.97200 35.18300
H  39.41800 0.78000 32.98700
H  39.41100 0.31500 26.51300
H  33.26700 1.64600 26.31500
H  35.17600 2.70700 34.47300
H  37.39000 1.08200 34.98000
H  37.51600 3.21300 35.69300
H  37.11200 3.93700 34.05900
H  38.72700 3.20000 34.31100
H  35.59700 -0.29000 35.03000
H  34.08400 0.22000 34.31500
H  34.52400 -0.09000 36.90700
H  33.21100 0.74100 36.14300
H  42.60400 0.78000 31.13200
H  41.84800 -0.70500 31.88200
H  41.56400 1.01800 32.40100
H  43.20600 -0.17600 29.50300
H  43.72500 -0.62400 28.00200
H  42.93800 -1.85100 28.99800
H  37.61600 -0.13800 24.99600
H  35.12100 1.69900 24.77700
H  37.07200 2.94200 25.20800
H  37.85100 2.11300 23.82900
H  38.78900 2.27200 25.30500
H  35.24200 -0.78100 23.64200
H  33.83300 0.05800 24.22500
H  34.56900 -2.55400 25.15900
H  33.34800 -1.58700 25.84000
H  35.01500 -1.55200 26.43900
H  30.89900 1.79300 27.15600
H  31.00700 3.40900 27.74500
H  30.06000 2.29300 28.74200
H  32.32500 1.79500 33.45500
H  30.50300 4.92200 35.40800
H  31.69900 5.88300 34.59900
H  32.10100 5.04100 36.13200
Mg 46.58100 45.10000 44.43600
C  43.17800 44.68300 43.28100
C  47.22600 41.91500 43.09000
C  49.84100 45.81000 44.40200
C  45.75500 48.35900 44.98300
N  45.30000 43.54900 43.36400
C  43.97100 43.56500 43.05800
C  43.59600 42.36500 42.18800
C  44.75700 41.33900 42.49400
C  45.89600 42.33500 43.00500
C  44.44600 40.22700 43.62200
C  43.47100 42.87700 40.73700
C  42.25800 42.27500 39.90000
H  42.56200 41.56900 38.63900
N  48.32100 43.90200 44.11600
C  48.39500 42.60700 43.54200
C  49.75000 42.11800 43.69400
C  50.55900 43.28000 44.05500
C  49.61800 44.39800 44.18300
C  50.16300 40.63400 43.35100
C  52.07800 43.31900 44.22700
O  52.65800 42.27700 43.99000
C  52.82300 44.52100 44.66000
N  47.60200 46.79100 44.64800
C  48.96500 46.89200 44.67300
C  49.51300 48.31200 45.03200
C  48.18200 49.06600 45.25200
C  47.07400 48.02900 44.92700
C  50.50000 48.44700 46.26000
C  47.98300 50.36200 44.38600
C  47.81700 51.68800 45.13300
N  44.79900 46.31600 44.27300
C  44.56900 47.61500 44.67200
C  43.20500 48.00100 44.49100
C  42.60900 46.90800 43.89900
C  43.58700 45.92100 43.83000
C  42.70300 49.45200 44.63300
C  41.37200 46.32600 43.36300
O  40.28600 46.86000 43.20000
C  41.67200 44.82800 43.14500
C  40.99200 43.99800 44.15300
O  40.50500 42.93500 43.93500
O  41.27600 44.52100 45.36000
C  40.94700 43.64500 46.47900
H  47.27500 40.89800 42.69600
H  50.92000 45.96900 44.34200
H  45.39300 49.32700 45.33400
H  42.64500 41.91400 42.47400
H  45.05600 40.91000 41.53700
H  44.22500 39.37200 42.98300
H  43.55800 40.42300 44.22200
H  45.29000 40.09900 44.29900
H  44.35500 42.67100 40.13500
H  43.28400 43.94200 40.59700
H  41.72100 43.18000 39.61400
H  41.65600 41.54500 40.44100
H  50.86900 40.16700 44.03900
H  50.54000 40.59000 42.32900
H  49.34400 39.92500 43.46800
H  52.95600 45.16800 43.79300
H  53.75400 44.09500 45.03500
H  52.31400 44.98300 45.50500
H  50.02000 48.58600 44.10600
H  48.06400 49.37800 46.29000
H  51.02400 47.49300 46.31200
H  49.96700 48.50400 47.20900
H  51.25800 49.22200 46.14200
H  47.13400 50.24700 43.71300
H  48.78400 50.37800 43.64700
H  48.62200 52.37100 44.86500
H  47.86000 51.51200 46.20800
H  46.87100 52.17900 44.90400
H  43.07000 50.06500 45.45600
H  41.61600 49.41200 44.70900
H  42.99900 49.84000 43.65900
H  41.25200 44.57700 42.17100
H  41.48500 43.99200 47.36100
H  41.36600 42.63900 46.44200
H  39.87800 43.55400 46.67400

