158

Mg 7.56900 2.50500 27.73200
C  9.18000 0.90800 30.58000
C  5.55700 4.09000 29.88400
C  5.90500 3.55400 25.09400
C  9.43000 0.21700 25.72800
N  7.37700 2.43200 29.92100
C  8.15100 1.81400 30.89400
C  7.95200 2.53100 32.17500
C  6.63500 3.38100 32.01100
C  6.50300 3.29400 30.53000
C  5.39800 2.89400 32.82900
C  9.17200 3.38100 32.65500
C  9.02600 3.52000 34.19100
H  10.23200 3.04300 35.03800
N  6.05600 3.81600 27.51300
C  5.33400 4.30800 28.53600
C  4.28500 5.05000 27.98900
C  4.45300 5.13800 26.59800
C  5.49300 4.15000 26.32200
C  3.20700 5.73700 28.73900
C  3.71100 5.92100 25.53900
O  4.02100 5.92700 24.38600
C  2.49300 6.81600 25.84800
N  7.66300 1.87900 25.70700
C  6.91000 2.56700 24.82500
C  7.06900 1.90500 23.41500
C  8.28700 0.95700 23.58300
C  8.53400 0.99500 25.09000
C  5.82100 1.24800 22.89700
C  9.56300 1.29700 22.77100
C  9.87200 0.45000 21.54700
N  8.86600 0.80100 28.06200
C  9.53400 0.02600 27.08700
C  10.48200 -0.86600 27.72300
C  10.40500 -0.56300 29.10700
C  9.33600 0.40600 29.27500
C  11.39500 -1.81300 27.05300
C  10.95600 -0.87000 30.49000
O  11.84200 -1.57800 30.91800
C  10.15600 0.10500 31.48300
C  9.46900 -0.68200 32.61200
O  8.39000 -1.27000 32.49000
O  10.21300 -0.70200 33.75400
C  9.49500 -1.17000 34.95400
H  5.09500 4.74300 30.62800
H  5.27400 3.86300 24.25800
H  10.03600 -0.41500 25.07500
H  7.70100 1.78800 32.93200
H  6.79400 4.40400 32.35300
H  5.55200 1.93300 33.32000
H  4.54100 2.82600 32.15900
H  5.24300 3.74500 33.49200
H  9.21100 4.37500 32.20900
H  10.10700 2.90200 32.36500
H  8.14300 2.98400 34.54000
H  8.85100 4.56100 34.46000
H  3.23100 5.49800 29.80200
H  2.21800 5.43900 28.39100
H  3.26900 6.81900 28.62100
H  1.66800 6.20700 26.21600
H  2.21500 7.35700 24.94400
H  2.70600 7.56100 26.61500
H  7.34200 2.69000 22.70900
H  8.03700 -0.06100 23.28500
H  5.04600 1.27900 23.66300
H  6.13400 0.24200 22.61900
H  5.51000 1.79800 22.00800
H  10.42200 1.19600 23.43400
H  9.41400 2.29300 22.35600
H  10.23000 -0.49300 21.96100
H  10.60800 1.01900 20.98000
H  9.00600 0.22000 20.92600
H  10.98100 -2.78400 26.78200
H  12.16300 -2.04500 27.79100
H  11.84900 -1.26700 26.22600
H  10.84400 0.75200 32.02700
H  8.85200 -2.03100 34.77500
H  8.92600 -0.33500 35.36200
H  10.33300 -1.53900 35.54600
Mg 1.97400 41.45500 24.87200
C  2.99500 41.72500 28.26200
C  -0.98100 40.06900 26.03100
C  1.04400 40.84200 21.77300
C  5.11700 42.50800 23.92000
N  1.19400 40.85500 26.92400
C  1.70600 41.28500 28.15100
C  0.62800 41.03500 29.26600
C  -0.52100 40.21900 28.55000
C  -0.04200 40.48700 27.07900
C  -0.68600 38.77400 28.93300
C  0.11500 42.42100 29.89900
C  0.00900 42.35200 31.45700
H  -0.81400 41.17100 32.04000
N  0.25200 40.62200 24.04600
C  -0.89100 40.09500 24.64300
C  -1.83300 39.78600 23.63100
C  -1.27100 40.09800 22.37100
C  0.04500 40.62100 22.65900
C  -3.22800 39.31400 23.92700
C  -1.89600 39.95700 20.91800
O  -1.26900 40.33300 19.90800
C  -3.25200 39.33100 20.72700
N  2.95600 41.43500 23.10500
C  2.34600 41.30100 21.94700
C  3.37700 41.38300 20.79800
C  4.41300 42.32200 21.49900
C  4.19500 42.05300 22.93700
C  3.90500 40.03500 20.29500
C  4.44000 43.81200 21.04300
C  3.81600 44.90700 22.03600
N  3.73600 42.04400 25.84500
C  4.93900 42.54900 25.33900
C  5.82300 42.90500 26.43400
C  5.05600 42.56600 27.57200
C  3.81500 42.03900 27.16500
C  7.21000 43.44600 26.37100
C  5.11500 42.80600 28.97400
O  5.92500 43.35000 29.71200
C  3.77500 42.14700 29.51700
C  4.25200 41.08200 30.33700
O  4.21900 39.90200 30.13600
O  4.74100 41.63900 31.52300
C  4.96600 40.60900 32.52600
H  -1.92500 39.60200 26.31900
H  0.91800 40.73800 20.69300
H  6.02500 42.94000 23.49400
H  1.03900 40.29000 29.94700
H  -1.49400 40.70600 28.60900
H  0.12900 38.52100 29.61000
H  -0.73700 38.05500 28.11500
H  -1.67100 38.69600 29.39400
H  -0.84800 42.68500 29.46000
H  0.92000 43.15300 29.83300
H  -0.40700 43.32300 31.72600
H  0.99200 42.25600 31.91900
H  -3.95400 40.10900 23.75900
H  -3.27800 38.87000 24.92100
H  -3.45300 38.44000 23.31500
H  -3.38400 39.29300 19.64500
H  -4.09000 39.86400 21.17500
H  -3.23100 38.34500 21.19000
H  2.99000 42.00000 19.98700
H  5.42400 41.95200 21.32800
H  3.45700 39.28000 20.94000
H  4.98600 39.92100 20.21600
H  3.53900 39.86100 19.28300
H  3.96500 43.94500 20.07100
H  5.49100 44.07700 20.92600
H  3.43400 44.57900 23.00300
H  2.91400 45.35600 21.62000
H  4.59400 45.64800 22.21900
H  7.32800 44.14900 25.54600
H  7.97300 42.67000 26.32600
H  7.40900 43.94200 27.32100
H  3.32900 42.98600 30.05100
H  4.26400 39.78900 32.37800
H  4.83100 41.07300 33.50300
H  5.98600 40.23600 32.62000

