158

Mg 54.29800 24.84900 45.38100
C  51.56200 26.94200 44.36000
C  52.70200 22.24300 43.63500
C  57.05600 23.20200 45.65400
C  55.79100 27.84700 46.75300
N  52.39700 24.76200 43.92200
C  51.39100 25.69600 43.80400
C  50.31000 25.09700 42.83000
C  50.52600 23.55000 43.00600
C  51.99700 23.45300 43.57400
C  49.48000 22.89600 43.95800
C  50.13100 25.58600 41.32600
C  51.44800 26.09700 40.65500
H  52.24700 25.09100 39.74700
N  54.80000 22.90400 44.78900
C  54.01900 22.02300 44.14200
C  54.88700 20.72800 43.89900
C  56.15300 21.03700 44.47500
C  56.02600 22.42500 45.03000
C  54.39800 19.51800 43.20400
C  57.32000 19.95000 44.37600
O  57.22100 18.98700 43.57900
C  58.63600 20.12200 45.09800
N  56.14400 25.49700 45.94000
C  57.12200 24.54500 46.04000
C  58.32000 25.12400 46.91400
C  58.03800 26.59800 47.03900
C  56.55000 26.66800 46.60800
C  58.48600 24.44400 48.29300
C  58.86400 27.58400 46.12500
C  58.26400 28.10600 44.75600
N  53.76500 26.89800 45.69700
C  54.40300 27.98800 46.30200
C  53.53700 29.16200 46.31600
C  52.46600 28.79700 45.51800
C  52.61700 27.42900 45.15800
C  53.73900 30.44600 46.99900
C  51.26600 29.30400 44.96100
O  50.80200 30.40100 44.99400
C  50.68000 28.14400 44.08700
C  50.65800 28.57700 42.65900
O  51.65100 28.93000 42.06800
O  49.40400 28.72400 42.16700
C  49.25900 29.19300 40.74500
H  52.28000 21.35200 43.16600
H  57.97600 22.69100 45.94900
H  56.22800 28.74200 47.20000
H  49.33700 25.33600 43.26100
H  50.65200 22.99300 42.07800
H  48.74800 23.52500 44.46500
H  50.00900 22.30100 44.70100
H  49.03100 22.07400 43.40000
H  49.27300 26.24500 41.19200
H  49.78700 24.67700 40.83300
H  52.23300 26.24300 41.39800
H  51.38500 27.11200 40.26400
H  55.00800 19.45400 42.30300
H  53.35200 19.52900 42.89800
H  54.45200 18.57100 43.74200
H  59.28500 19.31000 44.76900
H  58.52700 20.12300 46.18200
H  59.03200 21.08100 44.76500
H  59.25600 24.94500 46.38600
H  58.13600 26.90500 48.08000
H  59.56200 24.26900 48.26100
H  58.09900 23.42700 48.35000
H  58.16000 25.05600 49.13400
H  59.83100 27.12200 45.92800
H  59.07100 28.44600 46.76000
H  57.60800 27.38300 44.27100
H  59.13200 28.29800 44.12500
H  57.78600 29.05800 44.98900
H  53.57200 31.25900 46.29300
H  54.65800 30.69500 47.52900
H  52.92800 30.53100 47.72200
H  49.66000 27.93900 44.41000
H  50.08700 29.87000 40.53600
H  48.30200 29.71500 40.74800
H  49.06900 28.35100 40.07900
Mg 42.87600 41.96300 26.22800
C  41.91500 44.40200 28.81400
C  43.83600 39.87200 28.53200
C  43.74500 40.06800 23.67500
C  41.86800 44.59600 23.92400
N  42.87000 42.24100 28.33000
C  42.51000 43.18300 29.24800
C  42.76100 42.74000 30.69400
C  43.58300 41.34700 30.53200
C  43.44400 41.09600 29.06500
C  45.15400 41.38200 30.92400
C  41.42800 42.49900 31.50300
C  41.34000 43.02700 32.92100
H  42.48500 42.84700 33.85100
N  43.76100 40.25300 26.09400
C  44.08800 39.42400 27.16600
C  44.61400 38.17400 26.62200
C  44.66900 38.28600 25.20500
C  43.99500 39.55600 24.93200
C  45.08000 37.03900 27.48000
C  45.16900 37.25100 24.25000
O  44.84100 37.37600 23.05500
C  45.96100 36.06700 24.59300
N  42.93300 42.39600 24.15400
C  43.26000 41.35400 23.31600
C  43.16100 41.76000 21.82800
C  42.28000 43.02800 21.92400
C  42.38800 43.39300 23.38900
C  44.48900 41.82900 21.02500
C  40.83200 42.93500 21.42800
C  39.81300 42.00600 22.11100
N  41.94100 44.03200 26.30200
C  41.63200 44.91600 25.25500
C  41.09000 46.18600 25.85200
C  41.12900 45.95800 27.21400
C  41.68600 44.67500 27.43600
C  40.77600 47.46800 25.10000
C  40.88700 46.59200 28.50100
O  40.59600 47.74900 28.73700
C  41.28800 45.57800 29.56000
C  42.05000 46.17500 30.68300
O  43.26300 46.44800 30.68700
O  41.26500 46.38000 31.80500
C  41.86800 46.72400 33.13700
H  43.89600 38.99100 29.17300
H  44.04400 39.45800 22.82000
H  41.62900 45.43100 23.26300
H  43.36400 43.45100 31.25900
H  43.22800 40.42000 30.98400
H  45.31600 40.78500 31.82200
H  45.49500 42.40500 31.08000
H  45.73500 41.07100 30.05600
H  41.27200 41.42100 31.52500
H  40.48800 42.83000 31.06100
H  40.48900 42.71000 33.52400
H  41.19600 44.10600 32.86200
H  44.80600 36.01700 27.21700
H  44.62500 37.20300 28.45700
H  46.16700 37.08600 27.55600
H  46.52200 36.17000 25.52200
H  46.76200 35.98800 23.85900
H  45.50900 35.07700 24.52600
H  42.65300 40.86800 21.46100
H  42.70200 43.80100 21.28300
H  44.59800 42.87100 20.72400
H  44.59600 41.19400 20.14600
H  45.37400 41.52400 21.58200
H  40.92600 42.64400 20.38100
H  40.46800 43.95600 21.30800
H  40.40400 41.21700 22.57500
H  39.11500 41.57700 21.39200
H  39.27100 42.60700 22.84100
H  40.39100 47.19100 24.11800
H  41.74100 47.90800 24.84800
H  40.19300 48.23500 25.61000
H  40.37700 45.21300 30.03300
H  41.81000 45.84100 33.77300
H  41.35900 47.55300 33.62800
H  42.94200 46.88400 33.04000

