158

Mg 1.70100 8.91600 27.38900
C  2.30000 11.01200 30.00100
C  1.64800 6.36100 29.51300
C  1.21100 6.95600 24.61200
C  1.85500 11.70000 25.16000
N  2.11000 8.74900 29.48900
C  2.01900 9.73300 30.39300
C  1.91000 9.27000 31.82000
C  2.18900 7.71900 31.68700
C  1.94300 7.56200 30.13800
C  3.61600 7.19100 32.02800
C  0.56100 9.67200 32.47000
C  0.64800 9.64000 34.00700
H  1.94100 9.02900 34.75700
N  1.49100 6.94200 27.11800
C  1.45000 5.98700 28.14400
C  1.18600 4.71100 27.62500
C  1.08000 4.84000 26.16700
C  1.25300 6.35300 25.93700
C  1.28600 3.45200 28.54800
C  0.89600 3.74500 25.12100
O  0.76000 4.05200 23.90900
C  1.03300 2.35900 25.44000
N  1.61300 9.27200 25.29700
C  1.47200 8.27800 24.35400
C  1.81600 8.78100 22.95800
C  1.46900 10.31800 23.16700
C  1.73400 10.43700 24.64700
C  3.31600 8.59000 22.46800
C  0.05600 10.69200 22.89500
C  -0.29100 11.58300 21.67800
N  2.21500 10.92400 27.45400
C  2.21100 11.99600 26.54700
C  2.52400 13.20400 27.10700
C  2.58800 12.90800 28.49900
C  2.36900 11.48900 28.69500
C  2.71500 14.66200 26.43600
C  2.81500 13.48900 29.81900
O  3.09200 14.60400 30.22300
C  2.50400 12.27900 30.89700
C  3.61700 12.19500 31.91900
O  4.62600 11.56700 31.80200
O  3.23000 12.84800 33.06200
C  3.99500 12.78000 34.28400
H  1.55500 5.49400 30.17100
H  1.11500 6.22200 23.80900
H  1.83900 12.52200 24.44200
H  2.71500 9.74500 32.38000
H  1.39800 7.04200 32.01000
H  4.05600 7.77100 32.84000
H  4.32500 7.19700 31.20100
H  3.62300 6.14100 32.32100
H  -0.19600 9.00200 32.06300
H  0.43000 10.71600 32.18600
H  -0.26100 9.31400 34.51200
H  0.77100 10.71700 34.12700
H  0.86500 2.56700 28.07100
H  0.74700 3.60500 29.48300
H  2.34200 3.38600 28.80800
H  1.81700 2.18800 26.17600
H  1.23300 1.77500 24.54100
H  0.06900 2.10500 25.88000
H  1.11200 8.25500 22.31200
H  2.16200 10.88000 22.54100
H  3.68100 7.79900 23.12200
H  3.83000 9.53100 22.66600
H  3.30600 8.14100 21.47500
H  -0.30900 11.31900 23.70900
H  -0.57000 9.80300 22.81800
H  0.59600 11.59100 21.04500
H  -0.55800 12.56300 22.07300
H  -1.13700 11.16900 21.12900
H  3.77600 14.90600 26.48500
H  2.22500 15.48500 26.95600
H  2.46900 14.68800 25.37400
H  1.59800 12.64600 31.38000
H  3.33400 12.53500 35.11500
H  4.59100 13.67400 34.46900
H  4.67400 11.93100 34.20300
Mg 0.13900 43.73100 25.51100
C  2.39300 43.79300 28.16900
C  -2.27300 42.75100 27.77500
C  -1.88200 42.99800 22.95900
C  2.85300 44.12700 23.32400
N  0.09300 43.29000 27.78700
C  1.13900 43.52500 28.62600
C  0.64600 43.57500 30.11300
C  -0.79800 42.97500 29.99200
C  -1.06200 43.03000 28.44800
C  -0.95500 41.60100 30.55400
C  0.74000 45.07900 30.58900
C  0.62000 45.18000 32.16600
H  0.47800 43.97500 33.14800
N  -1.85800 43.16200 25.42500
C  -2.64700 42.80500 26.44900
C  -4.04200 42.62500 25.99500
C  -3.92700 42.65500 24.62700
C  -2.48900 42.95800 24.24200
C  -5.25000 42.47200 26.86200
C  -5.06900 42.54000 23.56000
O  -4.84000 42.62400 22.31600
C  -6.54200 42.41600 23.94700
N  0.49000 43.40600 23.41500
C  -0.50500 43.17800 22.56600
C  -0.10600 43.34500 21.07600
C  1.38200 43.84600 21.21200
C  1.60800 43.87700 22.73000
C  -0.35800 41.98000 20.23900
C  1.68200 45.20100 20.38600
C  2.21800 45.05500 18.90300
N  2.21500 44.03400 25.64900
C  3.22700 44.18100 24.69900
C  4.56700 44.18700 25.34700
C  4.29300 44.10600 26.73800
C  2.84400 43.94000 26.83500
C  5.92400 44.29300 24.71000
C  4.88000 43.99400 28.05200
O  6.02300 43.77100 28.41600
C  3.65200 44.01600 29.03600
C  3.85400 42.85600 30.02000
O  3.77100 41.62600 29.77400
O  4.18200 43.41400 31.23600
C  4.42700 42.44600 32.30300
H  -3.01400 42.40700 28.50000
H  -2.54800 42.97700 22.09400
H  3.69300 44.15600 22.62700
H  1.27800 42.92900 30.72200
H  -1.47700 43.61200 30.55900
H  -1.33300 40.94900 29.76700
H  -1.60400 41.71400 31.42200
H  -0.01100 41.18300 30.90500
H  -0.13500 45.56900 30.16000
H  1.65700 45.57300 30.27000
H  -0.14200 45.95900 32.17200
H  1.53200 45.51100 32.66400
H  -5.85500 41.68700 26.41000
H  -5.89500 43.34900 26.81400
H  -5.06700 42.20100 27.90200
H  -6.86000 43.27100 24.54400
H  -6.46600 41.45700 24.45900
H  -7.02600 42.29100 22.97900
H  -0.64800 44.18300 20.63600
H  1.97200 43.06200 20.73600
H  -1.09200 42.14700 19.45000
H  -0.85700 41.23600 20.85900
H  0.62100 41.57400 19.98400
H  2.28900 45.92600 20.92800
H  0.68500 45.63800 20.33200
H  1.28800 45.23200 18.36300
H  2.55900 44.04400 18.68100
H  3.05600 45.70600 18.65300
H  6.59300 44.76900 25.42600
H  5.89400 44.89400 23.80100
H  6.26700 43.29000 24.45700
H  3.79700 44.98100 29.52200
H  5.43100 42.02500 32.24400
H  3.67900 41.66800 32.15400
H  4.28000 42.93100 33.26900

