158

Mg 48.94000 24.87000 27.43700
C  49.97100 27.21000 29.83400
C  47.60700 22.99300 29.95200
C  48.07900 22.76600 25.09300
C  50.48800 26.86700 25.07200
N  48.82000 25.12900 29.52300
C  49.20700 26.22800 30.29500
C  48.52300 26.14800 31.70900
C  47.96900 24.66800 31.75000
C  48.12100 24.25800 30.27800
C  48.78500 23.71100 32.63600
C  47.57700 27.36400 32.04000
C  47.58200 27.80100 33.53200
H  46.31000 27.81200 34.35600
N  47.95700 23.00500 27.48000
C  47.49200 22.40300 28.64300
C  46.97900 21.10100 28.26400
C  47.02100 21.07500 26.80000
C  47.72200 22.27400 26.38100
C  46.55300 20.02900 29.31500
C  46.50500 19.95200 25.88100
O  46.67200 19.98100 24.66900
C  45.64900 18.79600 26.39200
N  49.53400 24.69600 25.43400
C  48.86900 23.79200 24.65400
C  49.45600 23.86100 23.23800
C  50.05200 25.34000 23.15300
C  50.05200 25.68500 24.66300
C  50.38700 22.68500 22.88500
C  49.15800 26.27100 22.30100
C  49.45900 26.09100 20.79300
N  50.16500 26.70800 27.39800
C  50.72700 27.36100 26.37100
C  51.31400 28.57900 26.89000
C  50.99600 28.58800 28.23200
C  50.33700 27.39300 28.49000
C  51.96200 29.73400 26.08000
C  51.22100 29.34200 29.43100
O  51.73300 30.44900 29.67100
C  50.47900 28.47000 30.59300
C  51.45000 28.18300 31.62500
O  52.60300 27.81200 31.52100
O  50.92100 28.61400 32.82100
C  51.84000 28.41900 33.90600
H  47.27300 22.32100 30.74600
H  47.82600 22.01200 24.34500
H  50.91300 27.41800 24.23000
H  49.35000 26.21500 32.41600
H  46.92600 24.60800 32.06100
H  49.25500 24.25800 33.45300
H  49.59700 23.13700 32.18900
H  48.05000 23.05100 33.09700
H  46.59900 26.95400 31.78700
H  47.79900 28.21200 31.39300
H  48.03600 28.79200 33.51600
H  48.10000 27.07500 34.15900
H  46.92800 20.33500 30.29200
H  46.94200 19.07500 28.96200
H  45.47200 19.99500 29.45200
H  45.13300 18.50000 25.47900
H  45.05600 19.07900 27.26200
H  46.47300 18.12400 26.63100
H  48.57800 23.70500 22.61000
H  51.07000 25.21100 22.78600
H  49.87600 22.02100 22.18900
H  50.77200 22.00500 23.64600
H  51.31000 23.06200 22.44300
H  49.25400 27.29200 22.67000
H  48.13600 25.92200 22.44800
H  49.84000 27.06500 20.48700
H  48.56500 25.94100 20.18700
H  50.10500 25.21800 20.70000
H  51.70000 29.77400 25.02200
H  53.03600 29.59600 26.20000
H  51.69600 30.64300 26.61900
H  49.69600 29.01700 31.11900
H  51.88600 27.36400 34.17600
H  51.31900 28.87800 34.74600
H  52.81500 28.87000 33.71900
Mg -12.02700 38.08300 42.20600
C  -9.82000 35.28700 41.49500
C  -9.62500 40.10200 40.67100
C  -14.37900 40.44200 42.11300
C  -14.29100 35.74200 43.42300
N  -9.98400 37.67600 41.08500
C  -9.34300 36.49700 40.91800
C  -7.95400 36.69500 40.19000
C  -7.77500 38.33700 40.28800
C  -9.22900 38.76300 40.67400
C  -6.63300 38.94000 41.14000
C  -7.94300 36.13300 38.72800
C  -6.82400 35.06000 38.57200
H  -5.66400 35.31400 37.50300
N  -11.94800 40.03800 41.53400
C  -10.90800 40.67200 40.95900
C  -11.27200 42.07600 40.85100
C  -12.67700 42.24400 41.18100
C  -13.06600 40.84300 41.70900
C  -10.33000 43.16500 40.38600
C  -13.46600 43.57200 41.18200
O  -12.88500 44.65900 41.06800
C  -14.97000 43.61000 41.57500
N  -14.04600 38.00900 42.51700
C  -14.81700 39.15000 42.46300
C  -16.26300 38.82100 42.93200
C  -16.28800 37.27100 43.13900
C  -14.75700 36.97900 42.98900
C  -16.80500 39.65400 44.10800
C  -17.32800 36.37900 42.31100
C  -16.75300 35.78300 40.97200
N  -12.06800 35.97800 42.47100
C  -13.00500 35.24600 43.12900
C  -12.56400 33.90500 43.27800
C  -11.32200 33.85800 42.60700
C  -11.07200 35.19400 42.17800
C  -13.38300 32.83400 43.79900
C  -10.24600 33.04500 42.15300
O  -10.06700 31.83800 42.24000
C  -9.24100 33.91200 41.38800
C  -7.86000 33.74200 42.01300
O  -7.17600 32.76300 41.81100
O  -7.44200 34.82200 42.78500
C  -6.25900 34.58900 43.52900
H  -8.82800 40.79700 40.40000
H  -15.12300 41.23100 42.24500
H  -15.10300 35.02800 43.58000
H  -7.22100 36.23000 40.84900
H  -7.47300 38.63500 39.28400
H  -6.98900 39.87700 41.57000
H  -5.83200 39.10500 40.42000
H  -6.41600 38.24500 41.95000
H  -7.88500 36.95700 38.01700
H  -8.92300 35.70400 38.51700
H  -7.24500 34.06800 38.41200
H  -6.24800 35.03200 39.49700
H  -10.12200 43.85100 41.20700
H  -10.86500 43.76400 39.64900
H  -9.38500 42.80300 39.98300
H  -15.32000 43.31200 42.56400
H  -15.45700 42.87000 40.94000
H  -15.31700 44.60000 41.27800
H  -16.89500 38.97900 42.05800
H  -16.48400 37.05900 44.19000
H  -17.13800 38.98400 44.90000
H  -17.61300 40.28100 43.72900
H  -16.04700 40.35000 44.46800
H  -18.15900 37.00000 41.97700
H  -17.78000 35.62000 42.94900
H  -16.96800 34.72100 40.84700
H  -15.66900 35.77100 40.86200
H  -17.18200 36.21300 40.06700
H  -14.39100 32.88400 43.38800
H  -13.29000 32.82400 44.88500
H  -13.01700 31.86100 43.47200
H  -9.12300 33.56900 40.36000
H  -5.96200 33.54500 43.62800
H  -6.31700 34.96000 44.55300
H  -5.37900 35.09300 43.12900

