158

Mg 0.68200 -0.57500 44.02100
C  4.12100 -0.44500 43.24300
C  0.23600 2.45800 42.31800
C  -2.50400 -1.25200 43.75800
C  1.33400 -3.84800 45.15500
N  1.96700 0.80000 43.02700
C  3.31900 0.70400 42.86000
C  3.87600 1.91100 42.02800
C  2.70000 2.94400 42.32000
C  1.55900 2.04500 42.62400
C  2.95300 4.10600 43.38600
C  4.10900 1.53400 40.50700
C  5.51900 1.85200 40.02500
H  5.59500 1.95200 38.46200
N  -0.92500 0.53600 43.31600
C  -0.93000 1.70900 42.58000
C  -2.27600 2.08400 42.29100
C  -3.12800 0.95500 42.59700
C  -2.11700 -0.00100 43.24100
C  -2.69700 3.33400 41.68600
C  -4.58900 0.86200 42.22100
O  -5.04200 1.68900 41.49300
C  -5.46800 -0.28600 42.55900
N  -0.48300 -2.43700 44.26000
C  -1.80500 -2.35700 44.21800
C  -2.37500 -3.67600 44.63200
C  -1.15300 -4.41500 45.39900
C  0.01900 -3.57200 44.84100
C  -3.66600 -3.57100 45.45000
C  -1.08300 -6.00100 44.93600
C  -0.75200 -6.92800 46.10300
N  2.37000 -1.89100 44.25800
C  2.47900 -3.11400 44.81300
C  3.83300 -3.54600 44.79200
C  4.54800 -2.51800 44.20600
C  3.61100 -1.54900 43.90200
C  4.42900 -4.95200 45.14000
C  5.86100 -2.10000 43.78900
O  7.00700 -2.55000 43.98500
C  5.60000 -0.64500 43.16100
C  6.36400 0.41500 43.80300
O  6.05200 1.03600 44.80400
O  7.53900 0.56700 43.21100
C  8.44400 1.64100 43.66900
H  0.09300 3.50800 42.05200
H  -3.56400 -1.47900 43.89100
H  1.52900 -4.81600 45.62200
H  4.73500 2.43900 42.44200
H  2.48200 3.47900 41.39600
H  3.22100 5.08000 42.97600
H  3.90100 3.85500 43.86100
H  2.18900 4.22900 44.15400
H  3.49600 2.10400 39.80900
H  3.91900 0.48300 40.28700
H  6.32000 1.21100 40.39400
H  5.83000 2.85800 40.30700
H  -2.87300 3.29900 40.61100
H  -1.97300 4.11700 41.91000
H  -3.57600 3.72700 42.19700
H  -6.47900 -0.05600 42.22300
H  -5.54800 -0.35400 43.64400
H  -5.13700 -1.23100 42.13000
H  -2.57600 -4.11500 43.65500
H  -1.17600 -4.28300 46.48100
H  -3.68300 -2.71000 46.11900
H  -3.81400 -4.44600 46.08400
H  -4.54500 -3.53000 44.80700
H  -0.18300 -6.14600 44.33900
H  -1.99800 -6.35100 44.45700
H  -1.64700 -7.40900 46.49700
H  -0.43800 -6.42400 47.01700
H  -0.05000 -7.71900 45.84000
H  3.52900 -5.56500 45.08700
H  4.77600 -5.03000 46.17000
H  5.33500 -5.17800 44.57800
H  5.84200 -0.67500 42.09900
H  7.87400 2.48400 44.06000
H  9.14400 1.89400 42.87300
H  9.02900 1.34800 44.54100
Mg 48.06400 44.43500 42.83400
C  44.51600 44.10300 42.47600
C  48.28600 41.03600 42.53900
C  51.32900 44.82400 42.98200
C  47.66000 47.85300 42.52400
N  46.55300 42.82300 42.44000
C  45.21800 42.81500 42.54400
C  44.56400 41.41000 42.55900
C  45.89200 40.47900 42.76300
C  47.02800 41.51200 42.60900
C  45.83900 39.77100 44.15900
C  43.72300 40.97300 41.31800
C  43.97200 41.70200 39.95800
H  43.89800 40.92400 38.69200
N  49.58600 43.08000 42.69400
C  49.49500 41.72100 42.59200
C  50.86200 41.16100 42.62100
C  51.74500 42.23400 42.56700
C  50.95000 43.41600 42.82100
C  51.16000 39.75900 42.42100
C  53.30400 42.19100 42.38000
O  53.88900 41.09500 42.35300
C  54.20500 43.45700 42.20700
N  49.33000 46.16100 42.88600
C  50.69100 46.06700 43.01500
C  51.37300 47.45100 43.14900
C  50.13900 48.40800 43.15900
C  48.98500 47.46500 42.75100
C  52.53000 47.59500 44.23700
C  50.36300 49.55800 42.10800
C  50.48800 50.96000 42.67300
N  46.46100 45.72500 42.49900
C  46.47200 47.10300 42.38200
C  45.07500 47.61800 42.22600
C  44.30100 46.43700 42.29800
C  45.19700 45.34100 42.38100
C  44.63300 49.04400 42.19400
C  42.91200 45.96000 42.51300
O  41.89800 46.57300 42.61100
C  43.02600 44.43000 42.61800
C  42.35400 44.00100 43.84200
O  41.22200 43.53600 43.99200
O  43.15300 44.28900 44.96900
C  42.73900 43.66800 46.29100
H  48.37200 39.94900 42.49500
H  52.37300 45.02500 43.22900
H  47.52900 48.93600 42.47700
H  43.99800 41.40900 43.49000
H  46.11500 39.74600 41.98700
H  45.39800 38.79700 43.94800
H  45.16200 40.25000 44.86600
H  46.86400 39.61600 44.49600
H  42.68800 41.01400 41.65600
H  43.90500 39.92300 41.09000
H  44.91800 42.24400 39.93200
H  43.17700 42.44200 39.86800
H  51.75700 39.41200 43.26500
H  51.86200 39.69400 41.59000
H  50.27600 39.16400 42.19100
H  53.83600 44.24000 41.54400
H  55.17100 43.18500 41.78300
H  54.28200 43.92200 43.19000
H  51.81000 47.51100 42.15300
H  49.93700 48.69900 44.19000
H  52.31100 48.28100 45.05600
H  53.45100 47.93900 43.76700
H  52.84300 46.67900 44.73700
H  49.43600 49.61100 41.53600
H  51.17900 49.45200 41.39400
H  49.78600 51.66100 42.22000
H  51.43600 51.49000 42.58300
H  50.25400 50.78600 43.72300
H  44.65000 49.51000 43.17900
H  43.69100 49.15700 41.65600
H  45.33100 49.63200 41.59800
H  42.40400 44.09000 41.79000
H  43.60200 43.63100 46.95500
H  42.35800 42.65300 46.40400
H  41.95800 44.24100 46.79200

