158

Mg 23.84100 -6.57900 45.58100
C  26.38800 -4.53200 44.01500
C  21.63900 -4.97600 43.34400
C  21.59000 -8.81300 46.45400
C  26.28200 -8.20100 47.38200
N  24.10100 -4.99400 43.72900
C  25.16700 -4.29000 43.36900
C  24.86000 -3.35200 42.17400
C  23.31700 -3.23000 42.25300
C  22.95100 -4.45200 43.17400
C  22.71300 -1.93400 42.99000
C  25.51700 -3.96200 40.88000
C  26.45800 -2.97700 40.18400
H  26.10700 -2.75300 38.70700
N  21.87900 -6.81100 45.07800
C  21.16700 -6.08800 44.16100
C  19.78300 -6.59500 44.17100
C  19.72300 -7.71300 45.03700
C  21.11200 -7.84600 45.57400
C  18.80900 -5.96300 43.24900
C  18.53600 -8.56800 45.30600
O  17.47500 -8.40800 44.72300
C  18.53900 -9.64300 46.30300
N  23.94200 -8.35900 46.71800
C  22.85400 -9.09900 47.03100
C  23.26800 -10.31300 47.95300
C  24.70000 -9.97600 48.36500
C  25.00700 -8.79700 47.45000
C  22.26500 -10.63200 49.06200
C  25.70900 -11.20500 48.19700
C  26.70900 -11.48500 49.26600
N  25.91700 -6.43200 45.75800
C  26.75600 -7.11200 46.57700
C  28.12100 -6.53800 46.41400
C  28.03300 -5.55400 45.39100
C  26.60100 -5.50300 45.04600
C  29.30300 -7.03100 47.24600
C  28.74300 -4.61200 44.70300
O  29.93000 -4.27200 44.77700
C  27.79100 -3.99700 43.71000
C  27.92800 -2.46900 43.74400
O  28.62300 -1.78400 42.99700
O  27.27300 -1.94300 44.86800
C  27.44400 -0.46500 45.19900
H  20.88300 -4.38000 42.82900
H  20.92600 -9.65700 46.65000
H  27.06300 -8.58400 48.04100
H  25.18700 -2.35100 42.45600
H  22.94000 -3.32200 41.23400
H  23.52200 -1.36000 43.44300
H  21.99400 -2.09700 43.79300
H  22.25300 -1.30700 42.22600
H  24.75200 -4.16300 40.12900
H  25.99700 -4.91600 41.09500
H  27.48400 -3.34100 40.25000
H  26.39300 -1.99900 40.66000
H  18.62900 -6.35900 42.25000
H  19.04700 -4.90700 43.12400
H  17.85100 -6.02100 43.76700
H  18.92000 -9.29700 47.26400
H  19.09300 -10.48700 45.89200
H  17.55000 -10.02600 46.55200
H  23.34100 -11.14000 47.24700
H  24.73300 -9.61600 49.39300
H  22.69400 -10.45200 50.04700
H  22.09800 -11.70800 49.01600
H  21.32400 -10.08300 49.09400
H  26.17300 -11.19700 47.21100
H  25.06800 -12.07100 48.35900
H  27.71800 -11.68800 48.90600
H  26.39200 -12.34000 49.86300
H  26.71200 -10.67900 50.00000
H  29.12100 -7.62300 48.14300
H  29.86900 -6.13300 47.49400
H  29.97700 -7.52400 46.54600
H  28.04300 -4.24300 42.67800
H  27.82400 0.22200 44.44300
H  28.26600 -0.44600 45.91500
H  26.46900 -0.24700 45.63400
Mg 36.30100 48.98700 25.45400
C  36.38000 47.19900 28.50800
C  35.35800 51.85900 27.20200
C  35.63200 50.45400 22.48900
C  37.35100 46.10200 23.77200
N  35.66300 49.37400 27.57300
C  35.91600 48.53000 28.63900
C  35.80000 49.28400 29.94000
C  35.24400 50.68600 29.47000
C  35.42200 50.67000 27.97500
C  33.79500 51.15400 29.85500
C  37.20100 49.29500 30.72200
C  37.23100 49.04900 32.27300
H  35.86900 48.84800 32.94500
N  35.60100 50.88500 24.93300
C  35.39200 51.96700 25.78900
C  35.13000 53.19900 25.02500
C  35.08800 52.81200 23.64300
C  35.40500 51.25600 23.57900
C  34.83600 54.60400 25.63600
C  34.85000 53.64600 22.41400
O  34.83300 53.12300 21.30600
C  34.48400 55.02900 22.48100
N  36.33500 48.33000 23.45100
C  36.08100 49.17800 22.40600
C  36.42400 48.43400 21.07000
C  36.97200 47.04000 21.45300
C  36.94900 47.18600 23.01100
C  35.16600 48.29600 20.07500
C  38.34200 46.74300 20.89400
C  39.57900 47.34100 21.59100
N  36.75100 46.99800 25.97300
C  37.28900 46.00000 25.17300
C  37.48500 44.84900 26.07600
C  37.23200 45.33200 27.39100
C  36.81400 46.67500 27.27600
C  37.78400 43.44000 25.49200
C  37.12000 44.92300 28.82700
O  37.32000 43.83300 29.27400
C  36.56500 46.11600 29.57900
C  35.24400 45.73400 30.20300
O  34.17100 45.94800 29.63100
O  35.31700 45.14700 31.41300
C  34.02900 44.91300 32.10500
H  35.13300 52.76900 27.76100
H  35.52100 50.97200 21.53400
H  37.58400 45.21600 23.17700
H  35.00600 48.82500 30.53000
H  35.87800 51.49800 29.82500
H  33.98300 51.97100 30.55100
H  33.25600 50.31300 30.29400
H  33.22500 51.66100 29.07700
H  37.74300 50.21700 30.50800
H  37.81500 48.53700 30.23600
H  37.68000 49.91800 32.75500
H  37.89500 48.22400 32.52900
H  33.76000 54.76700 25.68700
H  35.36300 55.39500 25.10200
H  35.25400 54.62300 26.64300
H  34.40800 55.42100 21.46700
H  35.36900 55.47600 22.93200
H  33.59900 55.15300 23.10500
H  37.12000 49.03000 20.48000
H  36.22400 46.28200 21.22000
H  34.29800 48.51200 20.69700
H  35.17100 47.32400 19.58000
H  35.17300 49.10700 19.34700
H  38.30900 47.09700 19.86300
H  38.48700 45.66300 20.87800
H  39.27500 48.00400 22.40100
H  40.12500 47.90400 20.83500
H  40.28000 46.53200 21.79500
H  38.29100 43.45200 24.52800
H  36.85300 42.96000 25.19000
H  38.29400 42.82700 26.23500
H  37.30800 46.38900 30.32900
H  33.15800 45.34100 31.60900
H  34.13200 45.52600 33.00000
H  33.82600 43.88600 32.40700

