158

Mg 55.91200 24.65400 45.16900
C  53.24800 26.50900 43.87000
C  54.49000 21.82500 43.67900
C  58.78000 22.98600 45.80000
C  57.27000 27.61800 46.47100
N  54.13400 24.27100 43.59900
C  53.19600 25.19600 43.34400
C  52.15100 24.63000 42.38100
C  52.25100 23.13500 42.88000
C  53.75900 22.98400 43.26700
C  51.25000 22.78500 43.95200
C  52.64000 24.91500 40.93300
C  51.70100 25.25100 39.81200
H  51.71600 24.45600 38.39700
N  56.52900 22.65000 44.82800
C  55.78000 21.60900 44.14500
C  56.56800 20.42800 44.16300
C  57.72600 20.68400 45.02400
C  57.73500 22.18000 45.31400
C  56.11800 19.18900 43.39400
C  58.68600 19.60400 45.44100
O  58.47800 18.42500 45.09900
C  59.93600 19.78500 46.19300
N  57.83200 25.29300 45.83700
C  58.79700 24.35000 46.17400
C  60.00300 25.05200 46.79700
C  59.52400 26.47000 47.14200
C  58.15800 26.49100 46.46500
C  60.66200 24.27900 47.98400
C  60.47700 27.68600 46.76600
C  60.90200 28.59700 47.93000
N  55.48500 26.71800 45.07500
C  56.01600 27.78500 45.78100
C  55.24100 28.97700 45.67300
C  54.12800 28.53100 44.88400
C  54.29300 27.17200 44.61500
C  55.41900 30.25200 46.42300
C  52.85500 28.93300 44.32900
O  52.21700 30.00100 44.48400
C  52.22600 27.65500 43.56400
C  52.13400 27.96800 42.17900
O  52.96500 28.51600 41.47900
O  50.79200 27.86800 41.81800
C  50.33200 28.67000 40.66200
H  54.03900 20.87500 43.38600
H  59.66900 22.45500 46.14700
H  57.59700 28.45900 47.08600
H  51.10300 24.89400 42.52400
H  52.04800 22.48700 42.02700
H  50.60000 23.65000 44.08000
H  51.85400 22.42900 44.78700
H  50.65900 21.96500 43.54300
H  53.12400 24.00100 40.59000
H  53.46000 25.62600 41.03500
H  51.76400 26.32400 39.63000
H  50.70900 25.01200 40.19600
H  55.63900 18.49600 44.08700
H  56.95400 18.60100 43.01600
H  55.61100 19.36000 42.44400
H  60.28300 18.78100 46.43700
H  59.59200 20.25500 47.11400
H  60.82200 20.21300 45.72400
H  60.77300 25.10800 46.02700
H  59.39000 26.47800 48.22300
H  61.71200 24.25900 47.69200
H  60.34600 23.26600 48.23000
H  60.66300 24.91100 48.87300
H  60.03200 28.30000 45.98300
H  61.42700 27.28900 46.40800
H  60.90900 29.64600 47.63200
H  61.91200 28.28100 48.19200
H  60.25200 28.38600 48.77900
H  56.46500 30.49600 46.61000
H  54.93400 30.20400 47.39700
H  55.07500 31.02700 45.73800
H  51.20900 27.50300 43.92600
H  49.29100 28.96000 40.80000
H  50.27200 28.12900 39.71700
H  50.92300 29.58200 40.57800
Mg 17.44300 52.22400 25.80800
C  19.08400 50.70000 28.54500
C  15.09700 53.24500 27.91400
C  15.98600 53.47600 23.10300
C  20.00500 50.75200 23.76900
N  17.18900 52.08800 28.00000
C  18.08000 51.59600 28.87100
C  17.62600 51.84800 30.29300
C  16.19300 52.48800 30.13000
C  16.11400 52.61500 28.56700
C  14.98600 51.73400 30.71500
C  18.61300 52.61600 31.20300
C  18.65300 52.32100 32.69400
H  17.50800 51.66600 33.47700
N  15.78200 53.31600 25.56900
C  14.91100 53.62000 26.58600
C  13.76500 54.33700 25.99600
C  14.03900 54.41300 24.59900
C  15.32300 53.71700 24.34500
C  12.59600 54.91200 26.86000
C  13.18100 55.08400 23.53800
O  13.56400 55.23800 22.36500
C  11.86400 55.56000 23.85600
N  17.93700 52.10900 23.68000
C  17.11300 52.72700 22.78100
C  17.66900 52.57900 21.31300
C  19.05500 51.91300 21.70300
C  19.03200 51.62800 23.18300
C  16.69400 51.72400 20.46300
C  20.32600 52.67400 21.33800
C  21.29600 51.96100 20.48300
N  19.05100 50.75700 26.04100
C  20.02900 50.31300 25.11900
C  21.06200 49.52200 25.81100
C  20.66700 49.61100 27.14800
C  19.48100 50.35100 27.28200
C  22.33000 48.85300 25.12500
C  21.16600 49.20500 28.49000
O  22.02400 48.49500 28.88200
C  20.17300 49.93200 29.40600
C  19.52300 48.88000 30.27700
O  19.06600 47.82600 29.87900
O  19.45100 49.26100 31.61200
C  18.89000 48.27300 32.53800
H  14.39100 53.62900 28.65300
H  15.54800 54.04100 22.27700
H  20.85300 50.34400 23.21400
H  17.38000 50.85500 30.66900
H  16.15400 53.45600 30.63000
H  15.14000 50.78200 31.22300
H  14.41800 51.49500 29.81600
H  14.48500 52.42200 31.39600
H  18.36000 53.67100 31.09200
H  19.57500 52.34100 30.77000
H  18.91600 53.23700 33.22400
H  19.52900 51.71300 32.92000
H  12.63000 55.99100 26.71200
H  12.94800 54.90400 27.89200
H  11.61400 54.45500 26.73600
H  11.86600 56.47800 24.44300
H  11.46400 54.64600 24.29500
H  11.33300 55.64100 22.90700
H  17.82500 53.58100 20.91400
H  19.01500 50.90900 21.28000
H  15.86700 51.49600 21.13500
H  17.11500 50.75400 20.20200
H  16.35700 52.31900 19.61400
H  20.81600 52.94100 22.27500
H  19.98400 53.64500 20.98200
H  21.35400 52.35600 19.46800
H  21.14900 50.88300 20.42100
H  22.27300 52.09300 20.94800
H  22.48200 49.37500 24.18100
H  21.91500 47.84600 25.06600
H  23.12900 48.74500 25.85800
H  20.72100 50.57400 30.09600
H  17.80100 48.22200 32.51300
H  19.23600 48.47600 33.55100
H  19.21300 47.26800 32.26700

