158

Mg 42.41300 3.67500 46.74500
C  40.62000 6.71500 46.51400
C  39.23500 2.12200 46.51700
C  43.95500 0.79300 46.37100
C  45.28800 5.47200 46.06000
N  40.19900 4.41100 46.54600
C  39.76400 5.60300 46.54000
C  38.23300 5.65000 46.64200
C  37.82800 4.14600 46.81800
C  39.17600 3.48200 46.72100
C  37.21200 3.80900 48.27100
C  37.62100 6.25100 45.29000
C  38.03300 5.44400 43.99800
H  38.65400 6.25400 42.91000
N  41.73800 1.66000 46.55200
C  40.37900 1.27900 46.51500
C  40.25900 -0.14000 46.34800
C  41.64300 -0.53800 46.25100
C  42.55000 0.62700 46.43400
C  38.93400 -0.97300 46.23700
C  42.09300 -1.94700 45.84600
O  41.26400 -2.83300 45.65100
C  43.49700 -2.37600 45.44700
N  44.36700 3.15600 46.32400
C  44.79600 1.87400 46.37400
C  46.29000 1.80400 46.05200
C  46.72100 3.33600 45.98400
C  45.36200 4.04500 46.08200
C  47.11100 0.92700 47.01800
C  47.67700 3.68700 44.88300
C  49.12700 3.98900 45.33400
N  42.91000 5.69900 46.42600
C  44.14000 6.29900 46.11900
C  44.06000 7.74300 46.21700
C  42.67500 7.89100 46.28200
C  42.02400 6.66100 46.38600
C  45.07800 8.80400 46.04400
C  41.67400 9.00600 46.30800
O  41.77400 10.21400 46.32300
C  40.32000 8.21200 46.44700
C  39.39900 8.62100 47.54200
O  39.47200 8.26900 48.67600
O  38.39600 9.32400 47.07600
C  37.48400 9.93600 48.00400
H  38.28400 1.59300 46.59900
H  44.55300 -0.12100 46.33700
H  46.18600 6.09100 45.99400
H  37.94700 6.17000 47.55700
H  37.28400 3.61500 46.03700
H  37.16700 4.66100 48.95000
H  37.83000 3.02300 48.70300
H  36.25600 3.29000 48.19500
H  37.80200 7.32400 45.23500
H  36.53100 6.24400 45.30700
H  37.18900 4.87200 43.61300
H  38.73600 4.63400 44.19500
H  38.14000 -0.58100 46.87300
H  39.16100 -1.94100 46.68400
H  38.64600 -1.14200 45.20000
H  44.18600 -2.41300 46.29000
H  43.89700 -1.86500 44.57100
H  43.53200 -3.38100 45.02600
H  46.40100 1.25700 45.11600
H  47.17500 3.57100 46.94700
H  46.45900 0.46100 47.75800
H  47.88900 1.48500 47.54000
H  47.49200 0.08300 46.44300
H  47.34500 4.48900 44.22400
H  47.60600 2.73700 44.35300
H  49.26000 4.35700 46.35200
H  49.58800 4.67800 44.62700
H  49.81700 3.14600 45.37500
H  44.57100 9.76900 46.06900
H  45.73600 8.67900 45.18400
H  45.72100 8.84900 46.92300
H  39.78000 8.35400 45.51100
H  37.73500 10.98400 48.16600
H  37.49000 9.43800 48.97400
H  36.43000 9.80400 47.75900
Mg -6.20600 25.71000 26.15100
C  -4.35200 27.09400 28.63800
C  -7.56800 23.41300 28.35400
C  -7.66000 24.11300 23.52500
C  -4.24000 27.52100 23.78800
N  -5.87900 25.25100 28.23900
C  -5.22700 26.07400 29.09800
C  -5.65400 25.84500 30.59500
C  -6.25400 24.44000 30.40500
C  -6.62200 24.36300 28.92100
C  -5.48900 23.17500 30.87400
C  -6.63100 26.99600 31.30200
C  -7.63000 26.59300 32.42200
H  -7.13900 25.56200 33.47200
N  -7.67600 24.15400 26.02200
C  -8.07500 23.31000 27.05100
C  -9.10200 22.40800 26.54900
C  -9.22700 22.68700 25.15400
C  -8.14400 23.66400 24.83500
C  -9.81700 21.39800 27.52300
C  -10.21300 22.07300 24.14200
O  -10.16400 22.45800 22.97400
C  -11.28800 20.98700 24.55200
N  -5.89500 25.71600 23.93200
C  -6.61500 24.94800 23.09800
C  -6.14000 25.14100 21.66100
C  -5.01700 26.29900 21.73300
C  -5.02600 26.51100 23.22500
C  -5.65400 23.88000 20.91400
C  -5.46000 27.62300 20.98500
C  -4.34500 28.24200 20.15700
N  -4.64700 27.05100 26.19100
C  -4.04900 27.77300 25.12600
C  -3.12300 28.75700 25.74200
C  -3.31900 28.53300 27.10900
C  -4.13300 27.42900 27.31600
C  -2.22000 29.78200 25.13400
C  -3.08800 29.11500 28.44200
O  -2.47300 30.11000 28.79700
C  -3.74800 28.23500 29.50800
C  -2.75400 27.77600 30.50200
O  -1.71900 27.09600 30.35500
O  -3.20700 28.15100 31.67100
C  -2.44500 27.60400 32.84800
H  -8.01000 22.79100 29.13500
H  -8.22500 23.78200 22.65100
H  -3.59000 28.01600 23.06400
H  -4.84300 25.85700 31.32300
H  -7.19300 24.37800 30.95500
H  -5.93500 22.75000 31.77300
H  -4.51700 23.57000 31.17100
H  -5.47100 22.48100 30.03300
H  -7.19900 27.31500 30.42800
H  -6.05400 27.75600 31.82900
H  -8.39100 26.03600 31.87500
H  -8.11400 27.47200 32.84900
H  -10.83800 21.63200 27.82600
H  -9.25300 21.20400 28.43500
H  -9.91600 20.41800 27.05700
H  -10.95000 19.98700 24.82400
H  -11.89100 20.82600 23.65900
H  -11.88300 21.51500 25.29700
H  -6.99100 25.48000 21.07000
H  -4.05400 25.90400 21.40900
H  -4.73500 24.07600 20.36300
H  -6.36700 23.50100 20.18200
H  -5.39500 23.05100 21.57300
H  -5.58600 28.45800 21.67300
H  -6.39200 27.46100 20.44200
H  -4.74800 28.28600 19.14500
H  -3.41500 27.67600 20.20400
H  -4.05600 29.21600 20.55300
H  -1.20900 29.37800 25.18500
H  -2.33700 30.69300 25.72100
H  -2.48400 29.86000 24.07900
H  -4.51800 28.85000 29.97500
H  -2.17900 26.55000 32.76000
H  -3.22100 27.56600 33.61300
H  -1.74000 28.29900 33.30200

