158

Mg 35.14600 49.90500 25.46600
C  35.04900 48.16300 28.53300
C  33.80800 52.59200 27.19500
C  35.04700 51.51300 22.63000
C  36.61900 47.10200 23.92500
N  34.65200 50.38100 27.67000
C  34.70500 49.49000 28.68300
C  34.48900 50.33500 30.04600
C  33.91800 51.70000 29.58500
C  34.05100 51.56000 28.06500
C  32.48800 52.00700 30.07200
C  35.71500 50.36700 31.02300
C  35.41900 49.87000 32.45000
H  34.01500 49.92700 33.07200
N  34.40800 51.74500 25.00000
C  33.96600 52.72400 25.79600
C  33.59000 53.92500 25.07200
C  33.86600 53.53100 23.71600
C  34.51100 52.24200 23.72900
C  32.87600 55.21000 25.69800
C  33.50600 54.25300 22.37300
O  33.68800 53.80600 21.25100
C  32.91200 55.55700 22.41400
N  35.61300 49.37900 23.50400
C  35.55000 50.19700 22.54100
C  35.91900 49.56600 21.19600
C  36.73800 48.29300 21.71200
C  36.30900 48.25700 23.12300
C  34.61900 49.11900 20.50400
C  38.23800 48.37600 21.57200
C  38.92300 49.79300 21.76600
N  35.62600 48.00900 26.03100
C  36.26600 47.01500 25.35500
C  36.55600 45.91000 26.24200
C  35.98100 46.26400 27.50400
C  35.50600 47.60100 27.34500
C  37.16200 44.63100 25.84600
C  35.85700 45.83600 28.85700
O  36.18800 44.76100 29.45300
C  35.13400 47.12000 29.57300
C  33.81900 46.72400 30.13000
O  32.77500 46.71800 29.52500
O  33.92800 46.30600 31.44300
C  32.82800 45.80100 32.31300
H  33.34100 53.43500 27.70800
H  35.11500 52.14100 21.74000
H  37.09400 46.23400 23.46300
H  33.68700 49.75500 30.50200
H  34.63400 52.50200 29.76700
H  32.36600 52.75700 30.85400
H  32.02700 51.07700 30.40400
H  31.88000 52.38100 29.24800
H  36.07800 51.39200 31.09900
H  36.51300 49.70100 30.69300
H  36.08900 50.36100 33.15500
H  35.56300 48.79100 32.39700
H  33.43100 55.71500 26.48800
H  31.89600 54.88500 26.04700
H  32.89300 55.97900 24.92500
H  32.09500 55.57900 23.13500
H  32.44100 55.75400 21.45100
H  33.67200 56.32700 22.54700
H  36.45300 50.23400 20.52000
H  36.44300 47.31500 21.33200
H  33.74500 48.84900 21.09700
H  34.75300 48.22400 19.89700
H  34.47200 49.87400 19.73200
H  38.65500 47.93000 20.66900
H  38.68900 47.81100 22.38800
H  39.80200 49.69700 22.40400
H  38.26200 50.58700 22.11400
H  39.35500 50.06300 20.80300
H  37.48900 44.00600 26.67700
H  37.94900 44.80400 25.11200
H  36.34500 44.09500 25.36200
H  35.88100 47.38200 30.32300
H  31.87600 46.20800 31.97300
H  33.01900 46.10500 33.34200
H  32.71500 44.71800 32.34600
Mg -0.29600 43.39500 25.22600
C  2.22500 42.79800 27.67000
C  -2.58800 42.30600 27.48300
C  -2.42700 43.19800 22.69100
C  2.39700 43.91900 22.92000
N  -0.10800 42.59900 27.33400
C  0.91000 42.64800 28.18500
C  0.38600 42.34400 29.62600
C  -1.12600 41.86500 29.44500
C  -1.32200 42.25600 27.97500
C  -1.37400 40.35200 29.72200
C  0.45400 43.55400 30.53600
C  -0.27600 43.56700 31.90900
H  -0.42400 42.34400 32.88700
N  -2.30400 42.99500 25.16100
C  -3.13300 42.55700 26.18000
C  -4.48100 42.47800 25.67800
C  -4.41700 42.62300 24.30700
C  -3.00500 42.96700 23.97400
C  -5.64900 42.15200 26.61800
C  -5.55200 42.63200 23.33000
O  -5.41500 42.92400 22.11400
C  -6.99200 42.13300 23.76200
N  -0.08400 43.56800 23.15800
C  -1.13900 43.45700 22.29400
C  -0.85000 43.66800 20.84300
C  0.69500 43.91400 20.96400
C  1.06100 43.83600 22.43800
C  -1.35300 42.50400 19.89100
C  1.20600 45.21200 20.28900
C  1.05900 46.49600 21.08200
N  1.87200 43.37700 25.21800
C  2.80300 43.77100 24.26300
C  4.18900 43.63100 24.79200
C  3.97400 43.25100 26.12700
C  2.54400 43.15900 26.34500
C  5.53600 43.87200 23.98200
C  4.65300 42.94500 27.42400
O  5.83400 42.71700 27.73000
C  3.48800 42.90900 28.47900
C  3.76300 41.78900 29.43700
O  3.70300 40.59300 29.26000
O  4.24300 42.32600 30.56600
C  4.60400 41.41900 31.69800
H  -3.25800 42.05900 28.31000
H  -3.11300 43.33300 21.85300
H  3.14000 44.15000 22.15400
H  0.96600 41.54600 30.09000
H  -1.81800 42.43100 30.06900
H  -2.01800 39.89000 28.97400
H  -1.87000 40.38800 30.69200
H  -0.44500 39.78600 29.79600
H  0.03100 44.33900 29.90800
H  1.47400 43.85900 30.77200
H  -1.28700 43.94300 31.75500
H  0.27400 44.34400 32.44000
H  -5.33700 42.48100 27.60900
H  -5.62800 41.06700 26.71500
H  -6.64900 42.49100 26.34800
H  -7.00200 41.14300 24.21700
H  -7.56600 41.99100 22.84600
H  -7.53900 42.82200 24.40500
H  -1.37600 44.58000 20.56200
H  1.25800 43.06700 20.57300
H  -1.83400 43.07600 19.09700
H  -2.01300 41.76700 20.34900
H  -0.47300 42.08100 19.40700
H  0.74200 45.30700 19.30800
H  2.26000 45.23200 20.01000
H  0.63600 46.39700 22.08200
H  0.39300 47.11700 20.48400
H  1.99500 47.05200 21.03500
H  6.32600 44.17700 24.66700
H  5.41000 44.61100 23.19100
H  5.75300 42.88600 23.56900
H  3.39900 43.86500 28.99500
H  4.56400 40.34700 31.50800
H  3.84100 41.56900 32.46200
H  5.64400 41.51400 32.01100

