158

Mg 10.19100 47.51400 25.83000
C  8.30600 47.33600 28.63900
C  12.75500 48.96800 27.53700
C  11.94900 47.58700 22.93100
C  7.29400 46.69400 23.88900
N  10.61600 47.76200 27.93900
C  9.62400 47.68300 28.90800
C  10.20300 48.23400 30.24900
C  11.42300 49.10300 29.71500
C  11.62100 48.65800 28.30500
C  11.31600 50.66300 29.68100
C  10.64800 47.14800 31.26800
C  9.96900 47.44100 32.63900
H  9.78600 46.21200 33.55700
N  12.10500 48.16700 25.26500
C  13.03800 48.66700 26.12700
C  14.27300 48.89100 25.48300
C  14.05200 48.46700 24.09900
C  12.66400 48.04600 24.01900
C  15.60800 49.22100 26.22800
C  14.99400 48.34900 22.96200
O  14.67800 48.01000 21.84500
C  16.41500 48.74800 23.18200
N  9.70800 47.29500 23.80000
C  10.65000 47.23100 22.84500
C  10.09000 46.73900 21.53300
C  8.68500 46.32800 21.88100
C  8.52200 46.81200 23.29100
C  10.09800 47.71200 20.37700
C  8.37800 44.76300 21.68200
C  8.77400 43.76100 22.80200
N  8.15800 47.02500 26.14900
C  7.11200 46.86400 25.25400
C  5.89000 46.94000 26.05200
C  6.34600 47.00300 27.37400
C  7.69800 47.07400 27.36100
C  4.52600 46.69000 25.47300
C  5.86600 46.88700 28.71400
O  4.77200 46.62500 29.11000
C  7.14800 47.09500 29.63600
C  7.18700 45.82400 30.48300
O  7.70600 44.75300 30.23600
O  6.42400 46.02200 31.64100
C  6.14200 44.84700 32.54100
H  13.52400 49.53500 28.06400
H  12.55400 47.35600 22.05200
H  6.48300 46.42600 23.20900
H  9.43700 48.93200 30.58700
H  12.33800 48.75000 30.19200
H  10.44000 51.04900 30.20300
H  11.31200 51.04500 28.66000
H  12.19900 51.10200 30.14500
H  11.72200 47.32800 31.29200
H  10.47100 46.14600 30.87700
H  8.94300 47.78800 32.51300
H  10.54100 48.18800 33.19000
H  15.49500 49.11400 27.30700
H  16.20600 50.09400 25.96600
H  16.32100 48.40400 26.11200
H  16.95700 48.04300 23.81200
H  16.42400 49.69800 23.71800
H  16.92800 48.82200 22.22300
H  10.71400 45.86800 21.33300
H  7.94200 46.88100 21.30500
H  10.41700 48.74300 20.52700
H  9.24500 47.52200 19.72600
H  10.85700 47.34900 19.68500
H  9.02400 44.35800 20.90300
H  7.35900 44.73600 21.29400
H  8.73600 44.17800 23.80800
H  9.78000 43.38600 22.61300
H  8.24400 42.80800 22.78600
H  4.49900 47.44700 24.69000
H  3.69700 46.72700 26.17900
H  4.55900 45.68600 25.05200
H  6.90000 47.89600 30.33200
H  7.03600 44.72400 33.15200
H  5.94900 43.94200 31.96500
H  5.22500 45.04900 33.09600
Mg 1.38400 41.93300 24.93100
C  2.32900 42.18800 28.37400
C  -1.54000 40.55900 25.97000
C  0.55600 41.41000 21.73800
C  4.60500 42.77200 23.97900
N  0.45900 41.55600 26.95300
C  1.03800 41.66500 28.19800
C  0.04800 41.35400 29.30000
C  -1.17300 40.77400 28.55800
C  -0.77200 40.94500 27.07200
C  -1.49400 39.33200 28.88500
C  -0.25500 42.63100 30.09400
C  -0.47400 42.45000 31.62200
H  -1.53600 41.49500 32.21700
N  -0.26200 41.21100 24.00300
C  -1.32600 40.66300 24.62300
C  -2.32000 40.21300 23.66100
C  -1.81100 40.49600 22.34000
C  -0.45700 41.05800 22.63500
C  -3.79800 39.83600 24.01000
C  -2.46200 40.35400 20.93500
O  -1.95800 40.74900 19.90200
C  -3.73900 39.67200 20.82800
N  2.39100 42.12800 23.10900
C  1.85200 41.79500 21.90500
C  2.95900 41.89200 20.77900
C  4.13700 42.62100 21.53600
C  3.70000 42.50900 22.94900
C  3.30000 40.52500 20.13500
C  4.29400 44.12800 21.08800
C  3.21200 45.10900 21.58800
N  3.15500 42.35800 25.92000
C  4.36200 42.73700 25.39400
C  5.28900 42.90000 26.46600
C  4.52000 42.69000 27.61600
C  3.20600 42.45200 27.26500
C  6.75000 43.17100 26.36900
C  4.68900 42.62800 29.06300
O  5.70900 42.75500 29.78100
C  3.28400 42.27200 29.59200
C  3.43000 41.06200 30.46200
O  3.80200 39.96700 30.07000
O  3.00500 41.33400 31.73000
C  3.04400 40.14000 32.68600
H  -2.53800 40.22700 26.26300
H  0.40100 41.10600 20.70100
H  5.63700 42.98700 23.69300
H  0.52200 40.64400 29.97800
H  -2.07800 41.36500 28.69800
H  -2.48100 39.39600 29.34200
H  -0.80700 38.89100 29.60700
H  -1.62100 38.69600 28.00900
H  -1.16000 43.21500 29.92300
H  0.52000 43.37500 29.91300
H  -0.63500 43.39700 32.13600
H  0.45800 42.05500 32.02700
H  -3.91500 38.86700 24.49400
H  -4.53900 40.00100 23.22700
H  -4.08500 40.61300 24.71800
H  -3.77800 38.86700 21.56200
H  -3.85300 39.06800 19.92700
H  -4.52800 40.42300 20.85900
H  2.56100 42.44800 19.93000
H  5.09200 42.09900 21.47800
H  2.46400 40.23300 19.50000
H  3.41800 39.76700 20.91000
H  4.23000 40.71500 19.59900
H  4.32900 44.29300 20.01100
H  5.28000 44.39400 21.46900
H  3.64200 45.68000 22.41100
H  2.24500 44.69000 21.86400
H  3.10700 45.81300 20.76200
H  6.97200 44.13700 25.91600
H  7.27500 42.45600 25.73600
H  7.30700 43.01100 27.29200
H  2.90900 43.09100 30.20600
H  4.06600 40.22000 33.05800
H  2.82200 39.14500 32.30200
H  2.35000 40.31600 33.50800

