158

Mg 48.51500 16.53700 28.87600
C  46.28300 16.27800 31.74800
C  50.81200 18.12300 30.89100
C  50.24900 17.01400 26.10300
C  45.71500 15.53400 26.95800
N  48.42200 17.23700 31.01600
C  47.52900 16.89500 32.04600
C  48.08800 17.36400 33.44800
C  49.34300 18.25700 32.96300
C  49.58700 17.77100 31.54500
C  49.22400 19.73600 33.22700
C  48.31500 16.19200 34.47400
C  47.48700 16.45800 35.84200
H  47.41400 17.92500 36.34200
N  50.31400 17.33500 28.54500
C  51.13600 17.84800 29.48600
C  52.38300 18.24000 28.77500
C  52.24800 17.91800 27.40200
C  50.86600 17.40000 27.30400
C  53.54800 19.00800 29.47000
C  53.27900 18.04200 26.23800
O  53.19300 17.59500 25.10400
C  54.60600 18.63900 26.63900
N  48.02800 16.33500 26.87600
C  49.02200 16.41300 25.94400
C  48.42400 16.10700 24.53100
C  47.00100 15.53900 24.87200
C  46.92300 15.75500 26.34100
C  48.37900 17.44000 23.74200
C  46.81000 14.11600 24.42600
C  46.20500 13.80600 23.05800
N  46.47200 15.84000 29.24000
C  45.45300 15.53300 28.29900
C  44.25600 15.16400 29.03300
C  44.52800 15.42700 30.39700
C  45.85600 15.97400 30.42500
C  43.01100 14.70200 28.54300
C  43.98500 15.38900 31.70100
O  42.89500 14.89600 32.09800
C  45.13800 15.89700 32.63300
C  44.59300 17.07900 33.40800
O  44.32900 18.22000 32.98700
O  44.14400 16.52100 34.59500
C  43.42100 17.38300 35.50000
H  51.54600 18.58800 31.55300
H  50.94700 17.10200 25.26800
H  44.93500 15.31500 26.22600
H  47.36500 18.11700 33.76500
H  50.15700 17.98200 33.63300
H  50.18000 20.13600 33.56700
H  48.49900 19.97900 34.00300
H  48.85800 20.34200 32.39800
H  49.38900 16.06000 34.60300
H  47.94000 15.30800 33.95900
H  48.02700 15.83900 36.55800
H  46.49000 16.10800 35.57300
H  53.74100 19.96700 28.98900
H  54.39800 18.32500 29.47000
H  53.23900 19.14900 30.50600
H  54.79100 19.70700 26.75500
H  55.30900 18.42900 25.83200
H  55.09900 18.17900 27.49500
H  49.10600 15.41900 24.03300
H  46.28500 16.14200 24.31400
H  48.55800 17.10600 22.72000
H  49.10900 18.22900 23.91800
H  47.43400 17.98300 23.76000
H  46.08700 13.67100 25.11000
H  47.79400 13.65000 24.46600
H  46.96800 13.55600 22.32100
H  45.70200 14.73000 22.77600
H  45.51100 12.97300 23.17000
H  42.44200 15.42800 27.96100
H  42.38700 14.52700 29.41900
H  43.13600 13.76400 28.00200
H  45.34500 15.11400 33.36200
H  42.44800 17.68900 35.11500
H  44.01300 18.28600 35.65000
H  43.28500 16.85300 36.44200
Mg -12.38900 37.92400 41.27900
C  -10.54500 35.04000 40.27800
C  -9.81800 39.80000 39.91700
C  -14.32600 40.59300 41.47100
C  -14.87200 35.91900 42.26600
N  -10.35000 37.41300 40.32600
C  -9.84700 36.24100 39.97700
C  -8.41900 36.37000 39.45600
C  -8.18400 37.91900 39.44700
C  -9.55000 38.45000 39.89500
C  -7.01700 38.45500 40.33000
C  -8.30200 35.74500 38.07900
C  -6.99100 35.00900 37.80900
H  -6.11500 35.65700 36.78000
N  -12.14100 39.89500 40.75500
C  -11.01100 40.49800 40.28300
C  -11.24800 41.92400 40.13800
C  -12.57000 42.17600 40.53600
C  -13.11900 40.86600 40.88400
C  -10.17900 42.93100 39.63100
C  -13.19500 43.54200 40.45500
O  -12.61000 44.61500 40.36800
C  -14.73200 43.57900 40.36800
N  -14.36500 38.15300 41.56500
C  -14.92400 39.37800 41.76000
C  -16.37000 39.32700 42.16700
C  -16.59300 37.84500 42.37500
C  -15.19700 37.21300 42.02000
C  -16.72300 40.16100 43.39200
C  -17.64800 37.11800 41.54000
C  -18.56100 36.10000 42.28700
N  -12.71200 35.90700 41.25800
C  -13.67800 35.27000 41.94000
C  -13.37300 33.84100 41.97600
C  -12.20100 33.65700 41.20900
C  -11.78000 34.97700 40.86700
C  -14.15400 32.76000 42.73800
C  -11.26200 32.68100 40.70400
O  -11.28900 31.45100 40.68400
C  -10.11700 33.53900 40.01900
C  -8.81700 33.15600 40.65100
O  -8.07300 32.40600 40.08300
O  -8.61500 33.75800 41.88300
C  -7.42700 33.22800 42.64200
H  -9.01300 40.42100 39.52000
H  -14.91600 41.49300 41.65700
H  -15.59800 35.20200 42.65300
H  -7.70300 35.86900 40.10800
H  -7.93800 38.26200 38.44200
H  -6.17900 38.88800 39.78300
H  -6.54300 37.67600 40.92700
H  -7.41000 39.25800 40.95300
H  -8.53000 36.41800 37.25200
H  -9.09700 35.02700 37.88100
H  -7.20400 33.98800 37.49400
H  -6.33900 34.93500 38.68000
H  -10.13600 43.67500 40.42600
H  -10.75700 43.34900 38.80600
H  -9.24600 42.43000 39.37400
H  -15.27300 43.64800 41.31100
H  -15.03000 42.67200 39.84200
H  -14.92400 44.42000 39.70000
H  -17.01300 39.68500 41.36300
H  -16.74900 37.67000 43.44000
H  -17.32400 39.62500 44.12600
H  -17.36100 40.95800 43.01000
H  -15.83700 40.51000 43.92200
H  -17.24300 36.49000 40.74700
H  -18.24800 37.92700 41.12500
H  -19.54700 36.56500 42.28500
H  -18.28400 35.83200 43.30700
H  -18.60500 35.25300 41.60300
H  -14.03800 31.82400 42.19100
H  -15.21400 32.92800 42.92800
H  -13.64900 32.48700 43.66400
H  -9.92000 33.24800 38.98800
H  -7.18400 33.88500 43.47600
H  -6.54500 33.21400 42.00100
H  -7.72500 32.23900 42.99100

