158

Mg 36.27100 2.51400 30.12500
C  33.86900 3.46000 32.68400
C  38.68000 2.77100 32.40100
C  38.46400 1.92900 27.62200
C  33.54500 2.87200 27.88000
N  36.15000 2.92000 32.35500
C  35.16700 3.20200 33.18900
C  35.54100 3.06300 34.58600
C  37.08700 3.14200 34.50600
C  37.35300 2.94500 32.96200
C  37.82400 4.37600 35.10100
C  34.90200 1.78900 35.22200
C  34.57600 1.84200 36.68700
H  35.05100 3.00400 37.52100
N  38.24500 2.21800 30.08600
C  39.09700 2.36900 31.12500
C  40.38100 1.93400 30.78600
C  40.35600 1.66200 29.34300
C  38.96300 1.97400 28.93100
C  41.50500 1.70000 31.73200
C  41.52000 1.24500 28.37400
O  41.26800 0.84400 27.23800
C  42.88200 1.19700 28.89100
N  35.99600 2.19700 27.99900
C  37.04700 1.95500 27.17100
C  36.54400 1.70100 25.83500
C  34.93800 2.07500 25.86800
C  34.80100 2.40500 27.32100
C  37.40600 2.36800 24.82000
C  33.93300 0.99800 25.54300
C  32.74900 1.46700 24.71300
N  34.18000 3.14900 30.16000
C  33.26400 3.22600 29.17200
C  31.97000 3.77200 29.66900
C  32.19000 3.85400 31.05300
C  33.49500 3.45200 31.30200
C  30.66900 3.87800 28.94400
C  31.56300 4.06100 32.41300
O  30.42200 4.39800 32.64000
C  32.67200 3.78200 33.45400
C  32.75000 4.90000 34.39000
O  33.17300 5.99100 34.04200
O  32.29600 4.56100 35.63400
C  31.81600 5.65000 36.44300
H  39.48800 2.92500 33.12000
H  39.20900 1.94900 26.82400
H  32.67700 2.99900 27.23100
H  35.22200 3.96700 35.10500
H  37.49900 2.28500 35.03800
H  37.15300 5.23500 35.13700
H  38.74100 4.64300 34.57500
H  38.16000 4.17900 36.11900
H  35.68000 1.03300 35.11600
H  34.04300 1.43200 34.65400
H  34.98100 0.93200 37.12900
H  33.53600 1.61300 36.91900
H  42.39000 2.28800 31.49200
H  41.72300 0.63400 31.80000
H  41.29700 2.00500 32.75800
H  42.94900 0.77300 29.89300
H  43.29000 2.19600 29.04500
H  43.47200 0.68200 28.13200
H  36.68100 0.62500 25.73300
H  34.82100 2.94900 25.22700
H  36.94200 3.11000 24.17100
H  37.87000 1.55400 24.26300
H  38.15400 3.01000 25.28500
H  33.58600 0.54200 26.47100
H  34.41900 0.22900 24.94300
H  32.95800 2.29400 24.03500
H  31.89200 1.71400 25.34000
H  32.56200 0.64300 24.02500
H  29.99500 4.45300 29.58000
H  30.31900 2.88000 28.68100
H  30.91200 4.55300 28.12400
H  32.38100 2.87900 33.99200
H  32.67700 5.98000 37.02400
H  30.96500 5.29700 37.02500
H  31.51500 6.54800 35.90300
Mg -1.32800 34.91500 27.53900
C  -3.35500 33.18600 29.83600
C  -0.50300 37.13400 30.14600
C  0.31600 36.75400 25.21600
C  -2.67400 32.94000 24.95800
N  -1.83900 35.03700 29.77100
C  -2.58100 34.20000 30.43700
C  -2.47800 34.46500 31.91500
C  -1.95200 35.94200 31.90700
C  -1.23600 36.01900 30.60000
C  -3.02200 37.08200 32.04400
C  -1.64400 33.32400 32.60900
C  -2.47700 32.67500 33.70600
H  -1.82700 32.25100 35.02700
N  -0.34700 36.76500 27.64500
C  -0.11800 37.50800 28.78500
C  0.72000 38.63700 28.46100
C  1.05900 38.56100 27.04700
C  0.34800 37.31000 26.57000
C  1.12100 39.72900 29.41100
C  1.85100 39.42000 26.12200
O  2.12400 39.16800 24.91100
C  2.47600 40.56000 26.66700
N  -1.05300 34.74100 25.49200
C  -0.31000 35.60600 24.67000
C  -0.19800 35.18100 23.22800
C  -1.03000 33.82600 23.18900
C  -1.66700 33.84700 24.64900
C  -0.61100 36.23300 22.12000
C  -0.30200 32.50900 22.98700
C  -1.01400 31.35900 22.18800
N  -2.64800 33.34700 27.36400
C  -3.11900 32.69100 26.27200
C  -4.05100 31.59100 26.66000
C  -4.15800 31.77000 28.06100
C  -3.32100 32.84100 28.45000
C  -4.76100 30.55100 25.77300
C  -4.78200 31.25100 29.24700
O  -5.60400 30.30700 29.32500
C  -4.28300 32.12500 30.48200
C  -5.56900 32.74100 31.04400
O  -6.11800 33.77900 30.76000
O  -5.83700 32.03800 32.21800
C  -6.57400 32.59100 33.33200
H  -0.36300 37.87800 30.93400
H  0.83300 37.25200 24.39300
H  -3.07800 32.30400 24.16900
H  -3.53000 34.55400 32.18600
H  -1.15100 36.02700 32.64100
H  -3.91300 36.49300 32.26100
H  -3.00300 37.82300 31.24500
H  -2.74200 37.65400 32.92900
H  -0.78000 33.78600 33.08700
H  -1.27500 32.54700 31.94000
H  -2.67900 31.68500 33.29800
H  -3.42800 33.11300 34.00700
H  0.44300 39.81200 30.26000
H  1.24300 40.72200 28.97800
H  2.15400 39.48600 29.66000
H  3.22700 41.01300 26.02000
H  3.12900 40.18600 27.45600
H  1.71200 41.30400 26.89300
H  0.85700 34.99900 23.02300
H  -1.82300 33.91500 22.44600
H  -1.38400 35.85300 21.45100
H  0.26800 36.35600 21.48800
H  -1.05400 37.13700 22.53800
H  -0.06400 32.02400 23.93400
H  0.58800 32.63500 22.37000
H  -2.00500 31.72600 21.92000
H  -1.03100 30.40200 22.70900
H  -0.56200 31.23800 21.20300
H  -4.67000 29.71700 26.46900
H  -4.23600 30.40400 24.83000
H  -5.82700 30.75500 25.66400
H  -3.83400 31.39000 31.14900
H  -5.89600 32.81500 34.15500
H  -7.28700 31.88800 33.76200
H  -7.07800 33.50300 33.01200

