158

Mg 53.56500 24.85800 44.33200
C  51.15400 27.26300 43.40900
C  51.37900 22.53100 43.02900
C  56.12800 22.73900 44.03400
C  55.78400 27.47600 45.11300
N  51.60400 24.93700 43.12400
C  50.74100 25.99000 43.03800
C  49.39300 25.61000 42.43300
C  49.31300 24.04000 42.61700
C  50.83800 23.80500 42.86400
C  48.32700 23.49400 43.65600
C  49.35400 26.08600 40.98900
C  47.91100 26.09300 40.48600
H  47.77200 25.17000 39.25500
N  53.71400 22.84600 43.80000
C  52.70600 22.05900 43.29600
C  53.21200 20.73200 43.02300
C  54.60800 20.65200 43.41300
C  54.87600 22.12000 43.75600
C  52.32800 19.58200 42.54100
C  55.50500 19.50000 43.31300
O  55.16900 18.44800 42.84400
C  56.87300 19.58600 43.93300
N  55.65700 25.17200 44.37500
C  56.48700 24.11300 44.30700
C  57.94300 24.47500 44.63100
C  57.89300 25.99000 44.76700
C  56.40100 26.25200 44.90400
C  58.47200 23.66100 45.84900
C  58.56900 26.75700 43.56200
C  60.04400 27.27600 43.65300
N  53.49100 26.91800 44.46900
C  54.40700 27.80900 44.89100
C  53.74600 29.10900 45.10200
C  52.50500 28.95900 44.47900
C  52.33600 27.60400 44.09100
C  54.30100 30.32000 45.74900
C  51.27900 29.68000 44.15000
O  50.92500 30.82200 44.41300
C  50.41600 28.65400 43.38700
C  50.22700 29.27400 42.03100
O  51.14200 29.60400 41.27400
O  48.91300 29.43000 41.76300
C  48.49600 29.84800 40.46800
H  50.68700 21.82400 42.56600
H  57.01300 22.10000 43.99700
H  56.36900 28.27400 45.57500
H  48.59800 26.08700 43.00600
H  48.98300 23.55900 41.69600
H  47.50200 22.88000 43.29500
H  47.99200 24.39500 44.17000
H  48.96400 23.01800 44.40100
H  49.88400 25.30400 40.44500
H  49.84200 27.02200 40.71900
H  47.57300 27.07000 40.13900
H  47.16200 25.79800 41.22000
H  52.34200 19.42300 41.46200
H  51.29800 19.77600 42.84100
H  52.64300 18.62100 42.94700
H  57.62000 19.95700 43.23100
H  57.13900 18.53600 44.05900
H  56.76500 20.07000 44.90300
H  58.60400 24.20800 43.80700
H  58.33500 26.39900 45.67500
H  58.96000 22.74200 45.52300
H  57.68900 23.34700 46.53900
H  59.19700 24.28500 46.37200
H  57.87400 27.54100 43.26300
H  58.55300 26.03600 42.74400
H  60.30900 27.29600 44.71000
H  60.02300 28.23900 43.14300
H  60.67700 26.71000 42.97100
H  54.24000 31.11600 45.00700
H  55.26500 30.10800 46.21200
H  53.53400 30.48000 46.50600
H  49.47400 28.51300 43.91800
H  49.17400 29.49200 39.69200
H  48.47800 30.93700 40.45900
H  47.50900 29.61200 40.07000
Mg 30.18000 57.69300 40.51600
C  27.60800 55.77100 38.95000
C  32.48900 55.48600 39.23100
C  32.51900 60.07000 40.98800
C  27.66500 60.16900 41.06400
N  30.01700 55.95500 39.17800
C  28.89900 55.21800 38.95400
C  29.29400 53.87700 38.37900
C  30.81600 53.79200 38.67000
C  31.12300 55.20900 39.05200
C  31.20200 52.74200 39.80400
C  28.94900 53.64900 36.89000
C  29.28300 54.83900 35.94300
H  28.30800 55.34700 34.89000
N  32.29200 57.77700 40.21400
C  32.99700 56.72900 39.68100
C  34.37300 57.12700 39.91400
C  34.42700 58.44000 40.44200
C  33.09700 58.81400 40.62100
C  35.48300 56.26500 39.49400
C  35.75600 59.20700 40.80900
O  36.83600 58.89400 40.43400
C  35.63300 60.30300 41.74600
N  30.09800 59.91600 40.89900
C  31.25800 60.58500 41.22000
C  30.96500 62.01200 41.69100
C  29.42800 61.95400 41.83200
C  28.99600 60.57900 41.25800
C  31.64300 62.49100 43.00700
C  28.57500 63.23300 41.37000
C  27.82700 63.89200 42.54000
N  28.04200 57.95100 40.09700
C  27.22300 59.06600 40.36300
C  25.87800 58.81500 39.91000
C  26.01400 57.50500 39.37600
C  27.29600 57.05100 39.52000
C  24.61000 59.74900 40.01300
C  25.27400 56.36800 38.80300
O  24.11000 56.22300 38.52800
C  26.29800 55.23100 38.44600
C  25.89000 53.95400 39.11200
O  25.97200 53.71400 40.32600
O  25.22100 53.14600 38.26500
C  24.45900 51.98000 38.80100
H  33.14700 54.61600 39.17000
H  33.24100 60.85700 41.21500
H  26.86800 60.86300 41.33800
H  28.70000 53.19400 38.98500
H  31.46200 53.56400 37.82300
H  30.36100 52.06300 39.94100
H  31.46100 53.23200 40.74200
H  32.13800 52.26100 39.52000
H  27.86600 53.52400 36.92000
H  29.43700 52.78600 36.43600
H  30.30100 54.67300 35.59000
H  29.36200 55.75400 36.52900
H  35.80600 56.60300 38.51000
H  35.14300 55.24900 39.29200
H  36.32700 56.18600 40.17900
H  35.40200 61.22300 41.21000
H  36.63000 60.43600 42.16700
H  34.85300 60.11300 42.48300
H  31.19700 62.68100 40.86300
H  29.17400 61.88900 42.89000
H  30.96100 62.93900 43.72900
H  32.36400 63.19900 42.59900
H  32.24800 61.68700 43.42600
H  27.89000 63.03400 40.54600
H  29.09100 64.09500 40.94700
H  27.05800 63.21800 42.91700
H  27.39900 64.85500 42.26200
H  28.43900 64.16400 43.40000
H  24.23100 59.66400 41.03100
H  23.75300 59.58500 39.35900
H  24.89800 60.77300 39.77300
H  26.27000 55.19300 37.35700
H  25.03800 51.53900 39.61200
H  24.42700 51.28400 37.96200
H  23.44900 52.22200 39.13100

