158

Mg -1.44500 17.64800 27.59600
C  -2.14700 15.30300 30.12300
C  -2.32600 20.11700 29.65300
C  -0.99700 19.80300 25.03400
C  -0.98000 15.01800 25.22800
N  -2.10800 17.60600 29.66900
C  -2.13000 16.60600 30.57800
C  -2.22100 17.16200 32.05800
C  -2.42700 18.71800 31.83600
C  -2.34300 18.84700 30.28300
C  -3.73800 19.35600 32.47300
C  -1.10700 16.57700 33.02900
C  -0.55300 17.44400 34.17900
H  0.16800 16.75700 35.30600
N  -1.56200 19.68400 27.42700
C  -1.95000 20.58200 28.37200
C  -1.76100 22.00300 27.91300
C  -1.35300 21.89500 26.55200
C  -1.25800 20.44000 26.28100
C  -1.88800 23.22300 28.84600
C  -1.01200 23.05300 25.66000
O  -0.54700 22.92700 24.55300
C  -1.33800 24.41200 26.07700
N  -0.87400 17.42800 25.41600
C  -0.82700 18.47700 24.61600
C  -0.70700 18.05700 23.11800
C  -0.57100 16.50100 23.24400
C  -0.79700 16.25100 24.76700
C  -1.98100 18.56000 22.40600
C  0.86800 15.93000 22.80800
C  2.08400 16.39200 23.68400
N  -1.62500 15.62600 27.61000
C  -1.38700 14.72100 26.58700
C  -1.55500 13.40000 27.15900
C  -1.85500 13.54600 28.54100
C  -1.88100 14.95000 28.78400
C  -1.32600 12.17600 26.37800
C  -2.14100 12.82500 29.73800
O  -2.22100 11.61300 29.96100
C  -2.26500 13.97800 30.87500
C  -1.11600 13.68000 31.78800
O  0.04600 14.01200 31.71500
O  -1.60400 12.83900 32.81200
C  -0.67700 12.46200 33.84400
H  -2.50900 20.91000 30.38200
H  -0.83800 20.44600 24.16600
H  -0.87900 14.14800 24.57500
H  -3.16700 16.85200 32.50100
H  -1.49300 19.11700 32.23100
H  -3.43700 20.21500 33.07300
H  -4.22600 18.62400 33.11600
H  -4.40500 19.72500 31.69400
H  -0.19900 16.41200 32.44900
H  -1.54000 15.66700 33.44500
H  -1.23900 18.18700 34.58600
H  0.33000 17.87700 33.71000
H  -0.95700 23.77300 28.71200
H  -1.97000 22.88900 29.88100
H  -2.69100 23.89300 28.53800
H  -2.33100 24.52600 26.51200
H  -1.19700 25.21200 25.35000
H  -0.61400 24.72300 26.82900
H  0.18000 18.54200 22.71100
H  -1.33100 15.98700 22.65700
H  -1.79900 19.20700 21.54800
H  -2.69700 19.06300 23.05700
H  -2.48600 17.77800 21.83800
H  1.04500 16.37900 21.83100
H  0.80700 14.86600 22.57800
H  1.75600 17.07800 24.46400
H  2.75000 17.02700 23.10000
H  2.62500 15.60500 24.20800
H  -2.05700 11.94300 25.60400
H  -1.18900 11.26900 26.96700
H  -0.37700 12.24200 25.84600
H  -3.24000 13.91800 31.35800
H  -0.37500 13.32900 34.43200
H  0.29200 12.12400 33.47700
H  -1.03500 11.60300 34.41100
Mg 17.78700 -1.88800 27.91000
C  16.65900 0.11400 30.59100
C  19.90400 -3.51600 29.88800
C  19.19800 -3.17000 25.07100
C  16.18500 0.60500 25.72600
N  18.20200 -1.67200 29.94000
C  17.65600 -0.87800 30.92300
C  18.20400 -1.23600 32.31800
C  19.39900 -2.15800 31.98600
C  19.12400 -2.53800 30.49900
C  20.85700 -1.62200 32.31400
C  17.11800 -2.03000 33.20100
C  17.24200 -1.71700 34.73300
H  18.46200 -0.94800 35.37800
N  19.18500 -3.32600 27.61600
C  19.93900 -3.94300 28.54200
C  20.74700 -4.99600 27.97700
C  20.45200 -4.95800 26.59600
C  19.57900 -3.80000 26.35600
C  21.49800 -5.98100 28.77800
C  21.01500 -5.91300 25.55300
O  20.64000 -5.95800 24.35900
C  22.07100 -6.93300 25.82700
N  17.75600 -1.34100 25.76900
C  18.42000 -2.03600 24.81600
C  18.25300 -1.42400 23.44000
C  17.17700 -0.40500 23.67100
C  16.97500 -0.35500 25.12900
C  19.57600 -0.95000 22.75100
C  15.80200 -0.59600 23.03300
C  15.82300 -0.38000 21.52500
N  16.53300 -0.09900 28.05900
C  15.93700 0.70600 27.11300
C  15.11000 1.73000 27.78700
C  15.35900 1.55400 29.12500
C  16.25300 0.43500 29.27800
C  14.18600 2.79100 27.09900
C  15.14900 2.06100 30.43500
O  14.48500 3.00700 30.79000
C  15.88600 1.11900 31.43100
C  16.84900 1.95100 32.23300
O  17.98700 2.34200 31.96700
O  16.13400 2.28100 33.38700
C  16.83800 3.15300 34.34600
H  20.70600 -3.95100 30.48800
H  19.68200 -3.62000 24.20100
H  15.63600 1.38800 25.19900
H  18.63000 -0.33500 32.75900
H  19.30100 -3.03900 32.62100
H  20.97400 -0.62900 32.74800
H  21.50400 -1.67400 31.43800
H  21.31700 -2.22700 33.09500
H  17.30500 -3.08300 32.99200
H  16.16000 -1.78900 32.74000
H  17.02000 -2.62100 35.30100
H  16.34200 -1.12900 34.91500
H  21.41700 -7.02800 28.48500
H  21.21800 -6.12300 29.82100
H  22.52900 -5.62800 28.79800
H  22.58000 -7.25600 24.91900
H  21.62400 -7.88600 26.11100
H  22.67300 -6.52000 26.63600
H  17.92800 -2.29600 22.87200
H  17.53000 0.55100 23.28500
H  19.63400 0.13700 22.81800
H  19.64500 -1.20500 21.69400
H  20.46700 -1.27700 23.28700
H  15.05700 0.13000 23.35800
H  15.42600 -1.58100 23.30700
H  16.81000 -0.01500 21.24100
H  15.06200 0.34200 21.23000
H  15.69800 -1.32700 20.99900
H  14.26500 2.88100 26.01500
H  14.56000 3.71900 27.52900
H  13.12900 2.78100 27.36700
H  15.16200 0.59900 32.05800
H  16.62000 3.02800 35.40700
H  16.55100 4.19100 34.18100
H  17.91200 3.17800 34.16300

