158

Mg 26.64500 50.09700 26.91600
C  24.43100 51.38100 29.17700
C  28.85200 49.30800 29.33200
C  28.58500 48.88300 24.48700
C  24.48100 51.45000 24.39500
N  26.60900 50.33000 29.04600
C  25.51500 50.72700 29.80200
C  25.82600 50.49900 31.30700
C  27.36000 50.06100 31.31000
C  27.68000 50.03600 29.81000
C  28.32600 50.83100 32.22000
C  24.76100 49.51700 31.97200
C  24.24500 49.89300 33.34800
H  24.12000 48.80200 34.38200
N  28.46600 49.10100 26.93500
C  29.27000 48.89300 28.06300
C  30.44900 48.19000 27.65200
C  30.24600 47.92100 26.22500
C  29.07500 48.65700 25.80900
C  31.63100 47.92700 28.66300
C  31.17900 47.10100 25.30800
O  31.02200 47.03100 24.12400
C  32.34500 46.30400 26.02400
N  26.58200 50.26900 24.69700
C  27.53000 49.60200 23.96100
C  27.23900 49.70800 22.40500
C  25.76100 50.36000 22.45800
C  25.54200 50.69500 23.92700
C  28.32800 50.46300 21.55900
C  24.69600 49.46600 21.77900
C  23.69400 48.65900 22.61600
N  24.84100 51.38200 26.76100
C  24.09300 51.85700 25.69400
C  22.83100 52.49500 26.15400
C  22.97200 52.37400 27.55700
C  24.10800 51.64000 27.80400
C  21.75200 53.14600 25.36300
C  22.31800 52.66000 28.83600
O  21.25100 53.29300 29.00000
C  23.31400 52.11100 29.97100
C  23.83000 53.32800 30.69500
O  24.89900 53.86200 30.59400
O  22.94800 53.63200 31.68500
C  23.42100 54.68100 32.66800
H  29.49900 48.87000 30.09600
H  29.10500 48.39600 23.65900
H  23.81000 51.81900 23.61700
H  25.72900 51.46300 31.80500
H  27.36700 49.06900 31.76300
H  29.17100 51.19200 31.63400
H  28.60400 50.22900 33.08400
H  27.97800 51.69800 32.78100
H  25.16500 48.50700 31.90200
H  23.90000 49.61600 31.31200
H  23.27300 50.36800 33.22100
H  24.87900 50.69800 33.71800
H  32.44000 47.23800 28.42100
H  31.20500 47.66400 29.63100
H  32.07700 48.89500 28.88800
H  31.92300 45.73500 26.85300
H  33.02200 47.05400 26.43400
H  32.79100 45.57300 25.35100
H  27.27700 48.69800 21.99600
H  25.81300 51.30100 21.91000
H  29.05200 50.78600 22.30800
H  27.92800 51.33600 21.04300
H  28.93300 49.84900 20.89200
H  25.10000 48.85200 20.97400
H  24.06000 50.22100 21.31700
H  22.81900 49.30000 22.51300
H  24.01200 48.60300 23.65700
H  23.57100 47.66500 22.18700
H  21.20300 52.31200 24.92600
H  22.30200 53.76600 24.65500
H  21.15500 53.72800 26.06500
H  22.66000 51.52000 30.61200
H  23.93800 55.46700 32.11700
H  24.27400 54.39300 33.28300
H  22.64500 55.00100 33.36300
Mg -2.82900 34.81500 28.04100
C  -4.54700 32.80200 30.08900
C  -1.75700 36.55400 30.65400
C  -1.28600 36.86300 25.79700
C  -4.26100 33.19600 25.22600
N  -3.19200 34.70000 30.11500
C  -3.85400 33.73400 30.79500
C  -3.80100 33.84300 32.34100
C  -3.11700 35.24400 32.47800
C  -2.66000 35.56200 30.99700
C  -4.10500 36.32100 32.98500
C  -3.00800 32.61700 32.87000
C  -3.61000 32.12600 34.15600
H  -4.18500 33.21700 35.14800
N  -1.72800 36.48200 28.19500
C  -1.33300 37.01200 29.39900
C  -0.40600 38.17400 29.13400
C  -0.35100 38.31000 27.72700
C  -1.15200 37.22300 27.17200
C  0.18400 39.04100 30.26600
C  0.27900 39.45000 26.96200
O  0.00400 39.68100 25.79300
C  1.19300 40.39800 27.66500
N  -2.78900 34.99900 25.73100
C  -1.97100 35.85700 25.11000
C  -1.74100 35.52400 23.56600
C  -2.66400 34.24800 23.49000
C  -3.30700 34.11200 24.89200
C  -2.26600 36.52000 22.53700
C  -1.95100 32.89200 22.95700
C  -2.78800 32.08300 21.84800
N  -4.19200 33.30700 27.66800
C  -4.69900 32.76200 26.50500
C  -5.60900 31.71300 26.87800
C  -5.45200 31.54800 28.23700
C  -4.64000 32.60600 28.70500
C  -6.34500 30.67600 25.99700
C  -5.85000 30.79300 29.41600
O  -6.59100 29.81400 29.48800
C  -5.28700 31.58100 30.66800
C  -6.51200 32.00100 31.51500
O  -7.19800 33.00400 31.30000
O  -6.67800 31.03600 32.46900
C  -7.74100 31.29400 33.35800
H  -1.43100 36.95900 31.61400
H  -0.72600 37.56800 25.18000
H  -4.48400 32.44600 24.46400
H  -4.80500 33.81800 32.76500
H  -2.17300 35.05200 32.98900
H  -5.09800 35.88100 33.07700
H  -4.23400 37.17000 32.31400
H  -3.72600 36.62900 33.96000
H  -1.96100 32.83500 33.08200
H  -2.99400 31.73700 32.22800
H  -2.80400 31.58500 34.65200
H  -4.35400 31.37100 33.90400
H  1.27100 39.05900 30.18100
H  -0.11200 38.69200 31.25600
H  -0.26400 40.03300 30.31700
H  0.63200 41.09300 28.29000
H  1.72800 40.89200 26.85500
H  1.87500 39.83900 28.30600
H  -0.71700 35.20400 23.37600
H  -3.57000 34.42700 22.91100
H  -1.79500 37.49900 22.62400
H  -3.32700 36.65400 22.74700
H  -2.06000 36.06500 21.56700
H  -1.72600 32.28900 23.83700
H  -0.92800 32.95100 22.58500
H  -3.18700 31.28200 22.46900
H  -2.04800 31.62400 21.19200
H  -3.40400 32.69300 21.18700
H  -6.61100 31.13900 25.04700
H  -7.25000 30.32600 26.49300
H  -5.68900 29.82700 25.80200
H  -4.67800 30.83000 31.17400
H  -7.54100 32.26800 33.80400
H  -7.66300 30.51600 34.11700
H  -8.62600 31.19900 32.72800

