158

Mg 0.50200 8.22200 27.24000
C  1.10100 10.34900 29.97500
C  0.64900 5.57900 29.33500
C  0.50000 6.27800 24.53900
C  0.72500 11.04400 25.11500
N  0.91000 7.97500 29.41600
C  1.01900 8.99700 30.34800
C  0.74700 8.45400 31.76300
C  1.03000 6.99600 31.54200
C  0.77700 6.76600 30.00000
C  2.43700 6.49800 31.94300
C  -0.68900 8.79200 32.27100
C  -1.04700 9.19000 33.79200
H  -0.02700 8.94100 34.92300
N  0.56800 6.15700 26.98500
C  0.63500 5.19000 27.95600
C  0.65500 3.86200 27.38900
C  0.54400 4.01200 25.99600
C  0.55500 5.57300 25.77400
C  0.81500 2.57000 28.13700
C  0.43500 2.98000 24.88500
O  0.36000 3.34900 23.70800
C  0.36300 1.53000 25.18200
N  0.56300 8.64700 25.15500
C  0.52500 7.66900 24.26100
C  0.33300 8.18100 22.84200
C  -0.04500 9.70500 23.10500
C  0.41200 9.79800 24.52600
C  1.60800 8.09700 22.00600
C  -1.50300 10.03000 22.93400
C  -1.77100 11.28600 22.14000
N  0.77600 10.33000 27.48200
C  0.99500 11.30600 26.50600
C  1.27400 12.54800 27.15400
C  1.35600 12.26300 28.50700
C  1.09000 10.87000 28.61700
C  1.40500 13.86000 26.56800
C  1.57400 12.80400 29.86100
O  1.78400 13.91500 30.23600
C  1.26100 11.58200 30.83000
C  2.39200 11.48400 31.85600
O  3.42300 10.89400 31.67300
O  1.97400 12.10100 33.04300
C  2.98800 12.35500 33.98100
H  0.80400 4.82700 30.11200
H  0.38600 5.76400 23.58200
H  0.59400 11.79300 24.33200
H  1.46200 8.90200 32.45200
H  0.32700 6.39500 32.12000
H  2.94400 7.34300 32.40800
H  3.14500 6.09700 31.21800
H  2.20300 5.63800 32.57000
H  -1.30800 7.94500 31.97500
H  -0.93100 9.68600 31.69700
H  -2.03400 8.76900 33.98300
H  -1.26900 10.25500 33.84300
H  0.85700 2.69000 29.21900
H  1.68100 1.94400 27.92200
H  -0.09400 1.97800 28.03300
H  1.22100 1.09400 25.69400
H  0.32000 1.04600 24.20700
H  -0.51400 1.30200 25.78800
H  -0.53900 7.66400 22.44300
H  0.52100 10.38200 22.46500
H  1.59700 7.06400 21.65800
H  2.49700 8.14100 22.63500
H  1.70600 8.85800 21.23100
H  -2.01400 10.01500 23.89600
H  -2.10700 9.24700 22.47600
H  -0.92500 11.58900 21.52200
H  -2.04100 12.05200 22.86600
H  -2.59000 11.13900 21.43500
H  1.69900 14.55000 27.35900
H  0.44800 14.28800 26.27000
H  2.08800 13.84300 25.71800
H  0.33600 11.96400 31.26300
H  2.60100 12.79300 34.90100
H  3.73600 13.06000 33.61900
H  3.62300 11.49200 34.17700
Mg 0.39800 43.45300 25.34300
C  2.44900 43.18700 28.18600
C  -2.33700 42.77700 27.44200
C  -1.52600 42.87000 22.63800
C  3.27100 43.40000 23.25100
N  0.10400 43.19600 27.56000
C  1.11500 43.19800 28.54500
C  0.54200 43.21000 29.97900
C  -0.96600 42.99500 29.62400
C  -1.10100 42.91500 28.13300
C  -1.68000 41.75600 30.29600
C  0.91000 44.45000 30.94500
C  1.64700 44.18600 32.23200
H  1.18700 42.94200 33.04100
N  -1.69200 42.95100 25.05000
C  -2.56400 42.70400 26.03400
C  -3.87700 42.43100 25.36600
C  -3.73700 42.67200 24.01000
C  -2.28000 42.83700 23.82600
C  -5.13600 42.11400 26.08400
C  -4.77900 42.60000 22.89100
O  -4.46700 42.56000 21.72000
C  -6.27700 42.48000 23.22000
N  0.87300 43.15000 23.30700
C  -0.11100 43.06400 22.37300
C  0.43100 43.09400 20.96200
C  1.84500 43.58000 21.20100
C  2.03100 43.32400 22.66000
C  0.39600 41.67700 20.21200
C  2.02300 45.12400 20.91700
C  3.16600 45.69700 20.06800
N  2.49600 43.32300 25.59000
C  3.58300 43.34900 24.68100
C  4.84400 43.19700 25.43300
C  4.42200 43.11800 26.80300
C  2.98600 43.20900 26.83000
C  6.18300 43.14300 24.93200
C  4.92000 43.01000 28.14200
O  6.07500 42.78200 28.53900
C  3.66800 43.14400 29.10200
C  3.82600 41.91300 30.03100
O  3.65400 40.69500 29.74400
O  4.37500 42.32200 31.20200
C  4.75600 41.19700 32.06200
H  -3.21100 42.58900 28.07000
H  -2.11400 42.90700 21.71800
H  4.07600 43.45500 22.51500
H  0.83600 42.22500 30.34200
H  -1.57800 43.86500 29.86100
H  -1.97800 41.01300 29.55700
H  -2.50500 42.07200 30.93500
H  -0.93600 41.26000 30.92000
H  0.00800 45.00500 31.20400
H  1.53400 45.15900 30.40100
H  1.66300 45.01100 32.94400
H  2.69600 44.09800 31.94900
H  -4.97400 41.73900 27.09500
H  -5.55000 41.22900 25.60200
H  -5.80700 42.97100 26.12700
H  -6.40100 41.49200 23.66400
H  -6.81900 42.38100 22.27900
H  -6.53400 43.32500 23.85800
H  -0.21300 43.77800 20.40900
H  2.56200 42.88900 20.75700
H  1.39600 41.38300 19.89300
H  -0.15100 41.86800 19.28900
H  -0.07400 40.86200 20.76200
H  2.21200 45.59700 21.88100
H  1.11400 45.59300 20.54100
H  3.85300 44.85200 20.03100
H  3.68300 46.52300 20.55700
H  2.76000 46.02300 19.11100
H  6.45000 42.26800 24.34000
H  6.94900 43.36400 25.67600
H  6.21400 44.07400 24.36600
H  3.60100 44.11300 29.59600
H  5.14200 41.83000 32.86200
H  5.58300 40.65800 31.60100
H  3.95600 40.48800 32.27200

