158

Mg 42.91000 4.24800 46.45600
C  40.90800 7.15900 46.34000
C  39.81600 2.37100 46.45100
C  44.52800 1.54700 45.62700
C  45.63400 6.21300 46.18000
N  40.52000 4.72600 46.58100
C  40.03300 6.00200 46.42200
C  38.42200 5.99400 46.60300
C  38.23900 4.39100 47.01400
C  39.58800 3.75700 46.65800
C  37.89000 4.13600 48.45500
C  37.59700 6.39700 45.31000
C  37.93200 5.63000 44.08600
H  38.51100 6.36700 42.93800
N  42.29100 2.30700 46.01500
C  41.03600 1.75600 46.11600
C  41.11100 0.40000 45.61600
C  42.45400 0.18300 45.19300
C  43.14000 1.38200 45.59500
C  39.86800 -0.49500 45.33700
C  42.97100 -0.98100 44.35600
O  42.28000 -2.01800 44.19800
C  44.35500 -1.06100 43.77000
N  44.83700 3.98000 45.68000
C  45.37100 2.67300 45.77300
C  46.94000 2.61500 45.82000
C  47.17500 4.17800 46.08700
C  45.80300 4.86300 45.96800
C  47.56600 1.60000 46.87500
C  48.27300 4.87000 45.17800
C  49.14800 5.87700 45.89700
N  43.32500 6.30400 46.31100
C  44.48100 6.94900 46.26600
C  44.25400 8.33700 46.50500
C  42.86600 8.53200 46.37600
C  42.35500 7.17000 46.29200
C  45.23400 9.47800 46.62400
C  41.78600 9.47500 46.31100
O  41.80700 10.71700 46.40000
C  40.51600 8.66200 46.32200
C  39.64000 9.04200 47.46000
O  39.89000 8.88000 48.60800
O  38.42400 9.50900 46.98600
C  37.33700 9.74600 47.99600
H  38.88800 1.80200 46.37700
H  45.09900 0.64900 45.38100
H  46.50900 6.86600 46.16000
H  38.09500 6.66700 47.39500
H  37.46600 3.99300 46.35600
H  38.69600 3.74400 49.07500
H  37.03400 3.46500 48.53200
H  37.54400 5.08700 48.85800
H  37.70300 7.46700 45.12900
H  36.53500 6.23400 45.49400
H  37.08000 5.01700 43.79400
H  38.66000 4.83300 44.23600
H  39.88400 -0.75500 44.27800
H  38.95800 -0.03600 45.72300
H  40.05200 -1.46100 45.80600
H  45.11000 -1.25600 44.53000
H  44.60500 -0.10500 43.31100
H  44.43400 -1.80600 42.97800
H  47.26000 2.29500 44.82900
H  47.43000 4.36800 47.13000
H  46.79200 0.90800 47.20800
H  47.76700 2.20300 47.76100
H  48.43500 1.15700 46.38700
H  47.73200 5.40400 44.39800
H  48.87900 4.14600 44.63300
H  50.17400 5.53200 45.76900
H  49.05200 5.97100 46.97900
H  49.03800 6.91800 45.59300
H  45.78300 9.39300 45.68600
H  46.01100 9.29700 47.36700
H  44.70800 10.42800 46.71300
H  40.05300 8.84800 45.35300
H  36.74400 10.57400 47.60700
H  37.73700 10.27600 48.86000
H  36.89700 8.78200 48.24800
Mg 27.49700 50.26900 26.98500
C  25.31700 51.44000 29.40500
C  29.77600 49.61100 29.40900
C  29.65000 49.56500 24.50200
C  25.33300 51.51700 24.58500
N  27.54900 50.56200 29.24500
C  26.43100 50.82600 30.01900
C  26.73300 50.68800 31.52700
C  28.28800 50.18500 31.47800
C  28.54200 50.11600 29.95500
C  29.38200 50.89900 32.34200
C  25.78700 49.64600 32.25400
C  25.12600 50.21900 33.45000
H  24.82900 49.31100 34.66000
N  29.40800 49.51400 26.96800
C  30.20100 49.36100 28.06200
C  31.52500 48.91900 27.66900
C  31.50900 48.99600 26.19800
C  30.17900 49.34500 25.81600
C  32.62700 48.64600 28.61800
C  32.71000 48.77900 25.26600
O  32.56300 48.83500 24.06400
C  34.08600 48.42400 25.78800
N  27.50500 50.46700 24.80700
C  28.46500 50.06800 24.00400
C  28.18900 50.43600 22.58300
C  26.68800 50.92600 22.60300
C  26.46300 50.92500 24.14200
C  29.29700 51.43800 22.08600
C  25.58200 50.11000 21.84600
C  24.90300 50.99000 20.72200
N  25.69900 51.24400 26.92000
C  24.94900 51.71300 25.91600
C  23.72700 52.26800 26.42700
C  23.81300 52.17600 27.78700
C  25.01000 51.54100 28.01900
C  22.61100 52.82400 25.57300
C  23.16500 52.47300 28.98800
O  22.05300 52.87500 29.25600
C  24.10600 52.03200 30.09700
C  24.36100 53.24700 30.90300
O  25.29800 54.02500 30.74500
O  23.43500 53.36000 31.97000
C  23.73200 54.35600 32.93100
H  30.47900 49.44000 30.22700
H  30.31700 49.40400 23.65200
H  24.59800 51.74400 23.81000
H  26.63800 51.65600 32.01900
H  28.31700 49.15500 31.83400
H  29.90000 51.58600 31.67400
H  30.05700 50.19400 32.82700
H  29.08800 51.53900 33.17400
H  26.28800 48.76300 32.65100
H  24.96700 49.37500 31.59000
H  24.15800 50.66500 33.22200
H  25.69400 51.09700 33.75900
H  32.44800 49.22700 29.52300
H  33.57300 49.01700 28.22400
H  32.72800 47.57300 28.77900
H  34.07000 47.62300 26.52700
H  34.42600 49.31800 26.31100
H  34.65900 48.21400 24.88400
H  28.30300 49.52000 22.00300
H  26.74000 51.96900 22.29300
H  28.78200 52.38800 21.94700
H  29.76300 51.12500 21.15200
H  30.07200 51.43100 22.85300
H  24.84100 49.87900 22.61100
H  25.81400 49.16900 21.34700
H  25.30600 51.99800 20.82600
H  23.84500 50.86100 20.94600
H  25.03700 50.67000 19.68900
H  22.89900 52.61400 24.54300
H  22.68100 53.91100 25.61200
H  21.60000 52.61600 25.92200
H  23.50700 51.34600 30.69500
H  23.81800 55.35000 32.49100
H  24.59800 54.15300 33.56000
H  22.82800 54.34800 33.54100

