158

Mg 1.74600 -2.84000 44.17700
C  5.06500 -1.83200 43.42400
C  0.67700 -0.42100 42.11300
C  -1.27600 -4.15700 44.58200
C  3.17600 -5.69500 45.76900
N  2.85300 -1.40700 42.77900
C  4.15500 -1.13800 42.63800
C  4.42200 0.00600 41.65400
C  3.02400 0.71400 41.72500
C  2.09500 -0.40800 42.23500
C  2.99900 1.98300 42.64800
C  4.76300 -0.52800 40.23000
C  6.04500 0.02300 39.56900
H  5.71500 0.83700 38.28800
N  -0.12600 -2.37700 43.51800
C  -0.37100 -1.29900 42.64000
C  -1.78800 -1.09000 42.45500
C  -2.36000 -2.20800 43.13400
C  -1.22800 -2.96200 43.84400
C  -2.42900 0.06900 41.68400
C  -3.84900 -2.54800 42.99500
O  -4.57600 -1.75400 42.39000
C  -4.41100 -3.73200 43.72700
N  1.03800 -4.62000 45.12900
C  -0.31600 -4.92800 45.18300
C  -0.55000 -6.29200 45.86400
C  0.87400 -6.77200 46.18300
C  1.79200 -5.68000 45.62800
C  -1.50200 -6.16800 47.06700
C  1.27000 -8.16000 45.55500
C  0.90600 -9.34800 46.45600
N  3.62500 -3.56400 44.71200
C  4.07100 -4.74700 45.35500
C  5.56600 -4.79200 45.36000
C  5.94300 -3.62700 44.67400
C  4.75600 -2.92000 44.31200
C  6.47200 -5.82100 45.94000
C  7.11900 -2.92400 44.22000
O  8.30200 -3.08500 44.45500
C  6.57400 -1.76700 43.28600
C  7.11400 -0.44500 43.77900
O  7.64500 0.41100 43.14500
O  6.90500 -0.44900 45.15300
C  7.46400 0.78500 45.80500
H  0.29000 0.40000 41.50600
H  -2.26200 -4.59700 44.73900
H  3.74800 -6.52900 46.18000
H  5.30300 0.54400 42.00400
H  2.74400 0.99000 40.70800
H  4.00700 2.04000 43.05900
H  2.25300 1.78600 43.41800
H  2.77800 2.82500 41.99300
H  3.97400 -0.28500 39.51700
H  4.74900 -1.60800 40.37200
H  6.59500 -0.83500 39.18300
H  6.75100 0.45700 40.27700
H  -2.21400 -0.07700 40.62500
H  -1.85200 0.94900 41.96700
H  -3.47900 0.28300 41.87900
H  -4.20100 -3.58100 44.78600
H  -3.88000 -4.65700 43.50100
H  -5.49800 -3.78000 43.66000
H  -0.98600 -7.01700 45.17600
H  0.98400 -6.87900 47.26200
H  -2.11300 -5.27500 46.93500
H  -0.92900 -6.14400 47.99500
H  -2.07900 -7.08900 46.98700
H  2.34500 -8.28400 45.43000
H  0.78700 -8.22800 44.58000
H  1.82700 -9.91100 46.60200
H  0.18400 -9.97500 45.93200
H  0.46100 -8.94000 47.36400
H  5.95100 -6.52100 46.59300
H  7.31000 -5.36400 46.46500
H  6.85000 -6.39900 45.09600
H  6.90100 -1.89600 42.25400
H  7.85800 0.44800 46.76400
H  6.74200 1.54800 46.09400
H  8.20400 1.31400 45.20500
Mg 44.13800 4.24900 47.76200
C  42.12300 7.10400 47.53900
C  41.23100 2.38800 48.04000
C  45.88500 1.44600 47.16000
C  46.95600 6.22900 47.20500
N  41.86600 4.69800 47.79400
C  41.34200 5.96400 47.64500
C  39.81200 5.91300 47.50200
C  39.52800 4.36300 47.77800
C  40.94900 3.75000 47.85100
C  38.65100 4.00300 48.97500
C  39.14800 6.44800 46.16900
C  39.84300 6.23900 44.77500
H  39.77800 7.42000 43.75800
N  43.66000 2.23300 47.51200
C  42.42900 1.62700 47.77800
C  42.50400 0.25300 47.47000
C  43.89200 -0.04400 47.21800
C  44.52600 1.21500 47.27000
C  41.24900 -0.70000 47.45900
C  44.46700 -1.31300 46.75800
O  43.71900 -2.27400 46.63000
C  45.94100 -1.62400 46.31100
N  46.13000 3.92000 47.23400
C  46.65000 2.62500 47.23200
C  48.16700 2.64200 47.14900
C  48.57800 4.13500 47.07000
C  47.18500 4.82000 47.21600
C  48.83900 2.00100 48.43600
C  49.18500 4.49900 45.68900
C  50.63300 4.97100 45.73000
N  44.49300 6.23100 47.57700
C  45.69900 6.96500 47.33400
C  45.45600 8.39500 47.17900
C  44.05300 8.45000 47.31200
C  43.51900 7.20900 47.54200
C  46.44900 9.47700 46.94900
C  42.93500 9.38000 47.32200
O  43.00500 10.60000 47.15400
C  41.61500 8.52900 47.49500
C  40.97700 8.94200 48.81600
O  40.96700 8.31500 49.85600
O  40.18500 10.11700 48.58600
C  39.25300 10.46600 49.67900
H  40.30300 1.84100 48.22100
H  46.58800 0.61200 47.20600
H  47.84400 6.83800 47.02200
H  39.43600 6.44600 48.37500
H  39.10100 3.96300 46.85800
H  39.09300 3.09300 49.38000
H  37.57100 3.88900 48.88000
H  38.73100 4.67500 49.82900
H  38.79300 7.44500 46.42800
H  38.22500 5.88200 46.04100
H  39.41000 5.38100 44.26000
H  40.89400 5.98300 44.90500
H  40.99000 -0.85300 46.41200
H  40.44100 -0.22100 48.01300
H  41.51100 -1.66300 47.89800
H  46.55200 -1.67300 47.21200
H  46.26800 -0.76000 45.73300
H  46.01300 -2.58200 45.79500
H  48.43800 2.04800 46.27700
H  49.20400 4.39000 47.92500
H  49.12100 0.95100 48.35200
H  48.12500 1.88000 49.25000
H  49.71600 2.46500 48.88800
H  48.65300 5.37200 45.31200
H  49.03200 3.70400 44.95800
H  50.81100 5.42600 44.75500
H  51.34200 4.15300 45.85900
H  50.78500 5.69600 46.52900
H  46.67700 9.98200 47.88700
H  46.08700 10.20800 46.22500
H  47.45900 9.11900 46.74800
H  40.92300 8.64800 46.66200
H  39.62900 11.24300 50.34500
H  39.09200 9.58500 50.30100
H  38.34900 10.86000 49.21500

