158

Mg 1.86100 8.22000 25.95700
C  2.50400 10.18000 28.92200
C  2.40300 5.51300 27.96000
C  1.36100 6.54300 23.38700
C  2.04900 11.28000 24.23900
N  2.48400 7.93600 28.25200
C  2.54500 8.83700 29.28200
C  2.39500 8.14200 30.65200
C  2.66200 6.66800 30.26400
C  2.47700 6.68100 28.72600
C  4.02800 6.08300 30.54500
C  0.97900 8.39400 31.19100
C  0.91300 8.71600 32.64400
H  2.13900 8.35300 33.51200
N  2.01700 6.25200 25.67100
C  2.22100 5.28800 26.56000
C  2.14400 4.01200 25.96100
C  1.75700 4.26600 24.69300
C  1.71900 5.77100 24.51800
C  2.41800 2.74100 26.64200
C  1.39900 3.33200 23.57600
O  1.02500 3.80600 22.55500
C  1.39900 1.86300 23.59900
N  1.87700 8.83000 24.03000
C  1.55400 7.88500 23.11600
C  1.27600 8.50400 21.74500
C  1.26700 9.99000 22.07200
C  1.80500 10.10100 23.51000
C  2.43300 8.16400 20.73700
C  -0.16800 10.61900 21.95300
C  -0.39000 11.66100 20.81900
N  2.04200 10.36800 26.46900
C  2.13500 11.44200 25.65400
C  2.24200 12.69400 26.42800
C  2.33400 12.22600 27.73700
C  2.31900 10.80200 27.67400
C  2.33100 14.14100 25.94700
C  2.55800 12.68300 29.13200
O  2.78600 13.79000 29.53700
C  2.48200 11.31400 30.00300
C  3.71500 11.30500 30.87400
O  4.74100 10.66600 30.75500
O  3.34100 12.15900 31.97600
C  4.19300 12.00000 33.12400
H  2.42700 4.63600 28.61000
H  0.92200 6.12600 22.47800
H  1.63300 12.18200 23.78600
H  3.16300 8.56500 31.29900
H  1.86400 6.01500 30.61700
H  4.28200 5.26700 29.86800
H  4.17200 5.72200 31.56300
H  4.83400 6.81500 30.50600
H  0.33500 7.56800 30.88900
H  0.48300 9.25900 30.75000
H  0.01900 8.26700 33.07900
H  0.88500 9.80000 32.75700
H  2.84800 2.89400 27.63200
H  3.08000 2.01500 26.16800
H  1.44700 2.26700 26.78300
H  1.60100 1.43400 22.61700
H  0.45000 1.58400 24.05600
H  2.17500 1.42600 24.22800
H  0.27400 8.26000 21.39200
H  1.99400 10.47000 21.41600
H  3.37100 7.76600 21.12400
H  2.67700 9.02000 20.10800
H  2.15200 7.37900 20.03600
H  -0.39200 11.18300 22.85900
H  -0.94800 9.86900 21.82000
H  0.42700 11.44400 20.13100
H  -0.50400 12.63300 21.29800
H  -1.28400 11.44700 20.23200
H  3.20500 14.19900 25.29900
H  2.37400 14.62900 26.92100
H  1.41100 14.47400 25.46500
H  1.68900 11.33700 30.75000
H  4.77100 11.08000 33.21500
H  3.59000 12.12900 34.02200
H  4.76100 12.93000 33.10600
Mg 52.47600 23.66700 44.56300
C  49.51400 25.46400 44.01700
C  50.73800 20.71000 43.68300
C  55.45500 22.14100 44.19200
C  54.05400 26.60700 45.42600
N  50.32300 23.16300 43.88100
C  49.31200 24.06500 43.75200
C  48.02200 23.27500 43.49600
C  48.35300 21.76000 43.47600
C  49.91000 21.87500 43.74900
C  47.54000 20.94500 44.44100
C  47.06300 23.79400 42.34600
C  47.67500 23.93300 40.93200
H  47.55800 22.71800 39.93900
N  53.03300 21.69000 44.12700
C  52.14400 20.65100 43.78600
C  52.98900 19.42100 43.63700
C  54.33000 19.81200 43.69500
C  54.36000 21.26300 44.00500
C  52.35700 18.05800 43.32600
C  55.46600 18.91800 43.23000
O  55.27900 17.72700 43.04100
C  56.75800 19.48700 42.93700
N  54.45900 24.34100 44.59500
C  55.46700 23.45000 44.42400
C  56.75900 24.22500 44.83500
C  56.44100 25.75100 44.83100
C  54.88500 25.60100 45.03200
C  57.47300 23.65200 46.05100
C  56.77200 26.59600 43.55800
C  58.14100 27.28100 43.47200
N  51.88900 25.66200 44.74500
C  52.60500 26.69000 45.27000
C  51.75200 27.83000 45.51400
C  50.52900 27.44800 44.91900
C  50.66900 26.10500 44.46500
C  52.09100 29.20900 45.99900
C  49.14400 27.82000 44.61800
O  48.52800 28.86600 44.92400
C  48.55000 26.65400 43.88000
C  48.39100 27.09300 42.51300
O  49.19200 26.91900 41.60100
O  47.18100 27.72200 42.32700
C  46.72300 27.79300 40.92100
H  50.18800 19.78700 43.49000
H  56.48900 21.79600 44.11600
H  54.53400 27.47700 45.88100
H  47.50100 23.60700 44.39400
H  48.22900 21.42500 42.44600
H  47.30100 19.97500 44.00500
H  46.66700 21.55300 44.68000
H  48.16300 20.74100 45.31100
H  46.73100 24.78900 42.64000
H  46.12900 23.23300 42.36400
H  48.72000 24.18400 41.10900
H  47.14400 24.79700 40.53300
H  52.63900 17.22700 43.97300
H  52.53000 17.77700 42.28700
H  51.27300 17.96500 43.40200
H  57.38100 18.78700 42.37900
H  57.33400 19.52900 43.86100
H  56.69100 20.39900 42.34400
H  57.37000 24.11700 43.93800
H  56.85800 26.18700 45.73900
H  58.37400 23.11500 45.75400
H  56.83700 22.88800 46.49600
H  57.68500 24.42300 46.79200
H  56.02500 27.37400 43.40100
H  56.79400 25.97900 42.66000
H  58.60600 26.82500 42.59800
H  58.77400 27.08300 44.33800
H  58.10000 28.36900 43.42600
H  53.06600 29.56900 45.67300
H  52.02500 29.34600 47.07900
H  51.33100 29.85800 45.56500
H  47.56500 26.41900 44.28300
H  45.91000 27.06700 40.87700
H  47.49600 27.73000 40.15500
H  46.22600 28.76100 40.85800

