158

Mg 36.22500 49.52700 25.16700
C  36.38200 47.69400 28.11400
C  35.19800 52.21400 26.87600
C  35.96800 51.12700 22.17900
C  37.78700 46.86700 23.55100
N  35.71900 49.77400 27.21500
C  35.97000 48.99200 28.32800
C  35.80200 49.69000 29.59100
C  35.43600 51.14900 29.18500
C  35.49900 51.08500 27.65300
C  34.05600 51.60600 29.79700
C  37.08300 49.55000 30.48100
C  36.84000 48.94200 31.86900
H  35.46700 49.01800 32.52600
N  35.58200 51.39800 24.60600
C  35.23100 52.42600 25.47500
C  34.75700 53.56700 24.73200
C  35.03600 53.26900 23.33700
C  35.57900 51.86900 23.33500
C  34.08500 54.81400 25.31800
C  34.79800 54.19200 22.10500
O  35.15500 53.78000 20.99900
C  34.13000 55.47300 22.26900
N  36.64200 48.99700 23.12400
C  36.53500 49.85700 22.06600
C  36.94400 49.22200 20.69800
C  37.82800 48.06200 21.29600
C  37.48500 47.97500 22.77200
C  35.72700 48.82600 19.87400
C  39.37400 48.09200 20.98700
C  40.41400 48.57500 22.02000
N  36.85200 47.66600 25.62000
C  37.48400 46.69800 24.87100
C  37.73100 45.53800 25.69500
C  37.24400 45.81400 26.94200
C  36.73300 47.17200 26.88600
C  38.39100 44.29800 25.26200
C  37.08900 45.28600 28.28500
O  37.34800 44.22500 28.79400
C  36.54800 46.53300 29.07800
C  35.27200 46.18100 29.79200
O  34.11600 46.34900 29.36900
O  35.50800 45.54700 30.94400
C  34.43900 45.13800 31.77100
H  35.06200 53.16300 27.40000
H  35.87100 51.58300 21.19100
H  38.49200 46.26800 22.96900
H  34.92500 49.25800 30.07200
H  36.13600 51.90500 29.54300
H  33.32200 51.49000 29.00000
H  34.00100 52.65200 30.10000
H  33.80200 50.94500 30.62500
H  37.59600 50.50800 30.55800
H  37.76400 48.91200 29.91800
H  37.54700 49.51600 32.46800
H  37.17000 47.90700 31.78500
H  33.05900 55.06500 25.04600
H  34.68700 55.69100 25.08300
H  34.16000 54.71400 26.40100
H  34.94200 56.18200 22.43000
H  33.41200 55.51700 23.08800
H  33.66800 55.75900 21.32400
H  37.64700 49.83100 20.12900
H  37.49400 47.09300 20.92400
H  34.85500 49.18000 20.42300
H  35.55000 47.76500 19.69700
H  35.88700 49.29300 18.90200
H  39.51200 48.68900 20.08500
H  39.53400 47.03200 20.78900
H  41.23100 49.17900 21.62400
H  40.85500 47.67200 22.44300
H  39.83200 49.13200 22.75400
H  39.11900 44.45700 24.46700
H  37.59700 43.59800 25.00300
H  38.86800 43.98100 26.18900
H  37.26000 46.87600 29.82900
H  34.08600 44.12800 31.56200
H  33.65600 45.89600 31.73200
H  34.78300 44.95500 32.78900
Mg 5.83900 54.62000 40.64400
C  5.73800 51.03600 40.43900
C  9.19500 54.29800 39.62800
C  5.85700 57.86500 40.10400
C  2.50600 54.69000 41.29400
N  7.26600 52.81800 40.00500
C  6.99200 51.50100 39.97600
C  8.22500 50.67400 39.51900
C  9.38200 51.72400 39.60900
C  8.57500 53.04700 39.70100
C  10.32000 51.62700 40.92900
C  8.16700 49.88700 38.15800
C  7.99400 50.72800 36.83200
H  6.72300 50.58200 36.02000
N  7.30200 55.90800 40.05400
C  8.63600 55.61900 39.82100
C  9.42800 56.83700 39.64100
C  8.52600 57.84700 39.84500
C  7.15300 57.27800 39.96000
C  10.83800 56.93100 39.14100
C  8.86800 59.29400 39.97500
O  10.06400 59.56200 39.94200
C  7.82900 60.31600 40.22300
N  4.24000 56.06500 40.32800
C  4.58500 57.34800 40.36300
C  3.35900 58.25000 40.69400
C  2.24900 57.16200 40.79100
C  3.02700 55.89200 40.89500
C  3.67800 59.00400 42.11000
C  1.26300 57.11900 39.56900
C  -0.16300 57.61600 39.87000
N  4.33400 53.17100 40.88900
C  3.03500 53.38500 41.26100
C  2.44800 52.04900 41.50600
C  3.49600 51.14700 41.25100
C  4.61800 51.83800 40.83700
C  1.19000 51.58400 42.09300
C  3.90300 49.70200 41.26200
O  3.23800 48.71200 41.64500
C  5.34300 49.57700 40.64700
C  5.00100 48.88500 39.34200
O  4.58100 49.39000 38.28300
O  5.29000 47.54500 39.50400
C  4.81700 46.64300 38.37400
H  10.18700 54.34900 39.17400
H  5.83000 58.95200 40.00000
H  1.49000 54.72000 41.69400
H  8.37800 49.93100 40.30200
H  10.02000 51.73500 38.72600
H  11.33100 51.51100 40.53800
H  10.06700 50.79400 41.58500
H  10.31700 52.51400 41.56200
H  7.39600 49.12200 38.24200
H  9.09600 49.33100 38.02700
H  8.90300 50.53000 36.26300
H  7.95800 51.79200 37.06400
H  10.97500 57.70300 38.38300
H  11.35000 56.00100 38.89200
H  11.49300 57.23500 39.95800
H  8.29900 61.26800 40.47000
H  7.22200 60.01400 41.07700
H  7.19800 60.39800 39.33800
H  3.18300 58.89600 39.83400
H  1.62800 57.36300 41.66500
H  2.92900 59.79500 42.13400
H  4.69600 59.38500 42.19500
H  3.42500 58.44600 43.01100
H  1.10900 56.07600 39.29400
H  1.80000 57.69000 38.81100
H  -0.85400 56.83700 39.54700
H  -0.37500 58.55300 39.35500
H  -0.23900 57.82300 40.93800
H  0.62400 52.50400 42.24400
H  1.36700 51.06600 43.03600
H  0.84700 50.92500 41.29600
H  6.06200 48.98100 41.20900
H  3.73900 46.64300 38.21600
H  5.04500 45.60400 38.61100
H  5.27000 47.06100 37.47400

