158

Mg 8.04900 2.92700 27.68900
C  9.48200 1.30400 30.54600
C  6.42100 4.92800 29.85200
C  6.73300 4.28100 25.04800
C  9.86000 0.59300 25.73000
N  7.88700 3.04800 30.00200
C  8.67600 2.36200 30.94600
C  8.46300 2.93200 32.34800
C  7.37400 4.03100 32.11000
C  7.14000 3.94500 30.55900
C  6.07400 3.78600 32.85600
C  9.81900 3.35300 33.09300
C  9.59900 4.35400 34.28900
H  10.49100 4.38600 35.51800
N  6.66700 4.34700 27.48300
C  6.11300 5.06800 28.45300
C  5.35400 6.20600 27.88400
C  5.46100 6.00500 26.48000
C  6.25800 4.78200 26.24400
C  4.62500 7.26800 28.68200
C  4.92100 6.98900 25.44100
O  5.13000 6.83000 24.23500
C  3.97000 8.23800 25.76800
N  8.10200 2.29300 25.69800
C  7.60200 3.14300 24.79000
C  7.98000 2.85000 23.38000
C  8.99200 1.72400 23.55800
C  9.01200 1.53200 25.06500
C  6.71900 2.44500 22.61900
C  10.36900 1.93900 22.94000
C  10.99700 0.68300 22.24200
N  9.27900 1.19500 28.04400
C  10.01100 0.37200 27.14900
C  10.90700 -0.50400 27.81600
C  10.63100 -0.15300 29.15200
C  9.69500 0.88900 29.24400
C  11.97800 -1.34100 27.21600
C  11.04900 -0.55100 30.45900
O  11.84300 -1.39400 30.91100
C  10.29100 0.46200 31.37000
C  9.58300 -0.32400 32.43100
O  8.49500 -0.85800 32.24300
O  10.41000 -0.45300 33.55000
C  9.72700 -1.07800 34.68400
H  6.00600 5.76600 30.41600
H  6.46100 4.87100 24.17100
H  10.50200 0.11600 24.98600
H  7.97700 2.18700 32.97900
H  7.80000 5.03200 32.17900
H  5.45500 3.03000 32.37400
H  5.49700 4.71000 32.81900
H  6.22300 3.36800 33.85200
H  10.42000 3.83400 32.32100
H  10.43400 2.59200 33.57400
H  8.54600 4.31600 34.56600
H  9.71100 5.32400 33.80500
H  5.08300 8.24700 28.54500
H  4.46900 7.15700 29.75500
H  3.62500 7.23400 28.24800
H  4.46500 8.92200 26.45700
H  3.03500 7.86600 26.18600
H  3.80100 8.82900 24.86800
H  8.44100 3.72200 22.91600
H  8.53700 0.76700 23.30400
H  5.79000 2.71400 23.12200
H  6.70100 1.42800 22.22500
H  6.63600 3.06100 21.72400
H  11.05300 2.27400 23.72100
H  10.41700 2.75200 22.21500
H  11.15800 0.82000 21.17300
H  10.34900 -0.16400 22.46900
H  12.00400 0.49700 22.61500
H  12.81400 -1.23200 27.90700
H  12.23200 -1.01800 26.20700
H  11.59200 -2.36000 27.19600
H  11.00900 1.08800 31.89900
H  9.08100 -1.91400 34.41300
H  9.14700 -0.31800 35.20700
H  10.53800 -1.54000 35.24700
Mg 49.99800 44.72200 42.28600
C  46.51500 45.14500 41.51200
C  49.68400 41.45600 41.69800
C  53.27000 44.69400 42.28100
C  50.05600 48.30300 42.70700
N  48.26900 43.44700 41.67100
C  46.95100 43.77600 41.39300
C  46.16600 42.59700 40.99200
C  47.02300 41.45800 41.55600
C  48.42500 42.10000 41.71900
C  46.55000 40.62000 42.77200
C  45.99800 42.52100 39.42900
C  44.63500 42.00300 38.89500
H  44.52900 41.33500 37.57600
N  51.33000 43.29900 41.81800
C  51.03000 41.99400 41.65200
C  52.28200 41.29100 41.45400
C  53.38400 42.18500 41.53500
C  52.68100 43.47200 41.88900
C  52.30100 39.77200 41.32200
C  54.88800 41.90000 41.36700
O  55.28900 40.73500 41.26400
C  55.93100 42.99600 41.25000
N  51.42500 46.23100 42.43100
C  52.69700 45.97200 42.55800
C  53.59500 47.20300 42.86400
C  52.55300 48.37000 43.06500
C  51.26800 47.57800 42.76900
C  54.54500 47.11600 44.01400
C  52.74700 49.66600 42.21700
C  52.80400 50.98200 43.09600
N  48.59800 46.41500 42.23600
C  48.79800 47.77900 42.44600
C  47.59700 48.51000 42.33700
C  46.65200 47.53300 41.86400
C  47.35500 46.24200 41.85200
C  47.40900 50.04200 42.55600
C  45.27400 47.25500 41.49800
O  44.32500 47.99800 41.43900
C  45.22300 45.75300 41.18500
C  43.97800 45.12900 41.77300
O  42.99400 44.70800 41.20800
O  43.94300 45.45800 43.10300
C  42.71200 45.13500 43.78100
H  49.60800 40.37300 41.57900
H  54.34900 44.63000 42.43900
H  50.14800 49.38400 42.83600
H  45.18700 42.68400 41.46400
H  47.25400 40.65900 40.85100
H  45.89800 41.20000 43.42400
H  47.33900 40.35100 43.47400
H  46.08800 39.71700 42.37400
H  46.75900 41.82700 39.07000
H  46.24500 43.51600 39.06000
H  43.92000 42.82500 38.94900
H  44.22700 41.22600 39.54200
H  52.69000 39.45100 40.35500
H  51.30700 39.32700 41.28100
H  52.91700 39.30100 42.08800
H  55.43900 43.83500 40.75700
H  56.70300 42.52000 40.64500
H  56.25000 43.36800 42.22400
H  54.11400 47.43800 41.93500
H  52.52300 48.65500 44.11700
H  54.45100 46.08300 44.34700
H  54.25500 47.62200 44.93600
H  55.57500 47.45600 43.91300
H  51.87800 49.79900 41.57200
H  53.72300 49.50900 41.75800
H  53.49600 51.67100 42.61200
H  53.03300 50.86300 44.15500
H  51.78200 51.36000 43.08800
H  46.38200 50.21600 42.23300
H  48.07000 50.76300 42.07600
H  47.32100 50.24100 43.62400
H  44.96400 45.64200 40.13200
H  42.86500 45.32400 44.84400
H  42.61500 44.05100 43.71800
H  41.98900 45.83600 43.36300

