158

Mg 35.12900 2.50000 29.74700
C  32.76900 3.16600 32.07200
C  37.58900 2.73000 32.23900
C  37.37700 1.84900 27.32500
C  32.63300 2.74900 27.27700
N  35.10700 2.90800 31.89700
C  34.09000 3.09600 32.68500
C  34.40400 3.15300 34.16800
C  35.96400 3.31100 34.04200
C  36.26200 2.90500 32.64200
C  36.45000 4.74600 34.43600
C  34.04600 1.88600 34.94900
C  33.83200 2.07500 36.45800
H  34.25600 3.42400 37.02500
N  37.18700 2.18900 29.79600
C  38.04800 2.30400 30.89600
C  39.35900 1.97000 30.53500
C  39.32000 1.63900 29.07400
C  37.91200 1.84700 28.63700
C  40.51600 2.06000 31.39800
C  40.46200 1.18200 28.11900
O  40.20800 0.80500 26.96600
C  41.90700 1.23600 28.61400
N  35.07700 2.34400 27.62800
C  36.13300 2.08900 26.85100
C  35.82400 2.09400 25.35700
C  34.28000 2.39500 25.34800
C  33.95000 2.41400 26.84300
C  36.62000 3.11900 24.41600
C  33.40700 1.49700 24.38800
C  32.46200 0.46000 25.01300
N  32.99100 2.87600 29.65600
C  32.11700 2.97700 28.60800
C  30.86200 3.25200 29.13400
C  31.03300 3.40500 30.52000
C  32.36300 3.10500 30.78100
C  29.61000 3.44000 28.34500
C  30.36600 3.72800 31.81400
O  29.16900 4.05400 32.04900
C  31.54500 3.48300 32.90600
C  31.67100 4.70400 33.72700
O  32.15100 5.75900 33.30100
O  30.96800 4.54600 34.90800
C  31.05200 5.76500 35.64500
H  38.31300 2.72500 33.05600
H  38.07000 1.64900 26.50600
H  31.88300 2.75900 26.48500
H  33.94300 4.04500 34.59300
H  36.45900 2.61000 34.71400
H  37.08400 4.63100 35.31500
H  35.65100 5.43200 34.71800
H  37.13500 5.15900 33.69700
H  34.82900 1.14900 34.77200
H  33.23700 1.45500 34.35900
H  34.39600 1.29100 36.96300
H  32.77000 2.03300 36.70000
H  40.15900 2.41100 32.36600
H  41.17300 2.80400 30.94700
H  40.91000 1.05100 31.52000
H  42.51000 1.32400 27.71100
H  42.16300 0.34400 29.18600
H  42.01500 2.19600 29.12000
H  35.98200 1.09500 24.95300
H  34.15100 3.42700 25.02300
H  37.31100 3.63200 25.08400
H  35.93700 3.87200 24.02300
H  37.13100 2.80100 23.50600
H  34.02400 0.92300 23.69700
H  32.74800 2.21400 23.89900
H  32.34400 -0.38500 24.33500
H  31.47400 0.89500 25.17000
H  32.97500 -0.01000 25.85200
H  29.64800 2.90700 27.39500
H  29.62300 4.46900 27.98600
H  28.64900 3.20900 28.80500
H  31.24900 2.60200 33.47600
H  30.47800 6.61200 35.26700
H  32.08700 6.07400 35.79300
H  30.62900 5.59600 36.63500
Mg 41.01300 9.22600 29.13000
C  42.95800 10.60100 31.69100
C  38.90200 7.91900 31.38300
C  39.42100 7.88000 26.61100
C  43.72300 10.02900 26.92800
N  40.95800 9.30700 31.32900
C  41.77600 10.01300 32.12400
C  41.33400 9.92900 33.58300
C  40.05500 9.01200 33.53300
C  39.96500 8.62300 31.99500
C  40.04800 7.73500 34.42100
C  41.32900 11.24100 34.39000
C  40.33700 11.34500 35.51400
H  41.03300 11.67100 36.85000
N  39.40300 8.05300 29.04500
C  38.57900 7.63600 30.03700
C  37.41800 7.02700 29.50800
C  37.49600 7.19300 28.11500
C  38.82100 7.68300 27.86500
C  36.35200 6.45000 30.39000
C  36.49300 6.99400 27.10700
O  36.77200 7.33800 25.99300
C  35.10500 6.51100 27.32100
N  41.65600 8.66200 27.09100
C  40.69400 8.26000 26.23200
C  41.21700 8.11500 24.80400
C  42.32900 9.22900 24.85300
C  42.60000 9.34200 26.34100
C  41.79400 6.70900 24.42100
C  41.93200 10.65600 24.28900
C  40.44200 11.07100 24.36000
N  42.95600 10.11200 29.22100
C  43.92200 10.35400 28.28400
C  45.05800 11.06500 28.87700
C  44.74500 11.14800 30.24300
C  43.45000 10.54700 30.37300
C  46.27200 11.45100 28.16400
C  45.10300 11.72400 31.47400
O  46.06000 12.42400 31.81000
C  43.96300 11.33000 32.55600
C  44.56500 10.36500 33.42300
O  45.07100 9.32700 33.02800
O  44.58800 10.85400 34.70000
C  45.34400 10.02100 35.65500
H  38.10700 7.85600 32.12900
H  38.88900 7.49400 25.73900
H  44.48300 10.37300 26.22300
H  42.17400 9.45700 34.09300
H  39.21600 9.66900 33.75900
H  39.00900 7.40900 34.46000
H  40.63700 7.90200 35.32300
H  40.59200 6.94200 33.90700
H  41.05100 11.89500 33.56300
H  42.29200 11.62200 34.72900
H  39.85800 10.43000 35.86100
H  39.64000 12.13800 35.24200
H  35.45400 6.31500 29.78700
H  36.13800 7.01300 31.29900
H  36.68600 5.45200 30.67400
H  34.59400 6.65400 26.36900
H  34.49300 7.11600 27.99000
H  34.96600 5.43800 27.45400
H  40.42100 8.21100 24.06500
H  43.13300 8.80400 24.25300
H  41.11000 6.14000 23.79100
H  41.64100 6.15600 25.34700
H  42.81100 6.59500 24.04500
H  42.31500 10.70900 23.27000
H  42.37800 11.53700 24.75000
H  40.28700 11.64000 25.27700
H  39.78900 10.19800 24.34600
H  40.13300 11.77800 23.59100
H  47.15700 11.23500 28.76300
H  46.14500 12.52900 28.05700
H  46.34900 10.98000 27.18400
H  43.66400 12.23300 33.08900
H  45.20400 10.53000 36.60900
H  46.37200 10.06100 35.29500
H  44.91600 9.01900 35.68700

