158

Mg 1.00800 7.64400 26.45000
C  1.64000 9.81500 29.19600
C  1.31700 4.99800 28.65500
C  0.50100 5.63600 23.90900
C  1.46300 10.38700 24.32700
N  1.32200 7.43300 28.69000
C  1.54800 8.46100 29.56200
C  1.39000 7.88700 30.96500
C  1.66000 6.39100 30.79000
C  1.43300 6.23500 29.27300
C  3.00500 5.77000 31.19500
C  0.13100 8.36300 31.73100
C  0.44000 8.65900 33.20300
H  1.53600 7.88700 33.84600
N  0.77900 5.64700 26.30700
C  0.95400 4.69200 27.35200
C  0.59200 3.38000 26.84400
C  0.36300 3.50100 25.43000
C  0.58300 4.92000 25.16100
C  0.47200 2.09300 27.75000
C  0.16800 2.45500 24.24000
O  -0.01200 2.76000 23.06900
C  0.24800 0.96000 24.68000
N  1.20200 7.91100 24.39600
C  0.68300 6.98800 23.61500
C  0.48900 7.55500 22.19900
C  0.60500 9.05900 22.40100
C  1.15100 9.12900 23.83500
C  1.42200 6.98900 21.10900
C  -0.74800 9.88400 22.22700
C  -0.66700 11.07100 21.14200
N  1.50000 9.71100 26.62500
C  1.65900 10.71900 25.67500
C  2.12300 11.92100 26.27800
C  2.02200 11.63200 27.67800
C  1.65000 10.30700 27.85900
C  2.30200 13.25700 25.58800
C  2.24900 12.22400 29.00000
O  2.71600 13.31700 29.31000
C  1.96600 11.03700 30.00700
C  3.13200 10.97700 30.95800
O  4.12500 10.33100 30.71600
O  2.92300 11.79600 32.11500
C  4.03400 11.77000 33.09300
H  1.47200 4.19400 29.37800
H  0.32900 5.10100 22.97300
H  1.44900 11.23000 23.63300
H  2.24800 8.24600 31.53400
H  0.85100 5.77600 31.18500
H  3.54300 6.46300 31.84100
H  3.62400 5.54100 30.32800
H  2.81400 4.85000 31.74600
H  -0.56900 7.52700 31.76000
H  -0.23000 9.32800 31.37600
H  -0.42100 8.28500 33.75700
H  0.38800 9.70800 33.49600
H  1.39800 1.52500 27.84300
H  -0.24700 1.35800 27.38900
H  0.06800 2.50100 28.67700
H  0.32300 0.50100 23.69500
H  -0.63200 0.70300 25.26900
H  1.10900 0.71000 25.30000
H  -0.50300 7.33500 21.80400
H  1.43000 9.43500 21.79700
H  1.67400 5.94500 21.29200
H  2.24900 7.62700 20.79600
H  0.82100 6.87700 20.20700
H  -1.03700 10.33200 23.17800
H  -1.61800 9.24000 22.09200
H  -1.16800 10.96900 20.18000
H  0.37000 11.34700 20.94900
H  -1.20300 11.93800 21.52800
H  1.43500 13.88400 25.37600
H  2.69500 12.91500 24.63000
H  2.96200 13.87000 26.20200
H  1.10600 11.22900 30.64800
H  4.86600 11.10800 32.85300
H  3.70300 11.60400 34.11900
H  4.46000 12.76500 32.96800
Mg 1.00700 43.62600 25.69800
C  2.88500 43.41500 28.58800
C  -1.68400 42.50600 27.43400
C  -0.55600 42.95900 22.72100
C  3.99300 44.39900 24.01600
N  0.67300 43.13500 27.74200
C  1.51300 43.34400 28.71500
C  0.84400 43.20600 30.06900
C  -0.64900 42.73200 29.78000
C  -0.58500 42.79100 28.24900
C  -1.13000 41.36400 30.34900
C  0.97500 44.51500 30.92500
C  1.54200 44.37500 32.42300
H  1.29800 43.05800 33.16500
N  -0.89100 42.85500 25.12200
C  -1.80400 42.46800 26.02300
C  -2.99100 41.95900 25.27000
C  -2.73700 42.07300 23.93000
C  -1.32700 42.58200 23.85700
C  -4.13000 41.42000 25.96200
C  -3.53800 41.72600 22.65900
O  -3.12300 41.88000 21.49300
C  -4.94500 41.26700 22.72200
N  1.57100 43.85400 23.70800
C  0.69000 43.64100 22.70400
C  1.36700 43.99200 21.34100
C  2.74700 44.56300 21.77100
C  2.80400 44.37400 23.27900
C  1.44700 42.69400 20.50300
C  3.05100 46.09800 21.45300
C  3.76300 46.30600 20.10000
N  3.03500 43.91500 26.18900
C  4.14500 44.16700 25.39100
C  5.37200 44.04100 26.19500
C  4.88100 43.77500 27.46200
C  3.48800 43.71300 27.42500
C  6.75400 44.22500 25.65500
C  5.33700 43.56700 28.79300
O  6.44900 43.52900 29.29000
C  3.99100 43.46300 29.69100
C  4.13300 42.28900 30.54000
O  3.81200 41.16500 30.21700
O  4.90100 42.60500 31.64100
C  5.16300 41.50000 32.61300
H  -2.62300 42.31600 27.95900
H  -1.02600 42.80600 21.74700
H  4.81100 44.83000 23.43500
H  1.36600 42.36700 30.53100
H  -1.41200 43.49400 29.93700
H  -0.25200 40.82500 30.70600
H  -1.56400 40.70000 29.60100
H  -1.64000 41.56200 31.29200
H  -0.01800 44.95800 30.99900
H  1.62300 45.25700 30.45900
H  1.01700 45.18600 32.92800
H  2.56700 44.68100 32.63500
H  -4.39700 40.49900 25.44400
H  -4.98100 42.08300 26.12000
H  -3.91500 41.04800 26.96400
H  -5.65700 41.98100 23.13400
H  -5.07100 40.28000 23.16800
H  -5.30400 41.28200 21.69300
H  0.62300 44.69400 20.96400
H  3.62200 44.04500 21.37700
H  1.34900 41.81300 21.13800
H  2.45200 42.64800 20.08100
H  0.71100 42.78200 19.70500
H  3.63400 46.49300 22.28500
H  2.09400 46.62000 21.46300
H  3.86600 45.36300 19.56200
H  4.82300 46.54400 20.18300
H  3.18600 46.96400 19.44900
H  6.79100 44.65300 24.65300
H  7.35400 43.31500 25.63400
H  7.40900 44.87300 26.23600
H  3.90300 44.36700 30.29400
H  5.03400 42.06800 33.53400
H  6.15200 41.04200 32.60700
H  4.43300 40.69300 32.66500

