158

Mg 8.27200 3.32800 27.31900
C  9.64100 1.72100 30.24800
C  6.55400 5.50000 29.44200
C  6.49400 4.38900 24.74200
C  9.77800 0.79200 25.43600
N  8.11100 3.49900 29.57900
C  8.78500 2.84700 30.54400
C  8.54000 3.43800 31.94300
C  7.42200 4.50900 31.71000
C  7.30000 4.50200 30.16100
C  6.17200 4.30000 32.61700
C  9.77400 3.97800 32.77700
C  10.00600 3.25100 34.13400
H  10.48300 4.21300 35.24900
N  6.89600 4.88600 27.06900
C  6.35100 5.68100 28.07400
C  5.49200 6.62400 27.42700
C  5.44400 6.31600 26.05400
C  6.25500 5.16400 25.88100
C  4.81900 7.81900 28.19700
C  4.74000 7.06600 24.98400
O  4.59600 6.68000 23.84200
C  3.93600 8.36200 25.29900
N  8.13400 2.59300 25.39700
C  7.29000 3.22000 24.48500
C  7.43800 2.44000 23.13500
C  8.57600 1.42100 23.35600
C  8.82400 1.64100 24.80700
C  6.00600 1.76900 22.79200
C  9.78100 1.61200 22.42600
C  9.85900 0.58300 21.16800
N  9.62800 1.67900 27.67500
C  10.12600 0.72800 26.81400
C  11.00400 -0.18000 27.55500
C  10.82000 0.15800 28.90300
C  9.88100 1.27100 28.92300
C  11.87200 -1.22800 26.98700
C  11.22500 -0.16900 30.31600
O  11.92200 -1.09200 30.79600
C  10.42400 0.99500 31.16900
C  9.61400 0.33200 32.27800
O  8.47100 -0.10500 32.15400
O  10.38400 0.28100 33.36800
C  9.72000 -0.43000 34.51000
H  5.93400 6.13800 30.07500
H  6.02500 4.72800 23.81600
H  10.16800 -0.01000 24.80500
H  8.06800 2.65800 32.54100
H  7.75800 5.51100 31.98000
H  6.38000 4.78000 33.57300
H  6.01600 3.31000 33.04500
H  5.29100 4.60800 32.05300
H  9.70900 5.05200 32.94700
H  10.67000 3.75900 32.19700
H  10.83700 2.54800 34.19500
H  9.09300 2.74300 34.44400
H  5.24700 8.72000 27.75900
H  5.13800 7.99200 29.22500
H  3.75700 7.65400 28.01600
H  3.06700 8.21100 25.93900
H  3.49200 8.74700 24.38000
H  4.61400 9.14800 25.63100
H  7.70800 3.23600 22.44200
H  8.24200 0.38400 23.39700
H  6.10700 0.69700 22.62200
H  5.66700 2.07200 21.80100
H  5.24800 1.93600 23.55700
H  10.69900 1.42800 22.98400
H  9.86700 2.64900 22.10300
H  10.12200 1.12700 20.26000
H  8.94300 0.00100 21.06200
H  10.71100 -0.03400 21.44900
H  12.41000 -1.70700 27.80500
H  12.56700 -1.02700 26.17100
H  11.12600 -1.89300 26.55200
H  11.17000 1.54600 31.74200
H  10.36800 -1.18300 34.95900
H  8.79700 -0.93300 34.22100
H  9.50200 0.33200 35.25900
Mg 35.84900 49.22000 25.47800
C  35.87400 47.56900 28.54800
C  34.73000 52.14200 27.20000
C  35.34700 50.75000 22.54200
C  36.28800 46.14300 23.84100
N  35.35400 49.74200 27.61200
C  35.53400 48.94700 28.64800
C  35.47800 49.74200 30.02200
C  35.07900 51.21100 29.52400
C  35.00700 51.00700 27.96400
C  33.73600 51.75000 30.11100
C  36.84200 49.86400 30.79200
C  36.84400 49.59100 32.27800
H  35.45400 49.57200 33.04200
N  35.23100 51.19300 24.89200
C  34.87600 52.24100 25.74900
C  34.46100 53.38800 24.95900
C  34.68000 53.01700 23.60100
C  35.09900 51.61100 23.61200
C  33.92600 54.68600 25.55500
C  34.48100 53.88100 22.35700
O  34.56600 53.43900 21.20700
C  34.18100 55.41100 22.48200
N  35.85700 48.58000 23.54200
C  35.64800 49.36800 22.45800
C  35.79600 48.70800 21.10800
C  36.43400 47.37300 21.60000
C  36.19700 47.33800 23.11100
C  34.44800 48.65700 20.25500
C  37.93600 47.33600 21.25600
C  38.44600 46.36300 20.21000
N  36.07000 47.24700 26.03500
C  36.23700 46.04600 25.29200
C  36.47200 44.96900 26.16100
C  36.36900 45.53800 27.49200
C  36.14100 46.87200 27.36600
C  36.94200 43.58500 25.77300
C  36.44400 45.19700 28.87900
O  36.63400 44.10300 29.42400
C  36.18500 46.58700 29.62800
C  35.05100 46.21300 30.59300
O  33.87400 46.30800 30.43000
O  35.60200 45.82400 31.77100
C  34.64000 45.34900 32.81500
H  34.46000 53.05100 27.74000
H  35.38300 51.20800 21.55100
H  36.57700 45.22500 23.32400
H  34.67700 49.32400 30.63200
H  35.88000 51.93900 29.65700
H  32.89300 51.33900 29.55400
H  33.76200 52.83100 29.97300
H  33.51700 51.32800 31.09200
H  37.30400 50.84700 30.69000
H  37.55300 49.15900 30.36100
H  37.54000 50.24500 32.80300
H  37.28000 48.59900 32.39300
H  34.07900 54.70900 26.63400
H  32.84300 54.75400 25.45800
H  34.37700 55.54600 25.05900
H  33.21700 55.43500 22.99000
H  34.10500 55.83600 21.48100
H  35.05000 55.80200 23.01100
H  36.49300 49.29900 20.51400
H  35.78100 46.62400 21.15200
H  34.11600 47.62200 20.18600
H  34.72800 49.09000 19.29400
H  33.75600 49.31600 20.77900
H  38.39000 47.22800 22.24200
H  38.16800 48.32800 20.87000
H  37.60000 46.02700 19.60900
H  38.97200 45.55700 20.72200
H  39.15600 46.96800 19.64700
H  37.72100 43.23300 26.45000
H  37.28400 43.47900 24.74300
H  36.11200 42.89200 25.91600
H  37.11000 46.90200 30.11100
H  33.80100 46.03900 32.90600
H  35.15200 45.33600 33.77700
H  34.20300 44.38100 32.57200

