158

Mg -2.13500 17.14000 26.39500
C  -2.56400 14.88800 28.93000
C  -2.83600 19.69300 28.62200
C  -2.19300 19.38300 23.72300
C  -2.28900 14.49600 24.00100
N  -2.50900 17.22700 28.53400
C  -2.52200 16.21900 29.42800
C  -2.79800 16.66300 30.94500
C  -3.12200 18.19500 30.64900
C  -2.80000 18.41000 29.15800
C  -4.53000 18.69100 31.16800
C  -1.59000 16.33800 31.91800
C  -1.99100 15.70500 33.23300
H  -2.52000 16.57600 34.32700
N  -2.21000 19.22500 26.22700
C  -2.49100 20.08000 27.28400
C  -2.39300 21.41900 26.70000
C  -2.19200 21.36400 25.28200
C  -2.19900 19.94000 25.02500
C  -2.64300 22.67400 27.59300
C  -1.91800 22.56500 24.31200
O  -1.95800 22.33300 23.08900
C  -1.69700 23.96200 24.68700
N  -2.36500 16.94200 24.15800
C  -2.33800 17.99700 23.31800
C  -2.39500 17.58800 21.84800
C  -2.27300 16.04500 21.97800
C  -2.34300 15.74800 23.44500
C  -3.62300 18.05800 21.04300
C  -0.91500 15.57600 21.34900
C  0.37800 15.97700 22.14000
N  -2.37000 15.18600 26.40100
C  -2.40300 14.20100 25.36600
C  -2.64600 12.91500 25.92400
C  -2.75400 13.19000 27.32600
C  -2.47900 14.52100 27.56600
C  -2.63000 11.57800 25.20500
C  -2.92100 12.51700 28.57600
O  -3.05000 11.34500 28.99000
C  -2.91100 13.64300 29.67800
C  -1.83600 13.24800 30.69600
O  -0.63300 13.42000 30.59800
O  -2.38400 12.47700 31.71600
C  -1.55400 12.07300 32.84100
H  -3.20100 20.38900 29.38000
H  -2.03300 20.07300 22.89200
H  -2.16700 13.66000 23.30900
H  -3.73900 16.12400 31.04600
H  -2.44300 18.74700 31.29900
H  -4.49200 19.60100 31.76700
H  -4.91400 17.99000 31.90800
H  -5.26600 18.84900 30.38000
H  -1.05200 17.25000 32.17500
H  -0.87500 15.67000 31.43600
H  -1.03000 15.26100 33.49300
H  -2.75900 14.94500 33.09400
H  -3.09600 22.52400 28.57200
H  -3.34700 23.32800 27.07800
H  -1.65000 23.10600 27.71400
H  -0.68000 24.02900 25.07400
H  -2.44800 24.22200 25.43300
H  -1.75100 24.63700 23.83200
H  -1.43400 17.89700 21.43800
H  -3.11600 15.63300 21.42300
H  -3.28600 18.14800 20.01100
H  -3.97300 19.05500 21.30900
H  -4.40000 17.29300 21.03500
H  -0.85600 15.89900 20.30900
H  -0.95000 14.48900 21.41500
H  0.95800 16.78600 21.69700
H  0.99800 15.08300 22.20900
H  0.15600 16.39800 23.12100
H  -2.01900 10.90000 25.80100
H  -2.29300 11.73000 24.18000
H  -3.62200 11.15000 25.34900
H  -3.92800 13.65500 30.07000
H  -2.00400 12.40400 33.77700
H  -0.52700 12.43500 32.79100
H  -1.45000 10.98800 32.84700
Mg 6.51400 57.54600 42.18100
C  5.83300 53.98600 42.15400
C  9.58900 56.75600 40.77700
C  6.88800 60.75100 41.53700
C  3.33100 58.06900 43.36500
N  7.49100 55.62400 41.39700
C  7.11100 54.37500 41.54300
C  8.25800 53.37000 41.24300
C  9.56400 54.24200 41.12400
C  8.80400 55.63600 41.12600
C  10.59700 54.13500 42.24800
C  7.86900 52.54300 39.92300
C  8.93100 52.13700 38.85200
H  8.45900 51.03500 37.88700
N  8.09000 58.65200 41.39700
C  9.25700 58.11900 40.80400
C  9.97800 59.23000 40.23700
C  9.32600 60.40700 40.59100
C  8.01900 59.96300 41.19100
C  11.31300 59.03400 39.37000
C  9.80800 61.88200 40.42200
O  10.77400 62.15800 39.74900
C  9.03600 63.05000 41.06200
N  5.19400 59.17300 42.32100
C  5.62700 60.42500 42.13700
C  4.59500 61.55700 42.52500
C  3.50600 60.64600 43.14900
C  3.97200 59.22100 42.89000
C  5.19100 62.56300 43.58400
C  2.09300 60.85000 42.58600
C  0.93400 60.68200 43.47300
N  4.89700 56.33800 42.80800
C  3.71200 56.68800 43.28300
C  2.94800 55.46700 43.63000
C  3.81600 54.43000 43.30500
C  4.91700 54.96500 42.67200
C  1.54100 55.43600 44.21200
C  3.90500 53.03100 43.23200
O  3.24300 52.16300 43.77200
C  5.27500 52.66400 42.45600
C  4.91200 51.92500 41.23000
O  4.33400 52.36400 40.28000
O  5.32300 50.59300 41.40500
C  4.93800 49.64100 40.37200
H  10.57900 56.55500 40.36300
H  6.84200 61.82500 41.34800
H  2.34900 58.19100 43.82600
H  8.34300 52.52200 41.92400
H  10.22700 54.07200 40.27700
H  10.21100 53.40700 42.96200
H  10.86000 55.12600 42.62000
H  11.49300 53.69200 41.81300
H  7.06200 53.10500 39.45300
H  7.33900 51.67100 40.30800
H  9.83200 51.75000 39.32700
H  9.21100 53.04900 38.32600
H  11.28000 59.22200 38.29700
H  11.73100 58.02800 39.41700
H  12.09100 59.58600 39.89700
H  8.76700 62.89800 42.10700
H  8.15000 63.32000 40.48700
H  9.69400 63.91900 41.05500
H  4.22300 62.01600 41.60900
H  3.57700 60.84400 44.21800
H  4.50900 62.82100 44.39400
H  5.63500 63.39100 43.03100
H  6.10300 62.10900 43.97300
H  1.99400 60.20500 41.71200
H  2.08500 61.80300 42.05600
H  1.14600 60.21100 44.43300
H  0.19800 60.01300 43.02500
H  0.46000 61.65000 43.63500
H  0.86700 55.13600 43.41000
H  1.33400 56.45000 44.55400
H  1.49500 54.73600 45.04600
H  5.84800 52.04300 43.14400
H  4.02200 49.93600 39.85900
H  4.90200 48.57900 40.61600
H  5.70200 49.75900 39.60300

