158

Mg 0.29600 8.08400 26.03200
C  1.00400 10.05900 28.96200
C  0.65600 5.27200 28.11100
C  -0.11800 6.18300 23.34200
C  0.74700 10.94100 24.02900
N  0.68600 7.67500 28.37600
C  0.71000 8.66400 29.26900
C  0.54400 8.10400 30.67600
C  0.81200 6.57700 30.37800
C  0.75700 6.46300 28.84500
C  2.18300 5.90700 30.88200
C  -0.85500 8.48000 31.33500
C  -1.09800 8.53300 32.83900
H  0.02400 8.30300 33.79800
N  0.22200 5.98400 25.76600
C  0.40800 4.99600 26.72200
C  0.35400 3.66400 26.09400
C  0.03600 3.91600 24.70700
C  0.08100 5.39200 24.50000
C  0.52700 2.35600 26.78900
C  -0.37600 2.98500 23.62500
O  -0.62600 3.35900 22.48900
C  -0.38000 1.49100 23.92200
N  0.14400 8.54700 24.02000
C  -0.10000 7.58100 23.09900
C  -0.05200 8.20600 21.65300
C  -0.12800 9.71600 21.92300
C  0.26600 9.76200 23.43200
C  1.11000 7.80700 20.72900
C  -1.51000 10.36100 21.59400
C  -1.41500 11.53500 20.71800
N  0.88500 10.12800 26.31100
C  1.04100 11.11000 25.42400
C  1.40900 12.31500 26.20300
C  1.33300 11.94700 27.56900
C  0.99500 10.61200 27.59300
C  1.59000 13.64800 25.57800
C  1.41100 12.44700 28.90200
O  1.65600 13.59500 29.29400
C  1.20100 11.27400 29.90100
C  2.36200 11.18800 30.79900
O  3.51100 10.91200 30.47500
O  1.94500 11.50900 32.08000
C  2.85200 11.62100 33.25200
H  0.92600 4.36500 28.65700
H  -0.35600 5.64800 22.42000
H  0.75900 11.89400 23.49600
H  1.36800 8.53000 31.24900
H  0.00200 5.97400 30.78800
H  2.86900 6.51200 31.47500
H  2.72700 5.54900 30.00800
H  1.93100 5.06200 31.52300
H  -1.57600 7.81000 30.86800
H  -1.04500 9.51600 31.05300
H  -1.93500 7.85800 33.02000
H  -1.47600 9.52500 33.08600
H  0.98600 2.45900 27.77300
H  1.23000 1.77200 26.19500
H  -0.39100 1.80200 26.98500
H  0.66400 1.17800 23.96200
H  -0.80100 0.99100 23.05000
H  -1.15500 1.24800 24.64800
H  -0.96600 7.85700 21.17300
H  0.62500 10.27400 21.36600
H  2.05000 7.85400 21.27900
H  1.17200 8.59300 19.97700
H  0.86900 6.80100 20.38700
H  -2.18100 10.47600 22.44500
H  -2.04900 9.58700 21.04700
H  -1.45600 11.35300 19.64400
H  -0.45500 11.98500 20.97200
H  -2.27100 12.15500 20.98100
H  0.65900 13.92900 25.08700
H  2.23900 13.57600 24.70500
H  1.87000 14.46300 26.24500
H  0.34400 11.40500 30.56100
H  3.18100 12.65700 33.32900
H  3.68700 10.94000 33.08900
H  2.31300 11.34100 34.15700
Mg 48.18600 35.53500 27.80900
C  46.46800 33.66600 30.26500
C  48.39100 38.04900 30.17400
C  49.42200 37.44200 25.48800
C  47.52000 32.92400 25.56000
N  47.49400 35.79400 30.00500
C  47.04900 34.84400 30.80000
C  47.08100 35.24400 32.27800
C  47.31900 36.78200 32.15800
C  47.79100 36.94800 30.66000
C  46.04100 37.68700 32.47800
C  48.23400 34.50200 33.02200
C  48.14200 34.17900 34.44000
H  47.18500 35.05900 35.25200
N  48.75500 37.51100 27.78800
C  48.90200 38.32000 28.86000
C  49.54800 39.48200 28.47200
C  49.86600 39.35000 27.13500
C  49.36900 38.09100 26.73700
C  49.71200 40.68900 29.41300
C  50.58200 40.38300 26.29600
O  50.79300 40.15700 25.08000
C  51.16500 41.65100 26.79000
N  48.20900 35.30000 25.81600
C  48.83000 36.20100 25.06500
C  49.13600 35.77200 23.67000
C  48.80900 34.26500 23.73300
C  48.14800 34.12200 25.09600
C  48.27100 36.50100 22.57000
C  50.04100 33.37900 23.51200
C  50.02100 32.27600 22.49400
N  47.21100 33.68000 27.89900
C  47.03300 32.72000 26.86800
C  46.35800 31.59000 27.47700
C  46.12600 31.92900 28.79600
C  46.63000 33.16800 29.00500
C  46.05500 30.25100 26.78200
C  45.46500 31.44800 29.97200
O  44.89000 30.40500 30.18200
C  45.58900 32.68400 31.03000
C  45.99900 32.20000 32.35900
O  46.97300 31.45500 32.47000
O  44.99900 32.19700 33.31500
C  45.27100 31.43000 34.54800
H  48.56600 38.73100 31.00900
H  49.96100 37.87300 24.64100
H  47.66200 32.16800 24.78500
H  46.09400 34.99900 32.67000
H  48.13200 37.11500 32.80300
H  46.47500 38.59500 32.89700
H  45.40200 37.08500 33.12500
H  45.49300 37.83900 31.54900
H  49.19300 34.98900 32.84200
H  48.38400 33.56400 32.48600
H  49.09200 34.25600 34.96900
H  47.77200 33.15400 34.44200
H  49.31300 41.53200 28.84800
H  50.77100 40.88900 29.57600
H  49.16600 40.60200 30.35200
H  50.37400 42.39700 26.86700
H  51.93300 41.94900 26.07600
H  51.58200 41.44700 27.77700
H  50.20400 35.93600 23.52500
H  48.06300 34.02900 22.97400
H  48.11600 37.50600 22.96200
H  47.39900 35.92400 22.26200
H  48.93700 36.57500 21.71000
H  50.30000 32.90300 24.45800
H  50.87900 33.96000 23.12600
H  49.19600 32.37500 21.78800
H  49.90100 31.36100 23.07300
H  50.95900 32.25100 21.94000
H  44.99800 30.10900 26.55500
H  46.51300 29.46200 27.37800
H  46.53800 30.11400 25.81400
H  44.62300 33.15700 31.20500
H  46.13400 30.76400 34.57500
H  44.43700 30.77300 34.79400
H  45.34400 32.08500 35.41600

