158

Mg 47.72800 25.17900 28.70400
C  48.59000 27.48400 31.21000
C  47.21400 22.76800 31.16700
C  47.36600 22.78900 26.30700
C  49.02800 27.36900 26.37100
N  47.94100 25.16900 30.95400
C  48.13700 26.26500 31.74400
C  47.82800 25.96200 33.18400
C  47.49900 24.48200 33.15200
C  47.61300 24.00400 31.65400
C  48.40400 23.62800 34.11100
C  46.78300 26.93800 33.80200
C  47.25200 27.79300 35.02300
H  46.18800 28.05500 36.06900
N  47.17800 23.11800 28.74500
C  47.02400 22.36100 29.85800
C  46.48500 21.09200 29.38800
C  46.60700 21.01400 27.98400
C  47.05100 22.34500 27.62000
C  45.97200 20.12700 30.40800
C  46.33600 19.85800 27.04700
O  46.57000 19.89100 25.85100
C  45.73400 18.63400 27.61000
N  48.06700 25.08800 26.60000
C  47.86200 23.99500 25.82100
C  48.26100 24.24900 24.38100
C  48.69900 25.80900 24.40100
C  48.60700 26.13000 25.84200
C  49.37900 23.33400 23.84300
C  47.74100 26.77700 23.64400
C  48.36400 28.11700 23.03900
N  48.55000 27.08900 28.72700
C  49.05500 27.86100 27.68100
C  49.54300 29.08900 28.18800
C  49.42500 28.94400 29.58400
C  48.79900 27.73800 29.87300
C  50.23900 30.16500 27.43000
C  49.67800 29.71800 30.81600
O  50.26800 30.79100 31.07700
C  49.17400 28.70900 31.93300
C  50.28600 28.38500 32.85500
O  51.10700 27.47600 32.76500
O  50.16900 29.15300 33.93700
C  51.16400 28.80200 35.02900
H  46.97100 22.03900 31.94200
H  47.20200 22.09000 25.48400
H  49.37200 28.05900 25.59800
H  48.83800 26.12500 33.56200
H  46.45300 24.31800 33.41300
H  47.83200 23.49800 35.03000
H  49.34500 24.13700 34.32200
H  48.57900 22.62400 33.72600
H  45.86300 26.45700 34.13500
H  46.56300 27.62400 32.98400
H  47.58100 28.78600 34.71400
H  48.08800 27.30000 35.51900
H  44.94900 19.88900 30.11500
H  45.91500 20.36900 31.46900
H  46.57400 19.22400 30.50500
H  46.42100 17.86500 27.96200
H  45.36700 18.04500 26.77000
H  44.92000 18.83900 28.30500
H  47.37600 24.24200 23.74500
H  49.73100 26.01200 24.11500
H  49.51600 22.39900 24.38700
H  50.34300 23.82800 23.72400
H  49.23400 23.08100 22.79200
H  47.01000 27.08200 24.39300
H  47.17000 26.24400 22.88500
H  47.75000 28.38500 22.17900
H  49.43200 27.98000 22.87300
H  48.23800 28.87100 23.81600
H  49.53600 30.99700 27.44900
H  50.42200 29.87500 26.39600
H  51.09600 30.55500 27.97900
H  48.38300 29.26700 32.43400
H  52.20400 28.66800 34.73200
H  50.98500 27.85100 35.53100
H  51.19200 29.64200 35.72300
Mg -12.88400 38.42000 42.84900
C  -10.98600 35.90200 41.27300
C  -11.09900 40.76000 41.15200
C  -15.18800 40.78100 43.66200
C  -15.15200 35.83900 44.02500
N  -11.22900 38.26400 41.37800
C  -10.53300 37.14300 40.89900
C  -9.22700 37.54900 40.09300
C  -9.37500 39.11600 40.06200
C  -10.65700 39.42100 40.89000
C  -8.05600 39.92100 40.47800
C  -9.06600 36.80000 38.71100
C  -7.98100 35.76300 38.64300
H  -6.77900 36.01000 37.68300
N  -13.02300 40.48100 42.61700
C  -12.23600 41.26900 41.78600
C  -12.70100 42.66600 41.89400
C  -13.86400 42.76500 42.68400
C  -14.04300 41.26900 43.02800
C  -11.88200 43.83900 41.38800
C  -14.66600 43.99900 43.05500
O  -14.29900 45.03600 42.56400
C  -15.81600 43.94500 43.99300
N  -14.91500 38.33400 43.69600
C  -15.59500 39.44900 43.96300
C  -16.90600 39.14600 44.75400
C  -16.85500 37.61000 45.00200
C  -15.59000 37.21700 44.17100
C  -17.15300 40.05800 46.01800
C  -18.25300 36.99700 44.42100
C  -18.81600 35.87100 45.19900
N  -13.02800 36.37700 42.77400
C  -13.96500 35.51500 43.34400
C  -13.50700 34.13300 43.18200
C  -12.40800 34.25400 42.31100
C  -12.13600 35.62100 42.06700
C  -14.10800 32.93300 43.65100
C  -11.35900 33.48000 41.57100
O  -11.27000 32.30500 41.41500
C  -10.37900 34.50900 40.83900
C  -9.03100 34.27000 41.29700
O  -8.39100 33.35100 40.84200
O  -8.65300 35.16700 42.28100
C  -7.40700 34.80300 43.09200
H  -10.50800 41.58300 40.74500
H  -15.99400 41.46600 43.93300
H  -15.86300 35.04100 44.24900
H  -8.39700 37.24100 40.72900
H  -9.63800 39.42900 39.05200
H  -7.41700 39.12200 40.85600
H  -8.23700 40.69500 41.22400
H  -7.69200 40.24400 39.50300
H  -8.75600 37.57500 38.01000
H  -10.02600 36.34500 38.46700
H  -8.32900 34.75700 38.40800
H  -7.54600 35.56900 39.62400
H  -10.88000 43.42800 41.25900
H  -11.91400 44.76500 41.96300
H  -12.20100 44.17100 40.40100
H  -16.59900 43.69300 43.27900
H  -15.90700 44.96000 44.38000
H  -15.69600 43.30400 44.86700
H  -17.66500 39.40600 44.01700
H  -16.71800 37.41500 46.06600
H  -16.26100 40.48000 46.48100
H  -17.61000 39.36600 46.72400
H  -17.80300 40.90200 45.78600
H  -18.21000 36.79000 43.35200
H  -19.06300 37.71600 44.54800
H  -18.32800 35.67800 46.15400
H  -18.73300 34.95000 44.62300
H  -19.87600 35.97600 45.42800
H  -13.70600 32.01500 43.22100
H  -15.14000 32.99300 43.30800
H  -14.16600 32.80600 44.73200
H  -10.41200 34.28500 39.77300
H  -7.31300 35.33900 44.03700
H  -6.49600 35.06900 42.55700
H  -7.17200 33.78700 43.40800

