158

Mg 0.02700 7.99000 26.73800
C  0.84600 9.79600 29.64900
C  -0.22900 5.18900 28.70000
C  -0.11900 6.12900 23.80100
C  0.59200 10.80600 24.93500
N  0.40300 7.52400 28.95400
C  0.44800 8.43300 29.93900
C  0.15400 7.87500 31.32000
C  0.19900 6.33500 31.04300
C  0.18400 6.29800 29.46800
C  1.42600 5.65300 31.72500
C  -1.22500 8.44800 31.79100
C  -1.29200 9.06700 33.15100
H  -0.23200 8.84500 34.23000
N  -0.25700 5.93500 26.31300
C  -0.27300 4.94100 27.23900
C  -0.59800 3.62600 26.62400
C  -0.50800 3.85300 25.18400
C  -0.28500 5.37600 25.02900
C  -0.93100 2.37900 27.36600
C  -0.47600 2.89600 23.94900
O  -0.28200 3.22800 22.81000
C  -0.77700 1.35600 24.12100
N  0.49200 8.38300 24.62300
C  0.13300 7.48800 23.59200
C  0.10800 8.18200 22.23000
C  0.23400 9.74600 22.70000
C  0.41900 9.67000 24.20500
C  1.23200 7.68200 21.28200
C  -1.03200 10.61000 22.25800
C  -0.66800 11.75100 21.31600
N  0.59900 9.94700 27.12700
C  0.83000 10.99700 26.28300
C  1.23600 12.16000 27.02900
C  1.26500 11.75800 28.38000
C  0.93000 10.40100 28.36700
C  1.45200 13.52800 26.53500
C  1.61400 12.12900 29.71400
O  2.20200 13.10800 30.06300
C  1.24600 10.88200 30.61700
C  2.35700 10.45100 31.50600
O  3.11600 9.51200 31.40700
O  2.43100 11.35000 32.48700
C  3.69200 11.31300 33.19200
H  -0.24900 4.26900 29.28800
H  -0.19900 5.62800 22.83400
H  0.60900 11.74000 24.36900
H  0.92800 8.16400 32.03100
H  -0.74200 5.93700 31.42200
H  2.37800 5.86700 31.23900
H  1.20300 4.58900 31.65000
H  1.50000 5.94900 32.77200
H  -1.99100 7.67300 31.82700
H  -1.54100 9.17700 31.04500
H  -2.27800 8.76700 33.50700
H  -1.35600 10.13500 32.94200
H  -0.03700 1.81200 27.62600
H  -1.57000 1.84700 26.66100
H  -1.52200 2.55800 28.26400
H  -0.88200 0.90000 23.13700
H  -1.62000 1.08600 24.75700
H  0.12700 1.05500 24.65200
H  -0.82000 7.90100 21.73200
H  1.14600 10.21400 22.32800
H  1.93900 7.07800 21.85000
H  1.88100 8.42800 20.82500
H  0.82600 7.15600 20.41800
H  -1.43200 10.99700 23.19500
H  -1.79100 10.05400 21.70800
H  -1.50300 11.91800 20.63500
H  0.30900 11.73700 20.83300
H  -0.71800 12.67100 21.89700
H  2.53000 13.67100 26.46100
H  1.06100 14.27200 27.22800
H  0.92100 13.65800 25.59200
H  0.39700 11.14800 31.24600
H  4.46400 11.15400 32.43900
H  3.88500 10.48400 33.87300
H  3.90600 12.30400 33.59200
Mg 42.25700 41.11700 25.84200
C  41.42800 43.45900 28.44300
C  43.65200 39.17900 28.38800
C  43.41000 39.15400 23.49600
C  41.85300 43.70700 23.62700
N  42.48500 41.37100 28.09700
C  42.00700 42.33300 28.93800
C  42.07300 41.95700 30.45700
C  42.95200 40.62600 30.40100
C  43.06700 40.34000 28.83800
C  44.30700 40.62700 31.16300
C  40.62100 41.75300 31.12800
C  40.22900 42.85000 32.15900
H  39.56300 42.30700 33.41300
N  43.31800 39.41300 25.92700
C  43.71000 38.65600 27.02100
C  44.26000 37.41600 26.58800
C  44.13100 37.36800 25.12500
C  43.53500 38.69300 24.78100
C  44.89100 36.41800 27.53200
C  44.60200 36.27900 24.21100
O  44.41400 36.23800 23.02800
C  45.34300 35.16000 24.72800
N  42.57900 41.42200 23.87800
C  42.95200 40.40200 23.03100
C  42.79400 40.70700 21.53200
C  42.60200 42.28000 21.64000
C  42.39700 42.53900 23.14500
C  43.98600 40.33800 20.71100
C  41.43400 42.71600 20.71400
C  41.65000 44.13500 20.03100
N  41.57900 43.14500 25.94500
C  41.52600 44.06100 24.91300
C  41.16600 45.38400 25.47300
C  41.09400 45.10500 26.83300
C  41.41400 43.78500 27.07300
C  40.88400 46.69000 24.77300
C  40.71400 45.80100 28.08700
O  40.24400 46.95500 28.30400
C  40.88100 44.66500 29.18100
C  41.87200 45.23600 30.13100
O  43.05000 45.37800 29.87200
O  41.29200 45.70700 31.23500
C  42.02900 46.40700 32.24700
H  44.15400 38.66900 29.21300
H  43.60000 38.44000 22.69200
H  41.72000 44.48900 22.87600
H  42.63800 42.70000 31.02000
H  42.36100 39.79300 30.78000
H  45.16900 40.57800 30.49800
H  44.33000 39.76800 31.83400
H  44.46400 41.49400 31.80500
H  40.64500 40.84500 31.73100
H  39.78800 41.66200 30.43100
H  39.52400 43.60300 31.80800
H  41.11500 43.43300 32.41300
H  44.43300 35.42900 27.54900
H  44.93800 36.78300 28.55800
H  45.89900 36.29500 27.13700
H  46.32000 35.52900 25.04000
H  45.50600 34.30400 24.07400
H  44.97000 34.72900 25.65700
H  41.90900 40.20900 21.13500
H  43.53600 42.81500 21.47000
H  43.73500 39.46100 20.11400
H  44.87900 40.22900 21.32700
H  44.24500 41.09300 19.96900
H  40.60200 42.89300 21.39500
H  41.36700 41.94400 19.94600
H  40.68000 44.25400 19.54800
H  42.40600 44.11000 19.24700
H  41.72900 44.97500 20.72100
H  41.66600 47.19700 24.20800
H  40.75800 47.38600 25.60200
H  39.98700 46.65300 24.15500
H  39.90600 44.60300 29.66500
H  42.42500 45.67100 32.94700
H  41.42600 47.12400 32.80500
H  42.88300 46.95800 31.85200

