158

Mg 0.80100 7.48600 25.11100
C  1.24800 8.69200 28.38100
C  1.39500 4.25900 26.38900
C  0.67500 6.04800 21.94400
C  0.99800 10.60000 23.82300
N  1.26000 6.57500 27.10700
C  1.26500 7.28800 28.32200
C  1.52800 6.28200 29.47400
C  1.70200 4.94100 28.77400
C  1.54300 5.26000 27.33300
C  3.10400 4.26400 28.98400
C  0.46900 6.32900 30.58300
C  1.01300 6.32600 31.96400
H  2.07200 5.31500 32.37800
N  0.84900 5.49200 24.29200
C  1.04500 4.34700 24.99000
C  0.91400 3.20200 24.14400
C  0.66000 3.72300 22.86400
C  0.72500 5.17400 23.00600
C  0.84100 1.82700 24.61600
C  0.46000 2.88400 21.61500
O  0.29100 3.32300 20.46200
C  0.37300 1.31600 21.52900
N  0.93500 8.17500 23.15500
C  0.65800 7.47600 22.07200
C  0.31500 8.40700 20.86700
C  0.43400 9.78800 21.51600
C  0.80900 9.52100 22.90600
C  1.29700 8.17400 19.63300
C  -0.90600 10.62900 21.49300
C  -0.91300 11.96500 20.69800
N  1.16700 9.25800 25.88700
C  1.23700 10.51100 25.24000
C  1.43300 11.50600 26.21400
C  1.41400 10.87400 27.49400
C  1.23000 9.51800 27.22000
C  1.52000 13.02100 25.90700
C  1.41700 11.09000 28.91100
O  1.58500 12.09300 29.67700
C  1.34400 9.62900 29.48900
C  2.59600 9.47700 30.29000
O  3.61700 8.97300 29.93400
O  2.42300 9.99400 31.58700
C  3.56100 9.82200 32.52600
H  1.63300 3.23300 26.67500
H  0.58900 5.63000 20.93900
H  0.84800 11.58300 23.37000
H  2.47500 6.63100 29.88700
H  0.97800 4.21700 29.14800
H  3.57800 4.83900 29.77900
H  3.82200 4.38600 28.17300
H  3.07600 3.24000 29.35700
H  -0.18300 5.45700 30.53400
H  -0.11800 7.24500 30.51500
H  0.23100 6.24900 32.72000
H  1.35400 7.34600 32.13700
H  -0.09200 1.35800 24.30500
H  0.94100 1.61900 25.68100
H  1.70100 1.30300 24.19800
H  1.05500 0.77400 22.18400
H  0.47200 0.96600 20.50100
H  -0.65200 1.19400 21.87800
H  -0.67800 8.12200 20.52200
H  1.24900 10.32700 21.03100
H  2.09100 7.43600 19.74500
H  1.67600 9.14900 19.32500
H  0.73200 7.93100 18.73300
H  -1.11600 10.84500 22.54000
H  -1.70500 9.96500 21.16500
H  -1.38600 11.94600 19.71600
H  0.12800 12.25600 20.56100
H  -1.37900 12.73900 21.30700
H  1.25000 13.71000 26.70700
H  0.73000 13.17600 25.17200
H  2.48100 13.35700 25.51800
H  0.54200 9.58600 30.22600
H  3.50300 10.51700 33.36300
H  4.52100 9.94900 32.02500
H  3.54000 8.83600 32.99100
Mg -5.63200 25.43600 26.31000
C  -4.19600 26.65700 29.18500
C  -7.54900 23.40800 28.04800
C  -6.49000 24.05500 23.36600
C  -3.35900 27.54100 24.41300
N  -5.75000 25.07200 28.38600
C  -5.17800 25.69200 29.43700
C  -5.78300 25.27300 30.79000
C  -6.62600 24.01700 30.36200
C  -6.64700 24.15000 28.88100
C  -6.05100 22.67100 30.85600
C  -6.57700 26.45300 31.38700
C  -6.41200 26.73400 32.86600
H  -5.91400 25.50000 33.73600
N  -6.83700 23.92400 25.78300
C  -7.64700 23.23100 26.65700
C  -8.62100 22.37000 25.91800
C  -8.23000 22.49100 24.55300
C  -7.14500 23.52900 24.49700
C  -9.86800 21.77500 26.61200
C  -8.83400 21.76800 23.31900
O  -8.41100 21.99900 22.17200
C  -9.99700 20.73700 23.48800
N  -4.74800 25.54800 24.19700
C  -5.47700 24.98000 23.17600
C  -5.00700 25.46600 21.80500
C  -4.22300 26.74900 22.16400
C  -4.09100 26.61300 23.64900
C  -4.10000 24.43200 20.99400
C  -5.06100 28.08200 21.79800
C  -4.10400 29.18600 21.30800
N  -4.15600 26.86600 26.65800
C  -3.31200 27.59200 25.85600
C  -2.50300 28.48900 26.61600
C  -2.74700 28.12700 27.95300
C  -3.78500 27.13700 27.85600
C  -1.44100 29.50000 26.00800
C  -2.40600 28.28100 29.34500
O  -1.59900 29.01600 29.90800
C  -3.38900 27.37800 30.15000
C  -2.53900 26.50100 31.03800
O  -1.98200 25.46000 30.67700
O  -2.51600 27.03200 32.30900
C  -1.83000 26.11500 33.29900
H  -8.27000 22.88800 28.68300
H  -7.04200 23.71900 22.48500
H  -2.73200 28.19700 23.80700
H  -4.91700 25.10300 31.42800
H  -7.61700 24.11800 30.80300
H  -5.71100 22.78800 31.88500
H  -5.37200 22.25500 30.11100
H  -6.75100 21.83600 30.88100
H  -7.64100 26.41200 31.15600
H  -6.15600 27.31500 30.87100
H  -7.43200 26.95500 33.18100
H  -5.77100 27.58000 33.11200
H  -9.44200 20.94400 27.17400
H  -10.69300 21.48600 25.96100
H  -10.34500 22.51500 27.25400
H  -9.89600 20.01000 24.29400
H  -10.13000 20.23400 22.53000
H  -10.91200 21.32400 23.55900
H  -5.94600 25.53000 21.25500
H  -3.20300 26.75700 21.78000
H  -4.67000 24.11800 20.12000
H  -3.90300 23.64800 21.72500
H  -3.13100 24.82900 20.69100
H  -5.58500 28.51500 22.65000
H  -5.83400 27.95000 21.04100
H  -4.46400 29.53700 20.34100
H  -3.08200 28.84500 21.14100
H  -4.03400 30.00200 22.02700
H  -1.68900 30.49800 26.36700
H  -1.34200 29.44500 24.92400
H  -0.50600 29.28800 26.52700
H  -4.02000 27.93200 30.84500
H  -0.79700 25.93400 33.00300
H  -2.29800 25.13100 33.25900
H  -1.96700 26.57800 34.27700

