158

Mg 26.20300 0.89700 28.98800
C  28.28600 0.74900 31.98600
C  23.48700 0.70200 31.24600
C  24.34600 0.93300 26.44300
C  29.02600 0.26900 27.11500
N  26.01900 0.80100 31.34900
C  26.93700 0.90900 32.31000
C  26.38100 0.98300 33.74700
C  24.81600 0.87700 33.48300
C  24.72000 0.91300 31.94800
C  24.04400 -0.32300 34.24200
C  26.83000 2.16300 34.60000
C  27.38400 1.93300 35.97100
H  27.05800 2.89100 37.13900
N  24.19200 0.86400 28.83400
C  23.22000 0.78200 29.87000
C  21.96700 1.02000 29.24900
C  22.13900 1.10200 27.84100
C  23.57600 0.91000 27.62800
C  20.66800 1.17900 30.00600
C  21.05300 1.44100 26.70100
O  21.42100 1.25500 25.57600
C  19.61700 1.76800 26.96500
N  26.65700 0.52400 27.09300
C  25.70400 0.72300 26.16200
C  26.27500 0.83700 24.73200
C  27.74000 0.51700 24.91800
C  27.84400 0.40600 26.45500
C  25.64800 -0.09800 23.61600
C  28.73900 1.55500 24.36100
C  28.76400 1.63000 22.88500
N  28.29700 0.55000 29.38000
C  29.30300 0.23800 28.50100
C  30.51400 0.13800 29.21500
C  30.25000 0.35100 30.56100
C  28.85700 0.64000 30.64000
C  31.79900 -0.25300 28.73900
C  30.79600 0.48000 31.91800
O  31.94900 0.31500 32.29200
C  29.53000 0.69800 32.93100
C  29.39500 -0.33400 33.96800
O  28.91800 -1.44000 33.85800
O  29.95100 0.08400 35.15800
C  29.97100 -0.81800 36.37400
H  22.59900 0.64300 31.87900
H  23.68800 0.94900 25.57200
H  29.90600 0.14600 26.48100
H  26.70500 0.13700 34.35400
H  24.30400 1.75200 33.88100
H  22.98500 -0.06900 34.27800
H  24.49000 -0.45500 35.22800
H  24.05100 -1.30400 33.76500
H  25.99000 2.82700 34.80200
H  27.53000 2.78300 34.04100
H  28.45500 1.74100 35.90400
H  26.91800 0.98000 36.22100
H  19.97200 0.37300 29.77300
H  20.20700 2.09300 29.63100
H  20.63800 1.34800 31.08300
H  19.46800 2.66200 27.57000
H  19.16300 0.86800 27.38000
H  19.10400 1.96400 26.02300
H  26.18900 1.88000 24.42600
H  27.95500 -0.45600 24.47700
H  24.96000 -0.69500 24.21500
H  26.32400 -0.83800 23.19000
H  25.07100 0.46800 22.88400
H  29.76700 1.39600 24.68700
H  28.45100 2.56600 24.65100
H  28.40000 2.59900 22.54600
H  28.13200 0.88300 22.40500
H  29.76700 1.42400 22.50900
H  31.68800 -1.32900 28.60400
H  32.56400 0.02800 29.46300
H  32.19600 0.22700 27.84500
H  29.67300 1.65100 33.44100
H  29.41000 -0.35100 37.18300
H  31.01200 -0.94900 36.67100
H  29.53200 -1.78800 36.13800
Mg 47.13200 35.10600 26.46900
C  45.36800 33.44300 28.91400
C  47.65700 37.77800 28.71000
C  48.74500 36.82000 24.02400
C  45.97500 32.83600 24.00000
N  46.67900 35.49700 28.56500
C  46.15900 34.51300 29.40600
C  46.12700 35.02300 30.78300
C  46.34200 36.59600 30.64300
C  46.97600 36.64500 29.24200
C  44.99000 37.36900 30.87300
C  47.19400 34.25900 31.65100
C  46.92000 34.45700 33.19100
H  45.79400 35.35100 33.80700
N  48.13700 36.94700 26.37600
C  48.21500 37.89900 27.43300
C  49.04300 38.98400 26.99200
C  49.35600 38.78500 25.64000
C  48.84700 37.41900 25.30400
C  49.42100 40.18600 27.83000
C  50.11300 39.69500 24.56000
O  50.38200 39.27300 23.49800
C  50.66700 41.07700 24.98800
N  47.18300 34.91100 24.31100
C  48.08100 35.64300 23.56400
C  48.30600 34.99000 22.14300
C  47.36800 33.80700 22.11600
C  46.84000 33.84700 23.52100
C  48.14200 35.97400 20.92900
C  47.90400 32.48200 21.65800
C  46.99800 31.81300 20.63600
N  45.93300 33.49600 26.44500
C  45.54600 32.65400 25.34300
C  44.76500 31.60800 25.88100
C  44.61500 31.90900 27.30400
C  45.32900 33.03800 27.54200
C  44.28100 30.36600 25.17600
C  44.02000 31.43300 28.58700
O  43.37400 30.43700 28.77100
C  44.36900 32.60200 29.63200
C  44.96300 31.84600 30.79600
O  45.92500 31.07600 30.72100
O  44.25400 32.09800 31.93800
C  44.75400 31.29300 33.10900
H  47.81300 38.54800 29.46800
H  49.33400 37.17700 23.17600
H  45.62700 32.02600 23.35500
H  45.11600 34.79800 31.12300
H  47.07400 37.05700 31.30600
H  44.13800 36.71700 31.06300
H  44.79800 37.85800 29.91700
H  45.14400 38.11500 31.65200
H  48.17600 34.69800 31.47400
H  47.23800 33.18500 31.47000
H  47.87700 34.84700 33.53700
H  46.83400 33.44400 33.58300
H  50.49800 40.07700 27.95400
H  48.98200 40.13200 28.82700
H  49.08400 41.09400 27.33000
H  51.12400 40.99700 25.97400
H  50.02300 41.95400 24.92400
H  51.36800 41.35300 24.20100
H  49.32600 34.60500 22.13900
H  46.52000 34.13300 21.51300
H  47.53400 35.45400 20.18800
H  49.09700 36.27600 20.49900
H  47.61200 36.88900 21.19400
H  48.15500 31.79200 22.46400
H  48.82000 32.83000 21.18100
H  47.50800 32.04900 19.70200
H  45.97600 32.18500 20.56500
H  47.03500 30.74400 20.84500
H  43.22400 30.47100 24.93200
H  44.39100 29.63400 25.97700
H  44.91000 30.20500 24.30100
H  43.52900 33.19700 29.99000
H  44.10900 31.45900 33.97200
H  45.75800 31.66700 33.30800
H  44.61600 30.22000 32.97600

