158

Mg 47.59600 16.50400 28.63100
C  45.60400 16.26200 31.57400
C  49.81100 18.33200 30.50800
C  49.23200 17.02700 25.81700
C  45.04500 14.66500 26.89800
N  47.69200 17.20400 30.80100
C  46.76600 17.00300 31.78800
C  47.18500 17.60700 33.12300
C  48.41500 18.53500 32.74500
C  48.74300 17.95900 31.27500
C  48.17400 20.09900 32.75400
C  47.36900 16.47800 34.20300
C  46.83100 16.82400 35.57200
H  46.65200 18.34100 35.92500
N  49.33300 17.46300 28.25200
C  50.15100 18.16400 29.07500
C  51.40300 18.53900 28.43100
C  51.21800 18.16200 27.06200
C  49.87200 17.58000 26.96800
C  52.53400 19.22000 29.20000
C  52.24100 18.17000 25.95800
O  52.01000 17.83700 24.83200
C  53.66600 18.59000 26.27900
N  47.21600 15.87900 26.64100
C  48.09900 16.21800 25.66500
C  47.64100 15.68300 24.33900
C  46.26900 14.89900 24.66500
C  46.13300 15.16000 26.14300
C  47.29500 16.74200 23.27700
C  46.23100 13.35900 24.16600
C  45.08100 12.94200 23.21500
N  45.68800 15.61600 29.13700
C  44.83100 14.90400 28.29200
C  43.61600 14.67900 29.00200
C  43.85900 15.13300 30.33000
C  45.17100 15.71600 30.33400
C  42.33900 14.07600 28.44300
C  43.32700 15.33200 31.65600
O  42.25100 14.87300 32.10800
C  44.39500 16.04000 32.49900
C  43.74600 17.22400 33.04100
O  43.73300 18.30800 32.44000
O  43.04800 16.93600 34.18700
C  42.11100 17.91100 34.74500
H  50.48200 18.94000 31.11800
H  49.68100 17.26300 24.85000
H  44.29200 14.14900 26.29900
H  46.36100 18.25600 33.41800
H  49.27900 18.30100 33.36800
H  47.25500 20.50900 33.17200
H  48.26300 20.47800 31.73600
H  48.98700 20.45900 33.38600
H  48.43800 16.32200 34.34300
H  46.88500 15.54500 33.91500
H  47.47700 16.43000 36.35600
H  45.79800 16.48900 35.65600
H  52.15200 19.87500 29.98300
H  53.03400 19.82500 28.44400
H  53.31600 18.56900 29.59200
H  54.17000 18.14600 27.13800
H  53.64200 19.67900 26.32100
H  54.27000 18.29300 25.42200
H  48.44900 15.08600 23.91600
H  45.39400 15.45900 24.33500
H  47.70400 17.67800 23.66000
H  46.25200 16.88700 22.99800
H  47.87700 16.42600 22.41100
H  46.08500 12.65700 24.98700
H  47.24000 13.32900 23.75600
H  45.72800 12.72300 22.36600
H  44.34400 13.71700 23.00000
H  44.59600 12.04900 23.60900
H  42.18600 13.05900 28.80600
H  42.37400 13.99100 27.35700
H  41.45900 14.68600 28.64400
H  44.67100 15.37400 33.31600
H  42.55500 18.90700 34.74000
H  41.69800 17.71500 35.73400
H  41.32700 17.97300 33.99000
Mg 0.99700 42.29200 25.68300
C  2.49900 42.17800 28.95700
C  -1.85600 41.10800 27.02500
C  -0.11900 41.69100 22.56400
C  4.24700 43.13100 24.47300
N  0.38300 41.81700 27.72700
C  1.16200 41.87400 28.92400
C  0.31000 41.46800 30.11800
C  -1.05600 40.94800 29.44800
C  -0.86000 41.36400 27.99700
C  -1.21000 39.35600 29.38600
C  0.13000 42.69800 31.02700
C  -0.18500 42.41400 32.53200
H  -0.56600 40.97000 32.94700
N  -0.78800 41.65800 24.87200
C  -1.89700 41.23400 25.65100
C  -3.03500 40.99300 24.72200
C  -2.50800 41.33400 23.40900
C  -1.06000 41.51800 23.57100
C  -4.34800 40.49400 25.11900
C  -3.23300 41.26000 22.07500
O  -2.67700 41.31100 20.99500
C  -4.79500 41.25100 22.04100
N  1.95000 42.42500 23.82300
C  1.20300 42.21400 22.66900
C  2.09600 42.46400 21.35500
C  3.28000 43.34800 21.97000
C  3.23300 42.92100 23.51900
C  2.56100 41.13400 20.63900
C  3.16800 44.87700 21.61800
C  3.38100 45.27100 20.16700
N  2.99400 42.49800 26.50200
C  4.21700 42.92400 25.83800
C  5.22500 43.15000 26.87200
C  4.58900 42.81300 28.09500
C  3.24000 42.45400 27.78700
C  6.59000 43.67000 26.64300
C  4.79400 42.79600 29.55900
O  5.76600 43.03100 30.26100
C  3.44600 42.14100 30.15900
C  3.73600 40.85500 30.69200
O  4.19500 39.89600 30.04800
O  3.33300 40.80400 31.97300
C  3.09800 39.43200 32.51000
H  -2.82900 40.72200 27.33800
H  -0.44900 41.70100 21.52300
H  5.18700 43.56000 24.11800
H  0.81400 40.60200 30.54600
H  -1.90700 41.47500 29.88000
H  -0.98500 39.07300 28.35800
H  -2.24800 39.02600 29.39400
H  -0.61100 38.80000 30.10800
H  -0.67500 43.13600 30.43800
H  0.95900 43.34900 30.74900
H  -0.90100 43.22500 32.67100
H  0.75400 42.60700 33.05000
H  -4.54900 39.66900 24.43600
H  -5.08800 41.26500 24.90300
H  -4.39800 40.22900 26.17500
H  -5.15300 40.22600 22.13900
H  -4.99100 41.61100 21.03100
H  -5.15800 41.93400 22.80800
H  1.52000 43.01800 20.61300
H  4.21900 43.05200 21.50300
H  3.64000 40.98200 20.67000
H  2.19200 41.30900 19.62900
H  1.94400 40.32300 21.02800
H  3.82900 45.44500 22.27300
H  2.15900 45.16100 21.91800
H  3.24900 44.37800 19.55700
H  4.29200 45.85900 20.05500
H  2.63400 45.93700 19.73500
H  6.62100 44.51600 25.95600
H  7.23500 42.86300 26.29500
H  7.05400 44.13600 27.51100
H  3.17100 42.92300 30.86700
H  2.13000 39.05500 32.18200
H  3.01100 39.71400 33.55900
H  3.97300 38.81300 32.31000

