158

Mg 42.98500 41.64900 25.81300
C  42.24900 43.84900 28.32600
C  44.20300 39.51700 28.01800
C  43.89000 39.82700 23.10800
C  41.87500 44.17300 23.39300
N  43.28600 41.75100 27.92000
C  42.86500 42.70400 28.79400
C  42.92600 42.24800 30.25600
C  43.71700 40.85700 30.13600
C  43.75600 40.72000 28.59200
C  45.07600 40.79400 30.92800
C  41.52300 42.15800 30.90000
C  41.51700 41.54700 32.29600
H  41.00500 42.28100 33.55700
N  43.91400 39.91800 25.63200
C  44.27100 39.15900 26.67200
C  44.70400 37.83000 26.15800
C  44.56300 37.92100 24.75200
C  44.10500 39.29600 24.41000
C  45.10400 36.78400 27.10200
C  44.76900 36.77600 23.76700
O  44.58600 36.96600 22.56100
C  45.20800 35.43100 24.25800
N  42.81800 42.01700 23.54200
C  43.39200 41.04600 22.70200
C  43.33100 41.53000 21.21400
C  42.47100 42.85700 21.36200
C  42.37300 43.03300 22.87600
C  44.77500 41.81000 20.57300
C  41.02000 42.72500 20.72600
C  40.08200 41.69900 21.48200
N  42.29600 43.65500 25.80600
C  41.79200 44.49600 24.78900
C  41.32100 45.73700 25.38900
C  41.44900 45.56100 26.80400
C  42.03300 44.26600 26.97000
C  40.80900 46.90500 24.60600
C  41.25900 46.10700 28.09200
O  40.84600 47.21500 28.40700
C  41.85200 45.04800 29.15300
C  42.88600 45.64900 29.94200
O  43.89400 46.23100 29.57300
O  42.52100 45.37600 31.26700
C  43.50500 45.82200 32.35000
H  44.47700 38.77200 28.76700
H  44.13700 39.18600 22.25900
H  41.52200 44.98100 22.74800
H  43.52600 42.94700 30.83800
H  43.10700 40.03400 30.50800
H  45.28300 41.72600 31.45400
H  45.83600 40.52800 30.19400
H  44.97200 40.01800 31.68600
H  40.83600 41.60200 30.26200
H  41.08600 43.11700 31.18100
H  42.50500 41.14300 32.51700
H  40.88900 40.65700 32.28200
H  45.30000 37.12400 28.11900
H  46.05700 36.37700 26.76400
H  44.48100 35.89000 27.06600
H  44.44500 34.95000 24.87000
H  46.14400 35.60200 24.78800
H  45.33100 34.78100 23.39100
H  42.90600 40.78800 20.53800
H  42.97100 43.76400 21.02000
H  44.98000 42.88100 20.55600
H  44.81700 41.32900 19.59600
H  45.51700 41.32700 21.20900
H  41.14100 42.51600 19.66300
H  40.51500 43.69100 20.71000
H  39.31300 42.24000 22.03200
H  40.59600 41.07700 22.21600
H  39.60400 41.06800 20.73300
H  40.25700 46.62400 23.70900
H  41.64200 47.52500 24.27400
H  40.11900 47.47200 25.23200
H  40.91800 44.81400 29.66300
H  44.42000 46.32900 32.04100
H  43.89300 44.87400 32.72200
H  42.97600 46.39400 33.11200
Mg 0.77500 43.02600 26.64100
C  3.34000 42.99900 29.09100
C  -1.54300 42.48600 28.97200
C  -1.28700 42.70600 24.02900
C  3.44700 43.40300 24.37900
N  0.96000 42.93900 28.76600
C  2.06900 42.93500 29.63100
C  1.62400 42.97600 31.08100
C  0.12500 42.59400 31.02100
C  -0.20000 42.54000 29.48700
C  -0.33600 41.24300 31.81800
C  1.94600 44.39600 31.67200
C  2.11100 44.54200 33.16900
H  1.63300 43.44400 34.09600
N  -1.11900 42.56600 26.49600
C  -1.93000 42.32900 27.58100
C  -3.27800 42.06100 27.02100
C  -3.28700 42.18600 25.61100
C  -1.86200 42.52300 25.32200
C  -4.48400 41.65900 27.85600
C  -4.44100 42.03500 24.57600
O  -4.24000 41.88700 23.36300
C  -5.75800 41.62400 25.15300
N  0.98000 43.11300 24.52600
C  -0.00500 42.85600 23.64100
C  0.41500 42.87400 22.16100
C  1.94100 43.23200 22.32500
C  2.12300 43.32800 23.83100
C  0.15800 41.60400 21.39400
C  2.31100 44.62700 21.70700
C  2.11300 45.96700 22.59100
N  2.96200 43.30000 26.64600
C  3.88700 43.35700 25.64300
C  5.25800 43.35700 26.17400
C  5.09400 43.09300 27.50800
C  3.70700 43.21700 27.74900
C  6.40500 43.59200 25.40200
C  5.73800 42.77700 28.80400
O  6.94800 42.52900 29.02500
C  4.66900 42.92200 29.86800
C  4.95500 41.83400 30.84000
O  4.74200 40.61200 30.66800
O  5.43000 42.35900 32.02800
C  5.81500 41.40600 33.08900
H  -2.31200 42.14300 29.66800
H  -1.93800 42.57600 23.16300
H  4.24600 43.53700 23.64700
H  2.30700 42.24100 31.50800
H  -0.49600 43.38200 31.44900
H  -1.07200 41.57000 32.55200
H  0.52500 40.84400 32.35400
H  -0.81400 40.54200 31.13200
H  1.01400 44.87800 31.37700
H  2.75600 44.90100 31.14600
H  1.62000 45.41800 33.59300
H  3.19000 44.61600 33.31000
H  -5.17200 42.47100 28.09000
H  -4.15200 41.21600 28.79500
H  -5.10900 40.86000 27.45600
H  -5.71300 40.57500 25.44500
H  -6.41800 41.60700 24.28600
H  -6.11500 42.25000 25.97000
H  -0.03300 43.71200 21.62600
H  2.63400 42.47200 21.96600
H  -0.45200 41.04400 22.10400
H  1.06200 41.04600 21.15100
H  -0.45000 41.83800 20.52000
H  1.85500 44.93100 20.76500
H  3.38300 44.64400 21.51100
H  1.47800 46.62400 21.99700
H  3.09200 46.39100 22.81600
H  1.60500 45.88900 23.55200
H  7.33700 43.49400 25.95700
H  6.34500 44.45300 24.73500
H  6.45100 42.69300 24.78800
H  4.91100 43.88900 30.30900
H  6.75500 40.89100 32.88900
H  5.00400 40.72400 33.34300
H  5.94400 41.96600 34.01500

