158

Mg 23.92000 -5.55400 45.57400
C  25.93000 -2.99600 44.47000
C  21.34100 -4.00400 43.67300
C  22.19800 -8.26400 45.92900
C  26.59700 -7.02000 47.13000
N  23.70500 -3.75200 44.15600
C  24.70300 -2.93700 43.83700
C  24.37100 -1.90800 42.77700
C  22.83000 -1.96500 42.69400
C  22.60200 -3.37900 43.50900
C  22.05400 -0.86200 43.39600
C  25.16200 -2.01500 41.44500
C  25.43500 -0.64700 40.72300
H  25.17600 -0.57600 39.25000
N  22.01900 -6.08900 44.85300
C  21.06100 -5.28700 44.25200
C  19.78100 -5.96700 44.23700
C  19.96400 -7.29600 44.79500
C  21.36800 -7.20800 45.30400
C  18.47100 -5.40600 43.62800
C  18.92900 -8.38100 44.88700
O  17.77100 -8.16300 44.49800
C  19.30400 -9.83900 45.35100
N  24.39300 -7.53200 46.19200
C  23.50600 -8.48900 46.31500
C  23.99600 -9.63600 47.23500
C  25.40500 -9.22600 47.54400
C  25.46500 -7.86500 46.93500
C  23.11100 -9.99100 48.49200
C  26.47500 -10.21100 46.99800
C  26.85500 -11.29300 47.92000
N  25.88500 -5.11300 45.84600
C  26.83200 -5.74500 46.60600
C  28.03300 -4.91200 46.56800
C  27.66300 -3.87200 45.74600
C  26.37300 -4.02800 45.30700
C  29.38800 -5.21700 47.04600
C  28.23000 -2.65000 45.15200
O  29.30600 -2.12500 45.38500
C  27.12200 -2.04900 44.28000
C  26.75900 -0.71200 44.80700
O  26.02500 -0.48900 45.77400
O  27.46800 0.21300 44.11800
C  27.25600 1.59600 44.35500
H  20.52600 -3.52200 43.12800
H  21.59600 -9.09500 46.30400
H  27.43400 -7.48400 47.65700
H  24.66700 -0.95300 43.21200
H  22.45500 -2.00300 41.67100
H  22.09200 -0.01600 42.71000
H  22.68900 -0.68500 44.26500
H  21.06800 -1.19300 43.72100
H  24.74500 -2.64600 40.66000
H  26.18200 -2.34800 41.63500
H  26.49100 -0.37500 40.73800
H  24.86600 0.17700 41.15400
H  18.55700 -4.54500 42.96500
H  17.95100 -5.16300 44.55400
H  17.94900 -6.17800 43.06200
H  18.37600 -10.35600 45.10600
H  19.24200 -9.75400 46.43600
H  20.25500 -10.27100 45.04000
H  23.91500 -10.33400 46.40200
H  25.59700 -9.13700 48.61400
H  23.79100 -10.39600 49.24300
H  22.36700 -10.66600 48.07000
H  22.41100 -9.21700 48.80500
H  27.36800 -9.68600 46.65700
H  26.13800 -10.73800 46.10500
H  26.14100 -11.22200 48.74000
H  27.88000 -11.20200 48.28200
H  26.59200 -12.26500 47.50400
H  29.86900 -6.00900 46.47100
H  29.28300 -5.54600 48.07900
H  29.99900 -4.31500 47.00200
H  27.47900 -1.94600 43.25600
H  26.68500 2.13600 43.60000
H  28.20200 2.13800 44.34700
H  26.89000 1.75300 45.37000
Mg 36.00900 49.60100 25.19200
C  36.52100 47.55000 27.91900
C  34.71900 51.99500 27.31200
C  35.19000 51.30900 22.44100
C  36.94800 47.02100 23.12800
N  35.50900 49.66500 27.44700
C  35.96200 48.78600 28.36100
C  35.98500 49.50300 29.73900
C  35.19700 50.81600 29.54500
C  35.16300 50.87900 28.01800
C  33.76000 50.79800 30.18100
C  37.40500 49.69400 30.31400
C  37.80100 49.48700 31.76800
H  36.65200 49.56400 32.75500
N  35.10000 51.35500 24.97400
C  34.70900 52.20200 25.91400
C  34.19100 53.46900 25.22400
C  34.31500 53.31200 23.81800
C  34.85600 51.96800 23.69000
C  33.78600 54.63400 26.04200
C  33.94000 54.32800 22.77500
O  34.07900 54.09800 21.57200
C  33.24100 55.59100 23.10900
N  36.10000 49.19900 23.04100
C  35.67000 50.08900 22.08600
C  35.99700 49.54100 20.69000
C  36.91800 48.31500 20.96200
C  36.69500 48.21300 22.49600
C  34.69000 49.24000 19.90400
C  38.41400 48.66300 20.72100
C  39.40500 47.50500 20.88300
N  36.61400 47.58400 25.40400
C  37.02400 46.68200 24.54200
C  37.38900 45.40300 25.11500
C  37.27200 45.73700 26.48900
C  36.72800 47.04200 26.62200
C  37.91800 44.12200 24.42100
C  37.52800 45.31500 27.86300
O  38.05200 44.28400 28.23100
C  37.04600 46.43900 28.82900
C  36.05900 45.86500 29.78700
O  34.84100 45.79100 29.61100
O  36.70300 45.69600 31.01300
C  35.78100 45.48800 32.21900
H  34.38100 52.79300 27.97700
H  34.89000 51.72100 21.47500
H  37.44100 46.23700 22.55000
H  35.53000 48.78100 30.41700
H  35.62600 51.76600 29.86300
H  33.01700 51.10600 29.44500
H  33.86500 51.54200 30.97000
H  33.35700 49.89200 30.63300
H  37.75400 50.71200 30.13900
H  37.96400 49.01700 29.66700
H  38.45700 50.26600 32.15600
H  38.32300 48.53200 31.71500
H  34.36700 55.50800 25.74900
H  33.99300 54.52500 27.10700
H  32.75600 54.98000 25.95200
H  33.19100 56.21400 22.21600
H  33.76500 56.21300 23.83600
H  32.23200 55.32000 23.42300
H  36.56000 50.26400 20.09900
H  36.68800 47.46600 20.31800
H  33.77400 49.54200 20.41100
H  34.64400 48.15300 19.84300
H  34.77300 49.74400 18.94100
H  38.61600 49.48600 21.40600
H  38.59400 49.06000 19.72200
H  38.82900 46.59500 21.05000
H  39.90300 47.58800 21.84900
H  40.03600 47.44800 19.99600
H  37.63700 43.32000 25.10400
H  38.98800 44.18300 24.22100
H  37.32800 43.97500 23.51700
H  37.88400 46.75200 29.45200
H  35.15600 44.59700 32.15500
H  35.10300 46.31500 32.43100
H  36.36700 45.32800 33.12400

