158

Mg 26.53100 0.27900 29.72000
C  28.41900 0.09500 32.61300
C  23.68700 0.78500 31.69700
C  24.70500 0.50900 26.88500
C  29.41100 -0.36400 27.79000
N  26.12400 0.10700 31.95400
C  27.08200 0.29200 32.93400
C  26.54800 0.83400 34.29000
C  25.00800 0.90600 34.03200
C  24.91000 0.63700 32.43000
C  24.28300 -0.22900 34.91100
C  27.31200 2.17300 34.76900
C  27.97000 2.09800 36.12100
H  27.57800 3.19200 37.20000
N  24.44300 0.60200 29.40100
C  23.48600 0.70000 30.33000
C  22.24100 0.89500 29.67400
C  22.42600 0.74300 28.24600
C  23.95500 0.61600 28.09800
C  20.99000 1.18500 30.47400
C  21.50500 0.74100 27.09600
O  21.90300 0.61000 25.93900
C  20.00300 0.98400 27.25100
N  26.89200 0.04100 27.62800
C  26.03400 0.30800 26.63400
C  26.67800 0.40200 25.26700
C  28.16800 0.05900 25.56100
C  28.16700 -0.13600 27.11700
C  26.01000 -0.58900 24.27000
C  29.17700 1.15700 25.13500
C  28.71500 2.04200 23.89600
N  28.46600 -0.19100 30.06400
C  29.52400 -0.35800 29.19300
C  30.73200 -0.62800 29.97400
C  30.33200 -0.43200 31.28300
C  28.96700 -0.15100 31.33000
C  32.12300 -1.02500 29.47600
C  30.76000 -0.45400 32.62000
O  31.83500 -0.84200 33.07200
C  29.56100 -0.03000 33.52300
C  29.43600 -1.15000 34.52300
O  28.86400 -2.24400 34.32700
O  30.01200 -0.81800 35.72200
C  29.95300 -1.78000 36.83200
H  22.85200 1.06100 32.34400
H  24.23000 0.78300 25.94000
H  30.30300 -0.52300 27.18100
H  26.73300 0.07900 35.05400
H  24.59800 1.91000 34.14900
H  23.91600 -1.03100 34.27100
H  23.48600 0.22600 35.49800
H  24.93200 -0.72400 35.63400
H  26.45400 2.82700 34.92600
H  27.91000 2.62500 33.97800
H  28.97300 2.43200 35.85700
H  28.03900 1.12500 36.60800
H  20.37700 0.29500 30.33200
H  20.44000 2.07400 30.16500
H  21.16100 1.36200 31.53600
H  19.66200 0.25700 27.98900
H  19.52200 0.74100 26.30400
H  19.89000 2.04700 27.46100
H  26.34700 1.34900 24.84000
H  28.43200 -0.89400 25.10200
H  25.30700 -1.20100 24.83500
H  26.63600 -1.28700 23.71300
H  25.40400 -0.04300 23.54700
H  30.06900 0.60700 24.83400
H  29.49400 1.74000 26.00000
H  27.85000 1.61500 23.38900
H  29.56400 2.20100 23.23100
H  28.43200 3.01200 24.30500
H  32.07300 -1.74000 28.65500
H  32.72000 -1.42900 30.29400
H  32.55800 -0.15700 28.98100
H  29.81900 0.91500 34.00000
H  30.89800 -1.64200 37.35700
H  29.77000 -2.82200 36.57200
H  29.20200 -1.44900 37.54900
Mg -6.38700 25.92500 25.69600
C  -4.37700 26.98100 28.31200
C  -7.76800 23.59300 27.85500
C  -7.87700 24.25500 22.96900
C  -4.73100 28.01300 23.62500
N  -6.03600 25.30000 27.81500
C  -5.29200 26.02800 28.74800
C  -5.45400 25.41900 30.12800
C  -6.31300 24.16200 29.80200
C  -6.82500 24.48900 28.41900
C  -5.48100 22.91600 29.85500
C  -6.15000 26.51000 30.98400
C  -5.63200 26.59000 32.43300
H  -4.91600 25.41900 33.12800
N  -7.81900 24.26000 25.49800
C  -8.27800 23.49400 26.53700
C  -9.29900 22.52000 26.06000
C  -9.30500 22.65200 24.60700
C  -8.26400 23.76300 24.29700
C  -10.02500 21.67900 27.02700
C  -10.18400 21.98300 23.50900
O  -10.05500 22.09700 22.31100
C  -11.31700 21.07500 24.02800
N  -6.35900 26.05300 23.64400
C  -6.97200 25.25700 22.70200
C  -6.89800 25.82300 21.27800
C  -5.78200 26.92000 21.51200
C  -5.64300 27.05000 23.01500
C  -6.40100 24.68500 20.20100
C  -6.11100 28.35600 20.87200
C  -5.18100 28.90300 19.76200
N  -4.86000 27.33300 25.86900
C  -4.36900 28.15000 24.94200
C  -3.49900 29.08300 25.61300
C  -3.42000 28.65900 26.92300
C  -4.29300 27.57900 27.04100
C  -2.84500 30.24700 24.93700
C  -2.83400 28.84300 28.22700
O  -1.97900 29.62700 28.66700
C  -3.46400 27.81200 29.18400
C  -2.32400 27.05200 29.73100
O  -1.67700 26.21200 29.13900
O  -2.13700 27.47400 31.03500
C  -1.11800 26.77100 31.81000
H  -8.31600 23.04900 28.62700
H  -8.38000 23.84400 22.09100
H  -4.06700 28.52800 22.92800
H  -4.51000 25.08100 30.55400
H  -7.23600 24.05400 30.37100
H  -5.37500 22.36300 28.92200
H  -5.81600 22.12900 30.53000
H  -4.46300 23.11700 30.19100
H  -7.20700 26.24900 31.03300
H  -6.11200 27.53600 30.61800
H  -6.49300 26.88900 33.03100
H  -4.93400 27.42100 32.53200
H  -9.56200 20.70400 27.17500
H  -11.06200 21.45700 26.77600
H  -10.04900 22.07500 28.04300
H  -11.75600 20.60500 23.14800
H  -11.96700 21.78100 24.54400
H  -10.98800 20.25300 24.66400
H  -7.84900 26.29000 21.01900
H  -4.90200 26.52400 21.00500
H  -5.48600 24.25500 20.60800
H  -6.18200 25.14500 19.23800
H  -7.15000 23.89400 20.14300
H  -6.03200 29.04100 21.71600
H  -7.13900 28.31400 20.51300
H  -4.76900 29.87700 20.02300
H  -5.73700 29.09300 18.84400
H  -4.33100 28.26300 19.52700
H  -2.29200 30.70400 25.75800
H  -3.47700 31.04400 24.54600
H  -2.10500 29.87400 24.22800
H  -4.09600 28.38800 29.86000
H  -0.34700 27.45000 32.17400
H  -0.68000 25.94900 31.24400
H  -1.61800 26.41000 32.70800

