158

Mg 47.41000 16.60700 27.83000
C  45.52100 16.30600 30.75000
C  49.48100 18.86400 29.45500
C  49.23700 16.97200 25.01900
C  44.92900 15.08300 26.11700
N  47.46800 17.44800 29.84200
C  46.71200 17.02900 30.94900
C  47.30700 17.48500 32.30500
C  48.37200 18.52600 31.81100
C  48.43400 18.32600 30.29200
C  48.10200 20.04000 32.12500
C  47.78500 16.26500 33.27600
C  48.56400 16.60000 34.54900
H  48.59600 18.00200 35.15400
N  49.07100 17.74400 27.26900
C  49.81000 18.61600 28.07700
C  50.93500 19.18600 27.33000
C  51.02900 18.47300 26.12100
C  49.74800 17.67300 26.10700
C  52.06400 19.99200 27.95200
C  52.18000 18.32200 25.13800
O  52.18700 17.41600 24.33100
C  53.39100 19.26000 25.12000
N  47.23200 15.95100 25.92800
C  48.07100 16.22700 24.88400
C  47.57900 15.78500 23.53500
C  46.27500 14.98400 23.95600
C  46.07900 15.39900 25.41900
C  47.30400 16.91800 22.52600
C  46.37100 13.47000 23.87500
C  46.05700 12.85100 22.44100
N  45.54600 15.93900 28.27400
C  44.61200 15.27300 27.47400
C  43.46000 14.84700 28.24500
C  43.86800 15.23800 29.51800
C  45.06100 15.85100 29.46900
C  42.25400 14.05800 27.84700
C  43.36100 15.18200 30.84400
O  42.36400 14.73500 31.31400
C  44.46300 15.96600 31.77000
C  43.82500 17.17200 32.30400
O  43.47000 18.13900 31.67400
O  43.72100 16.99700 33.61500
C  43.16700 18.13800 34.43800
H  50.04800 19.63600 29.97800
H  49.72900 17.29300 24.09800
H  44.26800 14.63900 25.37000
H  46.51100 18.01100 32.83400
H  49.36200 18.39700 32.24800
H  48.96500 20.41600 32.67600
H  47.22600 20.16100 32.76100
H  47.94400 20.64100 31.23000
H  48.40200 15.49000 32.82200
H  46.91400 15.68500 33.57900
H  49.56400 16.17400 34.47800
H  48.19000 16.01100 35.38600
H  52.31600 20.88200 27.37500
H  52.96500 19.38600 27.86200
H  51.92300 20.22500 29.00800
H  53.05000 20.28700 25.25500
H  53.78800 19.16200 24.11000
H  54.06800 18.92300 25.90500
H  48.27700 15.17200 22.96500
H  45.40300 15.35100 23.41500
H  46.33900 16.88700 22.01900
H  48.04700 16.91000 21.72800
H  47.48400 17.85100 23.05900
H  45.76700 13.01300 24.65900
H  47.37500 13.14600 24.14900
H  47.04900 12.54800 22.10800
H  45.64700 13.45200 21.63000
H  45.33800 12.05700 22.64500
H  42.60600 13.26900 27.18300
H  41.48900 14.69800 27.40700
H  41.81700 13.64400 28.75600
H  44.81400 15.30900 32.56700
H  42.16100 17.85800 34.75200
H  43.07500 19.02600 33.81300
H  43.74900 18.33700 35.33700
Mg -2.30900 34.95800 27.12000
C  -4.01800 33.27200 29.76400
C  -0.77600 36.88500 29.49500
C  -0.70000 36.65100 24.64700
C  -4.18700 33.20600 24.85300
N  -2.40000 35.09700 29.48800
C  -3.13600 34.22700 30.32300
C  -2.86900 34.54000 31.80900
C  -2.03100 35.93000 31.68600
C  -1.67500 35.97400 30.15700
C  -2.73600 37.23600 32.06400
C  -1.99400 33.37200 32.48400
C  -2.68300 32.79000 33.78900
H  -1.79900 32.66800 35.07700
N  -0.84300 36.47800 27.06300
C  -0.41600 37.18200 28.13600
C  0.54800 38.15400 27.68900
C  0.66000 38.06700 26.31900
C  -0.26400 37.00100 25.96800
C  1.23000 39.10500 28.65100
C  1.56500 38.80200 25.33000
O  1.73800 38.36200 24.22500
C  2.40400 39.99000 25.82400
N  -2.48100 35.00100 25.02700
C  -1.64600 35.73400 24.20100
C  -1.92900 35.49300 22.75900
C  -2.99100 34.34100 22.77900
C  -3.34000 34.15200 24.28600
C  -2.44100 36.76600 21.95000
C  -2.63200 32.98500 22.10300
C  -1.44300 32.22200 22.74500
N  -3.84400 33.63000 27.23100
C  -4.51200 32.94700 26.18100
C  -5.29500 31.88600 26.67300
C  -5.04500 32.02500 28.07300
C  -4.24100 33.08300 28.36600
C  -6.16800 30.87800 25.98900
C  -5.45700 31.35600 29.29600
O  -6.27200 30.45900 29.43600
C  -4.88000 32.17600 30.45600
C  -5.97200 32.49700 31.42700
O  -6.84100 33.28900 31.14700
O  -5.96400 31.67400 32.52500
C  -7.02300 31.71200 33.50200
H  -0.13600 37.40100 30.21300
H  -0.23900 37.19600 23.82100
H  -4.67600 32.52600 24.15400
H  -3.84900 34.73300 32.24500
H  -1.14200 35.85300 32.31200
H  -3.16700 37.75500 31.20700
H  -2.07100 37.90300 32.61300
H  -3.54200 36.99900 32.75900
H  -1.02800 33.68700 32.87900
H  -1.90600 32.56000 31.76200
H  -2.97000 31.76400 33.56000
H  -3.61300 33.34200 33.92600
H  0.83000 40.07500 28.35600
H  2.31500 39.06800 28.54700
H  0.95200 38.90800 29.68600
H  1.80000 40.66200 26.43300
H  2.86500 40.49200 24.97300
H  3.23300 39.52800 26.36000
H  -1.09100 35.12400 22.16800
H  -3.86100 34.74400 22.26100
H  -3.45500 36.58500 21.59400
H  -1.71000 37.03200 21.18700
H  -2.35200 37.63700 22.59900
H  -2.41900 33.22800 21.06200
H  -3.56100 32.41600 22.12500
H  -0.75800 32.00300 21.92700
H  -1.90800 31.28400 23.05100
H  -0.92400 32.65900 23.59900
H  -7.08100 30.60900 26.52000
H  -5.63800 30.02800 25.55700
H  -6.55200 31.45200 25.14700
H  -4.08000 31.60000 30.92200
H  -6.75500 32.42700 34.28000
H  -7.26500 30.75700 33.96800
H  -7.89400 32.18700 33.05000

