158

Mg 40.81200 40.27600 27.69800
C  40.52900 42.99100 29.99200
C  41.80800 38.33700 30.39700
C  41.52300 37.88800 25.54200
C  40.09000 42.51100 25.18400
N  41.21700 40.71400 29.91900
C  40.93200 41.80800 30.63800
C  41.07500 41.61900 32.14000
C  41.66700 40.19400 32.17900
C  41.55600 39.68700 30.77200
C  43.08400 40.08600 32.78200
C  39.65500 41.64700 32.80900
C  39.57600 42.66400 34.04300
H  38.86400 42.20000 35.35100
N  41.50900 38.29300 27.93400
C  41.84200 37.67900 29.11300
C  42.16800 36.32600 28.78400
C  42.29600 36.21800 27.35100
C  41.78500 37.46500 26.85700
C  42.45000 35.28600 29.85100
C  42.73600 35.08200 26.48000
O  42.78200 35.09600 25.25300
C  43.11200 33.78600 27.09800
N  40.93000 40.15500 25.68500
C  41.02000 39.02800 24.99600
C  40.83900 39.27700 23.50400
C  40.22000 40.66500 23.46600
C  40.49000 41.18200 24.86300
C  42.05100 39.11200 22.66900
C  38.71400 40.77800 23.05500
C  37.67600 39.93000 23.79000
N  40.39100 42.37500 27.51500
C  40.05300 43.08800 26.42800
C  39.73100 44.40900 26.85800
C  39.83600 44.48200 28.24900
C  40.29100 43.16900 28.60100
C  39.40100 45.56500 25.93100
C  39.73400 45.31800 29.50600
O  39.50600 46.54500 29.60200
C  40.04400 44.35900 30.68100
C  41.07500 44.89500 31.52900
O  42.24800 44.69700 31.35100
O  40.61600 45.60500 32.52400
C  41.59100 46.09500 33.51000
H  41.93600 37.64200 31.23000
H  41.57200 37.00500 24.90300
H  39.87400 43.18700 24.35400
H  41.75000 42.37900 32.53500
H  41.07600 39.57800 32.85700
H  43.76600 40.88400 32.48600
H  43.49600 39.08500 32.65200
H  42.90800 40.18700 33.85300
H  39.26800 40.68900 33.15700
H  38.96800 42.05500 32.06600
H  39.07600 43.57900 33.72800
H  40.58800 42.86600 34.39600
H  41.86200 35.39600 30.76100
H  43.49600 35.44700 30.11500
H  42.26100 34.24200 29.60000
H  42.28300 33.33700 27.64500
H  43.99700 33.97100 27.70800
H  43.41800 33.13300 26.28100
H  40.16600 38.46300 23.23500
H  40.86900 41.27100 22.83400
H  42.89400 38.74300 23.25200
H  42.35600 40.02400 22.15700
H  41.96500 38.36700 21.87700
H  38.74300 40.30000 22.07600
H  38.55300 41.84500 22.90300
H  36.82500 40.60200 23.89700
H  37.95700 39.83100 24.83900
H  37.36100 39.02500 23.27100
H  39.74700 45.25300 24.94600
H  39.94000 46.47600 26.19200
H  38.34500 45.82300 25.85000
H  39.06600 44.36800 31.16200
H  42.30600 46.83100 33.14200
H  42.07200 45.27500 34.04400
H  41.08600 46.55900 34.35800
Mg 6.06200 54.64600 39.71500
C  5.99500 51.12800 39.19800
C  9.43900 54.55600 38.97800
C  6.04800 57.95300 39.43400
C  2.65100 54.59000 39.95200
N  7.50100 53.04000 38.71000
C  7.25000 51.65200 38.82600
C  8.59000 50.85800 38.79300
C  9.65600 51.98000 39.04900
C  8.81100 53.29800 38.89700
C  10.50200 51.81200 40.33200
C  8.82000 50.24100 37.38000
C  8.45800 51.15400 36.21500
H  7.07300 51.08900 35.66000
N  7.56900 56.07500 39.36000
C  8.87500 55.86100 39.09000
C  9.58100 57.14700 38.90600
C  8.61200 58.19500 39.12800
C  7.34400 57.45400 39.32500
C  11.11500 57.27900 38.53900
C  8.91500 59.69900 39.03600
O  10.06000 60.10600 38.74900
C  7.84600 60.73300 39.21400
N  4.50600 56.05200 39.47200
C  4.79700 57.38800 39.48800
C  3.49700 58.18800 39.83100
C  2.53200 57.14300 40.20300
C  3.22400 55.84300 39.71100
C  3.70900 59.12900 40.98900
C  1.12700 57.33600 39.53400
C  -0.08100 57.32600 40.47700
N  4.56800 53.13500 39.66600
C  3.22600 53.27600 39.91700
C  2.67900 52.01100 40.25200
C  3.72000 51.17600 39.98400
C  4.89200 51.90700 39.60100
C  1.27300 51.58400 40.73100
C  4.10300 49.80900 40.06600
O  3.48300 48.88100 40.60100
C  5.58600 49.70400 39.50800
C  5.54900 48.73600 38.38700
O  5.09700 49.02800 37.29400
O  6.02000 47.55700 38.82500
C  5.96200 46.37900 37.89900
H  10.52400 54.53000 38.85400
H  6.02400 59.03200 39.60000
H  1.57000 54.59000 40.11100
H  8.49500 50.18000 39.64000
H  10.35700 51.94300 38.21500
H  11.50000 52.16800 40.07700
H  10.46100 50.77000 40.65000
H  10.06000 52.45200 41.09600
H  8.20400 49.34900 37.26900
H  9.87300 49.97000 37.31800
H  9.22900 50.97300 35.46600
H  8.59900 52.18800 36.53200
H  11.19200 58.06600 37.78800
H  11.52400 56.35800 38.12300
H  11.51400 57.52400 39.52300
H  7.17200 60.71600 38.35700
H  8.33400 61.70600 39.27700
H  7.35700 60.63400 40.18300
H  3.18100 58.76800 38.96300
H  2.51000 56.91800 41.27000
H  3.14100 58.95100 41.90200
H  3.33100 60.05900 40.56200
H  4.74300 59.18500 41.32900
H  1.06800 56.59500 38.73700
H  1.12400 58.36000 39.16300
H  0.17800 57.18400 41.52700
H  -0.70600 56.49900 40.14000
H  -0.51300 58.32600 40.44200
H  1.17900 51.15900 41.73000
H  0.87700 51.00100 39.90000
H  0.67400 52.49500 40.70400
H  6.16100 49.29400 40.33800
H  6.46600 45.59200 38.45900
H  6.46600 46.59700 36.95800
H  4.94700 46.10500 37.61100

