158

Mg -1.22200 17.16900 26.58900
C  -1.71100 14.98500 29.21700
C  -2.52700 19.79600 28.44900
C  -1.50900 19.03400 23.85400
C  -1.39400 14.33300 24.54900
N  -1.86500 17.34700 28.56800
C  -1.84900 16.40200 29.55700
C  -2.15400 16.96000 30.95200
C  -2.72000 18.33800 30.59300
C  -2.38300 18.47700 29.10500
C  -4.14400 18.60700 31.09900
C  -0.92500 17.02000 31.89600
C  -1.07000 17.52400 33.33800
H  -0.36200 16.78700 34.49000
N  -1.54000 19.20200 26.24800
C  -2.17200 20.10000 27.13100
C  -2.26000 21.41900 26.52600
C  -1.84400 21.21900 25.17700
C  -1.63800 19.73600 25.05100
C  -2.70300 22.77600 27.25200
C  -1.72000 22.26700 24.18000
O  -1.36300 21.95300 23.06900
C  -1.83500 23.76100 24.42200
N  -1.30600 16.69800 24.49400
C  -1.46200 17.68700 23.53900
C  -1.48100 17.18300 22.09100
C  -1.23300 15.60000 22.34500
C  -1.38800 15.53400 23.88300
C  -2.82100 17.55500 21.34100
C  0.11600 15.09400 21.75900
C  1.48500 15.52100 22.46400
N  -1.53500 15.09100 26.82600
C  -1.57700 14.03900 25.88400
C  -1.58600 12.81500 26.48800
C  -1.71800 13.12000 27.87000
C  -1.65100 14.52300 27.96200
C  -1.70000 11.54500 25.92200
C  -1.75000 12.55900 29.23700
O  -1.74100 11.39300 29.62600
C  -1.80300 13.76100 30.14100
C  -0.65100 13.69300 31.09600
O  0.55700 13.85200 30.85300
O  -1.10400 13.11800 32.28400
C  -0.04600 12.69600 33.11200
H  -2.82300 20.51000 29.22000
H  -1.70700 19.67300 22.99100
H  -1.37600 13.45300 23.90400
H  -2.89500 16.32000 31.43100
H  -2.15900 19.01900 31.23300
H  -4.56100 17.68400 31.50100
H  -4.68300 18.82200 30.17700
H  -4.13100 19.34000 31.90500
H  -0.24300 17.66600 31.34200
H  -0.47800 16.02600 31.92300
H  -2.12100 17.66100 33.59300
H  -0.60500 18.51000 33.32400
H  -3.39200 23.29600 26.58600
H  -1.85100 23.42000 27.47100
H  -3.12600 22.55900 28.23300
H  -1.38700 24.08800 25.36100
H  -2.88000 24.04000 24.28300
H  -1.19700 24.27100 23.70100
H  -0.61700 17.66800 21.63700
H  -2.08400 15.04700 21.94700
H  -3.44500 18.08200 22.06300
H  -3.31300 16.68100 20.91500
H  -2.56000 18.29500 20.58500
H  0.12100 15.60000 20.79300
H  0.10300 14.02300 21.55700
H  1.86500 16.28200 21.78300
H  2.05200 14.62200 22.70900
H  1.18600 16.05500 23.36600
H  -1.29900 11.58000 24.90900
H  -2.75700 11.31000 25.79700
H  -1.24700 10.73600 26.49400
H  -2.68400 13.73100 30.78300
H  0.71100 13.41000 33.43500
H  0.47400 11.79100 32.79700
H  -0.41300 12.49000 34.11800
Mg 25.97500 0.26000 29.63400
C  27.82800 -0.22200 32.60500
C  23.21800 0.39200 31.70100
C  24.18500 0.29300 26.85900
C  28.87200 -0.41500 27.84100
N  25.60800 0.28300 31.87100
C  26.53900 0.17200 32.91200
C  25.97000 0.23700 34.28600
C  24.47800 -0.01000 33.94100
C  24.40900 0.22000 32.42600
C  23.98200 -1.42000 34.33400
C  26.43700 1.44400 35.05200
C  26.89000 1.13200 36.48600
H  26.85600 2.21800 37.55700
N  24.01400 0.32700 29.32900
C  23.03700 0.44700 30.28800
C  21.72700 0.63500 29.67600
C  21.97200 0.41500 28.31000
C  23.42200 0.36000 28.06100
C  20.44100 0.76100 30.45700
C  20.96100 0.20600 27.14100
O  21.26400 0.10300 25.97100
C  19.50700 0.43100 27.45400
N  26.48100 -0.04000 27.63400
C  25.53800 0.20200 26.63400
C  26.18300 0.11200 25.30700
C  27.74900 -0.09200 25.59200
C  27.75700 -0.08000 27.12200
C  25.59400 -0.94200 24.39300
C  28.70800 0.94100 24.97300
C  29.93800 0.37200 24.21900
N  27.98400 -0.30900 30.06000
C  29.00200 -0.57000 29.24500
C  30.13600 -0.99000 29.99500
C  29.77500 -0.76400 31.32800
C  28.43200 -0.34600 31.34800
C  31.49700 -1.36400 29.42900
C  30.23000 -0.84100 32.64800
O  31.38800 -1.09700 33.06400
C  29.03700 -0.42700 33.59200
C  28.90300 -1.46300 34.63500
O  28.37300 -2.55900 34.51700
O  29.54500 -1.08900 35.79000
C  29.74700 -2.13000 36.82700
H  22.34500 0.49900 32.34800
H  23.71300 0.36900 25.87700
H  29.81100 -0.49000 27.28800
H  26.45700 -0.63600 34.72000
H  23.90600 0.71300 34.52200
H  23.65000 -1.21700 35.35200
H  24.65700 -2.27600 34.35200
H  23.13700 -1.65200 33.68600
H  25.59000 2.11200 35.20800
H  27.29100 1.85000 34.51100
H  27.91500 0.76200 36.48800
H  26.35300 0.28700 36.91800
H  19.98500 1.73700 30.29300
H  20.63600 0.42000 31.47400
H  19.78700 -0.03400 30.09900
H  19.32800 1.38900 27.94100
H  19.14000 -0.34600 28.12500
H  18.98300 0.25200 26.51500
H  25.92100 1.08900 24.90000
H  28.18400 -1.07600 25.41500
H  26.30300 -1.26100 23.62900
H  24.85000 -0.40900 23.80100
H  25.25100 -1.82300 24.93500
H  29.04200 1.55600 25.80900
H  28.11300 1.61000 24.35200
H  30.12300 0.99700 23.34500
H  29.75500 -0.66300 23.93100
H  30.80700 0.43700 24.87400
H  31.56800 -2.23800 28.78200
H  32.19900 -1.52600 30.24700
H  31.92900 -0.51300 28.90300
H  29.33600 0.50400 34.07200
H  30.57200 -2.04900 37.53500
H  29.92000 -3.12100 36.40800
H  28.91500 -2.33600 37.50100

