158

Mg 17.08700 0.36300 27.25400
C  15.95400 2.30100 30.05100
C  18.77000 -1.62400 29.50100
C  18.75200 -0.84300 24.59000
C  15.50000 2.63400 25.15000
N  17.42700 0.44900 29.54300
C  16.73400 1.17400 30.48300
C  17.01100 0.75000 31.92200
C  17.86100 -0.56600 31.67800
C  18.04300 -0.63800 30.14700
C  19.25900 -0.51800 32.38600
C  15.79500 0.45400 32.84600
C  15.59800 1.22300 34.15500
H  16.84700 1.69200 34.94700
N  18.48200 -1.15900 27.08300
C  19.06500 -1.80800 28.12400
C  19.92100 -2.81500 27.56100
C  19.90900 -2.63700 26.11000
C  19.00800 -1.51800 25.86000
C  20.61700 -3.89400 28.41500
C  20.68100 -3.43700 25.07100
O  20.49700 -3.25100 23.87700
C  21.72400 -4.52900 25.44600
N  16.96500 0.72300 25.13300
C  17.77700 0.13900 24.27800
C  17.59200 0.78700 22.82500
C  16.43300 1.75500 22.99300
C  16.23700 1.68600 24.49700
C  18.93100 1.39800 22.30500
C  15.24800 1.49200 22.07900
C  15.62800 1.41700 20.64600
N  15.96000 2.04100 27.43000
C  15.35100 2.84600 26.56500
C  14.66600 3.85400 27.20600
C  14.92500 3.74800 28.57800
C  15.67400 2.57300 28.69500
C  13.76300 4.83500 26.55800
C  14.74500 4.47000 29.89800
O  14.23700 5.53100 30.26000
C  15.30900 3.47700 30.88200
C  16.38700 4.19000 31.64600
O  17.57600 4.24300 31.27000
O  15.85400 4.74200 32.80900
C  16.65100 5.49900 33.72200
H  19.21200 -2.25300 30.27700
H  19.13300 -1.29800 23.67300
H  14.98000 3.43000 24.61300
H  17.65900 1.57700 32.21100
H  17.41200 -1.50700 31.99700
H  19.40500 -1.33200 33.09500
H  19.31400 0.28000 33.12700
H  20.12600 -0.44500 31.72900
H  15.63500 -0.60600 33.04600
H  14.90200 0.74200 32.29300
H  14.94900 0.59100 34.76000
H  15.00200 2.11000 33.94000
H  20.58200 -4.90400 28.00600
H  20.11400 -4.10800 29.35800
H  21.62900 -3.60000 28.69300
H  22.15700 -4.82100 24.48900
H  21.28200 -5.31900 26.05300
H  22.41400 -3.89600 26.00500
H  17.30500 0.03300 22.09200
H  16.72800 2.77300 22.74100
H  18.77200 2.18400 21.56700
H  19.46500 0.61800 21.76200
H  19.60500 1.60900 23.13500
H  14.51500 2.28600 22.22500
H  14.82400 0.54100 22.40200
H  16.66300 1.25700 20.34500
H  15.22800 2.36300 20.28100
H  15.10500 0.57400 20.19400
H  12.95500 5.06200 27.25500
H  13.21600 4.38700 25.72900
H  14.30900 5.72600 26.24900
H  14.47800 3.32100 31.57000
H  16.42100 6.55500 33.57800
H  17.72200 5.30400 33.76700
H  16.12800 5.33900 34.66500
Mg 26.36800 49.00000 26.12200
C  24.58100 50.51700 28.66000
C  28.78900 48.11600 28.51900
C  28.36800 47.82100 23.64800
C  24.17200 50.29600 23.68600
N  26.69500 49.35200 28.34300
C  25.66700 49.77600 29.17800
C  26.05700 49.44700 30.67900
C  27.48700 48.94300 30.57400
C  27.66300 48.72000 29.09000
C  28.60700 49.90700 31.11900
C  24.96600 48.54200 31.33300
C  25.40100 47.80100 32.59000
H  24.60000 48.10500 33.85700
N  28.22300 47.98200 26.10600
C  29.04800 47.78600 27.17600
C  30.19400 47.06800 26.76000
C  30.19000 47.02700 25.35500
C  28.86200 47.58000 24.93600
C  31.19000 46.54100 27.76900
C  31.24800 46.50100 24.45300
O  31.15800 46.36000 23.22300
C  32.50400 45.98600 25.05600
N  26.26700 49.12000 24.03100
C  27.19800 48.44200 23.24400
C  26.95500 48.71200 21.80100
C  25.53000 49.38800 21.75400
C  25.26200 49.57000 23.18200
C  27.97900 49.56500 21.08900
C  24.46500 48.55100 20.96000
C  23.90600 47.23600 21.72100
N  24.69100 50.16300 26.13100
C  23.87400 50.61500 25.07200
C  22.71600 51.26700 25.66900
C  22.96800 51.28200 27.03600
C  24.19100 50.61500 27.25900
C  21.49600 51.71600 25.03300
C  22.45400 51.64700 28.34100
O  21.34900 52.08000 28.52100
C  23.41400 51.09400 29.41600
C  23.85800 52.18400 30.30600
O  24.82800 52.88500 30.17000
O  23.01600 52.33600 31.36900
C  23.36100 53.36600 32.36200
H  29.36100 47.72100 29.36100
H  28.89700 47.33200 22.82800
H  23.38400 50.65500 23.02200
H  26.05400 50.37300 31.25400
H  27.52600 48.06200 31.21500
H  29.50800 49.90500 30.50400
H  28.87500 49.47100 32.08100
H  28.18800 50.90500 31.25100
H  24.56400 47.78400 30.66000
H  24.07200 49.11800 31.57000
H  26.44600 47.95700 32.85900
H  25.35700 46.72400 32.43000
H  32.11700 47.10000 27.89500
H  31.47500 45.51000 27.56200
H  30.78400 46.41000 28.77100
H  33.17700 45.82500 24.21400
H  32.45200 45.02700 25.57000
H  32.88600 46.81900 25.64500
H  26.86700 47.73800 21.32100
H  25.41000 50.40700 21.38700
H  27.41400 50.15700 20.36900
H  28.64400 48.90500 20.53100
H  28.60100 50.16200 21.75600
H  24.95000 48.27400 20.02400
H  23.64400 49.24100 20.76700
H  24.24100 47.39400 22.74600
H  24.44900 46.39300 21.29400
H  22.81700 47.24700 21.66700
H  21.69300 52.48100 24.28200
H  20.80400 52.09900 25.78300
H  21.01500 50.86900 24.54300
H  22.81800 50.48800 30.09700
H  22.70000 54.20500 32.57900
H  24.37800 53.74000 32.24800
H  23.51600 52.94100 33.35300

