158

Mg 5.01000 53.55800 41.73500
C  4.69200 50.07300 40.53500
C  8.07100 53.58800 40.24900
C  4.87300 56.92700 41.90800
C  1.66600 53.32300 42.65500
N  6.08900 52.11100 40.27500
C  5.74200 50.75000 39.92500
C  6.81500 50.13600 38.99100
C  8.07000 51.01000 39.39100
C  7.41000 52.34000 40.04300
C  9.05300 50.20600 40.31300
C  6.42000 50.38900 37.47700
C  7.09800 49.52600 36.36100
H  6.30000 48.86000 35.20500
N  6.37900 55.02400 41.38300
C  7.52900 54.85000 40.76500
C  8.24500 56.14000 40.67500
C  7.39100 57.10600 41.18900
C  6.17300 56.39800 41.60600
C  9.55300 56.37400 40.10700
C  7.61900 58.58100 41.16200
O  8.70900 58.97500 40.75300
C  6.59600 59.56600 41.53200
N  3.55100 54.80100 42.39700
C  3.72100 56.18500 42.28000
C  2.44100 56.93700 42.42000
C  1.43400 55.86100 42.90600
C  2.22200 54.58600 42.61600
C  2.56900 58.23100 43.37300
C  0.10200 55.93100 42.25100
C  -1.08300 56.16100 43.24000
N  3.56500 52.03100 41.82500
C  2.29900 52.06500 42.27600
C  1.79900 50.72400 42.47000
C  2.72100 49.92500 41.79000
C  3.73600 50.73700 41.34700
C  0.52100 50.23600 43.13300
C  3.00400 48.53900 41.46900
O  2.38200 47.53600 41.73700
C  4.39200 48.54100 40.59000
C  4.08600 47.93300 39.32300
O  3.21200 48.25800 38.56500
O  4.92200 46.89600 39.12200
C  4.62000 46.07700 37.92500
H  9.07400 53.65000 39.82200
H  4.65800 57.99100 41.79600
H  0.65300 53.25800 43.05700
H  7.03500 49.09600 39.23100
H  8.64300 51.16700 38.47700
H  8.80300 49.15200 40.42800
H  9.00700 50.76000 41.25000
H  10.10400 50.36100 40.06700
H  6.78400 51.37800 37.19800
H  5.33700 50.34500 37.36500
H  7.33500 48.66000 36.97900
H  8.03700 49.96500 36.02400
H  10.10400 55.49800 39.76500
H  10.15100 56.92700 40.83100
H  9.51600 57.02000 39.22900
H  6.98800 60.57000 41.37300
H  6.43000 59.46200 42.60400
H  5.72600 59.44000 40.88700
H  2.11200 57.35600 41.46900
H  1.39100 55.87700 43.99500
H  3.55000 58.31700 43.84200
H  1.81200 58.06800 44.13900
H  2.28300 59.05300 42.71600
H  -0.15500 54.99800 41.75000
H  0.15500 56.70700 41.48600
H  -1.92900 55.57100 42.88600
H  -1.34600 57.21600 43.31600
H  -0.74400 55.83500 44.22300
H  -0.10300 51.11700 43.28800
H  0.68900 49.80800 44.12100
H  -0.02600 49.59900 42.43800
H  5.08600 48.01100 41.24200
H  4.16000 45.14900 38.26500
H  5.60800 45.75800 37.59300
H  3.99100 46.55300 37.17300
Mg 17.16900 51.42800 26.43900
C  19.10900 49.88500 28.94100
C  14.86100 52.04900 28.84200
C  15.45100 52.57800 23.96100
C  19.59600 50.20300 24.11200
N  17.00000 50.84700 28.65100
C  17.97100 50.34300 29.42400
C  17.57200 50.33500 30.95500
C  16.08200 50.84300 30.85000
C  15.98300 51.32300 29.36200
C  15.03300 49.77200 31.18500
C  18.56100 51.26600 31.79400
C  18.84400 51.16600 33.24600
H  17.86900 50.30000 34.09600
N  15.38600 52.28900 26.38400
C  14.55500 52.39900 27.44200
C  13.31100 52.99200 26.97300
C  13.50900 53.33700 25.57800
C  14.85100 52.71200 25.17800
C  12.08900 53.40200 27.82300
C  12.61400 54.14100 24.56000
O  12.86500 54.15900 23.35500
C  11.38000 54.85300 24.93600
N  17.43700 51.31700 24.30700
C  16.54000 51.91700 23.51200
C  17.06000 51.94800 22.10700
C  18.48400 51.38100 22.19700
C  18.56100 50.96000 23.60400
C  16.19300 51.07700 21.14800
C  19.60100 52.36400 21.74900
C  19.80000 53.57500 22.69100
N  18.96900 50.35500 26.47300
C  19.81300 49.91900 25.47500
C  21.00400 49.30500 26.02300
C  20.74100 49.32200 27.36800
C  19.49600 49.95000 27.59200
C  22.18400 48.83400 25.31300
C  21.34800 48.98000 28.67300
O  22.38400 48.35900 28.90800
C  20.27700 49.29400 29.73000
C  19.95500 48.02000 30.46000
O  19.51800 46.98400 29.97800
O  20.47500 48.05500 31.69900
C  19.96500 47.07400 32.70600
H  14.08900 52.35800 29.54900
H  14.97300 53.14800 23.16200
H  20.34000 49.90700 23.37000
H  17.53400 49.32400 31.36000
H  15.91000 51.82200 31.29700
H  14.39600 50.27700 31.91200
H  15.38300 48.90800 31.75000
H  14.44900 49.35100 30.36700
H  18.22000 52.26700 31.52800
H  19.57700 51.28400 31.40000
H  18.73000 52.16700 33.66300
H  19.84200 50.79700 33.48100
H  11.85300 54.46300 27.73800
H  12.33400 53.24900 28.87400
H  11.21700 52.81500 27.53400
H  11.57600 55.72800 25.55600
H  10.74300 54.09300 25.38900
H  10.96100 55.21500 23.99800
H  17.05700 52.93100 21.63700
H  18.65800 50.48700 21.59900
H  15.23700 50.93500 21.65200
H  16.53000 50.04400 21.05400
H  16.06400 51.61900 20.21200
H  19.57200 52.62200 20.69000
H  20.51600 51.77400 21.80600
H  20.80500 53.50900 23.10700
H  19.07400 53.67200 23.49800
H  19.81000 54.50700 22.12400
H  23.01800 49.53400 25.35700
H  21.80800 48.48300 24.35200
H  22.51900 47.88200 25.72500
H  20.81800 49.97100 30.39100
H  20.54600 46.15200 32.72500
H  18.94500 46.76900 32.47200
H  20.05700 47.61200 33.65000

