158

Mg 8.04400 3.02200 28.34500
C  9.61000 1.58800 31.15200
C  6.14600 4.97000 30.65400
C  6.53700 4.22300 25.86200
C  9.59900 0.66500 26.39100
N  7.84700 3.24200 30.68300
C  8.80000 2.64600 31.54100
C  8.62700 3.17600 33.00200
C  7.37000 4.04100 32.81800
C  7.08800 4.07000 31.28800
C  6.18900 3.66200 33.74900
C  9.84100 3.88600 33.43900
C  10.25700 3.75700 34.92500
H  9.10400 3.41500 35.86200
N  6.71000 4.49000 28.24700
C  6.01600 5.13800 29.21300
C  5.12500 6.14400 28.59100
C  5.20700 5.99700 27.24000
C  6.21400 4.87000 27.04800
C  4.22200 7.02700 29.37400
C  4.50200 6.71100 26.08100
O  4.71800 6.53000 24.89200
C  3.51000 7.72500 26.50300
N  8.01300 2.43800 26.37900
C  7.36200 3.15700 25.52900
C  7.36800 2.55200 24.06400
C  8.37100 1.42000 24.31200
C  8.72000 1.50300 25.73500
C  5.97700 2.14700 23.54000
C  9.53200 1.27100 23.38500
C  10.60000 2.39100 23.56600
N  9.28900 1.41100 28.66700
C  9.83600 0.57000 27.74000
C  10.78600 -0.36400 28.40500
C  10.72600 0.01500 29.72800
C  9.79200 1.11600 29.86300
C  11.47600 -1.52900 27.76600
C  11.25300 -0.25500 31.05400
O  12.02300 -1.11100 31.52400
C  10.52300 0.73600 32.02800
C  9.83300 -0.00800 33.07700
O  8.61400 -0.13700 33.13800
O  10.74300 -0.53900 33.97400
C  10.14100 -1.06400 35.19600
H  5.70700 5.77000 31.25300
H  6.07900 4.75800 25.02700
H  10.16800 -0.09400 25.85000
H  8.40800 2.30200 33.61400
H  7.63300 5.09700 32.88200
H  5.27100 3.51500 33.18000
H  6.10000 4.40400 34.54400
H  6.43400 2.68600 34.16600
H  9.75100 4.96400 33.30200
H  10.68600 3.62700 32.80100
H  10.75800 4.66400 35.26500
H  11.00700 2.97800 35.06100
H  4.29100 8.04300 28.98400
H  4.45300 7.19800 30.42500
H  3.21000 6.65400 29.21800
H  2.97800 8.02700 25.60100
H  3.89100 8.66500 26.90000
H  2.63800 7.51000 27.12100
H  7.71000 3.41400 23.49000
H  7.84500 0.46600 24.27200
H  5.94400 2.58400 22.54200
H  5.13200 2.46600 24.15100
H  6.01000 1.05900 23.48700
H  9.14500 1.26800 22.36600
H  9.87700 0.24300 23.49600
H  11.51400 1.99900 24.01300
H  10.08100 3.18700 24.10000
H  10.83400 2.81200 22.58800
H  12.48300 -1.28500 27.42700
H  10.97800 -1.98400 26.91000
H  11.37000 -2.40700 28.40400
H  11.21300 1.38400 32.56900
H  10.86700 -1.62500 35.78500
H  9.36700 -1.79000 34.94600
H  9.72400 -0.24700 35.78500
Mg 16.55200 -2.03400 28.29200
C  15.70600 0.00700 31.04200
C  18.49900 -3.94000 30.29000
C  17.66300 -3.46200 25.53600
C  14.92900 0.43500 26.31400
N  17.27300 -1.83200 30.31400
C  16.73200 -0.96700 31.27400
C  17.28600 -1.31700 32.72500
C  18.46400 -2.26000 32.35600
C  18.03600 -2.74400 30.92500
C  19.93700 -1.67100 32.47300
C  16.23200 -1.98200 33.68400
C  16.23200 -1.69100 35.20600
H  17.40000 -0.90400 35.79100
N  17.82000 -3.53900 27.96500
C  18.48500 -4.30100 28.92900
C  19.03900 -5.44700 28.28900
C  18.85000 -5.26600 26.90300
C  18.00300 -4.10800 26.74100
C  19.85100 -6.46900 29.20900
C  19.43000 -6.18500 25.74000
O  19.29200 -5.94800 24.51200
C  20.18500 -7.33300 26.15200
N  16.58900 -1.36600 26.28400
C  17.09300 -2.16800 25.33200
C  16.82300 -1.64200 23.93400
C  15.76100 -0.50400 24.20000
C  15.79800 -0.43900 25.71600
C  18.08600 -1.16300 23.26100
C  14.38100 -0.76200 23.48400
C  13.96100 0.39800 22.48800
N  15.37900 -0.20500 28.58300
C  14.79500 0.63900 27.69700
C  13.99900 1.66700 28.41600
C  14.27400 1.42100 29.74600
C  15.25100 0.33600 29.76700
C  13.05100 2.71400 27.83300
C  14.04600 1.83200 31.12500
O  13.19800 2.56400 31.60300
C  15.00200 0.99700 32.01800
C  15.76200 1.96000 32.87500
O  16.84400 2.43200 32.65700
O  15.06200 2.21100 33.98800
C  15.58700 3.09000 35.03500
H  19.15000 -4.60300 30.86500
H  18.02200 -3.90800 24.60600
H  14.35400 1.15400 25.72600
H  17.70500 -0.38500 33.10400
H  18.51000 -3.11800 33.02700
H  19.98500 -0.63400 32.80500
H  20.25400 -1.67800 31.43100
H  20.66800 -2.26700 33.01900
H  16.09900 -3.04600 33.48800
H  15.27700 -1.69700 33.24400
H  16.25900 -2.65700 35.70900
H  15.28900 -1.16200 35.34500
H  20.09400 -6.18200 30.23100
H  20.81700 -6.66700 28.74500
H  19.29400 -7.39800 29.33100
H  19.62800 -8.01400 26.79500
H  21.07700 -7.05700 26.71500
H  20.54100 -7.74600 25.20800
H  16.33600 -2.42700 23.35500
H  16.12600 0.44100 23.79700
H  18.56600 -0.26700 23.65500
H  18.11300 -1.09200 22.17300
H  18.89000 -1.87800 23.43500
H  13.58800 -1.00100 24.19300
H  14.50300 -1.60200 22.80100
H  12.90100 0.61200 22.35500
H  14.33100 0.09900 21.50800
H  14.51500 1.28400 22.79800
H  13.52600 3.47500 27.21500
H  12.63700 3.27900 28.66800
H  12.28000 2.19600 27.26200
H  14.30000 0.38000 32.57800
H  16.62800 2.89800 35.29500
H  14.95700 2.77500 35.86700
H  15.44100 4.14600 34.80800

