158

Mg 1.86300 -1.75400 44.83900
C  5.15800 -0.80600 43.96900
C  0.78300 1.07400 43.07300
C  -1.38000 -2.91900 44.80800
C  3.06700 -4.77500 45.89300
N  2.85300 -0.23100 43.52300
C  4.24400 0.04600 43.47400
C  4.54000 1.40300 42.82200
C  3.09400 2.06900 42.86800
C  2.12700 0.90700 43.23400
C  2.86200 3.28200 43.76500
C  5.22600 1.31600 41.39900
C  6.32300 2.30900 41.05700
H  7.58200 1.81300 40.33500
N  -0.13400 -0.91700 44.30700
C  -0.27200 0.20400 43.45800
C  -1.67000 0.35900 43.24300
C  -2.39800 -0.70300 43.91900
C  -1.30400 -1.58900 44.37100
C  -2.23900 1.57400 42.41500
C  -3.90200 -0.92200 43.96700
O  -4.64600 -0.15900 43.35800
C  -4.45200 -2.07600 44.66300
N  0.93300 -3.55600 45.21800
C  -0.41900 -3.81800 45.23300
C  -0.64900 -5.23100 45.81200
C  0.80900 -5.75800 46.14900
C  1.66200 -4.58300 45.75000
C  -1.57100 -5.39500 46.99500
C  1.24200 -7.03200 45.32300
C  1.73900 -8.23000 46.05000
N  3.77400 -2.63800 45.06200
C  4.09100 -3.83200 45.54000
C  5.52400 -4.01500 45.50800
C  5.97600 -2.82200 44.89900
C  4.83400 -2.01600 44.59300
C  6.29200 -5.08800 46.21300
C  7.23700 -2.08500 44.59400
O  8.42200 -2.36800 44.72200
C  6.73300 -0.78100 43.89400
C  7.35600 0.38400 44.51200
O  7.00800 0.93800 45.58100
O  8.33600 0.88900 43.69900
C  8.94200 2.16500 44.14800
H  0.33700 1.95900 42.61400
H  -2.40600 -3.29100 44.86500
H  3.43300 -5.72900 46.27900
H  5.26500 1.88900 43.47600
H  2.80400 2.46500 41.89500
H  2.66400 4.24600 43.29700
H  3.79500 3.39000 44.31700
H  2.10800 3.19800 44.54800
H  4.49100 1.54800 40.62800
H  5.44700 0.26700 41.20600
H  6.59900 2.88400 41.94200
H  5.95100 3.11700 40.42700
H  -2.25400 1.48700 41.32800
H  -1.67100 2.46400 42.68100
H  -3.28200 1.80600 42.63200
H  -4.26700 -3.02200 44.15400
H  -5.49800 -1.94400 44.93600
H  -4.03600 -1.96200 45.66400
H  -1.02700 -5.88300 45.02400
H  0.96100 -5.82400 47.22600
H  -2.28500 -6.18500 46.76300
H  -2.15800 -4.48500 47.12200
H  -1.09600 -5.66600 47.93700
H  1.96800 -6.79600 44.54500
H  0.46000 -7.48500 44.71400
H  1.47100 -8.26300 47.10600
H  2.82500 -8.30500 46.00500
H  1.26400 -9.14800 45.70300
H  6.18500 -4.86800 47.27600
H  7.35200 -5.04400 45.96500
H  5.85100 -6.07300 46.06300
H  7.12100 -0.81100 42.87500
H  8.11900 2.80100 44.47400
H  9.50600 2.56000 43.30200
H  9.64100 1.97300 44.96100
Mg 40.53500 9.62100 29.67600
C  42.47400 10.77000 32.25800
C  38.18400 8.40200 31.96600
C  38.83400 8.13300 27.15100
C  43.15700 10.44700 27.42200
N  40.32100 9.69300 31.85000
C  41.22700 10.19600 32.73000
C  40.73600 10.20700 34.19100
C  39.53600 9.18500 34.10700
C  39.31500 9.10400 32.58700
C  39.67200 7.74100 34.62500
C  40.43700 11.69200 34.68400
C  40.85100 12.13700 36.04700
H  39.61100 12.59600 36.91700
N  38.69400 8.49100 29.59900
C  37.83600 8.17400 30.61500
C  36.68300 7.48600 30.08300
C  36.93400 7.26100 28.74800
C  38.25900 7.93600 28.41700
C  35.53600 6.84200 30.88400
C  36.20400 6.43900 27.70900
O  36.65600 6.29900 26.52800
C  34.85400 5.85100 28.02500
N  41.04600 9.29600 27.61000
C  40.06100 8.71100 26.80500
C  40.53900 8.72800 25.33400
C  41.63400 9.81100 25.33900
C  41.98600 9.83000 26.84700
C  41.04300 7.39900 24.85200
C  41.17900 11.20200 24.75400
C  40.67000 12.20300 25.74700
N  42.45900 10.43700 29.81100
C  43.39300 10.74300 28.76400
C  44.58900 11.34900 29.39700
C  44.17200 11.39300 30.74800
C  42.92600 10.85400 30.94300
C  45.86900 11.85600 28.72900
C  44.60000 11.97300 32.01700
O  45.62000 12.60000 32.32200
C  43.53000 11.58000 33.07400
C  44.25000 10.74600 34.07000
O  44.81000 9.66100 33.76700
O  44.30200 11.37500 35.31400
C  45.09600 10.69900 36.43700
H  37.44600 8.14300 32.72800
H  38.28700 7.73600 26.29300
H  43.86400 10.88300 26.71300
H  41.46100 9.85200 34.92400
H  38.66100 9.62400 34.58400
H  39.83200 6.97700 33.86400
H  38.77600 7.43500 35.16500
H  40.52200 7.72600 35.30700
H  39.36100 11.77000 34.52500
H  40.90500 12.43400 34.03800
H  41.40300 13.05900 35.86100
H  41.47200 11.45800 36.63200
H  35.77800 7.03600 31.92900
H  35.35500 5.77100 30.79600
H  34.54100 7.25000 30.70400
H  34.12600 6.60300 28.33000
H  34.92700 5.04700 28.75800
H  34.35900 5.46600 27.13400
H  39.71300 9.14900 24.76200
H  42.58700 9.62500 24.84300
H  41.44600 6.83100 25.69100
H  41.73700 7.57500 24.03000
H  40.13400 6.91600 24.49500
H  40.47800 11.11600 23.92400
H  42.09300 11.48100 24.23000
H  41.49500 12.65200 26.29900
H  39.92800 11.70800 26.37400
H  40.18600 13.09200 25.34200
H  45.74300 12.76000 28.13200
H  46.10300 11.05000 28.03300
H  46.60300 11.97400 29.52500
H  43.20100 12.46000 33.62700
H  44.39800 10.40500 37.22100
H  45.72600 11.44900 36.91600
H  45.59900 9.81400 36.04700

