158

Mg 44.09200 4.19300 46.93300
C  42.10200 7.08700 46.78000
C  41.33400 2.25400 46.95800
C  46.12300 1.71000 46.67500
C  46.98500 6.47100 46.85500
N  41.95800 4.73200 46.84700
C  41.35200 5.94900 46.79400
C  39.79900 5.79900 46.88300
C  39.63300 4.25100 46.99200
C  41.08300 3.68700 46.84400
C  38.99800 3.88000 48.31000
C  38.98200 6.48100 45.80800
C  39.53200 6.30300 44.33800
H  38.52200 6.03700 43.18400
N  43.75900 2.22100 46.77000
C  42.58900 1.58900 46.82900
C  42.76600 0.19300 46.62500
C  44.17000 -0.10900 46.55800
C  44.77800 1.27400 46.72000
C  41.66600 -0.79800 46.45100
C  44.79200 -1.45800 46.41700
O  44.04600 -2.41300 46.18900
C  46.31000 -1.78300 46.44100
N  46.32000 4.15200 46.57000
C  46.80200 2.90700 46.67500
C  48.39900 2.98000 46.73700
C  48.69400 4.54300 46.75000
C  47.30800 5.11700 46.71300
C  49.15400 2.08000 47.80000
C  49.46400 5.04300 45.49100
C  51.02800 4.86400 45.48900
N  44.52800 6.36300 46.71200
C  45.69400 7.07400 46.77000
C  45.42000 8.50600 46.81800
C  43.99300 8.55300 46.85600
C  43.49000 7.24200 46.76200
C  46.40700 9.57800 46.89500
C  42.83400 9.42500 46.83200
O  42.81600 10.64100 46.67300
C  41.55800 8.54100 46.82000
C  40.77400 8.83600 48.12500
O  40.92500 8.19500 49.16600
O  39.96900 9.91900 48.06300
C  39.09400 10.00300 49.24200
H  40.40700 1.68000 46.91500
H  46.82200 0.87000 46.67600
H  47.91700 6.99100 47.08800
H  39.43800 6.16900 47.84200
H  39.01100 3.81800 46.20900
H  38.30100 4.63600 48.67000
H  39.73200 3.61100 49.07000
H  38.53700 2.91400 48.10700
H  38.69700 7.50200 46.06200
H  38.07100 5.88500 45.76700
H  40.28400 5.52400 44.21500
H  40.02400 7.25300 44.13000
H  41.85800 -1.55500 45.69000
H  40.71500 -0.26500 46.45700
H  41.63500 -1.42300 47.34300
H  46.83100 -1.21000 45.67400
H  46.51100 -2.84200 46.27400
H  46.60600 -1.65200 47.48200
H  48.63600 2.47400 45.80100
H  49.32300 4.81900 47.59700
H  48.29800 1.77400 48.40200
H  49.85600 2.72000 48.33300
H  49.55600 1.18500 47.32500
H  49.19500 6.05600 45.19100
H  49.09600 4.37300 44.71400
H  51.34500 4.19500 44.68900
H  51.31700 4.45700 46.45800
H  51.52900 5.81300 45.29800
H  47.40100 9.19300 46.66800
H  46.51800 9.88200 47.93600
H  46.16500 10.43000 46.26000
H  40.97800 8.79500 45.93300
H  39.59000 10.63100 49.98200
H  38.69200 9.18500 49.84000
H  38.20100 10.46300 48.81700
Mg -1.14100 34.00800 27.25400
C  -3.04800 32.39500 29.63300
C  0.29500 35.94900 29.74000
C  0.17100 36.02600 24.83500
C  -2.97800 32.32600 24.74300
N  -1.49300 34.25100 29.40700
C  -2.22100 33.36100 30.11800
C  -1.95800 33.64300 31.62300
C  -0.98900 34.79300 31.64900
C  -0.70600 35.04300 30.18800
C  -1.38400 36.07400 32.44200
C  -1.37100 32.28300 32.32800
C  -2.03700 31.86900 33.58900
H  -1.26600 32.15000 34.89500
N  0.09700 35.76000 27.28600
C  0.62600 36.36700 28.42200
C  1.37200 37.50700 28.00700
C  1.34200 37.57500 26.58600
C  0.47300 36.48800 26.14500
C  2.04000 38.36400 29.05600
C  2.05500 38.52500 25.65600
O  2.00600 38.31200 24.46100
C  2.62100 39.81500 26.16000
N  -1.42900 34.16600 25.07200
C  -0.62400 34.98200 24.34400
C  -0.88100 34.83100 22.83300
C  -1.72500 33.58800 22.88200
C  -2.18400 33.35300 24.31600
C  -1.59400 36.08900 22.22700
C  -1.10800 32.34400 22.15300
C  0.02800 31.58800 22.91100
N  -2.75500 32.74300 27.08900
C  -3.24800 32.02300 26.03600
C  -4.20000 31.01600 26.53100
C  -4.16100 31.13800 27.94900
C  -3.18900 32.13900 28.23700
C  -5.06200 30.01900 25.78000
C  -4.68200 30.62800 29.16500
O  -5.55900 29.84700 29.34900
C  -3.89900 31.40800 30.31400
C  -4.98700 32.09500 31.15300
O  -5.62200 33.12300 30.85600
O  -5.24200 31.38300 32.32400
C  -6.32500 31.94200 33.18900
H  0.79900 36.45000 30.56900
H  0.71700 36.58900 24.07500
H  -3.34800 31.54600 24.07500
H  -2.91900 33.85900 32.09100
H  -0.06000 34.43500 32.09300
H  -1.24000 37.00400 31.89300
H  -0.72700 35.96600 33.30500
H  -2.43700 36.00800 32.71700
H  -0.30200 32.42000 32.49300
H  -1.42100 31.45100 31.62500
H  -2.26000 30.80200 33.57000
H  -2.99900 32.38100 33.58400
H  3.07200 38.43000 28.71200
H  1.94100 37.96800 30.06600
H  1.57400 39.34900 29.10400
H  2.95900 40.38000 25.29100
H  3.54500 39.61500 26.70200
H  1.95600 40.27400 26.89100
H  0.10300 34.66400 22.39600
H  -2.62600 33.77300 22.29700
H  -1.43600 36.96300 22.85900
H  -2.67300 36.10000 22.07600
H  -1.05800 36.24500 21.29100
H  -0.61200 32.64300 21.22900
H  -1.88400 31.63700 21.85700
H  -0.38200 30.65200 23.29200
H  0.54200 32.21300 23.64200
H  0.77600 31.23900 22.19900
H  -5.09200 30.15700 24.69900
H  -6.07200 30.21700 26.13800
H  -4.65100 29.04500 26.04700
H  -3.36300 30.69500 30.94000
H  -7.09600 32.32900 32.52300
H  -5.90900 32.69500 33.85900
H  -6.84700 31.17700 33.76300

