158

Mg 16.68400 -2.70900 28.15600
C  15.37300 -0.29000 30.38600
C  18.65900 -4.10000 30.59500
C  18.26800 -4.57800 25.71600
C  15.37600 -0.65400 25.57100
N  16.93300 -2.25400 30.25200
C  16.29600 -1.22600 31.00000
C  16.80800 -1.25100 32.42200
C  17.86500 -2.38600 32.42400
C  17.87200 -2.95700 30.97300
C  19.19100 -1.85400 32.92200
C  15.65700 -1.42100 33.52100
C  15.46800 -0.49900 34.71200
H  16.83900 0.11300 35.26100
N  18.02600 -4.16800 28.18600
C  18.62100 -4.72500 29.32400
C  19.41700 -5.91800 28.94100
C  19.36900 -6.05600 27.50100
C  18.51700 -4.90800 27.06100
C  20.25900 -6.66200 29.93500
C  20.06700 -7.04500 26.54800
O  19.84800 -7.11000 25.34500
C  21.07100 -8.10900 27.18000
N  16.76800 -2.62800 25.93400
C  17.46700 -3.53600 25.18400
C  17.43300 -3.20000 23.70100
C  16.38200 -2.09600 23.61900
C  16.13800 -1.77100 25.13700
C  18.76600 -2.90900 23.09500
C  15.06000 -2.42700 22.91900
C  14.17600 -1.39600 22.37800
N  15.46200 -0.91900 27.99500
C  14.97000 -0.20900 26.89600
C  14.09900 0.89100 27.26600
C  14.16900 0.84500 28.66700
C  15.02900 -0.23600 29.04400
C  13.50200 1.84700 26.28300
C  13.79800 1.51300 29.87800
O  13.02200 2.47500 29.98300
C  14.50000 0.76100 30.99100
C  15.21100 1.89200 31.70600
O  16.34400 2.36100 31.48600
O  14.47600 2.36900 32.67900
C  15.00900 3.36800 33.57200
H  19.28600 -4.70300 31.25500
H  18.79700 -5.12700 24.93500
H  15.01000 0.00900 24.78400
H  17.30800 -0.29500 32.57700
H  17.42700 -3.10900 33.11100
H  19.29200 -0.77400 32.81700
H  19.93300 -2.35000 32.29700
H  19.32300 -2.07900 33.98000
H  15.56600 -2.45400 33.86000
H  14.75400 -1.19500 32.95400
H  14.91100 -1.20400 35.33000
H  14.84200 0.35700 34.46100
H  20.31300 -7.74100 29.79100
H  19.76200 -6.55800 30.89900
H  21.19200 -6.10000 29.98000
H  21.64200 -7.61400 27.96500
H  21.74600 -8.47800 26.40700
H  20.60500 -9.01500 27.56600
H  16.97700 -4.09400 23.27500
H  16.74500 -1.17300 23.16700
H  19.44600 -2.68600 23.91600
H  18.62700 -1.97900 22.54300
H  19.04900 -3.78700 22.51400
H  14.42000 -3.06400 23.53100
H  15.32900 -2.98100 22.02000
H  14.20700 -1.40000 21.28800
H  14.45900 -0.37500 22.63500
H  13.19400 -1.72600 22.71700
H  12.92700 1.33700 25.51000
H  14.27800 2.52200 25.92100
H  12.80800 2.56300 26.72400
H  13.83000 0.23300 31.67000
H  15.50100 2.97700 34.46300
H  14.12300 3.91500 33.89400
H  15.56500 4.09200 32.97500
Mg 34.94900 1.23900 30.10700
C  32.72900 2.10900 32.68300
C  37.48200 1.14900 32.35100
C  36.97400 0.46000 27.59800
C  32.29200 1.85100 27.79000
N  35.09800 1.74200 32.28300
C  34.06700 1.91000 33.18000
C  34.58400 1.96100 34.66400
C  36.13700 1.97700 34.45200
C  36.30100 1.65700 32.93100
C  36.99400 3.22500 34.90800
C  33.97500 0.89700 35.56600
C  33.65800 1.40900 37.01300
H  34.57600 2.56800 37.65400
N  36.97700 0.88700 29.97200
C  37.87200 0.84000 30.99400
C  39.19600 0.46700 30.48600
C  39.03600 0.21300 29.12300
C  37.63700 0.52600 28.81600
C  40.47800 0.64500 31.21400
C  40.04100 -0.35500 28.16000
O  39.83200 -0.39600 26.93600
C  41.47100 -0.70100 28.60800
N  34.66000 1.24500 28.00100
C  35.68800 0.77800 27.23400
C  35.20500 0.65600 25.73100
C  33.74600 1.23200 25.73300
C  33.52500 1.46400 27.20100
C  36.07700 1.48800 24.72700
C  32.70600 0.27100 24.99300
C  31.98400 0.89200 23.83700
N  32.94700 1.69300 30.20400
C  32.03000 2.03100 29.16500
C  30.80100 2.45000 29.80200
C  31.05200 2.46300 31.13900
C  32.31200 1.92800 31.38700
C  29.55000 2.94100 29.15600
C  30.41300 2.67200 32.35100
O  29.32800 3.08400 32.59600
C  31.48400 2.40600 33.48100
C  31.55300 3.68300 34.24300
O  31.99500 4.73000 33.84900
O  30.88900 3.49100 35.43500
C  31.04000 4.55300 36.41400
H  38.20700 0.82400 33.10000
H  37.59200 0.03100 26.80800
H  31.59000 2.16100 27.01300
H  34.36900 2.94300 35.08400
H  36.62600 1.10800 34.89300
H  36.21500 3.95700 35.12100
H  37.68300 3.54700 34.12700
H  37.65300 2.91700 35.72000
H  34.77100 0.15300 35.57100
H  33.12100 0.35300 35.16200
H  33.32600 0.61200 37.67900
H  32.69800 1.89800 36.84300
H  41.22100 1.09500 30.55400
H  40.84800 -0.32100 31.55700
H  40.34300 1.33300 32.04800
H  41.38100 -1.30900 29.50800
H  42.06800 0.20400 28.72400
H  41.88400 -1.22300 27.74500
H  35.22100 -0.38200 25.39700
H  33.68700 2.22300 25.28300
H  36.15100 1.09600 23.71300
H  37.09100 1.48100 25.12700
H  35.89100 2.56000 24.65700
H  31.98100 -0.02000 25.75300
H  33.13100 -0.70200 24.74600
H  32.13000 0.17200 23.03300
H  32.31400 1.91200 23.63600
H  30.94400 1.07000 24.11200
H  29.78100 3.37700 28.18300
H  29.19300 3.73100 29.81700
H  28.83400 2.13500 28.99700
H  31.14400 1.56600 34.08700
H  30.17500 4.53900 37.07800
H  31.15800 5.52900 35.94400
H  31.94600 4.38800 36.99700

