158

Mg 48.47600 34.95200 27.22800
C  46.78500 33.47400 29.91500
C  49.36700 37.61100 29.24100
C  49.72900 36.46400 24.46700
C  47.34200 32.28700 25.20500
N  48.11800 35.44300 29.33800
C  47.60600 34.57300 30.28300
C  47.79800 35.13200 31.67900
C  48.19800 36.60600 31.37700
C  48.63900 36.56700 29.90100
C  47.18300 37.71600 31.67800
C  48.95800 34.37500 32.44600
C  48.85000 34.25400 33.93600
H  47.90800 35.16000 34.78400
N  49.53300 36.76400 26.93800
C  49.79900 37.69900 27.88400
C  50.54900 38.68700 27.28400
C  50.81800 38.33100 25.98700
C  49.92900 37.23900 25.70700
C  51.12900 39.76200 28.06200
C  51.77700 38.96600 24.90100
O  51.93800 38.45100 23.81000
C  52.55100 40.15900 25.37400
N  48.34600 34.52300 25.06300
C  48.95000 35.32600 24.17500
C  48.89600 34.74200 22.74600
C  48.30100 33.32700 22.94000
C  48.03200 33.34200 24.55200
C  48.24000 35.66900 21.70200
C  49.10100 32.10300 22.42300
C  50.01300 31.43100 23.41100
N  47.14000 33.29100 27.47500
C  46.91100 32.23900 26.57600
C  46.08900 31.29000 27.25800
C  45.95300 31.77600 28.53400
C  46.64700 32.97600 28.61200
C  45.62600 29.97900 26.62000
C  45.34900 31.52100 29.75900
O  44.68200 30.54800 30.13600
C  45.80300 32.61900 30.72200
C  46.40000 31.90000 31.94600
O  47.46800 31.37200 32.02200
O  45.45300 31.81300 32.93200
C  45.87100 30.97600 34.18100
H  49.62800 38.42600 29.91900
H  50.03600 36.96000 23.54300
H  47.04400 31.40200 24.63800
H  46.87300 35.02400 32.24600
H  49.18700 36.79700 31.79300
H  46.42200 37.38300 32.38500
H  46.61500 37.90500 30.76700
H  47.71200 38.52200 32.18800
H  49.90500 34.78900 32.09900
H  48.94000 33.33100 32.13200
H  49.80300 34.19100 34.46300
H  48.41600 33.26000 34.03600
H  50.65800 40.67600 27.70300
H  52.21000 39.83200 27.94100
H  50.99400 39.78600 29.14400
H  53.18600 40.51300 24.56300
H  53.22500 40.05500 26.22500
H  51.77500 40.89800 25.57400
H  49.95400 34.59100 22.53100
H  47.29100 33.36100 22.53000
H  47.41300 35.17400 21.19200
H  49.00000 36.09600 21.04700
H  47.65600 36.49100 22.11600
H  49.68400 32.57500 21.63200
H  48.34700 31.37200 22.13100
H  50.99000 31.48000 22.93000
H  49.63200 30.42800 23.59900
H  50.12900 32.05700 24.29600
H  46.14800 29.08500 26.95900
H  45.83800 29.92100 25.55200
H  44.55500 29.81200 26.73900
H  44.95200 33.19200 31.09000
H  46.85200 31.27000 34.55400
H  45.88500 29.93300 33.86400
H  45.21700 30.85600 35.04400
Mg 36.06900 49.22200 26.24400
C  36.40000 47.02600 29.07800
C  35.02700 51.59100 28.48200
C  35.43800 51.05100 23.67300
C  36.91600 46.61600 24.16500
N  35.64900 49.19300 28.47400
C  35.96800 48.28400 29.44500
C  35.99100 48.84300 30.91900
C  35.26100 50.14700 30.67100
C  35.33300 50.37300 29.10800
C  33.78000 50.19400 31.09500
C  37.43900 49.12500 31.49600
C  37.65200 48.88000 33.00400
H  36.49500 49.19900 33.96600
N  35.38700 51.11200 26.07900
C  35.03100 51.93000 27.10600
C  34.60000 53.14900 26.54000
C  34.82500 53.11300 25.13800
C  35.28400 51.72900 24.93200
C  34.15700 54.21100 27.45700
C  34.55300 54.08400 24.00500
O  34.76900 53.86800 22.82300
C  33.99800 55.34900 24.45400
N  36.22600 48.87700 24.13200
C  35.79500 49.72500 23.28100
C  35.67100 49.23600 21.83600
C  36.18300 47.77400 22.05900
C  36.44300 47.71400 23.52800
C  34.31600 49.38200 21.12700
C  37.45400 47.44500 21.16200
C  38.83500 47.37300 21.79500
N  36.60700 47.23000 26.48400
C  37.01400 46.30100 25.52400
C  37.34400 45.14000 26.17500
C  37.06900 45.33500 27.58200
C  36.67700 46.65400 27.72900
C  37.70600 43.87700 25.50600
C  37.08700 44.67700 28.86500
O  37.44700 43.54300 29.11200
C  36.68100 45.76500 29.95100
C  35.52700 45.27500 30.65600
O  34.41800 45.13000 30.20500
O  35.90600 45.17700 31.97200
C  34.79200 44.70300 32.75900
H  34.62400 52.28200 29.22400
H  34.99600 51.70200 22.91600
H  37.23000 45.76000 23.56500
H  35.51700 48.13600 31.60000
H  35.64800 51.01100 31.21200
H  33.56100 49.50000 31.90600
H  33.13300 49.87500 30.27800
H  33.63100 51.22900 31.40300
H  37.77600 50.10700 31.16300
H  38.11200 48.38300 31.06700
H  38.36600 49.60900 33.38800
H  37.99400 47.86200 33.19000
H  33.53400 53.91000 28.30000
H  33.65200 54.97600 26.86700
H  34.99400 54.76200 27.88700
H  34.00800 56.03700 23.60800
H  34.66800 55.80000 25.18600
H  32.99900 55.14500 24.84000
H  36.34300 49.85300 21.23900
H  35.37300 47.06500 21.88900
H  33.69900 49.99600 21.78200
H  33.67600 48.51200 20.98100
H  34.55600 49.90100 20.19900
H  37.49300 48.16800 20.34700
H  37.17500 46.50900 20.67900
H  38.83700 47.47100 22.88100
H  39.39600 48.19300 21.34700
H  39.35100 46.41600 21.72200
H  36.78900 43.35900 25.22600
H  38.32200 43.32300 26.21400
H  38.40600 44.10000 24.70100
H  37.49800 45.89700 30.66000
H  33.82900 45.19100 32.61400
H  35.10000 44.99900 33.76200
H  34.71900 43.61900 32.66800

