158

Mg 8.66200 47.59100 24.65800
C  6.24200 48.19600 27.23900
C  11.07600 48.72100 26.75200
C  10.81000 47.50500 22.08200
C  5.96700 47.35700 22.41000
N  8.63100 48.60700 26.68700
C  7.57000 48.41800 27.60000
C  8.00000 48.61500 29.03400
C  9.48200 49.20100 28.78900
C  9.82100 48.75100 27.35200
C  9.48800 50.77700 28.94600
C  8.10300 47.35300 29.89500
C  8.22000 47.56700 31.44300
H  7.58700 46.42300 32.18100
N  10.61800 47.85400 24.51500
C  11.46900 48.31000 25.49300
C  12.76600 48.25100 24.96800
C  12.75800 47.73800 23.61400
C  11.32500 47.65500 23.37700
C  14.05000 48.53500 25.86200
C  13.83000 47.45200 22.66400
O  13.68200 47.14300 21.48500
C  15.30200 47.63000 23.12500
N  8.36400 47.58700 22.53800
C  9.46300 47.53600 21.70000
C  9.00300 47.53100 20.22300
C  7.48500 47.05300 20.34200
C  7.21800 47.43700 21.78400
C  9.18100 48.92200 19.57900
C  7.27000 45.55600 19.98400
C  5.96400 45.22200 19.24500
N  6.50600 47.69300 24.75300
C  5.58500 47.52600 23.78700
C  4.25600 47.48500 24.42300
C  4.48000 47.74200 25.73600
C  5.84900 47.92600 25.91800
C  2.96900 47.30600 23.69200
C  3.77100 47.91600 27.01100
O  2.58100 47.81700 27.30100
C  4.87600 48.29600 28.03700
C  4.66700 47.39500 29.17800
O  4.77200 46.18800 29.17700
O  4.41900 48.16400 30.29700
C  4.12900 47.47000 31.54500
H  11.88800 49.10800 27.37300
H  11.46200 47.35800 21.21800
H  5.08300 47.04400 21.85200
H  7.36800 49.33500 29.55400
H  10.20300 48.79000 29.49600
H  9.60200 51.01800 30.00200
H  8.60800 51.18800 28.45000
H  10.34800 51.06600 28.34200
H  8.92900 46.71600 29.57800
H  7.25600 46.70600 29.66800
H  7.81000 48.52900 31.75100
H  9.28100 47.55000 31.69400
H  13.83300 49.02800 26.81000
H  14.69200 49.29900 25.42500
H  14.59700 47.61700 26.07700
H  15.57500 47.04600 24.00400
H  15.54200 48.69000 23.20200
H  15.98700 47.18200 22.40500
H  9.46900 46.74800 19.62600
H  6.93800 47.63100 19.59700
H  9.52700 49.63300 20.32900
H  8.26400 49.23700 19.08100
H  9.90700 48.73300 18.78900
H  7.18400 44.98900 20.91100
H  8.19000 45.21500 19.50800
H  5.39900 44.31900 19.47500
H  6.08900 45.19500 18.16200
H  5.30000 46.06400 19.44400
H  2.42400 46.60000 24.31800
H  3.18600 46.97300 22.67700
H  2.47300 48.27200 23.59600
H  4.68900 49.34400 28.27200
H  4.95200 47.83400 32.16000
H  4.13000 46.38400 31.46000
H  3.24600 47.91200 32.00800
Mg -9.22200 41.12300 42.25100
C  -8.33100 37.88200 41.70200
C  -6.43200 42.02200 40.35500
C  -10.35300 44.17900 42.20100
C  -12.12900 39.97900 43.86300
N  -7.65800 40.02100 41.05400
C  -7.49800 38.74600 41.05000
C  -6.33100 38.32800 40.25900
C  -5.61900 39.68200 39.87100
C  -6.59900 40.62100 40.47800
C  -4.15300 39.87300 40.28300
C  -6.68000 37.48500 38.91400
C  -5.50200 36.54400 38.52000
H  -4.60200 37.04300 37.39500
N  -8.50300 42.81900 41.38900
C  -7.30700 43.02200 40.70700
C  -7.17100 44.41700 40.29600
C  -8.32400 45.06900 40.81700
C  -9.10100 44.05500 41.61000
C  -5.99400 44.86500 39.42200
C  -8.62100 46.54700 40.51200
O  -7.91000 47.18700 39.73800
C  -9.78300 47.23500 41.12800
N  -11.13300 41.94400 42.69400
C  -11.31200 43.31500 42.74200
C  -12.62100 43.69100 43.45100
C  -13.17500 42.30900 43.99300
C  -12.12500 41.31200 43.46700
C  -12.40800 44.77800 44.50200
C  -14.68800 42.10900 43.51200
C  -15.72500 41.67700 44.50800
N  -10.05200 39.31200 42.88300
C  -11.19100 38.97400 43.45500
C  -11.28900 37.56200 43.69000
C  -10.12700 37.09800 42.97100
C  -9.47100 38.17500 42.41800
C  -12.39900 36.77700 44.44900
C  -9.30900 35.91400 42.80700
O  -9.48500 34.79300 43.22100
C  -8.18800 36.40700 41.83000
C  -6.89600 36.03600 42.44300
O  -6.52700 36.46200 43.56800
O  -6.25900 34.97700 41.80600
C  -5.14700 34.35400 42.57600
H  -5.57900 42.31000 39.73800
H  -10.69600 45.20700 42.33500
H  -13.00800 39.73400 44.46300
H  -5.66200 37.86800 40.98600
H  -5.74100 39.82800 38.79800
H  -4.09400 40.37600 41.24800
H  -3.59000 40.53000 39.62000
H  -3.64900 38.91000 40.20400
H  -7.02600 38.12700 38.10400
H  -7.51400 36.79800 39.05800
H  -5.98700 35.64500 38.14100
H  -4.98400 36.39400 39.46700
H  -6.15100 44.86000 38.34400
H  -5.09500 44.28600 39.63200
H  -5.72600 45.89200 39.67200
H  -9.89100 48.22300 40.68000
H  -9.70500 47.31300 42.21200
H  -10.69100 46.66300 40.93400
H  -13.14200 44.18500 42.63100
H  -13.01800 42.31500 45.07200
H  -12.90400 45.65500 44.08600
H  -11.39000 45.16900 44.49900
H  -12.68000 44.46100 45.50900
H  -14.63300 41.31000 42.77400
H  -15.01000 42.96400 42.91700
H  -15.39000 41.93000 45.51400
H  -16.05100 40.63800 44.45600
H  -16.55900 42.36700 44.38400
H  -13.37400 36.60900 43.99100
H  -12.51600 37.14800 45.46700
H  -12.04000 35.76200 44.61300
H  -8.38400 35.99300 40.84100
H  -5.48000 34.20300 43.60300
H  -4.19900 34.89100 42.54800
H  -4.95400 33.38700 42.11200

