158

Mg 55.68400 24.52300 44.67100
C  52.96600 26.45400 43.72800
C  53.89100 21.71000 43.33600
C  58.44900 22.91400 44.89900
C  57.20900 27.48700 45.97700
N  53.78000 24.15100 43.52500
C  52.87000 25.11700 43.22800
C  51.67100 24.52700 42.55800
C  51.75400 23.07600 42.99800
C  53.22000 22.93200 43.31300
C  50.81700 22.69300 44.14500
C  51.62300 24.76500 41.00100
C  50.17000 24.58200 40.48100
H  49.96400 24.81000 38.95100
N  56.08400 22.60000 44.08200
C  55.27100 21.58300 43.64600
C  55.99600 20.30500 43.55900
C  57.32700 20.64600 44.00300
C  57.34400 22.08900 44.36400
C  55.43300 18.94900 43.10500
C  58.44100 19.65300 44.13800
O  58.38400 18.60800 43.52800
C  59.65300 19.92700 44.84200
N  57.58400 25.09700 45.39900
C  58.61600 24.18000 45.38500
C  59.91400 24.83600 45.85500
C  59.50400 26.31700 46.19400
C  58.00200 26.32000 45.87800
C  60.52500 24.14500 47.12800
C  60.35300 27.50600 45.40800
C  60.80500 28.79700 46.22500
N  55.19800 26.57100 44.96500
C  55.89800 27.64200 45.51300
C  55.05400 28.80000 45.38600
C  53.84700 28.37900 44.73500
C  54.06200 27.05300 44.44300
C  55.44000 30.17900 45.88300
C  52.60500 28.79100 44.31300
O  52.11800 29.86900 44.38700
C  51.88900 27.56400 43.60700
C  51.49100 27.97000 42.24500
O  52.27600 28.20100 41.33800
O  50.08700 28.11000 42.17000
C  49.57600 28.48100 40.76300
H  53.32300 20.83600 43.01200
H  59.44100 22.46300 44.96800
H  57.68100 28.38500 46.38200
H  50.76200 24.98800 42.94200
H  51.54400 22.39600 42.17200
H  51.46300 22.61900 45.02000
H  50.47300 21.67800 43.94700
H  50.03400 23.41600 44.37500
H  52.22400 24.02100 40.47800
H  52.03100 25.74300 40.74300
H  49.56500 25.41500 40.83800
H  49.79200 23.58700 40.71800
H  55.24700 18.22700 43.90000
H  56.15400 18.45800 42.45200
H  54.49800 19.05100 42.55400
H  60.22300 20.56200 44.16500
H  60.15500 18.96800 44.97400
H  59.42300 20.42700 45.78300
H  60.69200 24.78700 45.09300
H  59.55000 26.50400 47.26600
H  60.18600 23.13400 47.35200
H  60.46200 24.66600 48.08300
H  61.59400 24.19300 46.92000
H  59.90600 27.81600 44.46300
H  61.33200 27.09700 45.16000
H  60.22400 28.83400 47.14700
H  60.69300 29.73300 45.67900
H  61.84100 28.69400 46.54800
H  56.39000 30.08900 46.41100
H  54.79900 30.66700 46.61700
H  55.58200 30.92400 45.10000
H  51.01900 27.21500 44.16300
H  49.15200 29.48300 40.68900
H  48.86600 27.69600 40.50200
H  50.34500 28.51600 39.99200
Mg -2.50800 35.39800 26.41000
C  -4.29600 33.99200 29.16600
C  -1.41700 37.74900 28.53000
C  -0.82300 36.83900 23.84000
C  -3.71900 33.00800 24.39700
N  -2.93300 35.82000 28.62000
C  -3.47300 35.05700 29.62000
C  -3.38200 35.67200 30.98600
C  -2.43300 36.87100 30.75300
C  -2.23500 36.82100 29.19600
C  -2.88900 38.15400 31.46100
C  -3.01100 34.63600 32.02700
C  -3.98200 34.62100 33.30500
H  -3.46400 34.19900 34.77000
N  -1.23300 37.06600 26.21500
C  -0.94900 37.88100 27.23400
C  0.04100 38.85900 26.72800
C  0.46800 38.37500 25.43000
C  -0.53100 37.35200 25.08200
C  0.57500 40.05100 27.51400
C  1.56700 38.93800 24.60100
O  1.76100 38.53300 23.47100
C  2.49000 40.00900 25.20600
N  -2.50000 35.13000 24.38600
C  -1.67700 35.78800 23.53500
C  -1.54000 35.09300 22.25400
C  -2.51800 33.81000 22.41600
C  -2.90900 33.96600 23.82600
C  -1.78200 35.97400 21.00700
C  -1.81500 32.46200 22.05200
C  -2.66400 31.38000 21.47900
N  -3.96900 33.95800 26.54600
C  -4.30400 32.99800 25.63500
C  -5.31300 32.12000 26.19900
C  -5.40300 32.51200 27.59500
C  -4.45600 33.58600 27.75000
C  -6.16600 31.03000 25.49600
C  -6.00700 32.13300 28.84600
O  -6.72600 31.18900 29.19200
C  -5.27000 33.08000 29.93000
C  -6.38400 33.91200 30.53700
O  -6.71400 35.07500 30.30300
O  -7.02600 33.22300 31.59200
C  -8.02800 33.99600 32.44300
H  -1.00400 38.50000 29.20600
H  -0.18800 37.25700 23.05500
H  -4.04200 32.19000 23.74900
H  -4.41200 35.96900 31.18500
H  -1.58100 36.47500 31.30500
H  -2.05500 38.52900 32.05400
H  -3.70000 37.81900 32.10800
H  -3.34700 38.88200 30.79200
H  -1.95500 34.69600 32.29200
H  -3.04200 33.69000 31.48600
H  -4.70100 33.83700 33.06900
H  -4.53400 35.56100 33.29400
H  1.64000 40.09700 27.73800
H  0.09100 40.12400 28.48800
H  0.41800 40.97600 26.95900
H  3.33700 40.27100 24.57200
H  2.97700 39.77100 26.15200
H  1.88300 40.90600 25.32700
H  -0.53700 34.68300 22.13300
H  -3.47900 33.85000 21.90300
H  -2.78800 35.77300 20.64000
H  -1.02200 35.93900 20.22600
H  -1.89800 36.99800 21.36300
H  -1.27700 31.94100 22.84400
H  -0.99200 32.58500 21.34800
H  -3.18300 30.85600 22.28100
H  -2.06800 30.75100 20.81800
H  -3.40700 31.79800 20.80000
H  -7.21600 31.32400 25.51200
H  -5.96300 30.09300 26.01500
H  -5.87600 31.07900 24.44700
H  -4.79200 32.54000 30.74700
H  -7.56500 34.75300 33.07600
H  -8.49200 33.24200 33.07800
H  -8.74800 34.46200 31.76900

