158

Mg 41.25600 41.84200 27.03500
C  40.45000 44.10700 29.47800
C  42.30800 39.60400 29.32700
C  42.66000 39.90100 24.52900
C  40.85700 44.42900 24.63100
N  41.22700 41.83500 29.15200
C  40.73200 42.83500 29.98600
C  40.92700 42.45900 31.44500
C  41.57000 41.03700 31.37000
C  41.77300 40.83400 29.86000
C  42.85000 40.84600 32.28300
C  39.54900 42.44300 32.21600
C  39.51200 41.51700 33.43800
H  38.91900 41.96900 34.71800
N  42.04600 39.88200 26.94500
C  42.38800 39.11500 28.01200
C  42.75600 37.79800 27.55000
C  42.85300 37.89500 26.16000
C  42.53600 39.29100 25.78400
C  43.12900 36.72000 28.63900
C  43.41600 36.86000 25.17100
O  43.66400 37.16000 24.02600
C  43.69700 35.41000 25.67700
N  41.69800 42.14400 24.98200
C  42.20300 41.17900 24.06900
C  42.18000 41.65100 22.62500
C  41.24900 42.94300 22.75900
C  41.32500 43.24400 24.22100
C  43.63100 42.17500 22.25600
C  39.72900 42.76400 22.31600
C  38.81700 41.55600 22.76300
N  40.87100 43.94800 27.03000
C  40.70700 44.83900 25.96500
C  40.41400 46.13300 26.49700
C  40.37200 45.93400 27.91100
C  40.58700 44.53600 28.14000
C  40.33800 47.34900 25.71900
C  40.14800 46.56500 29.18300
O  39.99000 47.74900 29.44400
C  40.20300 45.40100 30.23400
C  41.19200 45.66200 31.34600
O  42.31100 45.99500 31.13600
O  40.54900 45.56100 32.53800
C  41.25500 45.80600 33.77100
H  42.74900 38.99300 30.11800
H  42.89100 39.26800 23.67100
H  40.45400 45.10300 23.87200
H  41.64600 43.16300 31.86300
H  40.81400 40.27100 31.54200
H  43.69200 40.63800 31.62300
H  42.80900 39.88700 32.79900
H  43.02400 41.57200 33.07700
H  38.66900 42.25900 31.60000
H  39.44800 43.42300 32.68400
H  40.47400 41.05100 33.65300
H  38.85200 40.72500 33.08400
H  43.35900 35.68400 28.39100
H  42.29600 36.60900 29.33200
H  43.92500 37.17300 29.23000
H  42.72400 34.98700 25.92900
H  44.23100 35.37900 26.62700
H  44.16200 34.81400 24.89100
H  41.73500 40.94500 21.92400
H  41.72500 43.79200 22.26900
H  43.79500 42.03700 21.18700
H  44.42200 41.63300 22.77500
H  43.77200 43.24400 22.41700
H  39.62100 42.79600 21.23100
H  39.33900 43.73100 22.63600
H  39.32800 40.77700 23.32800
H  38.48300 41.08600 21.83800
H  37.84100 41.83300 23.16300
H  39.92600 48.20100 26.26100
H  39.56400 47.03200 25.01900
H  41.20000 47.58800 25.09600
H  39.25000 45.54100 30.74400
H  41.57600 46.84100 33.65100
H  42.06900 45.12800 34.02700
H  40.62200 45.85300 34.65700
Mg -0.35700 43.10900 25.77000
C  2.22300 42.52500 28.27000
C  -2.63800 41.96000 28.11000
C  -2.66500 43.45800 23.41300
C  2.25000 43.66200 23.51700
N  -0.15100 42.34400 27.93400
C  0.94400 42.29200 28.74600
C  0.58000 41.95200 30.20500
C  -0.89200 41.47900 29.97500
C  -1.27300 41.91400 28.55600
C  -1.23500 39.93600 30.16200
C  0.77100 43.14700 31.17300
C  1.18700 42.72300 32.59100
H  0.57600 41.44500 33.13900
N  -2.42000 42.85200 25.80400
C  -3.23000 42.35700 26.84700
C  -4.62600 42.60700 26.49800
C  -4.65100 43.00600 25.11300
C  -3.20900 43.12100 24.68400
C  -5.73200 42.56600 27.55200
C  -5.79400 43.43400 24.29800
O  -5.63000 43.86700 23.17400
C  -7.18900 43.36300 24.79800
N  -0.22900 43.53000 23.83800
C  -1.30100 43.50000 22.99300
C  -0.93100 43.97400 21.52100
C  0.59100 44.36800 21.71700
C  0.90500 43.86700 23.09000
C  -1.33400 42.99800 20.39100
C  1.06800 45.83500 21.53500
C  2.30800 46.09200 20.63500
N  1.78900 43.24000 25.83100
C  2.67100 43.44900 24.81700
C  4.09800 43.44500 25.32300
C  3.92400 43.10700 26.69900
C  2.57800 42.90800 26.94500
C  5.33100 43.64300 24.64100
C  4.57400 42.92000 27.91700
O  5.78900 42.92600 28.22400
C  3.50600 42.55000 28.97700
C  3.84000 41.36400 29.77200
O  3.77000 40.18700 29.40500
O  4.37800 41.69300 31.00300
C  4.58900 40.57400 31.92900
H  -3.31400 41.56200 28.87000
H  -3.42000 43.63300 22.64300
H  3.01100 43.83900 22.75400
H  1.22100 41.12900 30.51900
H  -1.57000 41.95600 30.68300
H  -0.35100 39.40300 30.51500
H  -1.40200 39.57100 29.14900
H  -2.05100 39.74000 30.85700
H  -0.23700 43.53200 31.32500
H  1.38200 43.95600 30.77100
H  0.95400 43.58000 33.22300
H  2.25700 42.54200 32.48200
H  -6.70800 42.20200 27.23000
H  -5.91000 43.54600 27.99500
H  -5.48900 41.85600 28.34200
H  -7.43500 43.62600 25.82700
H  -7.52300 42.33500 24.65600
H  -7.86200 43.85400 24.09500
H  -1.45900 44.90800 21.32700
H  1.15800 43.82700 20.95900
H  -2.14100 42.30800 20.63600
H  -0.51700 42.28600 20.27400
H  -1.68800 43.46100 19.47000
H  1.24400 46.22600 22.53700
H  0.21300 46.43900 21.23300
H  3.19700 45.79000 21.18900
H  2.43200 47.11800 20.28800
H  2.19200 45.37800 19.82000
H  5.33200 44.39500 23.85100
H  5.57500 42.66600 24.22400
H  6.10100 43.89100 25.37200
H  3.46100 43.32100 29.74600
H  5.18100 39.77500 31.48500
H  3.57800 40.38000 32.28800
H  5.05200 40.92400 32.85300

