158

Mg 55.50500 23.01100 44.56000
C  53.18000 25.44800 43.11100
C  53.21700 20.65300 43.49600
C  57.90700 20.85000 44.95800
C  57.75000 25.68500 45.05300
N  53.39200 23.05900 43.42900
C  52.66400 24.15200 43.02300
C  51.24500 23.72400 42.47500
C  51.09900 22.28200 42.98400
C  52.57400 21.92300 43.34400
C  50.24700 22.18400 44.15000
C  51.03300 23.81700 40.93800
C  49.71800 24.53400 40.45900
H  49.19200 24.13400 39.07700
N  55.53500 20.98000 44.41500
C  54.50300 20.18700 43.92600
C  55.01200 18.80400 43.92800
C  56.32600 18.78900 44.43900
C  56.66500 20.22500 44.62200
C  54.11800 17.72500 43.52600
C  57.26200 17.51400 44.74700
O  56.83500 16.40500 44.49800
C  58.64500 17.64300 45.24100
N  57.57400 23.21800 44.60200
C  58.38900 22.16100 45.01900
C  59.73600 22.52600 45.68300
C  59.54000 24.10000 45.78600
C  58.14000 24.34500 45.14600
C  60.09000 21.81000 47.02000
C  60.75700 24.93300 45.14600
C  61.16200 26.17500 45.96700
N  55.55100 25.16300 44.11800
C  56.50400 26.09600 44.47900
C  55.95100 27.43000 44.23700
C  54.69600 27.18500 43.60100
C  54.49400 25.81400 43.56400
C  56.55000 28.70600 44.67500
C  53.57500 27.85700 43.01400
O  53.36300 29.09200 42.88500
C  52.50200 26.77500 42.64200
C  52.48500 26.78800 41.14500
O  53.45400 26.41300 40.45800
O  51.36500 27.44100 40.65000
C  51.42000 27.49600 39.20900
H  52.54500 19.81500 43.29800
H  58.74400 20.22200 45.27100
H  58.34400 26.50700 45.45600
H  50.47800 24.34100 42.94300
H  50.66500 21.62400 42.23100
H  49.26800 21.75100 43.94400
H  50.00000 23.11800 44.65400
H  50.79700 21.51200 44.80900
H  50.93500 22.80500 40.54700
H  51.84000 24.35000 40.43500
H  49.80700 25.62100 40.48400
H  48.92200 24.28400 41.16000
H  53.80800 17.92000 42.50000
H  53.20200 17.68500 44.11500
H  54.60700 16.76100 43.38500
H  59.25400 18.24200 44.56400
H  59.17000 16.69000 45.28800
H  58.64500 18.02100 46.26300
H  60.38900 22.14800 44.89700
H  59.31400 24.42500 46.80200
H  59.24100 21.26500 47.43200
H  60.31000 22.60100 47.73700
H  60.98500 21.18700 47.02300
H  60.56900 25.27700 44.12900
H  61.59600 24.24000 45.08300
H  60.27100 26.50700 46.50000
H  61.41600 26.96300 45.25800
H  62.04900 26.05600 46.58900
H  56.71000 28.83800 45.74500
H  55.95900 29.60000 44.47300
H  57.50900 28.77900 44.16400
H  51.51400 26.99000 43.04800
H  51.94300 28.44000 39.05500
H  50.42300 27.59100 38.78000
H  51.85600 26.68400 38.62800
Mg 29.73300 57.41700 41.20900
C  26.99000 55.51100 40.16800
C  31.83200 54.86500 39.95100
C  32.26000 59.59800 41.25100
C  27.39300 60.12000 41.69600
N  29.45600 55.46700 40.28700
C  28.27400 54.89700 39.92300
C  28.46600 53.47600 39.31400
C  29.99500 53.17200 39.56600
C  30.48500 54.59300 39.95500
C  30.27100 52.15100 40.71500
C  28.09400 53.38800 37.73200
C  28.45200 54.60900 36.91800
H  27.63100 55.06800 35.74000
N  31.77000 57.21800 40.75800
C  32.44000 56.06900 40.21800
C  33.90400 56.39500 40.32800
C  34.08700 57.76400 40.81200
C  32.67800 58.25300 40.85600
C  34.93700 55.40600 39.96700
C  35.46600 58.52800 41.10600
O  36.54200 57.91100 41.04000
C  35.40500 59.92600 41.48900
N  29.78300 59.52100 41.40800
C  31.03700 60.15700 41.53800
C  30.82700 61.69300 41.82500
C  29.27200 61.79100 41.84100
C  28.73900 60.41000 41.68800
C  31.46600 62.11300 43.16500
C  28.60600 62.79900 40.82700
C  28.02300 64.09400 41.37200
N  27.58300 57.77500 41.07000
C  26.79100 58.88600 41.23900
C  25.42300 58.59500 40.95200
C  25.48600 57.22800 40.60400
C  26.78800 56.82700 40.62100
C  24.19200 59.48500 40.99200
C  24.69200 56.07200 40.14100
O  23.52800 55.94200 39.82700
C  25.76200 54.92500 39.79200
C  25.30800 53.69100 40.47500
O  25.36400 53.42400 41.65800
O  24.53700 52.97400 39.54500
C  23.88400 51.77400 40.10600
H  32.57000 54.07500 39.79600
H  33.00400 60.39600 41.30500
H  26.78100 61.02400 41.72300
H  27.85500 52.79000 39.90000
H  30.44800 52.86000 38.62400
H  29.36900 51.84300 41.24500
H  31.01500 52.48400 41.43800
H  30.73000 51.25600 40.29400
H  27.10800 52.92200 37.72700
H  28.71700 52.61800 37.27600
H  29.43800 54.45900 36.47800
H  28.54100 55.51300 37.52000
H  35.85000 55.87100 39.59600
H  34.48900 54.89600 39.11500
H  35.19300 54.82100 40.85000
H  35.02900 60.54200 40.67300
H  36.46200 60.18600 41.54500
H  34.80800 60.00500 42.39800
H  31.32100 62.20800 41.00000
H  28.89000 62.08500 42.81900
H  32.22000 62.82800 42.83600
H  31.86900 61.21300 43.62800
H  30.77800 62.58800 43.86500
H  27.84000 62.32500 40.21300
H  29.33800 63.03900 40.05700
H  28.46400 64.94400 40.85200
H  28.30800 64.12800 42.42400
H  26.95600 64.00000 41.17100
H  23.60800 59.62000 40.08200
H  24.47700 60.45100 41.40800
H  23.59300 58.96400 41.73900
H  25.67500 54.86900 38.70700
H  24.43500 51.23200 40.87400
H  23.50900 51.16700 39.28200
H  22.90800 51.98400 40.54200

