158

Mg 8.57200 3.23400 27.98100
C  10.00400 1.63600 30.86100
C  6.40000 4.89300 30.27300
C  7.37600 4.77900 25.41700
C  10.48200 1.16400 25.87100
N  8.34300 3.26600 30.28900
C  9.02500 2.55300 31.20600
C  8.64700 3.00700 32.68700
C  7.23900 3.69300 32.38000
C  7.33700 3.95800 30.90200
C  6.03700 2.85100 32.75900
C  9.72200 3.86200 33.39400
C  9.30500 4.75500 34.57300
H  10.15300 4.52500 35.84900
N  7.21600 4.60000 27.83700
C  6.36600 5.15800 28.83800
C  5.54600 6.20900 28.22100
C  5.72500 6.11700 26.80600
C  6.78000 5.10200 26.63500
C  4.54100 7.07400 29.03300
C  5.07500 6.97200 25.71900
O  5.35500 6.80200 24.56100
C  3.95100 7.88000 26.06600
N  8.77300 2.99400 25.87400
C  8.28000 3.86800 25.01900
C  8.76200 3.62800 23.58700
C  9.72800 2.42400 23.81900
C  9.63100 2.13600 25.27800
C  7.73900 3.52800 22.46000
C  11.25900 2.65900 23.32700
C  12.36900 3.16200 24.30000
N  9.87700 1.62800 28.22000
C  10.63400 0.89400 27.28700
C  11.52000 0.00700 27.92800
C  11.35300 0.31200 29.28600
C  10.33100 1.21900 29.44700
C  12.42100 -0.97500 27.20500
C  11.89100 0.02100 30.61100
O  12.81600 -0.77000 30.85300
C  11.15700 0.90700 31.59700
C  10.78000 0.08400 32.73600
O  9.91600 -0.76100 32.73500
O  11.35900 0.56000 33.87600
C  10.88700 -0.03500 35.09200
H  5.75900 5.48100 30.93300
H  7.07400 5.30700 24.50900
H  10.99800 0.56700 25.11600
H  8.61900 2.10700 33.30100
H  7.20100 4.67300 32.85600
H  5.22500 3.07600 32.06800
H  5.66100 2.99200 33.77200
H  6.37600 1.84100 32.52800
H  10.00600 4.60300 32.64700
H  10.56400 3.23900 33.69400
H  8.29500 4.42700 34.81700
H  9.38700 5.79700 34.26400
H  4.41600 6.71000 30.05300
H  3.55500 7.03000 28.56900
H  4.75100 8.14300 29.02100
H  3.14600 7.27200 26.47900
H  3.61400 8.37400 25.15500
H  4.16500 8.62100 26.83700
H  9.38300 4.50800 23.41900
H  9.34200 1.59500 23.22600
H  6.78900 3.89400 22.85000
H  7.62300 2.46900 22.22600
H  7.92600 4.19100 21.61500
H  11.28300 3.40100 22.52800
H  11.50600 1.73100 22.81200
H  12.03000 3.20500 25.33500
H  12.75800 4.14700 24.04200
H  13.09300 2.35300 24.21100
H  12.84500 -0.32600 26.43900
H  11.95800 -1.78600 26.64300
H  13.21500 -1.35000 27.85100
H  11.76900 1.77800 31.83200
H  10.44000 0.78800 35.64800
H  11.62800 -0.52900 35.72200
H  10.01900 -0.69400 35.06100
Mg 16.28900 52.34100 25.06600
C  18.18400 51.20100 27.85400
C  13.93900 53.39200 27.38500
C  14.75900 53.44900 22.55300
C  18.86800 51.00500 23.04100
N  16.02200 52.12600 27.38700
C  16.97800 51.81700 28.29600
C  16.52100 52.18500 29.72500
C  15.03500 52.56300 29.49300
C  15.04300 52.85200 28.00900
C  14.14400 51.36800 29.86900
C  17.39100 53.34800 30.37800
C  17.17600 53.53100 31.85900
H  16.23200 52.57100 32.57800
N  14.54300 53.25600 24.93100
C  13.63200 53.57100 25.98800
C  12.46800 54.29400 25.33800
C  12.70400 54.38400 23.91600
C  14.04100 53.71800 23.74800
C  11.36400 54.93000 26.08200
C  11.84700 55.00100 22.88600
O  12.23700 55.04600 21.75300
C  10.56300 55.69200 23.13400
N  16.69000 52.25100 23.02500
C  15.96900 52.87900 22.19200
C  16.61300 53.01800 20.84100
C  17.86100 52.14000 20.92800
C  17.89000 51.76900 22.39700
C  15.67900 52.57600 19.66400
C  19.13000 52.76500 20.32800
C  20.23600 51.86500 19.65200
N  17.98600 51.16600 25.27100
C  18.91900 50.75000 24.41900
C  20.04300 50.02800 25.08900
C  19.79500 50.21100 26.43800
C  18.52400 50.96400 26.48000
C  21.09200 49.13900 24.50600
C  20.32500 49.87600 27.67700
O  21.33900 49.29300 27.99100
C  19.43900 50.66700 28.67600
C  18.96700 49.71900 29.70300
O  18.49000 48.57400 29.41900
O  19.10300 50.18800 30.94100
C  18.71000 49.24700 32.02900
H  13.12200 53.68800 28.04600
H  14.32000 53.99300 21.71400
H  19.58900 50.54700 22.36100
H  16.74500 51.26900 30.27200
H  14.64400 53.35300 30.13400
H  13.11300 51.69500 30.00900
H  14.53800 50.86900 30.75400
H  14.10200 50.62800 29.06900
H  17.02300 54.26900 29.92600
H  18.46900 53.26700 30.24000
H  16.86100 54.56700 31.98000
H  18.13400 53.37500 32.35400
H  11.21700 55.97000 25.78800
H  11.63600 55.02000 27.13400
H  10.40800 54.41300 26.00000
H  9.93600 55.18200 23.86500
H  10.09900 55.76100 22.14900
H  10.87900 56.68500 23.45400
H  17.05500 54.01300 20.78100
H  17.69300 51.24200 20.33400
H  16.29400 52.38800 18.78400
H  15.09300 53.49300 19.59900
H  15.09200 51.68700 19.89400
H  19.57900 53.34200 21.13600
H  18.77000 53.48700 19.59400
H  21.11900 52.34600 20.07400
H  20.23100 51.85000 18.56200
H  20.25300 50.83200 20.00000
H  20.81500 48.58800 23.60600
H  21.23600 48.37500 25.27000
H  22.02300 49.69600 24.40800
H  20.05200 51.43700 29.14400
H  19.35500 48.39600 32.24500
H  17.66800 48.96500 31.87600
H  18.65300 49.99500 32.82000

