158

Mg -0.46200 7.00800 27.20900
C  -0.16800 9.30200 29.90600
C  -0.29300 4.50500 29.62000
C  -0.95900 4.94100 24.87100
C  -0.07100 9.69900 25.02500
N  -0.23900 6.90600 29.48200
C  -0.25100 7.95100 30.35100
C  -0.15200 7.51600 31.79800
C  0.03700 5.91600 31.67700
C  -0.15200 5.82200 30.17800
C  1.39400 5.37500 32.16900
C  -1.48100 7.83900 32.54400
C  -1.41700 8.07200 34.06400
H  -0.10600 7.59300 34.76200
N  -0.48300 4.97700 27.21900
C  -0.39700 4.12100 28.25000
C  -0.47700 2.75200 27.80900
C  -0.78800 2.82000 26.40400
C  -0.79100 4.29000 26.10600
C  -0.41600 1.57400 28.75100
C  -1.13700 1.81000 25.42400
O  -1.38300 2.02600 24.28000
C  -1.17600 0.32300 25.87100
N  -0.49800 7.35700 25.26900
C  -0.77600 6.28300 24.44500
C  -0.88600 6.71600 22.94800
C  -0.89300 8.31400 23.09000
C  -0.52900 8.47900 24.54000
C  0.14100 6.16400 21.94100
C  -2.13900 9.06900 22.67700
C  -2.45100 9.00900 21.10800
N  -0.16100 9.14700 27.34900
C  -0.04900 10.10700 26.37700
C  0.12900 11.42700 26.95200
C  0.04300 11.16900 28.40200
C  -0.04800 9.80200 28.58300
C  0.34200 12.62400 26.15300
C  0.13400 11.71800 29.75500
O  0.50000 12.80200 30.03800
C  0.01900 10.46400 30.80400
C  1.21800 10.44500 31.70400
O  2.38300 10.22000 31.36700
O  0.83900 10.93000 32.99500
C  1.84800 11.16000 34.05800
H  -0.39800 3.68700 30.33500
H  -1.14700 4.25900 24.03900
H  -0.10800 10.53000 24.31700
H  0.73700 7.93300 32.27200
H  -0.70500 5.43600 32.31600
H  2.01500 6.17200 32.58000
H  2.06100 4.94100 31.42400
H  1.28200 4.62700 32.95400
H  -2.20300 7.02800 32.44700
H  -1.89600 8.70900 32.03500
H  -2.20600 7.56000 34.61600
H  -1.51700 9.15500 34.13900
H  -1.34800 1.03400 28.91800
H  0.00100 1.83800 29.72300
H  0.34600 0.93300 28.30800
H  -2.09600 0.08800 26.40600
H  -0.33800 -0.19100 26.34300
H  -1.26600 -0.28500 24.97100
H  -1.77900 6.23000 22.55200
H  -0.03800 8.64500 22.50100
H  0.17000 6.96700 21.20400
H  -0.31700 5.28600 21.48600
H  1.12700 5.83000 22.26500
H  -1.99500 10.09900 23.00300
H  -3.02400 8.67500 23.17600
H  -1.84700 8.41600 20.42000
H  -2.41900 10.06900 20.85600
H  -3.47400 8.64900 21.00100
H  1.03300 12.47000 25.32400
H  0.74300 13.41400 26.78800
H  -0.58800 12.94800 25.68600
H  -0.90500 10.59500 31.36900
H  2.67700 10.46500 34.19300
H  1.23100 11.27900 34.94900
H  2.28900 12.11200 33.76200
Mg -6.01900 25.35700 25.54800
C  -4.63900 26.30800 28.62300
C  -8.10700 23.30500 27.44500
C  -6.97400 23.94400 22.69600
C  -3.61600 27.17700 23.89600
N  -6.40100 24.89900 27.74400
C  -5.85400 25.64800 28.74400
C  -6.32800 25.09300 30.11300
C  -7.20300 23.96400 29.75500
C  -7.20400 24.02000 28.22200
C  -6.76300 22.58000 30.22800
C  -7.01400 26.16100 31.09000
C  -6.50000 26.20800 32.56400
H  -6.04100 25.02800 33.44100
N  -7.39900 23.82700 25.10700
C  -8.25100 23.25700 26.03000
C  -9.21400 22.34200 25.26400
C  -8.85400 22.52100 23.86600
C  -7.70300 23.42600 23.81200
C  -10.35300 21.53900 26.01300
C  -9.50500 21.92000 22.68900
O  -8.96600 21.86200 21.59800
C  -10.85900 21.35800 22.85500
N  -5.23000 25.27200 23.68000
C  -5.89500 24.72900 22.62000
C  -5.17000 25.02000 21.20900
C  -4.26200 26.20600 21.56500
C  -4.36700 26.22800 23.17400
C  -4.41700 23.82700 20.60900
C  -4.33400 27.50200 20.78300
C  -3.08800 27.92300 20.00300
N  -4.41800 26.49100 26.06100
C  -3.51200 27.23100 25.31100
C  -2.62400 28.00100 26.20600
C  -2.96600 27.55200 27.45700
C  -4.01600 26.65600 27.40700
C  -1.51100 28.91900 25.80700
C  -2.67300 27.68000 28.89500
O  -1.83300 28.39600 29.46000
C  -3.76900 26.91100 29.74200
C  -3.11400 25.97100 30.68200
O  -2.89800 24.77700 30.48000
O  -2.83600 26.65100 31.86800
C  -2.34100 25.84500 32.96700
H  -8.60900 22.61900 28.12900
H  -7.33000 23.65800 21.70400
H  -2.84800 27.72200 23.34300
H  -5.46400 24.68500 30.63800
H  -8.21600 24.15100 30.11300
H  -7.57700 22.12700 30.79400
H  -5.81400 22.62600 30.76300
H  -6.73500 21.89000 29.38500
H  -8.06500 25.87600 31.15400
H  -7.08700 27.17900 30.70800
H  -7.30200 26.73200 33.08200
H  -5.66100 26.89400 32.44400
H  -11.34900 21.96900 25.90800
H  -10.30600 21.54100 27.10200
H  -10.42000 20.48100 25.75700
H  -11.61300 22.04600 23.23800
H  -10.90200 20.40900 23.38800
H  -11.24100 21.17600 21.85000
H  -5.95000 25.33900 20.51900
H  -3.25200 25.80500 21.48900
H  -4.13700 23.14700 21.41300
H  -3.62100 24.30600 20.03900
H  -5.08800 23.22300 19.99800
H  -4.56000 28.33000 21.45500
H  -5.24400 27.46700 20.18500
H  -2.82200 27.05600 19.39900
H  -2.29300 28.17800 20.70500
H  -3.11700 28.82300 19.39000
H  -1.82800 29.92500 25.53200
H  -1.04300 28.48500 24.92300
H  -0.72700 29.07500 26.54700
H  -4.43700 27.58200 30.28300
H  -1.27400 26.03500 33.08800
H  -2.33100 24.76400 32.82700
H  -2.83400 26.13100 33.89600

