158

Mg -2.79100 17.44400 26.80800
C  -2.88400 15.61300 29.80200
C  -3.60000 20.23300 28.68300
C  -2.95300 19.09300 23.95200
C  -3.01800 14.40600 24.93300
N  -3.22700 17.77300 28.98600
C  -3.07300 16.92400 30.03900
C  -3.34000 17.57600 31.41500
C  -3.88100 19.02900 30.96200
C  -3.55700 19.06300 29.41000
C  -5.32300 19.29800 31.40300
C  -2.06800 17.71300 32.37500
C  -2.32500 17.87600 33.86100
H  -1.09200 17.61800 34.73000
N  -3.18700 19.40500 26.39600
C  -3.27900 20.46000 27.29100
C  -3.33600 21.70000 26.53100
C  -3.07300 21.40700 25.16400
C  -3.01900 19.91700 25.12300
C  -3.56700 23.06400 27.16600
C  -2.79700 22.33400 23.96600
O  -2.51200 21.92400 22.85900
C  -3.02700 23.75300 24.08500
N  -2.94000 16.85300 24.73300
C  -2.97500 17.78000 23.77600
C  -3.03500 17.00800 22.30900
C  -2.70600 15.51200 22.72800
C  -2.99200 15.57100 24.22800
C  -4.46700 17.26000 21.65600
C  -1.17600 15.22100 22.43100
C  -0.97900 13.79800 21.73500
N  -2.76500 15.45900 27.18400
C  -2.87500 14.37200 26.37400
C  -2.92900 13.16200 27.20600
C  -2.86900 13.64200 28.49800
C  -2.83100 15.01000 28.46900
C  -3.14200 11.77600 26.77000
C  -2.94700 13.14200 29.84300
O  -3.13100 11.99600 30.18200
C  -2.76000 14.34200 30.81800
C  -1.45400 14.31900 31.44800
O  -0.38100 14.52000 30.84600
O  -1.58700 13.93000 32.76600
C  -0.36000 13.66900 33.59400
H  -3.72900 21.17900 29.21300
H  -2.84200 19.56600 22.97400
H  -2.87400 13.44300 24.43800
H  -4.12800 16.95600 31.84300
H  -3.21200 19.80100 31.34000
H  -5.97700 19.33000 30.53100
H  -5.23800 20.27400 31.88100
H  -5.68500 18.55600 32.11400
H  -1.55100 18.61100 32.03700
H  -1.37500 16.91700 32.10200
H  -3.05500 17.16400 34.24700
H  -2.75300 18.87800 33.83400
H  -4.56800 23.46400 27.00900
H  -2.86400 23.79100 26.76000
H  -3.42500 23.13100 28.24500
H  -3.98300 23.92400 24.58000
H  -3.40100 24.15700 23.14400
H  -2.23700 24.30000 24.59900
H  -2.19900 17.43200 21.75300
H  -3.35700 14.76400 22.27500
H  -5.17000 17.41200 22.47500
H  -4.73500 16.39000 21.05500
H  -4.37100 18.18700 21.09000
H  -0.61200 15.13600 23.36000
H  -0.71000 15.87100 21.69000
H  -0.15000 13.83700 21.02900
H  -1.88500 13.57500 21.17000
H  -0.71500 13.00300 22.43200
H  -2.51300 11.20100 27.44900
H  -2.80300 11.62600 25.74500
H  -4.17200 11.43200 26.86500
H  -3.55000 14.45300 31.56000
H  -0.41500 14.08000 34.60200
H  0.56100 14.04900 33.15200
H  -0.30400 12.58300 33.66700
Mg 8.27700 3.72800 27.95000
C  9.97900 2.33600 30.58000
C  6.71700 5.87300 30.07300
C  6.57000 4.87900 25.27000
C  9.97900 1.50700 25.88400
N  8.10800 3.94800 30.08100
C  9.00800 3.25900 30.96500
C  9.01300 3.86300 32.35900
C  7.86000 4.92200 32.22100
C  7.50100 4.92600 30.72000
C  6.57500 4.73300 33.16900
C  10.36200 4.50800 32.83200
C  11.14000 3.81300 33.97600
H  11.22100 4.57900 35.30100
N  6.83100 5.18300 27.69700
C  6.30000 5.99700 28.67300
C  5.27300 6.79700 28.03400
C  5.23100 6.58000 26.65200
C  6.25100 5.44600 26.47100
C  4.46500 7.81600 28.89700
C  4.36000 7.21400 25.51800
O  4.53400 6.89000 24.34200
C  3.41400 8.34400 25.81200
N  8.28500 3.23900 25.88900
C  7.50200 3.89200 24.97000
C  7.86200 3.57600 23.50900
C  9.04800 2.56700 23.76600
C  9.05200 2.37500 25.29400
C  6.66200 3.00400 22.70400
C  10.44400 2.98400 23.09500
C  11.14600 1.96200 22.08100
N  9.58900 2.13300 28.16500
C  10.15000 1.29900 27.21500
C  11.09300 0.41000 27.85400
C  11.06100 0.80900 29.20600
C  10.12500 1.85700 29.33600
C  11.91700 -0.67800 27.23400
C  11.55800 0.45800 30.48400
O  12.37800 -0.38900 30.73800
C  10.88400 1.40400 31.50100
C  10.08900 0.61800 32.54300
O  8.92500 0.21200 32.49800
O  10.97600 0.37000 33.54600
C  10.34100 -0.20500 34.69400
H  6.17200 6.51200 30.76900
H  6.07900 5.22900 24.36000
H  10.46600 0.89900 25.11800
H  8.69400 3.16600 33.13400
H  8.29000 5.90000 32.43900
H  5.69500 4.63400 32.53400
H  6.57700 5.53800 33.90300
H  6.54300 3.86900 33.83300
H  10.13400 5.52800 33.14200
H  11.02300 4.50000 31.96500
H  12.15100 3.48400 33.73600
H  10.63600 2.87800 34.21900
H  4.74300 7.68600 29.94300
H  3.44600 7.50600 28.66900
H  4.73400 8.81700 28.55900
H  2.66400 8.19300 26.58900
H  2.97300 8.80400 24.92900
H  4.07800 9.14600 26.13400
H  8.14700 4.58500 23.21200
H  8.90400 1.53600 23.44400
H  5.79700 2.96700 23.36700
H  6.80600 1.95800 22.43500
H  6.55200 3.61100 21.80500
H  11.05600 3.21500 23.96700
H  10.26900 3.94900 22.62000
H  11.08600 2.37000 21.07200
H  10.65100 0.99300 22.02400
H  12.21200 1.90800 22.30000
H  12.30400 -0.18800 26.34000
H  11.46900 -1.64000 26.98800
H  12.71000 -0.88100 27.95400
H  11.71600 1.98600 31.89700
H  9.65600 -0.99400 34.38400
H  9.79800 0.57000 35.23600
H  11.11000 -0.55500 35.38200

