158

Mg 48.20900 14.37100 28.12100
C  45.77300 14.39300 30.69900
C  50.27100 16.43300 29.94400
C  50.12200 14.86700 25.25300
C  46.12300 12.29400 26.29300
N  47.93700 15.48300 30.07800
C  46.96600 15.18400 31.03500
C  47.47500 15.57400 32.42900
C  48.72800 16.45700 32.13600
C  49.06200 16.10500 30.62500
C  48.60200 17.96200 32.25300
C  47.76900 14.40200 33.46300
C  47.14700 14.62600 34.87400
H  48.16700 14.99000 35.93600
N  49.94100 15.53700 27.62700
C  50.67500 16.26100 28.56400
C  51.76300 16.92600 27.88200
C  51.74200 16.51200 26.49800
C  50.54500 15.61100 26.38900
C  52.68900 17.97000 28.53100
C  52.65500 16.84100 25.39500
O  52.56300 16.32000 24.27200
C  53.78100 17.77400 25.54700
N  48.12200 13.62500 26.08700
C  48.94000 13.98700 25.10200
C  48.70200 13.17300 23.81200
C  47.41000 12.30200 24.14400
C  47.21600 12.77000 25.60100
C  48.61100 14.11000 22.54900
C  47.65500 10.71500 24.00600
C  48.06700 9.92800 25.23200
N  46.29600 13.57400 28.37800
C  45.56900 12.72900 27.51000
C  44.36500 12.31100 28.04600
C  44.40700 13.01800 29.29000
C  45.55300 13.74100 29.46500
C  43.27600 11.54500 27.42300
C  43.61500 13.26500 30.47000
O  42.49200 12.95400 30.79100
C  44.58500 13.92100 31.53400
C  43.87800 14.94600 32.34300
O  43.52800 16.01700 32.03400
O  43.66100 14.48000 33.61200
C  42.89700 15.38900 34.46400
H  50.87000 17.18200 30.46500
H  50.74900 15.03500 24.37500
H  45.43400 11.64200 25.75200
H  46.70000 16.21800 32.84300
H  49.57400 16.11000 32.72800
H  49.04300 18.33400 33.17700
H  47.57200 18.27800 32.08900
H  48.98700 18.42600 31.34500
H  48.83000 14.38600 33.71200
H  47.33500 13.46100 33.12400
H  46.71700 13.66800 35.16700
H  46.28400 15.27200 34.71000
H  52.61100 17.79800 29.60400
H  52.47100 19.01600 28.31700
H  53.65400 17.54400 28.25500
H  53.40200 18.75900 25.82100
H  54.20700 17.91200 24.55300
H  54.59700 17.47300 26.20500
H  49.61900 12.60200 23.67200
H  46.52100 12.49800 23.54400
H  47.85700 13.78300 21.83300
H  49.44900 13.91000 21.88200
H  48.60400 15.17700 22.77100
H  48.46300 10.60900 23.28200
H  46.71600 10.31400 23.62600
H  47.26700 9.29900 25.62000
H  48.26000 10.61100 26.05900
H  48.85800 9.24000 24.93400
H  43.03700 10.63500 27.97300
H  43.56200 11.33400 26.39200
H  42.40800 12.20400 27.43500
H  44.85300 13.14600 32.25300
H  41.95300 15.67500 33.99900
H  43.36400 16.32100 34.78400
H  42.68700 14.71500 35.29400
Mg 47.28200 44.88700 42.29500
C  43.78200 44.38300 42.32400
C  47.63200 41.44800 42.06400
C  50.50500 45.37700 41.86700
C  46.61000 48.23800 42.03100
N  45.84400 43.16500 42.14200
C  44.54800 43.19700 42.22300
C  43.89500 41.79700 42.13600
C  45.13200 40.79500 42.26600
C  46.29900 41.80300 42.12100
C  45.28500 39.93700 43.58500
C  42.97500 41.56400 40.86600
C  43.29000 42.26000 39.50000
H  43.29700 41.45200 38.27200
N  48.88600 43.61600 41.99400
C  48.77900 42.22300 42.00100
C  50.15500 41.74800 41.83600
C  50.99100 42.87900 41.62600
C  50.12800 44.02200 41.83700
C  50.56400 40.32100 41.77600
C  52.45500 42.83900 41.29400
O  53.06500 41.81300 41.27100
C  53.24100 44.10000 41.11800
N  48.43600 46.53000 41.93100
C  49.74100 46.50100 41.93900
C  50.36800 47.92600 41.87000
C  49.11500 48.87700 41.67000
C  47.97700 47.83000 41.86500
C  51.12100 48.22700 43.11600
C  48.93700 49.74000 40.44000
C  48.42700 51.18800 40.73400
N  45.61800 46.08300 42.28400
C  45.54100 47.45200 42.26700
C  44.19800 47.89900 42.48500
C  43.47400 46.68500 42.46400
C  44.37400 45.64500 42.33900
C  43.63100 49.30900 42.41100
C  42.13200 46.12700 42.62300
O  41.08000 46.71300 42.79200
C  42.26800 44.55000 42.72200
C  41.73200 44.17000 44.01700
O  42.06200 44.77700 45.03600
O  40.92300 43.04100 43.97600
C  40.65900 42.41300 45.27000
H  47.81800 40.37300 42.10800
H  51.56100 45.64600 41.79800
H  46.61000 49.32600 41.93000
H  43.28400 41.68900 43.03200
H  45.01100 40.10700 41.42900
H  45.79900 39.04300 43.23400
H  44.31100 39.79900 44.05600
H  45.90700 40.53200 44.25400
H  41.96700 41.82200 41.19000
H  42.87600 40.48500 40.74600
H  44.25700 42.75600 39.57300
H  42.55400 43.06400 39.48700
H  51.44600 40.05500 42.35800
H  50.64500 39.93300 40.76100
H  49.82000 39.76700 42.34900
H  52.72600 44.76200 40.42200
H  54.25000 43.96400 40.72700
H  53.42100 44.50700 42.11300
H  51.00400 47.89100 40.98500
H  49.18100 49.56500 42.51300
H  52.08600 47.79200 42.85800
H  50.84200 47.75900 44.06000
H  51.29300 49.27200 43.37700
H  48.19000 49.28900 39.78800
H  49.90600 49.65200 39.94800
H  49.25400 51.78000 40.34200
H  48.17900 51.36500 41.78100
H  47.54800 51.38400 40.12100
H  43.37800 49.63800 41.40400
H  44.42100 49.99400 42.72100
H  42.86400 49.33800 43.18500
H  41.64800 44.13700 41.92600
H  40.26600 43.15700 45.96400
H  41.59400 41.96300 45.60500
H  39.84300 41.70600 45.12300

