158

Mg 44.43300 2.20500 47.27500
C  44.05200 5.51900 46.30300
C  41.31400 1.52900 46.10000
C  45.14600 -1.08800 47.56300
C  47.84400 2.87300 47.90900
N  42.80000 3.41600 46.49700
C  42.86600 4.73100 46.05400
C  41.60100 5.17500 45.39200
C  40.63300 3.91000 45.55300
C  41.61900 2.88100 46.12900
C  39.44800 4.04000 46.59300
C  41.82700 5.60200 43.90800
C  41.37600 7.00000 43.47500
H  40.20300 7.16500 42.43300
N  43.34100 0.43100 46.96500
C  42.03100 0.39100 46.47700
C  41.60600 -1.01400 46.35300
C  42.70500 -1.80000 46.82300
C  43.79900 -0.85700 47.17600
C  40.21700 -1.45000 45.88500
C  42.73100 -3.32900 46.96600
O  41.70700 -3.93400 46.72700
C  43.90400 -4.12600 47.33500
N  46.27100 1.02000 47.73600
C  46.21200 -0.25600 47.85800
C  47.60000 -0.91000 48.11100
C  48.53200 0.39300 47.95200
C  47.50700 1.54200 47.90300
C  47.78400 -1.71000 49.41700
C  49.56100 0.45100 46.83500
C  51.00600 0.11600 47.16800
N  45.66600 3.89900 47.22500
C  46.98200 4.00500 47.62400
C  47.35300 5.42000 47.51700
C  46.23500 6.02600 47.03400
C  45.26100 5.08700 46.85400
C  48.57500 6.03700 47.90800
C  45.70400 7.28700 46.57100
O  46.20900 8.40800 46.52100
C  44.25200 6.97400 46.01400
C  43.32000 7.81000 46.79700
O  42.90600 7.62500 47.88900
O  43.11600 8.99000 46.09600
C  42.49200 10.04500 46.86300
H  40.33100 1.31500 45.67600
H  45.42000 -2.12500 47.76900
H  48.90600 3.10500 48.01600
H  41.09800 6.04000 45.82500
H  40.08100 3.57100 44.67600
H  39.80500 4.03300 47.62300
H  38.65300 3.30900 46.44400
H  39.09000 5.06100 46.46300
H  41.41000 4.82800 43.26300
H  42.88000 5.38100 43.73600
H  42.21800 7.44800 42.94800
H  41.20200 7.67900 44.31000
H  40.20900 -2.19600 45.09000
H  39.69400 -0.56100 45.53200
H  39.63300 -1.71900 46.76500
H  44.26500 -3.81100 48.31400
H  44.67400 -4.12800 46.56400
H  43.46300 -5.12100 47.40800
H  47.67000 -1.59400 47.26600
H  49.07900 0.47600 48.89100
H  48.47000 -1.16700 50.06700
H  48.10700 -2.72500 49.18700
H  46.87200 -1.66300 50.01200
H  49.60400 1.42800 46.35500
H  49.15300 -0.29400 46.15200
H  51.62900 0.86100 46.67300
H  51.25500 -0.85300 46.73600
H  51.27500 0.11200 48.22500
H  49.43300 5.38300 48.06100
H  48.41900 6.65600 48.79200
H  48.72200 6.66800 47.03200
H  44.26000 7.28500 44.96900
H  42.89100 10.98400 46.47800
H  42.57800 9.89200 47.93900
H  41.44700 9.95200 46.56700
Mg 46.78800 34.53600 28.44000
C  45.43700 32.74500 31.07200
C  47.15700 37.22900 30.53700
C  47.79800 36.50000 25.84400
C  46.08700 31.97900 26.36000
N  46.24800 34.85700 30.60000
C  45.83200 33.97700 31.51400
C  45.98900 34.61600 32.96500
C  45.97000 36.14700 32.58600
C  46.53800 36.07600 31.09700
C  44.59600 36.83100 32.57600
C  47.18200 34.11800 33.75000
C  47.16300 33.72400 35.19600
H  46.70800 34.81600 36.10500
N  47.35800 36.62100 28.22600
C  47.54900 37.51400 29.20200
C  48.09500 38.73300 28.68300
C  48.36500 38.52000 27.29700
C  47.81900 37.20100 27.03700
C  48.47100 39.92600 29.47500
C  48.98300 39.47600 26.28200
O  49.24400 39.09300 25.16800
C  49.40400 40.74800 26.68500
N  46.94400 34.31200 26.38300
C  47.47400 35.18900 25.48500
C  47.57400 34.58200 24.02900
C  46.96600 33.12800 24.25100
C  46.60100 33.15300 25.74500
C  46.63500 35.41200 23.10400
C  47.97000 32.00000 23.80200
C  47.45800 31.00500 22.74100
N  45.95500 32.72300 28.60700
C  45.85800 31.74300 27.66900
C  45.34200 30.60800 28.28000
C  45.00700 30.94800 29.59000
C  45.52900 32.20900 29.76100
C  44.92400 29.27700 27.63900
C  44.51700 30.48800 30.89300
O  44.04800 29.42400 31.27600
C  44.51800 31.78200 31.80200
C  44.92100 31.42600 33.12800
O  46.01700 30.99500 33.46700
O  43.90100 31.64300 33.99000
C  44.01500 30.96200 35.25900
H  47.31600 38.03600 31.25500
H  48.04400 37.07900 24.95100
H  45.83300 31.22200 25.61500
H  45.08000 34.41100 33.53000
H  46.72900 36.67600 33.16200
H  44.67400 37.70100 33.22800
H  43.80000 36.21300 32.99100
H  44.20300 37.14300 31.60900
H  48.10800 34.68300 33.63700
H  47.44600 33.12300 33.39400
H  48.05800 33.17900 35.49600
H  46.31200 33.04300 35.20600
H  49.54600 40.06200 29.35800
H  48.21100 39.84500 30.53100
H  48.01700 40.85100 29.12100
H  49.85000 41.22400 25.81200
H  50.16200 40.69800 27.46700
H  48.47100 41.22300 26.98700
H  48.54400 34.59300 23.53300
H  46.05200 33.02400 23.66500
H  46.48400 36.38700 23.56700
H  45.61200 35.03800 23.09400
H  46.96200 35.54800 22.07300
H  48.20300 31.40700 24.68700
H  48.90700 32.45300 23.47800
H  47.15600 30.11900 23.30000
H  48.14800 30.62500 21.98700
H  46.61600 31.35400 22.14300
H  45.41600 29.06800 26.68900
H  43.86200 29.34400 27.40100
H  45.17500 28.48300 28.34200
H  43.47700 32.10500 31.82000
H  44.50300 29.99800 35.11100
H  43.01400 30.64600 35.55300
H  44.47600 31.51900 36.07500

