158

Mg 54.07400 24.40200 44.88200
C  51.33600 26.32000 43.65600
C  52.60900 21.65600 43.33600
C  56.79700 22.83400 45.49100
C  55.54900 27.51100 45.72800
N  52.25000 24.11200 43.49500
C  51.29500 25.02400 43.11100
C  50.24000 24.34400 42.12900
C  50.40900 22.80000 42.50800
C  51.84600 22.81300 43.10300
C  49.35400 22.24800 43.45700
C  50.70600 24.65700 40.61500
C  49.50200 24.68200 39.65500
H  49.67200 25.17100 38.24800
N  54.67700 22.49000 44.46500
C  53.90800 21.50800 43.88400
C  54.64800 20.24400 43.95400
C  55.87800 20.57800 44.62700
C  55.85100 22.04700 44.92000
C  54.07400 18.93300 43.53100
C  57.03200 19.51600 44.93800
O  56.93400 18.30900 44.75700
C  58.27200 19.96200 45.67800
N  55.95800 25.11500 45.29400
C  56.93200 24.19000 45.63500
C  58.11500 24.84500 46.35300
C  57.78800 26.41600 46.15800
C  56.38300 26.35500 45.60800
C  58.19500 24.42200 47.80500
C  58.72500 27.20100 45.18000
C  58.23600 27.51200 43.74900
N  53.48600 26.43300 44.93400
C  54.15300 27.54700 45.39700
C  53.18700 28.58300 45.53100
C  52.08800 28.18500 44.80400
C  52.34700 26.87400 44.46300
C  53.25500 29.79100 46.37600
C  50.76500 28.54600 44.35500
O  50.09300 29.52500 44.61300
C  50.21300 27.34300 43.59400
C  49.96400 27.91400 42.27400
O  50.68900 28.71500 41.69900
O  48.89400 27.30600 41.69500
C  48.34800 27.89100 40.48500
H  52.12600 20.75200 42.95900
H  57.74400 22.43700 45.86300
H  55.97000 28.44300 46.11200
H  49.24000 24.71000 42.36300
H  50.27400 22.14900 41.64500
H  48.55100 22.97600 43.57600
H  49.86000 22.02800 44.39600
H  48.88800 21.31500 43.14100
H  51.30200 23.81600 40.26100
H  51.12000 25.66500 40.64900
H  48.69300 25.24400 40.12300
H  49.10100 23.67500 39.54100
H  52.98500 18.98100 43.53500
H  54.46600 18.19500 44.23100
H  54.49900 18.55800 42.60000
H  57.94100 20.45600 46.59200
H  58.92400 20.47100 44.96800
H  58.93600 19.18200 46.05000
H  59.08800 24.62800 45.91300
H  57.60800 26.92600 47.10400
H  58.64700 23.43000 47.79400
H  57.22200 24.35900 48.29100
H  58.90500 25.02900 48.36700
H  59.67200 26.68300 45.03400
H  58.87100 28.20500 45.57800
H  57.57800 26.76200 43.31100
H  59.15800 27.70600 43.20100
H  57.73500 28.47800 43.69100
H  52.28200 29.90400 46.85500
H  53.50400 30.74000 45.90300
H  54.04500 29.63600 47.11000
H  49.28200 27.07900 44.09500
H  47.97900 28.80200 40.95600
H  47.43100 27.46900 40.07400
H  49.08600 28.22200 39.75500
Mg -3.35400 34.74800 26.88600
C  -4.88400 33.02500 29.49800
C  -1.86500 36.78400 29.28300
C  -2.45200 36.97800 24.45400
C  -5.61500 33.20600 24.61000
N  -3.50000 34.98700 29.18000
C  -3.97600 33.96900 29.97300
C  -3.63400 34.26200 31.43500
C  -2.77600 35.54800 31.42000
C  -2.69200 35.87600 29.87900
C  -3.22400 36.68300 32.32000
C  -2.96500 33.00900 32.13400
C  -3.53900 32.68800 33.49000
H  -2.58500 33.12000 34.59700
N  -2.25800 36.47000 26.83800
C  -1.67400 37.11900 27.95500
C  -0.80900 38.21500 27.46600
C  -0.92800 38.20900 26.05100
C  -1.95300 37.22100 25.70300
C  0.00200 39.05700 28.41700
C  -0.15100 39.14800 25.03600
O  -0.21200 39.04200 23.81900
C  0.86100 40.03400 25.49400
N  -3.90200 35.01200 24.85200
C  -3.39500 35.99700 24.01700
C  -4.12900 36.02400 22.62500
C  -5.00300 34.69900 22.67100
C  -4.84100 34.25600 24.12100
C  -4.91700 37.39200 22.60300
C  -4.47000 33.63000 21.66300
C  -3.20700 32.69100 22.03500
N  -4.79100 33.19500 26.91300
C  -5.68800 32.70200 25.95000
C  -6.40700 31.63900 26.56100
C  -6.08900 31.72400 27.89300
C  -5.18700 32.74300 28.11700
C  -7.38300 30.73600 25.83500
C  -6.36600 31.09400 29.16800
O  -7.00600 30.13700 29.34700
C  -5.63700 31.91000 30.30100
C  -6.71900 32.51600 31.11300
O  -7.72800 33.09000 30.75700
O  -6.46200 32.24400 32.37300
C  -7.50200 32.48600 33.43700
H  -1.19200 37.30500 29.96700
H  -2.18600 37.73500 23.71300
H  -6.39300 32.82100 23.94800
H  -4.55700 34.45700 31.98100
H  -1.74100 35.30200 31.66000
H  -4.10100 36.33300 32.86400
H  -3.41700 37.63600 31.82900
H  -2.35900 36.80900 32.97200
H  -1.95000 33.35900 32.32300
H  -2.81900 32.08900 31.56700
H  -3.64200 31.60400 33.53900
H  -4.49100 33.21000 33.59000
H  1.06300 39.08500 28.17100
H  -0.00200 38.86200 29.49000
H  -0.28900 40.08500 28.20100
H  1.42200 40.39500 24.63100
H  1.63200 39.47800 26.02700
H  0.33700 40.73600 26.14300
H  -3.32600 36.05700 21.88900
H  -6.04700 34.98400 22.53800
H  -5.95000 37.19700 22.31700
H  -4.45800 38.07000 21.88300
H  -5.08800 37.88400 23.56100
H  -4.25800 34.21600 20.76900
H  -5.41100 33.11400 21.47500
H  -2.71600 33.07000 22.93200
H  -2.45700 32.67000 21.24500
H  -3.61500 31.71900 22.31300
H  -8.16300 30.41900 26.52700
H  -6.91900 29.82100 25.46700
H  -7.80400 31.27100 24.98400
H  -4.97400 31.35400 30.96300
H  -6.89200 32.57300 34.33600
H  -8.18000 31.64900 33.59900
H  -8.12900 33.35800 33.25000

