158

Mg 17.42300 -1.38600 27.93500
C  16.44700 0.48300 30.70700
C  19.57400 -3.23900 29.92300
C  18.60000 -2.72500 25.08600
C  15.40100 0.68600 25.94400
N  18.10600 -1.23400 30.02600
C  17.47000 -0.43800 30.98600
C  17.97700 -0.83500 32.36400
C  19.21500 -1.79900 32.10400
C  19.00000 -2.07800 30.55900
C  20.66300 -1.26500 32.34500
C  16.80300 -1.57600 33.08000
C  16.38800 -1.25300 34.51600
H  17.31100 -0.46700 35.38200
N  18.79400 -2.84500 27.61200
C  19.61200 -3.49700 28.51500
C  20.48000 -4.37700 27.83400
C  20.18400 -4.27200 26.37800
C  19.16200 -3.22800 26.29300
C  21.43200 -5.37300 28.51700
C  20.68500 -5.15900 25.28300
O  20.21500 -5.08300 24.18700
C  21.80100 -6.14400 25.48000
N  17.01900 -1.03000 25.85000
C  17.70400 -1.69000 24.89700
C  17.33900 -1.15700 23.50500
C  16.14500 -0.26100 23.79800
C  16.17600 -0.22000 25.29000
C  18.57500 -0.47100 22.76600
C  14.76700 -0.87500 23.20900
C  14.10700 -0.10100 22.04700
N  16.21400 0.21900 28.17200
C  15.40500 0.87300 27.32700
C  14.60000 1.84000 28.07100
C  14.92800 1.71400 29.40200
C  15.92700 0.74600 29.38800
C  13.58400 2.81700 27.52800
C  14.70900 2.23700 30.72100
O  13.97800 3.15600 31.05400
C  15.62000 1.37700 31.60500
C  16.56300 2.20500 32.27300
O  17.68700 2.48800 31.87900
O  15.92500 2.71100 33.35200
C  16.70100 3.65800 34.23500
H  20.32500 -3.75400 30.52700
H  19.07800 -3.08000 24.17100
H  14.76500 1.38200 25.39300
H  18.45900 -0.03100 32.92000
H  19.09700 -2.74900 32.62400
H  20.47600 -0.54300 33.14000
H  21.09200 -0.80400 31.45600
H  21.39600 -1.97600 32.72600
H  17.11400 -2.61400 33.19700
H  15.90700 -1.57000 32.45900
H  16.13600 -2.10600 35.14600
H  15.46800 -0.67100 34.47700
H  21.02700 -6.38200 28.43500
H  21.47200 -5.17600 29.58900
H  22.38200 -5.26500 27.99400
H  21.32200 -6.91000 26.09000
H  22.60400 -5.63500 26.01400
H  22.05300 -6.62900 24.53800
H  16.99600 -2.05800 22.99500
H  16.11500 0.78800 23.50000
H  18.25700 0.55200 22.56200
H  18.84500 -0.93500 21.81800
H  19.42900 -0.37800 23.43600
H  14.05800 -0.93900 24.03400
H  14.93200 -1.88300 22.82900
H  13.19700 -0.63100 21.76900
H  14.72400 -0.19900 21.15300
H  13.80800 0.92600 22.25800
H  13.09400 2.28800 26.71000
H  14.16200 3.64800 27.12400
H  13.01300 3.24400 28.35200
H  14.96600 0.77300 32.23400
H  16.49500 4.70000 33.99000
H  17.76300 3.47100 34.08000
H  16.44700 3.42500 35.26900
Mg -10.97800 38.51700 41.84700
C  -8.77200 35.83600 41.04700
C  -8.63300 40.65100 40.29700
C  -13.13600 40.90200 42.15700
C  -13.36100 36.07400 43.08600
N  -8.90100 38.25300 40.75300
C  -8.29500 37.04700 40.48600
C  -7.03100 37.22800 39.65600
C  -6.93900 38.78800 39.59600
C  -8.21700 39.31500 40.29600
C  -5.61900 39.35400 40.08300
C  -7.01700 36.45000 38.32000
C  -5.76500 35.61300 37.97400
H  -5.13800 35.85300 36.60400
N  -10.81300 40.56800 41.48500
C  -9.79000 41.27400 40.87200
C  -10.17400 42.68200 40.81400
C  -11.44100 42.78800 41.36700
C  -11.82600 41.43000 41.73400
C  -9.42400 43.71600 39.94200
C  -12.30000 44.05100 41.60200
O  -11.86600 45.12100 41.14600
C  -13.59200 44.13200 42.28800
N  -12.98100 38.50600 42.44700
C  -13.67900 39.66300 42.49700
C  -15.11600 39.41100 42.94100
C  -15.24200 37.86500 43.10000
C  -13.76800 37.44200 42.81400
C  -15.42900 40.12600 44.20600
C  -16.34400 37.08000 42.31000
C  -17.45100 36.38200 43.15800
N  -11.13700 36.31700 42.06000
C  -12.09600 35.52900 42.71100
C  -11.49400 34.19900 42.91800
C  -10.20800 34.24900 42.27900
C  -10.05100 35.57800 41.77700
C  -12.06500 33.07500 43.66000
C  -9.00300 33.50600 41.95100
O  -8.67000 32.36200 42.23800
C  -8.02400 34.52000 41.11200
C  -6.72600 34.56700 41.84500
O  -5.70100 34.03900 41.57900
O  -6.82100 35.42200 42.94600
C  -5.51800 35.84000 43.63000
H  -7.91500 41.31300 39.80900
H  -13.89500 41.68600 42.12800
H  -14.03500 35.38800 43.60300
H  -6.30900 36.83300 40.37000
H  -7.01100 39.17800 38.58100
H  -5.68500 39.91800 41.01300
H  -5.02500 40.02600 39.46400
H  -4.95000 38.49400 40.11300
H  -7.23300 37.13100 37.49700
H  -7.91700 35.83900 38.25100
H  -6.05100 34.56300 38.03600
H  -4.97000 35.85600 38.67900
H  -8.40900 43.34300 39.80800
H  -9.31400 44.61500 40.54800
H  -9.87400 44.14300 39.04500
H  -13.37700 43.63700 43.23600
H  -14.31800 43.60400 41.67000
H  -13.98000 45.14600 42.38200
H  -15.82600 39.75400 42.18800
H  -15.54600 37.73500 44.13900
H  -14.46400 40.19100 44.70900
H  -16.08800 39.54700 44.85300
H  -15.90900 41.08300 44.00400
H  -15.89400 36.32200 41.66800
H  -16.94500 37.78100 41.73100
H  -17.71300 35.46600 42.62900
H  -18.34300 37.00200 43.24400
H  -17.10100 36.06700 44.14100
H  -11.58500 32.12500 43.42300
H  -13.14900 33.16900 43.60300
H  -11.84200 33.32000 44.69800
H  -7.90300 34.07200 40.12600
H  -5.73500 36.29400 44.59700
H  -4.98800 36.57700 43.02700
H  -4.88100 34.96600 43.76600

