158

Mg 53.36700 23.48300 44.78500
C  50.61100 25.40400 43.84900
C  51.71600 20.59300 43.86300
C  56.33000 22.00900 44.93400
C  54.88500 26.52000 45.79000
N  51.40500 23.06500 43.86800
C  50.42200 23.99500 43.59900
C  49.21300 23.32200 42.98700
C  49.43000 21.82100 43.47500
C  50.92200 21.78600 43.77600
C  48.37500 21.47700 44.53500
C  49.27200 23.49400 41.47400
C  47.88000 23.43500 40.73900
H  47.70700 23.44300 39.23200
N  53.98100 21.56300 44.36100
C  53.16500 20.52400 44.03800
C  53.97500 19.35500 44.10500
C  55.36100 19.71000 44.32500
C  55.32000 21.18600 44.51700
C  53.51100 17.90000 43.76300
C  56.53500 18.75500 44.38600
O  56.50000 17.63300 43.89400
C  57.86100 19.19900 45.06700
N  55.34300 24.13000 45.39900
C  56.43500 23.38000 45.32600
C  57.72700 24.06100 45.73100
C  57.15100 25.41700 46.26700
C  55.73100 25.35100 45.78500
C  58.56000 23.34600 46.81100
C  58.04200 26.56100 45.70500
C  59.52300 26.79500 46.21300
N  52.92500 25.55400 44.76600
C  53.60500 26.61700 45.25000
C  52.83100 27.83200 45.28500
C  51.64300 27.44900 44.68900
C  51.78100 26.08100 44.31100
C  53.31100 29.19000 45.74100
C  50.30700 27.84900 44.34400
O  49.63000 28.85600 44.55800
C  49.66800 26.60100 43.70300
C  49.41000 27.08300 42.32900
O  50.26300 27.62100 41.61100
O  48.13000 26.80400 41.97300
C  47.71700 27.28900 40.68200
H  51.14400 19.67600 43.70800
H  57.32200 21.57200 44.80400
H  55.28100 27.46500 46.16800
H  48.30700 23.80000 43.35900
H  49.19700 21.14600 42.65100
H  47.75000 20.69000 44.11500
H  47.70500 22.26000 44.89100
H  48.84300 21.13200 45.45700
H  49.79400 22.61000 41.10600
H  49.77500 24.42400 41.21000
H  47.34900 24.30000 41.13800
H  47.47600 22.52200 41.17700
H  53.62700 17.68500 42.70100
H  52.44800 17.73100 43.93200
H  54.06400 17.12600 44.29600
H  58.42800 19.79100 44.35000
H  58.42400 18.27700 45.21600
H  57.62100 19.65200 46.02900
H  58.34400 24.12600 44.83500
H  57.17000 25.52700 47.35200
H  58.67500 23.98200 47.68900
H  59.59100 23.14600 46.51800
H  57.94100 22.51700 47.15100
H  57.70000 27.58400 45.86800
H  58.21900 26.40400 44.64100
H  59.60700 26.29800 47.18000
H  59.85100 27.82800 46.33200
H  60.24400 26.31400 45.55300
H  52.51900 29.91400 45.55000
H  54.07600 29.49700 45.02700
H  53.63300 29.05700 46.77400
H  48.73000 26.37700 44.21000
H  47.84500 26.52000 39.92100
H  48.21600 28.21300 40.39000
H  46.64100 27.46200 40.70500
Mg 42.33600 41.61000 26.10700
C  41.40700 43.96300 28.61500
C  43.16300 39.44900 28.70500
C  43.26900 39.53700 23.74600
C  41.58100 44.06300 23.71400
N  42.45000 41.81500 28.46300
C  41.74000 42.72000 29.18400
C  41.58400 42.27200 30.68500
C  42.23300 40.83100 30.73300
C  42.58300 40.62600 29.20300
C  43.48500 40.57600 31.55200
C  40.10300 42.40900 31.10400
C  39.73200 43.33200 32.26800
H  39.40500 42.78100 33.66500
N  43.26100 39.83800 26.24600
C  43.43700 39.07000 27.34400
C  43.94900 37.81200 26.95800
C  43.94900 37.75900 25.56700
C  43.48200 39.12200 25.11400
C  44.23700 36.80100 27.92900
C  44.28300 36.60400 24.51800
O  44.22700 36.78400 23.31000
C  44.68400 35.28000 24.94100
N  42.56800 41.85500 23.98900
C  42.93800 40.83400 23.23600
C  42.85500 41.15600 21.73200
C  41.92600 42.46400 21.69600
C  41.98300 42.83000 23.20600
C  44.20300 41.34400 20.99600
C  40.55600 42.27300 21.11700
C  39.51700 41.70100 22.13900
N  41.64400 43.60300 26.13500
C  41.48300 44.49300 25.03700
C  41.14900 45.79300 25.53400
C  40.97100 45.59700 26.93700
C  41.31200 44.22400 27.22900
C  40.87100 47.02400 24.77200
C  40.57400 46.36700 28.21400
O  40.29700 47.51400 28.50400
C  40.91100 45.26400 29.29800
C  41.84800 45.82700 30.29400
O  42.98600 45.54300 30.43200
O  41.16300 46.57800 31.25400
C  41.84000 46.95300 32.52900
H  43.32400 38.72100 29.50300
H  43.38400 38.78900 22.95800
H  41.14800 44.78500 23.01900
H  42.12500 42.95200 31.34300
H  41.47400 40.07100 30.92200
H  44.29100 40.67300 30.82400
H  43.39300 39.55900 31.93400
H  43.52800 41.35600 32.31100
H  39.77900 41.40700 31.38300
H  39.41400 42.69700 30.31000
H  38.81600 43.85400 31.99100
H  40.56000 44.03700 32.33600
H  43.69100 35.90100 27.64300
H  44.07900 36.92900 29.00000
H  45.27800 36.50700 27.79700
H  43.80200 34.66600 25.12400
H  45.31100 35.44000 25.81800
H  45.20600 34.74200 24.15000
H  42.34400 40.34500 21.21400
H  42.32000 43.31800 21.14300
H  44.01300 41.93100 20.09800
H  44.67400 40.40800 20.69600
H  44.91800 41.78200 21.69300
H  40.48700 41.57800 20.28100
H  40.31200 43.29300 20.81900
H  38.68600 41.10300 21.76400
H  38.99400 42.55000 22.57900
H  40.01300 41.22700 22.98500
H  40.06300 46.85900 24.05900
H  41.75900 47.38100 24.25000
H  40.74200 47.87300 25.44200
H  40.03100 45.08400 29.91500
H  41.26100 46.57300 33.37100
H  41.83300 48.03400 32.66800
H  42.86700 46.60600 32.63700

