158

Mg 24.17100 -4.77000 46.02600
C  26.55300 -2.91400 44.24100
C  21.75900 -3.85700 43.63100
C  22.09100 -7.55200 46.97500
C  26.83200 -6.31200 47.82100
N  24.26300 -3.66000 44.00500
C  25.33200 -2.85300 43.58300
C  24.92200 -2.05600 42.32000
C  23.35400 -2.29500 42.32800
C  23.07700 -3.31600 43.40800
C  22.46200 -1.06700 42.62500
C  25.71900 -2.52100 41.09100
C  26.50400 -1.41500 40.39600
H  26.13100 -1.22300 38.88000
N  22.17600 -5.51300 45.52300
C  21.36900 -4.93700 44.50300
C  20.07500 -5.58400 44.42700
C  20.16200 -6.72600 45.36300
C  21.52800 -6.60900 46.05800
C  18.91600 -5.16100 43.54600
C  18.98200 -7.62300 45.67300
O  18.05300 -7.72300 44.88700
C  19.00900 -8.59300 46.89700
N  24.44800 -6.56900 47.39700
C  23.44100 -7.53100 47.50200
C  24.01700 -8.81200 48.17200
C  25.54800 -8.40700 48.47900
C  25.59600 -6.97900 47.95300
C  23.10700 -9.18100 49.46700
C  26.61500 -9.22600 47.66200
C  27.15200 -10.44500 48.42900
N  26.22100 -4.57300 46.25500
C  27.14300 -5.14600 47.08500
C  28.42200 -4.47000 46.88600
C  28.25100 -3.59300 45.79700
C  26.87500 -3.69600 45.43600
C  29.67000 -4.86800 47.60100
C  28.93400 -2.68200 44.92500
O  30.08300 -2.29800 44.90600
C  27.80100 -2.13600 43.88600
C  27.65600 -0.69400 44.10600
O  26.90500 -0.19200 44.92400
O  28.69500 -0.02100 43.45600
C  29.06900 1.31600 43.94500
H  20.97000 -3.50700 42.96200
H  21.56500 -8.50300 47.07400
H  27.71300 -6.59300 48.40300
H  25.04800 -0.98800 42.50100
H  23.06100 -2.63900 41.33600
H  22.99000 -0.13400 42.42800
H  22.22400 -1.09000 43.68900
H  21.60600 -1.23900 41.97300
H  25.08000 -2.85400 40.27400
H  26.41300 -3.27700 41.46100
H  27.52600 -1.76600 40.25500
H  26.41400 -0.38000 40.72600
H  18.79000 -5.93000 42.78300
H  19.08900 -4.22100 43.02400
H  18.16700 -4.99300 44.32000
H  19.29600 -8.12400 47.83900
H  19.61700 -9.49100 46.78200
H  18.02300 -9.05600 46.89500
H  23.87900 -9.61800 47.45100
H  25.72800 -8.38200 49.55400
H  22.18600 -8.60000 49.41200
H  23.56700 -8.93400 50.42300
H  22.80200 -10.21200 49.28600
H  27.45900 -8.64500 47.29200
H  26.18100 -9.51400 46.70500
H  26.82000 -10.44800 49.46700
H  28.24000 -10.37700 48.46200
H  26.84000 -11.34700 47.90200
H  30.10500 -5.78600 47.20400
H  29.57200 -5.04200 48.67200
H  30.43800 -4.12400 47.39200
H  28.04100 -2.29100 42.83400
H  28.34600 1.86700 44.54700
H  29.34800 1.96100 43.11200
H  29.97000 1.24500 44.55400
Mg 0.39800 43.45300 25.34300
C  2.44900 43.18700 28.18600
C  -2.33700 42.77700 27.44200
C  -1.52600 42.87000 22.63800
C  3.27100 43.40000 23.25100
N  0.10400 43.19600 27.56000
C  1.11500 43.19800 28.54500
C  0.54200 43.21000 29.97900
C  -0.96600 42.99500 29.62400
C  -1.10100 42.91500 28.13300
C  -1.68000 41.75600 30.29600
C  0.91000 44.45000 30.94500
C  1.64700 44.18600 32.23200
H  1.18700 42.94200 33.04100
N  -1.69200 42.95100 25.05000
C  -2.56400 42.70400 26.03400
C  -3.87700 42.43100 25.36600
C  -3.73700 42.67200 24.01000
C  -2.28000 42.83700 23.82600
C  -5.13600 42.11400 26.08400
C  -4.77900 42.60000 22.89100
O  -4.46700 42.56000 21.72000
C  -6.27700 42.48000 23.22000
N  0.87300 43.15000 23.30700
C  -0.11100 43.06400 22.37300
C  0.43100 43.09400 20.96200
C  1.84500 43.58000 21.20100
C  2.03100 43.32400 22.66000
C  0.39600 41.67700 20.21200
C  2.02300 45.12400 20.91700
C  3.16600 45.69700 20.06800
N  2.49600 43.32300 25.59000
C  3.58300 43.34900 24.68100
C  4.84400 43.19700 25.43300
C  4.42200 43.11800 26.80300
C  2.98600 43.20900 26.83000
C  6.18300 43.14300 24.93200
C  4.92000 43.01000 28.14200
O  6.07500 42.78200 28.53900
C  3.66800 43.14400 29.10200
C  3.82600 41.91300 30.03100
O  3.65400 40.69500 29.74400
O  4.37500 42.32200 31.20200
C  4.75600 41.19700 32.06200
H  -3.21100 42.58900 28.07000
H  -2.11400 42.90700 21.71800
H  4.07600 43.45500 22.51500
H  0.83600 42.22500 30.34200
H  -1.57800 43.86500 29.86100
H  -1.97800 41.01300 29.55700
H  -2.50500 42.07200 30.93500
H  -0.93600 41.26000 30.92000
H  0.00800 45.00500 31.20400
H  1.53400 45.15900 30.40100
H  1.66300 45.01100 32.94400
H  2.69600 44.09800 31.94900
H  -4.97400 41.73900 27.09500
H  -5.55000 41.22900 25.60200
H  -5.80700 42.97100 26.12700
H  -6.40100 41.49200 23.66400
H  -6.81900 42.38100 22.27900
H  -6.53400 43.32500 23.85800
H  -0.21300 43.77800 20.40900
H  2.56200 42.88900 20.75700
H  1.39600 41.38300 19.89300
H  -0.15100 41.86800 19.28900
H  -0.07400 40.86200 20.76200
H  2.21200 45.59700 21.88100
H  1.11400 45.59300 20.54100
H  3.85300 44.85200 20.03100
H  3.68300 46.52300 20.55700
H  2.76000 46.02300 19.11100
H  6.45000 42.26800 24.34000
H  6.94900 43.36400 25.67600
H  6.21400 44.07400 24.36600
H  3.60100 44.11300 29.59600
H  5.14200 41.83000 32.86200
H  5.58300 40.65800 31.60100
H  3.95600 40.48800 32.27200

