158

Mg 42.02700 41.15600 26.46100
C  41.21800 43.54300 28.88800
C  42.78000 39.00400 29.06300
C  43.07000 39.04100 24.04500
C  41.34600 43.64300 24.02900
N  42.03100 41.25500 28.70100
C  41.63900 42.35500 29.46800
C  41.60100 42.01400 30.92500
C  42.39600 40.65900 31.03100
C  42.38100 40.22000 29.48400
C  43.81200 40.70600 31.65000
C  40.13700 42.07000 31.47700
C  39.97900 42.98600 32.78000
H  40.10700 42.33000 34.14900
N  42.80000 39.30900 26.54400
C  42.90800 38.52400 27.69700
C  43.23800 37.22300 27.33100
C  43.35100 37.14700 25.90200
C  42.97900 38.53200 25.43700
C  43.67400 36.20200 28.32700
C  43.79700 36.07900 25.01300
O  43.75600 36.16400 23.77200
C  44.32100 34.80600 25.54500
N  42.38600 41.39600 24.39300
C  42.71800 40.35600 23.60800
C  42.51000 40.69500 22.14500
C  41.89700 42.09100 22.20700
C  41.95700 42.42300 23.67400
C  43.64700 40.44900 21.13800
C  40.45600 42.14000 21.63400
C  39.26600 41.79000 22.53700
N  41.55100 43.20100 26.42300
C  41.13100 44.00100 25.37400
C  40.64300 45.26100 25.89000
C  40.70400 45.12700 27.24000
C  41.22800 43.85300 27.51500
C  40.21100 46.40500 25.03600
C  40.39600 45.82500 28.47700
O  39.94300 46.91500 28.63600
C  40.78200 44.83300 29.62900
C  41.94400 45.43100 30.32300
O  43.10500 45.22000 29.98900
O  41.51100 46.09400 31.44800
C  42.53400 46.61000 32.36200
H  42.96700 38.31900 29.89200
H  43.31900 38.29100 23.29200
H  41.02600 44.33200 23.24400
H  42.20100 42.74400 31.46700
H  41.80400 39.91600 31.56500
H  44.01600 41.63900 32.17400
H  44.53200 40.48500 30.86200
H  43.95000 39.91500 32.38700
H  39.82700 41.06400 31.76000
H  39.38500 42.40000 30.76100
H  39.08900 43.59200 32.61000
H  40.88300 43.58800 32.69100
H  42.88500 35.45900 28.43800
H  43.93300 36.65800 29.28300
H  44.53400 35.72700 27.85600
H  45.29700 34.88900 26.02300
H  44.50800 34.04800 24.78500
H  43.77400 34.35800 26.37500
H  41.73400 40.03600 21.75500
H  42.52500 42.80200 21.67100
H  43.78700 41.20900 20.36900
H  43.64800 39.44000 20.72500
H  44.58300 40.62500 21.66600
H  40.45000 41.50100 20.75100
H  40.40100 43.15200 21.23300
H  39.60000 41.17500 23.37300
H  38.64100 41.06500 22.01400
H  38.67400 42.68300 22.73600
H  39.98000 47.24300 25.69300
H  39.38300 46.22700 24.35000
H  41.10300 46.70700 24.48700
H  39.96200 44.63600 30.31900
H  43.47800 46.81600 31.85900
H  42.75600 45.83800 33.09900
H  42.12000 47.56200 32.69500
Mg -0.02900 43.74500 26.19000
C  2.52300 43.20700 28.72900
C  -2.34900 42.52600 28.44300
C  -2.27800 43.75800 23.65300
C  2.52800 44.19500 23.93600
N  0.06400 43.14000 28.39900
C  1.17500 43.19400 29.21100
C  0.70200 43.00000 30.70200
C  -0.78100 42.55500 30.51600
C  -1.07800 42.89900 29.05400
C  -0.96000 41.05300 30.94300
C  1.02100 44.30500 31.54200
C  1.76400 43.98300 32.88700
H  1.41100 42.63600 33.55500
N  -1.99200 43.34200 26.14500
C  -2.78900 42.78700 27.14200
C  -4.10400 42.56000 26.58500
C  -4.11500 42.91000 25.22600
C  -2.74600 43.37200 24.96200
C  -5.21100 41.87800 27.38500
C  -5.24800 42.94500 24.20800
O  -5.22900 43.17900 23.00000
C  -6.64400 42.79900 24.78600
N  0.08000 44.17900 24.09900
C  -0.97800 44.15800 23.28200
C  -0.54000 44.48900 21.79200
C  0.94000 44.68600 21.96100
C  1.27200 44.35400 23.41800
C  -0.88800 43.28400 20.83500
C  1.48600 46.06500 21.64500
C  0.82000 47.21800 22.33000
N  2.06800 43.81000 26.28600
C  2.94800 44.00200 25.26900
C  4.30600 43.83100 25.72100
C  4.16600 43.64100 27.08800
C  2.83100 43.48400 27.35300
C  5.68000 44.09900 25.07300
C  4.90300 43.33800 28.30600
O  6.10300 43.34700 28.50500
C  3.86700 43.17600 29.43800
C  4.17400 41.94800 30.24700
O  3.84500 40.77400 29.91200
O  5.01500 42.19000 31.31800
C  5.25800 41.00300 32.18900
H  -3.10000 42.27900 29.19600
H  -3.01000 43.60300 22.85700
H  3.43500 44.44700 23.38300
H  1.36800 42.27900 31.17700
H  -1.40000 43.17200 31.16800
H  -0.09700 40.59500 31.42600
H  -1.35400 40.34600 30.21200
H  -1.76200 41.04200 31.68000
H  0.06700 44.82600 31.61400
H  1.61800 45.00900 30.96200
H  1.60900 44.81200 33.57800
H  2.78000 43.95600 32.49400
H  -5.91900 42.65700 27.67000
H  -4.78300 41.36200 28.24400
H  -5.62400 41.12100 26.71800
H  -7.44800 43.14000 24.13300
H  -6.56500 43.38300 25.70300
H  -6.88000 41.76000 25.01400
H  -1.10300 45.33700 21.40100
H  1.49700 44.05700 21.26700
H  -1.82200 43.45400 20.29900
H  -0.95100 42.34800 21.38800
H  -0.07300 43.36000 20.11500
H  1.49500 46.11000 20.55600
H  2.48900 46.13800 22.06600
H  1.51000 47.68400 23.03300
H  -0.13500 46.85800 22.71400
H  0.55800 48.03100 21.65300
H  5.85900 43.20400 24.47800
H  6.38400 44.14600 25.90400
H  5.56500 45.08200 24.61700
H  3.90700 44.04000 30.10100
H  6.29700 40.72800 32.00800
H  4.61000 40.13200 32.09900
H  5.18000 41.28400 33.23900

