158

Mg 54.50900 24.59500 44.69200
C  51.91200 26.80900 43.84000
C  52.32400 21.98300 43.85900
C  57.01200 22.39100 45.17400
C  56.64000 27.24300 45.50000
N  52.42100 24.44300 43.72700
C  51.47100 25.49300 43.61800
C  49.98500 25.00800 43.37700
C  50.26500 23.44800 43.76900
C  51.80100 23.27200 43.82600
C  49.43000 22.80400 44.94400
C  49.50400 25.17200 41.88800
C  48.20800 24.53000 41.44600
H  48.27500 23.68700 40.21900
N  54.71100 22.46500 44.43200
C  53.64500 21.61900 44.15800
C  54.15900 20.28100 44.15200
C  55.55900 20.34800 44.48300
C  55.83200 21.79700 44.74800
C  53.24100 19.09000 43.92600
C  56.52200 19.10400 44.63800
O  56.09600 17.94600 44.42600
C  57.99200 19.24500 44.97000
N  56.60500 24.77900 45.22400
C  57.41900 23.72600 45.40400
C  58.75300 24.11000 45.94200
C  58.66500 25.64900 46.07500
C  57.21600 25.92900 45.58100
C  59.29100 23.48200 47.31500
C  59.58000 26.54500 45.12600
C  60.08300 27.77900 45.90000
N  54.33400 26.59200 44.55400
C  55.26800 27.56100 45.09200
C  54.60800 28.88300 45.06800
C  53.30200 28.58000 44.66000
C  53.14500 27.24000 44.33000
C  55.18000 30.19400 45.42400
C  51.93700 29.15900 44.42700
O  51.68700 30.34100 44.56400
C  51.10800 28.09500 43.73800
C  51.09000 28.53600 42.36300
O  52.07600 28.82800 41.68600
O  49.77400 28.79100 42.00000
C  49.52700 29.36400 40.70400
H  51.60700 21.17700 43.69300
H  57.92100 21.80600 45.33000
H  57.25800 28.11500 45.72400
H  49.35600 25.42700 44.16300
H  49.86900 22.89400 42.91800
H  48.60700 22.21500 44.54100
H  49.02800 23.69300 45.43100
H  50.07600 22.19200 45.57400
H  50.39000 24.82900 41.35200
H  49.26300 26.23000 41.79300
H  47.56800 25.37900 41.20300
H  47.81700 23.87700 42.22700
H  53.37500 18.85800 42.86900
H  52.17100 19.19200 44.10600
H  53.56800 18.16000 44.39100
H  58.41700 19.94400 44.25000
H  58.48000 18.27200 44.92600
H  58.13000 19.66600 45.96600
H  59.55200 23.99800 45.20900
H  58.73600 25.97100 47.11400
H  60.37900 23.43700 47.36100
H  59.02200 22.43500 47.45100
H  59.02600 24.13000 48.15000
H  59.05400 26.86900 44.22900
H  60.49300 26.02700 44.83200
H  61.17100 27.76900 45.95800
H  59.64600 27.86000 46.89500
H  59.71100 28.66100 45.37800
H  55.56600 30.21400 46.44300
H  54.35300 30.90300 45.39500
H  55.94200 30.37800 44.66700
H  50.07700 28.04100 44.08600
H  49.58000 28.52000 40.01600
H  50.40300 29.94800 40.42300
H  48.65400 30.01500 40.72800
Mg -1.49000 34.78000 26.76600
C  -3.19100 33.31900 29.49100
C  0.16700 36.85700 29.16100
C  -0.19900 36.52200 24.30100
C  -3.07700 32.64500 24.58500
N  -1.61900 35.13800 29.08600
C  -2.36600 34.33200 29.94400
C  -2.13400 34.80100 31.39900
C  -1.00000 35.91000 31.27500
C  -0.80800 35.97200 29.72600
C  -1.34100 37.31100 31.87600
C  -1.93100 33.60000 32.36500
C  -0.96900 33.70500 33.50700
H  -1.06900 32.75600 34.62500
N  -0.21600 36.40200 26.74400
C  0.48000 37.02800 27.77500
C  1.30400 38.03100 27.24900
C  1.10100 37.96600 25.83600
C  0.15500 36.97100 25.59000
C  2.05600 38.98800 28.22700
C  1.77100 38.85000 24.72300
O  1.54300 38.71200 23.52100
C  2.90400 39.75100 25.12500
N  -1.79000 34.72000 24.77800
C  -1.03200 35.42900 23.95800
C  -1.15700 34.87900 22.54400
C  -1.96700 33.60800 22.59900
C  -2.24900 33.61400 24.06100
C  -1.78600 35.93600 21.55500
C  -1.27900 32.28300 21.97100
C  -0.33600 31.43100 22.82200
N  -2.96300 33.30600 26.94800
C  -3.51300 32.49700 25.94400
C  -4.43600 31.52700 26.55700
C  -4.35500 31.82600 27.93400
C  -3.41700 32.94300 28.10800
C  -5.36900 30.52900 25.83200
C  -4.80700 31.47500 29.24900
O  -5.58500 30.62800 29.54800
C  -4.10200 32.33200 30.32700
C  -5.21100 32.97500 31.04700
O  -5.50200 34.19000 31.08100
O  -5.66800 32.17400 32.07700
C  -6.49000 32.76000 33.07400
H  0.69200 37.39600 29.95200
H  0.40600 36.80100 23.43700
H  -3.34400 31.86900 23.86500
H  -3.05000 35.29700 31.72000
H  -0.06900 35.59000 31.74300
H  -0.61000 37.65200 32.61000
H  -2.30600 37.28000 32.38300
H  -1.31100 38.11100 31.13700
H  -1.50400 32.84300 31.70700
H  -2.87200 33.23500 32.77700
H  -1.00900 34.69400 33.96400
H  0.06100 33.62000 33.16200
H  1.39600 39.85200 28.30300
H  3.00300 39.29200 27.78200
H  2.33700 38.54300 29.18200
H  3.81900 39.20300 25.35100
H  2.62600 40.40700 25.95000
H  3.12500 40.35500 24.24400
H  -0.18400 34.66300 22.10400
H  -2.97600 33.72400 22.20300
H  -2.08500 36.75500 22.20800
H  -2.57500 35.51100 20.93500
H  -1.01400 36.37800 20.92500
H  -0.84700 32.43000 20.98100
H  -2.14100 31.73100 21.59600
H  0.57500 31.17600 22.28100
H  -0.91900 30.51700 22.93400
H  -0.10300 31.81600 23.81500
H  -4.79000 29.88100 25.17400
H  -6.13300 31.12600 25.33400
H  -5.94900 30.07400 26.63600
H  -3.56700 31.63900 30.97600
H  -7.40500 33.19600 32.67300
H  -5.92800 33.54600 33.57800
H  -6.59600 31.96400 33.81200

