158

Mg -1.52300 17.39000 25.99700
C  -1.88400 15.05400 28.68200
C  -2.74000 19.81300 28.24300
C  -2.06100 19.30400 23.41600
C  -1.34000 14.62800 23.71200
N  -2.34800 17.39300 28.19900
C  -2.27800 16.29600 29.09300
C  -2.65500 16.77200 30.53500
C  -3.10500 18.24100 30.22500
C  -2.71500 18.58300 28.80100
C  -4.63000 18.36600 30.46000
C  -1.41600 16.76500 31.59100
C  -1.61700 15.73800 32.79900
H  -2.22300 16.27600 34.10900
N  -2.01000 19.37500 25.92400
C  -2.50700 20.15600 26.89100
C  -2.50200 21.54800 26.22700
C  -2.22700 21.33100 24.85500
C  -2.08300 19.96900 24.68600
C  -2.94500 22.82400 26.96800
C  -2.14300 22.37200 23.69700
O  -1.88300 22.11000 22.51600
C  -2.38600 23.81100 24.02300
N  -1.85300 16.94900 23.75800
C  -1.99600 18.00100 22.94800
C  -2.19000 17.55900 21.51400
C  -1.71100 16.07300 21.60100
C  -1.64400 15.82800 23.13200
C  -3.65000 17.62600 21.00500
C  -0.21900 15.76900 21.10100
C  0.98300 16.31100 21.87300
N  -1.51200 15.22600 26.16100
C  -1.42400 14.27300 25.14100
C  -1.59500 12.97300 25.76500
C  -1.53600 13.25200 27.14300
C  -1.64800 14.64600 27.34200
C  -1.39700 11.71500 24.99400
C  -1.55100 12.60400 28.44600
O  -1.48200 11.44600 28.71400
C  -1.72600 13.77000 29.48700
C  -0.44800 13.86900 30.27800
O  0.51600 14.52900 29.97700
O  -0.49500 13.10000 31.41700
C  0.79900 12.99400 32.16900
H  -2.96900 20.60100 28.96300
H  -2.25800 19.89200 22.51800
H  -1.19400 13.86700 22.94200
H  -3.40000 15.99800 30.72300
H  -2.55200 18.97100 30.81600
H  -5.08000 17.37800 30.55900
H  -5.13400 18.96100 29.69800
H  -4.68000 18.81700 31.45100
H  -1.40000 17.69400 32.16100
H  -0.44800 16.67500 31.09900
H  -0.64300 15.31500 33.04400
H  -2.31800 14.98900 32.43000
H  -3.44700 22.47700 27.87200
H  -3.71000 23.46800 26.53400
H  -2.16700 23.51300 27.29800
H  -1.63200 24.03500 24.77800
H  -3.40400 23.95800 24.38300
H  -2.30600 24.42700 23.12700
H  -1.52900 18.17400 20.90500
H  -2.45900 15.37500 21.22500
H  -4.31300 17.84400 21.84200
H  -4.03700 16.68100 20.62300
H  -3.63100 18.36800 20.20800
H  -0.07900 16.29700 20.15800
H  -0.13200 14.68400 21.04800
H  0.72300 17.19900 22.44900
H  1.77900 16.56000 21.17100
H  1.36100 15.49100 22.48300
H  -1.13300 11.82100 23.94200
H  -2.37400 11.23400 25.04400
H  -0.76600 11.06600 25.60000
H  -2.54400 13.54900 30.17200
H  0.85300 11.94700 32.46600
H  0.79500 13.60100 33.07400
H  1.69300 13.19500 31.57800
Mg -5.35900 25.19100 26.58700
C  -3.39600 26.71000 29.07400
C  -6.45500 22.85200 29.00300
C  -7.29100 23.62000 24.20400
C  -3.88500 27.27900 24.31500
N  -4.86200 24.78400 28.78500
C  -4.23700 25.70900 29.59400
C  -4.47300 25.43800 31.07700
C  -5.12600 23.92600 31.02900
C  -5.54100 23.84400 29.50200
C  -4.09300 22.91200 31.51800
C  -5.50700 26.50100 31.67200
C  -5.44700 26.74600 33.18400
H  -4.94200 25.52600 34.00400
N  -6.70900 23.44000 26.56100
C  -7.05800 22.70200 27.66800
C  -7.96200 21.65800 27.23000
C  -8.29100 21.93200 25.84400
C  -7.43100 23.02700 25.47500
C  -8.48500 20.54900 28.11600
C  -9.34900 21.28800 24.93200
O  -9.51800 21.53700 23.77100
C  -10.33900 20.10100 25.45000
N  -5.44400 25.29200 24.56300
C  -6.39500 24.68400 23.77300
C  -6.24700 25.04600 22.22800
C  -5.41100 26.35900 22.38100
C  -4.87500 26.36500 23.88300
C  -5.62300 23.94700 21.46500
C  -6.25400 27.68200 22.28700
C  -6.65600 28.09200 20.86800
N  -3.80000 26.51900 26.68600
C  -3.35000 27.36500 25.63500
C  -2.36300 28.33600 26.08900
C  -2.37600 28.13800 27.50800
C  -3.22600 26.99000 27.74700
C  -1.56000 29.38300 25.36000
C  -1.92500 28.64400 28.82300
O  -1.40100 29.66200 29.13200
C  -2.54900 27.67900 29.89100
C  -1.54600 27.03400 30.68500
O  -0.87000 26.09800 30.33800
O  -1.49200 27.56200 31.93100
C  -0.61000 26.94500 32.89200
H  -6.83500 22.14000 29.73700
H  -7.94100 23.17600 23.44700
H  -3.67300 28.06600 23.58900
H  -3.48900 25.45800 31.54700
H  -6.02100 24.04000 31.64000
H  -3.36000 23.29900 32.22500
H  -3.56400 22.72500 30.58400
H  -4.44000 22.03200 32.06000
H  -6.53300 26.26600 31.39200
H  -5.25000 27.44500 31.19300
H  -6.45000 27.03000 33.50400
H  -4.78900 27.59900 33.35100
H  -9.46000 20.84900 28.49900
H  -7.85000 20.45600 28.99700
H  -8.59400 19.57400 27.64000
H  -9.70400 19.46200 26.06300
H  -10.64900 19.58000 24.54500
H  -11.10400 20.51200 26.10900
H  -7.25600 25.27300 21.88600
H  -4.57200 26.38100 21.68600
H  -5.75400 22.97100 21.93300
H  -4.59600 24.12700 21.14700
H  -6.17500 23.73000 20.55000
H  -5.65800 28.49600 22.70000
H  -7.13600 27.68000 22.92700
H  -6.08400 28.94400 20.50000
H  -7.67700 28.47100 20.81900
H  -6.65000 27.26600 20.15600
H  -1.58400 30.26200 26.00400
H  -1.95200 29.52700 24.35300
H  -0.50300 29.12000 25.37600
H  -3.17600 28.30200 30.52900
H  0.33400 26.56800 32.50000
H  -1.12600 26.33900 33.63700
H  -0.33600 27.77400 33.54500

