158

Mg 43.85600 3.57300 47.18400
C  41.97000 6.51200 47.07400
C  41.06700 1.66100 46.94900
C  45.88700 0.93900 46.88000
C  46.83700 5.69400 46.90700
N  41.76100 4.11700 47.00800
C  41.18100 5.32900 47.22100
C  39.63500 5.19800 47.29500
C  39.46400 3.57800 47.44300
C  40.85300 3.04300 47.05600
C  38.97900 3.08100 48.80800
C  38.74400 5.72100 46.09300
C  39.17100 5.22400 44.74200
H  39.33700 6.18500 43.62800
N  43.58100 1.57100 46.84600
C  42.32100 0.96800 46.80500
C  42.48000 -0.49700 46.77600
C  43.92200 -0.70200 46.68400
C  44.52600 0.63600 46.75500
C  41.40000 -1.59200 46.86500
C  44.57200 -2.03000 46.45700
O  43.89000 -3.06700 46.49400
C  46.01300 -2.28500 46.12600
N  46.07800 3.33100 46.86900
C  46.55600 2.12800 47.12200
C  48.13400 2.26000 47.21000
C  48.45800 3.87000 46.94700
C  47.04000 4.34100 46.84400
C  48.73100 1.63800 48.52800
C  49.39900 4.21100 45.85200
C  50.76000 4.73700 46.19700
N  44.34300 5.69400 47.00600
C  45.59100 6.38300 46.99200
C  45.33000 7.83400 46.97000
C  43.94100 7.91000 46.91700
C  43.44300 6.58500 47.10000
C  46.40400 8.88300 46.89500
C  42.81000 8.80100 46.80200
O  42.75600 10.02200 46.64800
C  41.47400 7.92500 46.92600
C  40.82100 8.41400 48.21500
O  41.22600 8.25700 49.34700
O  39.62200 9.14000 47.86200
C  38.67000 9.46000 48.93100
H  40.16500 1.05400 47.05400
H  46.55900 0.07900 46.84400
H  47.66000 6.39600 47.05700
H  39.28600 5.77300 48.15300
H  38.68300 3.36500 46.71300
H  39.72900 2.91200 49.58100
H  38.56100 2.08300 48.67500
H  38.21600 3.78800 49.13300
H  38.67300 6.80900 46.06500
H  37.71400 5.46600 46.34100
H  38.41500 4.54700 44.34500
H  40.17800 4.80800 44.73600
H  41.66400 -2.32700 47.62600
H  41.21500 -1.99700 45.87100
H  40.48400 -1.21600 47.32100
H  46.69300 -2.20000 46.97400
H  46.20100 -1.66700 45.24900
H  46.03800 -3.29800 45.72400
H  48.59300 1.77600 46.34800
H  48.84700 4.41600 47.80600
H  49.42100 2.42200 48.84000
H  49.28700 0.71200 48.37700
H  47.92700 1.49100 49.24900
H  48.92200 4.89100 45.14600
H  49.58000 3.29700 45.28700
H  50.76100 5.81300 46.02000
H  51.55100 4.34600 45.55800
H  50.98900 4.43300 47.21800
H  45.72400 9.71800 46.72500
H  47.03600 8.65600 46.03600
H  46.97700 8.94700 47.82000
H  40.79000 8.02700 46.08300
H  37.74200 9.90000 48.56600
H  39.08800 10.24900 49.55600
H  38.39400 8.61600 49.56300
Mg 16.24400 51.50700 26.02800
C  18.34600 50.48400 28.62800
C  13.72200 52.06800 28.45300
C  14.18300 52.38300 23.47900
C  18.63000 50.61600 23.67700
N  16.03400 51.33900 28.25700
C  17.12500 51.10300 29.09100
C  16.72300 51.33200 30.59200
C  15.19000 51.47100 30.47100
C  14.96300 51.63000 28.97100
C  14.39300 50.23000 30.94100
C  17.47000 52.54300 31.15900
C  17.34400 52.82000 32.72000
H  16.37600 51.90400 33.54400
N  14.22900 52.02800 25.94100
C  13.40100 52.30100 27.04100
C  12.05900 52.52500 26.50000
C  12.10800 52.47900 25.03300
C  13.54700 52.23500 24.73800
C  10.79400 52.73300 27.26400
C  11.01100 52.56000 23.93900
O  11.32500 52.52800 22.75500
C  9.59600 52.71300 24.29400
N  16.37300 51.70400 23.97700
C  15.44700 52.19400 23.11600
C  16.00500 52.26600 21.69700
C  17.44900 51.84700 21.88800
C  17.48400 51.31700 23.33700
C  15.10300 51.60500 20.62100
C  18.58400 52.89900 21.56900
C  19.00300 53.00900 20.10500
N  18.10800 50.70300 26.10300
C  18.95100 50.27800 25.02100
C  20.11800 49.56600 25.61800
C  19.94100 49.57300 27.00600
C  18.68000 50.28200 27.23700
C  21.23600 49.02300 24.81000
C  20.44000 49.28300 28.33500
O  21.47000 48.63200 28.66200
C  19.40700 49.81700 29.46400
C  19.02700 48.62200 30.30600
O  18.71300 47.49900 29.92100
O  19.26200 48.96500 31.63500
C  18.96900 47.95400 32.67500
H  12.93400 52.20000 29.19600
H  13.58600 52.73300 22.63400
H  19.41400 50.44900 22.93600
H  17.17200 50.47800 31.09900
H  14.81100 52.30500 31.06100
H  14.00000 49.68100 30.08500
H  13.48100 50.48900 31.47900
H  14.92100 49.57800 31.63700
H  17.02100 53.36600 30.60300
H  18.48800 52.51800 30.76900
H  17.14400 53.88400 32.84400
H  18.35300 52.65800 33.10100
H  10.09200 51.97200 26.92300
H  10.35400 53.68000 26.95100
H  10.98800 52.57900 28.32600
H  9.01200 52.68600 23.37300
H  9.50100 53.71500 24.71200
H  9.19700 51.94900 24.96100
H  15.95700 53.31100 21.39000
H  17.50900 51.02900 21.17000
H  14.39800 50.88000 21.02800
H  15.76200 51.14800 19.88200
H  14.56000 52.45700 20.21200
H  19.37700 52.77900 22.30700
H  18.09100 53.86100 21.71000
H  18.31300 52.39800 19.52300
H  20.04100 52.67600 20.12700
H  18.94400 54.03900 19.75300
H  22.15900 49.59800 24.88100
H  21.06400 49.12000 23.73800
H  21.50500 48.02300 25.15100
H  19.80200 50.54200 30.17500
H  18.25500 47.18700 32.37200
H  18.44100 48.45600 33.48600
H  19.89000 47.45900 32.98100

