158

Mg -2.02200 16.91600 26.71800
C  -2.69500 14.75300 29.46000
C  -2.29700 19.59800 28.96300
C  -1.97900 18.97500 24.05400
C  -1.93200 14.10300 24.58400
N  -2.41700 17.10400 28.99800
C  -2.69100 16.10500 29.88900
C  -3.04900 16.66400 31.26000
C  -2.85400 18.23000 31.02300
C  -2.44600 18.36500 29.59500
C  -4.08700 19.09100 31.41000
C  -2.14800 16.03700 32.44600
C  -1.59100 16.87500 33.57000
H  -1.65800 16.30200 34.99600
N  -1.98500 18.98900 26.52700
C  -2.12300 19.87700 27.58700
C  -2.17200 21.18200 27.03100
C  -1.98700 21.14300 25.64800
C  -2.03600 19.66000 25.32700
C  -2.52700 22.43600 27.78200
C  -1.86700 22.18900 24.51500
O  -1.77400 21.97600 23.31500
C  -1.72000 23.64700 24.93100
N  -2.18500 16.61000 24.67600
C  -2.04700 17.61600 23.77700
C  -1.79000 16.99100 22.38000
C  -1.45900 15.51500 22.62700
C  -2.04900 15.36100 24.02300
C  -3.02100 17.18500 21.46500
C  0.10200 15.14000 22.55600
C  1.16000 15.96400 23.30500
N  -2.31600 14.85500 26.94400
C  -2.24600 13.80100 25.98300
C  -2.50100 12.52300 26.62300
C  -2.62100 12.83900 28.01100
C  -2.49300 14.25400 28.16900
C  -2.70500 11.21700 25.89700
C  -2.92200 12.22000 29.31900
O  -3.18900 11.10300 29.76200
C  -2.87100 13.49500 30.31300
C  -1.60600 13.22600 31.01600
O  -0.46500 13.41900 30.56800
O  -1.81800 12.70800 32.25700
C  -0.61700 12.61800 33.14700
H  -2.32700 20.50700 29.56700
H  -1.90500 19.64700 23.19600
H  -1.73200 13.22800 23.96200
H  -4.06500 16.33500 31.47800
H  -1.99700 18.49600 31.64100
H  -4.70200 18.47700 32.06700
H  -4.58600 19.47700 30.52100
H  -3.71000 19.91100 32.02100
H  -1.29800 15.55400 31.96400
H  -2.75100 15.23200 32.86500
H  -2.26700 17.72900 33.60500
H  -0.66100 17.35000 33.25500
H  -1.96100 23.30600 27.44700
H  -2.16600 22.31900 28.80500
H  -3.57900 22.66200 27.60800
H  -2.68000 23.86400 25.39900
H  -1.57300 24.25900 24.04100
H  -0.85800 23.75600 25.59000
H  -0.95500 17.44200 21.84300
H  -1.93500 14.91900 21.84800
H  -3.72500 17.82400 21.99800
H  -3.57900 16.26900 21.26800
H  -2.69900 17.62800 20.52300
H  0.34400 15.09300 21.49400
H  0.29500 14.11600 22.87600
H  1.68500 15.22300 23.90800
H  0.57700 16.71300 23.84000
H  1.89600 16.39400 22.62600
H  -1.70900 10.93200 25.55700
H  -3.18900 11.36000 24.93100
H  -3.15200 10.47800 26.56200
H  -3.77600 13.52100 30.91900
H  0.18600 13.31700 32.91300
H  -0.18300 11.62100 33.07800
H  -0.86100 12.80900 34.19200
Mg -11.20200 39.51700 41.47000
C  -10.15400 36.20800 40.94000
C  -8.27100 40.49900 39.64500
C  -12.37900 42.58700 41.00300
C  -14.25500 38.33000 42.47700
N  -9.42400 38.44000 40.37400
C  -9.25600 37.06300 40.27800
C  -7.93700 36.68200 39.59500
C  -7.23900 38.12500 39.47200
C  -8.34300 39.08400 39.80000
C  -5.97600 38.37100 40.33400
C  -8.14400 35.96000 38.21000
C  -7.24000 34.79200 37.88100
H  -6.21600 35.03800 36.78800
N  -10.42300 41.32700 40.49000
C  -9.24700 41.51100 39.84800
C  -9.07200 42.94200 39.56900
C  -10.27500 43.55000 39.91700
C  -11.14000 42.47100 40.46600
C  -7.94200 43.42300 38.79100
C  -10.58400 45.00500 39.73700
O  -9.79900 45.74600 39.14000
C  -11.95600 45.66400 40.09100
N  -13.05400 40.31000 41.64900
C  -13.28500 41.64500 41.50500
C  -14.75500 42.01000 41.87200
C  -15.43400 40.59400 42.06200
C  -14.16500 39.68600 42.11400
C  -14.86100 42.83700 43.23200
C  -16.54100 40.11300 41.07000
C  -17.74700 39.25900 41.52100
N  -12.07400 37.66500 41.88000
C  -13.26700 37.36200 42.40800
C  -13.36300 35.88900 42.64100
C  -12.11300 35.34900 42.08500
C  -11.35500 36.47900 41.71600
C  -14.58700 35.12500 43.23800
C  -11.37800 34.14300 41.72800
O  -11.63000 32.99700 41.98700
C  -10.09900 34.65500 40.93100
C  -8.84000 34.05300 41.55100
O  -8.21800 33.03000 41.23900
O  -8.23900 34.94500 42.51500
C  -6.96800 34.44900 43.09500
H  -7.28400 40.71100 39.22800
H  -12.79300 43.59100 41.12200
H  -15.22300 37.99700 42.85800
H  -7.42900 36.05400 40.32700
H  -6.96300 38.26700 38.42700
H  -5.84100 37.66300 41.15100
H  -6.05500 39.30900 40.88300
H  -5.15400 38.26300 39.62600
H  -7.99900 36.74000 37.46300
H  -9.18500 35.63900 38.16700
H  -7.95700 34.04100 37.55000
H  -6.67900 34.41800 38.73800
H  -7.30200 42.60200 38.47000
H  -7.43400 43.93500 39.60900
H  -8.20000 44.16200 38.03200
H  -12.77100 45.19600 39.53800
H  -11.90300 46.72800 39.86000
H  -12.16100 45.57100 41.15800
H  -15.14300 42.50600 40.98200
H  -15.93700 40.43100 43.01500
H  -15.35300 43.79400 43.06500
H  -13.84400 42.96000 43.60500
H  -15.48100 42.45300 44.04200
H  -15.93700 39.72000 40.25300
H  -17.03900 41.05900 40.85700
H  -18.00300 38.72000 40.60900
H  -18.48700 39.89600 42.00500
H  -17.45700 38.59300 42.33500
H  -15.10900 35.87500 43.83200
H  -14.30700 34.29300 43.88400
H  -15.30400 34.77600 42.49500
H  -10.18600 34.29900 39.90500
H  -6.62800 34.86900 44.04200
H  -6.16200 34.69400 42.40300
H  -7.10300 33.40000 43.35800

