158

Mg 26.84700 51.51900 26.98100
C  24.54600 52.43600 29.50400
C  28.96100 50.46000 29.39600
C  29.13300 50.79000 24.56200
C  24.71900 53.01500 24.54900
N  26.71800 51.49100 29.20200
C  25.70800 51.95200 30.04000
C  26.04900 51.53600 31.47400
C  27.62200 51.17000 31.41600
C  27.80100 51.05900 29.91700
C  28.68600 52.08100 32.02100
C  25.09000 50.40700 32.04100
C  24.64900 50.49100 33.53000
H  25.63000 51.23000 34.55800
N  28.72900 50.58900 26.95100
C  29.45400 50.24800 28.09800
C  30.67200 49.59000 27.64000
C  30.71500 49.57200 26.27700
C  29.49000 50.26700 25.85700
C  31.68500 48.92400 28.62300
C  31.73100 48.96300 25.29800
O  31.65200 49.06400 24.05900
C  32.83900 48.09300 25.82000
N  26.91200 51.92100 24.85400
C  28.01500 51.43300 24.06000
C  27.71100 51.62400 22.47500
C  26.22600 52.33100 22.56900
C  25.88600 52.44500 24.07200
C  28.68900 52.41100 21.60900
C  25.12000 51.54000 21.87900
C  24.72300 50.17600 22.41000
N  25.12000 52.60800 26.95500
C  24.35900 53.15800 25.94000
C  23.12000 53.71400 26.49800
C  23.18900 53.51600 27.85700
C  24.41300 52.79400 28.10700
C  22.03100 54.40000 25.70800
C  22.49100 53.75400 29.12100
O  21.46600 54.36700 29.36700
C  23.35400 53.12900 30.25700
C  23.77500 54.12800 31.30300
O  24.66600 54.98400 31.20800
O  23.06100 54.01200 32.45600
C  23.33000 54.79300 33.64500
H  29.67600 50.00000 30.08300
H  29.79800 50.57400 23.72400
H  24.02000 53.43900 23.82600
H  26.03300 52.44000 32.08400
H  27.77700 50.17900 31.84300
H  28.26200 52.86000 32.65400
H  29.38700 52.45500 31.27600
H  29.25800 51.49500 32.74200
H  25.46300 49.39100 31.91200
H  24.19400 50.48300 31.42600
H  24.57100 49.45300 33.85500
H  23.66200 50.95000 33.47600
H  31.62900 47.85700 28.40700
H  31.42300 49.04100 29.67400
H  32.68800 49.34900 28.57800
H  33.68300 47.87900 25.16500
H  32.52300 47.09300 26.11700
H  33.26300 48.62900 26.66900
H  27.58800 50.58100 22.18300
H  26.14000 53.33200 22.14600
H  29.47300 52.70800 22.30400
H  28.12600 53.25700 21.21500
H  29.06700 51.75900 20.82100
H  25.35400 51.41000 20.82200
H  24.20200 52.12500 21.82000
H  25.43800 49.84800 23.16500
H  24.84800 49.40600 21.64800
H  23.74300 50.02900 22.86400
H  22.46800 55.24300 25.17200
H  21.18600 54.70900 26.32400
H  21.64300 53.73300 24.93800
H  22.74000 52.38700 30.76700
H  23.36300 54.10100 34.48700
H  22.48400 55.47800 33.70500
H  24.22200 55.41700 33.58500
Mg 16.51300 53.27200 26.50300
C  18.65500 51.81900 28.87700
C  14.27100 53.94600 29.09400
C  14.63800 54.90600 24.28800
C  18.87300 52.44300 24.03800
N  16.49500 52.98200 28.71600
C  17.52800 52.38400 29.51100
C  17.27400 52.40200 31.02700
C  15.77100 52.80900 30.96400
C  15.50600 53.32900 29.50600
C  14.74700 51.80300 31.41500
C  18.13800 53.43000 31.79300
C  18.37400 53.13700 33.31600
H  17.33400 52.36600 34.08200
N  14.71400 54.21200 26.63300
C  13.90100 54.29200 27.76200
C  12.70900 54.97800 27.45300
C  12.88300 55.46800 26.13000
C  14.10200 54.87600 25.61100
C  11.73000 55.36600 28.48600
C  12.03800 56.48100 25.35400
O  12.21300 56.68200 24.19600
C  10.75700 56.93700 25.93800
N  16.70100 53.59700 24.52100
C  15.77100 54.30300 23.77000
C  16.08700 54.23600 22.24600
C  17.49800 53.64700 22.21100
C  17.72300 53.17600 23.68200
C  15.15200 53.24500 21.52700
C  18.72100 54.56300 21.66900
C  19.63700 55.26100 22.78000
N  18.37700 52.30600 26.38200
C  19.22100 52.04200 25.30800
C  20.45700 51.45000 25.84700
C  20.22200 51.29800 27.19500
C  18.98600 51.88900 27.51400
C  21.64400 50.90900 25.16700
C  20.82800 50.78700 28.41300
O  21.92400 50.29800 28.63000
C  19.84100 51.19700 29.56500
C  19.48300 50.09600 30.49000
O  18.63500 49.21900 30.32900
O  20.32700 50.10400 31.63800
C  19.97700 49.08100 32.61800
H  13.62500 54.21200 29.93400
H  14.12300 55.54400 23.56600
H  19.66400 52.29700 23.29900
H  17.38400 51.43500 31.51800
H  15.60200 53.65900 31.62500
H  13.79200 52.21400 31.74300
H  15.10800 51.28600 32.30400
H  14.57200 51.07500 30.62300
H  17.59300 54.37400 31.79300
H  19.11100 53.54400 31.31600
H  18.50700 54.06700 33.86800
H  19.26000 52.50500 33.38000
H  10.71800 55.17400 28.12900
H  11.85700 56.42000 28.73300
H  11.71500 54.81900 29.42800
H  10.26700 57.61100 25.23500
H  10.77000 57.61800 26.78900
H  10.12200 56.06600 26.10100
H  16.09600 55.24100 21.82500
H  17.58800 52.84300 21.48100
H  14.77100 53.71700 20.62100
H  14.36800 52.79900 22.13900
H  15.65400 52.36400 21.12700
H  18.25300 55.38900 21.13300
H  19.29300 54.09500 20.86800
H  20.61200 54.77800 22.72600
H  19.24400 55.11700 23.78700
H  19.59500 56.33200 22.58300
H  21.49500 50.10600 24.44400
H  22.43700 50.58300 25.84000
H  22.18500 51.65500 24.58500
H  20.44200 51.90900 30.13100
H  20.26100 48.05000 32.40800
H  18.90200 49.09500 32.79700
H  20.48900 49.40600 33.52400

