158

Mg 35.64400 2.77700 29.41200
C  33.65500 3.95700 32.11100
C  38.22800 2.44000 31.46500
C  37.36000 2.15400 26.69000
C  32.72800 3.27900 27.38100
N  35.87400 3.32400 31.59300
C  34.91200 3.59300 32.54900
C  35.51700 3.57500 33.90000
C  37.03500 3.25400 33.63500
C  37.00800 2.84800 32.14600
C  37.96900 4.45500 33.95100
C  34.76600 2.64400 34.90000
C  34.32900 3.24100 36.27700
H  35.30000 4.16800 36.93900
N  37.57200 2.25100 29.12900
C  38.57500 2.21700 30.07200
C  39.84400 1.83500 29.49200
C  39.56300 1.75700 28.04000
C  38.10600 2.03300 27.88900
C  41.07700 1.54100 30.23200
C  40.37700 1.37100 26.85000
O  39.92800 1.09700 25.77000
C  41.86300 1.14700 27.15900
N  35.15700 2.74100 27.34300
C  36.07100 2.46700 26.41700
C  35.44700 2.39100 25.01600
C  33.97400 2.70600 25.29600
C  33.95000 2.90900 26.77400
C  36.08200 3.21800 23.92300
C  32.93000 1.58200 24.78100
C  31.62900 2.18000 24.17500
N  33.62100 3.60100 29.56300
C  32.58400 3.70400 28.68900
C  31.43100 4.35400 29.39900
C  31.81900 4.39700 30.68900
C  33.15200 3.97300 30.79100
C  30.02500 4.50200 28.95800
C  31.29900 4.76500 31.96200
O  30.26600 5.24500 32.38900
C  32.52600 4.43400 33.01900
C  32.77800 5.74700 33.77300
O  33.55600 6.60300 33.47100
O  31.95500 5.81000 34.86700
C  31.93700 7.04400 35.66300
H  39.00900 2.28000 32.21200
H  37.92000 1.92500 25.78100
H  31.81600 3.35100 26.78500
H  35.46400 4.61300 34.23000
H  37.39700 2.38500 34.18400
H  37.57800 5.24200 34.59600
H  38.04100 4.96800 32.99200
H  38.92600 4.11100 34.34200
H  35.40500 1.77200 35.03900
H  33.84400 2.31500 34.42000
H  34.24500 2.38900 36.95200
H  33.38100 3.75100 36.10700
H  41.44300 0.58000 29.87300
H  40.99800 1.38700 31.30800
H  41.75400 2.38900 30.12400
H  42.19700 2.01300 27.73000
H  42.24400 1.25200 26.14400
H  42.05600 0.18700 27.63900
H  35.63500 1.32800 24.86900
H  33.76200 3.69800 24.89600
H  35.25600 3.70700 23.40600
H  36.67200 2.61600 23.23300
H  36.68500 4.02200 24.34600
H  32.51200 0.91400 25.53500
H  33.37300 1.01600 23.96200
H  30.81900 1.85100 24.82600
H  31.45100 1.92900 23.12900
H  31.61100 3.27000 24.18300
H  29.75600 3.60500 28.40100
H  29.67400 5.41700 28.48100
H  29.21100 4.43500 29.68000
H  32.09600 3.70200 33.70200
H  32.82200 7.68000 35.64800
H  31.85100 6.55000 36.63100
H  31.03600 7.62900 35.48000
Mg 35.79100 48.83600 25.05300
C  35.92900 46.83100 28.01700
C  34.10500 51.14300 26.81000
C  35.34500 50.54100 22.24100
C  37.38500 46.21900 23.27800
N  34.95200 48.88700 27.12100
C  35.23700 48.03100 28.17500
C  34.84600 48.64100 29.50000
C  34.12500 49.92700 29.07200
C  34.43100 50.00000 27.57800
C  32.55000 50.00300 29.24900
C  36.04700 49.03400 30.40700
C  35.82400 48.83000 31.90300
H  34.44800 48.56100 32.44100
N  34.87300 50.64400 24.61500
C  34.25300 51.47200 25.49300
C  33.77300 52.62800 24.75200
C  34.06900 52.44000 23.34900
C  34.84900 51.21300 23.36300
C  33.06500 53.82200 25.48300
C  33.79500 53.23300 22.19000
O  34.20100 53.03700 21.01500
C  33.01000 54.49500 22.38400
N  36.30200 48.40700 23.13000
C  35.99900 49.29200 22.16300
C  36.49900 48.82500 20.71400
C  37.34800 47.51100 21.10400
C  37.00800 47.36100 22.58500
C  35.50100 48.58200 19.66100
C  38.82900 47.50000 20.76200
C  39.84000 48.19800 21.80100
N  36.47200 46.93100 25.48100
C  37.10700 45.96200 24.66000
C  37.50000 44.79500 25.47100
C  37.08900 45.10500 26.77000
C  36.43700 46.33500 26.72300
C  38.17700 43.57100 24.91300
C  37.11000 44.59600 28.13900
O  37.48000 43.51700 28.61700
C  36.38300 45.73900 29.09300
C  35.24800 45.11700 29.78000
O  34.08100 45.05100 29.34800
O  35.60800 44.63300 30.94500
C  34.47900 44.20700 31.87100
H  33.61800 51.96000 27.34800
H  35.26000 50.98300 21.24600
H  37.96700 45.45600 22.75800
H  34.12600 48.07800 30.09400
H  34.64900 50.81800 29.41900
H  32.23200 48.97900 29.45000
H  32.00900 50.30300 28.35200
H  32.41900 50.71100 30.06700
H  36.30400 50.08300 30.25300
H  36.86100 48.34800 30.17200
H  36.12800 49.66400 32.53400
H  36.46700 48.02200 32.25000
H  33.63000 54.75400 25.46000
H  32.75600 53.64300 26.51300
H  32.08900 54.11300 25.09400
H  32.54500 54.99200 21.53300
H  33.58100 55.14000 23.05200
H  32.04100 54.28600 22.83800
H  37.21000 49.54100 20.30400
H  36.92200 46.65500 20.58200
H  36.02900 48.38200 18.72900
H  35.04800 49.55400 19.46900
H  34.78500 47.79400 19.89500
H  38.93500 48.12200 19.87300
H  38.99800 46.44500 20.54600
H  39.36200 49.00000 22.36300
H  40.54700 48.66700 21.11700
H  40.33200 47.46100 22.43500
H  37.66500 43.06600 24.09300
H  38.00600 42.87800 25.73700
H  39.21900 43.81400 24.70400
H  37.11300 46.09800 29.81900
H  34.39000 44.78500 32.79200
H  34.62100 43.17200 32.18100
H  33.50600 44.28100 31.38600

