158

Mg 27.27200 50.55200 26.62500
C  25.01500 51.80200 29.13500
C  29.49200 50.02100 29.42200
C  29.46000 49.77900 24.51300
C  24.90100 51.50700 24.30200
N  27.35400 51.12800 28.98800
C  26.20400 51.27500 29.72200
C  26.42600 51.17300 31.24500
C  27.98300 50.84400 31.32800
C  28.32200 50.72800 29.82800
C  28.86600 51.81200 32.22500
C  25.57200 50.05400 31.92400
C  24.62100 50.61800 32.98000
H  24.47300 49.75400 34.30200
N  29.21400 49.96200 26.93000
C  29.94000 49.71500 28.10800
C  31.22200 49.23500 27.71100
C  31.32500 49.20700 26.26300
C  29.95600 49.67000 25.84200
C  32.43800 49.00200 28.70600
C  32.58800 48.75400 25.34700
O  32.53500 48.88700 24.12100
C  33.89500 48.30200 25.92600
N  27.20000 50.70300 24.68100
C  28.26400 50.33500 23.99000
C  27.85000 50.01800 22.53000
C  26.41600 50.57700 22.35500
C  26.14200 51.06500 23.84100
C  28.76600 50.59400 21.49900
C  25.30400 49.63200 21.82900
C  24.44000 50.08700 20.66600
N  25.40000 51.44400 26.64600
C  24.55700 51.74800 25.60200
C  23.22700 52.13100 26.12800
C  23.41700 52.19700 27.48800
C  24.71800 51.78800 27.78100
C  22.08400 52.61200 25.23900
C  22.71700 52.55100 28.68900
O  21.58800 52.86800 28.90800
C  23.72800 52.24300 29.89800
C  23.91600 53.41600 30.83800
O  24.59800 54.41000 30.59300
O  23.15300 53.19200 31.93600
C  23.24100 54.24900 32.89700
H  30.07700 49.66000 30.27100
H  30.16600 49.35000 23.79900
H  24.21700 51.72300 23.47800
H  26.12700 52.19000 31.49800
H  28.10700 49.86000 31.78000
H  28.30200 52.70000 32.51100
H  29.84100 52.03600 31.79200
H  29.05800 51.31300 33.17500
H  26.20200 49.26200 32.32900
H  25.11800 49.52700 31.08500
H  23.62100 50.55400 32.55000
H  24.86800 51.64200 33.26100
H  32.37800 49.56100 29.64000
H  33.35800 49.31100 28.21000
H  32.32600 47.96100 29.00900
H  34.43000 47.56600 25.32700
H  33.64800 47.69100 26.79400
H  34.57400 49.12300 26.15400
H  27.85000 48.93500 22.40700
H  26.48800 51.46400 21.72500
H  29.63500 50.87000 22.09600
H  28.43700 51.53600 21.05900
H  29.08100 49.84100 20.77700
H  24.67100 49.37500 22.67800
H  25.70600 48.66300 21.53200
H  23.40000 50.12200 20.99200
H  24.50100 49.37000 19.84800
H  24.86100 51.00600 20.25900
H  22.12300 52.40300 24.17000
H  22.09800 53.69600 25.34400
H  21.11800 52.29800 25.63600
H  23.35200 51.42100 30.50600
H  23.24600 55.27700 32.53600
H  23.90000 54.06000 33.74400
H  22.32400 54.18000 33.48300
Mg 1.05900 41.39600 25.17600
C  2.93200 41.90000 28.10300
C  -1.60500 40.46200 27.23700
C  -0.64300 40.57800 22.42800
C  4.09600 41.67300 23.28900
N  0.63500 41.32900 27.49200
C  1.61100 41.51400 28.39600
C  1.04600 41.30800 29.80700
C  -0.42200 40.77200 29.54900
C  -0.51100 40.86700 28.04200
C  -0.64200 39.22100 29.92200
C  1.04200 42.62900 30.65400
C  0.28200 42.71100 31.93100
H  0.07400 41.45400 32.76000
N  -0.82700 40.87600 24.87300
C  -1.77200 40.48200 25.86300
C  -3.02200 40.12300 25.15300
C  -2.75000 40.23700 23.76000
C  -1.34300 40.60400 23.58600
C  -4.34500 39.87600 25.91100
C  -3.79500 40.15400 22.60900
O  -3.43900 40.17400 21.42200
C  -5.25100 39.99400 22.80300
N  1.63200 41.06200 23.14600
C  0.74400 40.82500 22.16600
C  1.35500 40.87500 20.73500
C  2.82700 41.32800 21.03300
C  2.87500 41.44200 22.59400
C  1.33000 39.50500 19.99400
C  3.12500 42.69100 20.28800
C  3.06500 43.98500 21.18100
N  3.05200 41.79400 25.52900
C  4.17800 41.91800 24.66600
C  5.29100 42.20600 25.45900
C  4.91900 42.26000 26.78200
C  3.52100 41.96000 26.73600
C  6.63400 42.43900 24.93800
C  5.32200 42.43800 28.16200
O  6.43000 42.66300 28.59700
C  4.02700 42.19000 29.04200
C  4.29600 41.10500 30.03500
O  4.37600 39.88200 29.77500
O  4.75600 41.70600 31.16700
C  5.33800 40.66200 32.09800
H  -2.43400 40.04500 27.81400
H  -1.26200 40.50700 21.53100
H  5.04700 41.74900 22.75700
H  1.68100 40.61700 30.36100
H  -1.19100 41.36900 30.03900
H  0.24400 38.70600 30.29400
H  -1.04600 38.69100 29.06000
H  -1.39200 39.28800 30.71000
H  0.68600 43.41200 29.98500
H  2.06700 42.91600 30.89000
H  -0.65600 43.26200 31.86700
H  0.85700 43.26600 32.67200
H  -4.34900 39.94900 26.99900
H  -4.73600 38.90900 25.59500
H  -5.05500 40.62000 25.54900
H  -5.70600 40.85700 23.29100
H  -5.43900 39.06000 23.33300
H  -5.61100 39.98200 21.77500
H  0.83900 41.54900 20.05100
H  3.50200 40.54000 20.70000
H  2.27300 38.96900 20.10800
H  1.11900 39.68900 18.94100
H  0.55900 38.84800 20.39800
H  2.30300 42.98600 19.63600
H  4.02600 42.66200 19.67400
H  4.05000 44.15900 21.61300
H  2.35500 43.89300 22.00300
H  2.73300 44.80000 20.53800
H  6.52000 43.17600 24.14400
H  7.00200 41.52600 24.47100
H  7.25700 42.77500 25.76700
H  3.87600 43.11000 29.60700
H  5.95800 40.98300 32.93500
H  5.88400 39.92000 31.51500
H  4.43000 40.27800 32.56300

