158

Mg 6.54800 53.68600 41.68900
C  5.68200 50.37400 41.12300
C  9.56100 53.21500 40.19400
C  7.00500 56.96100 41.86000
C  3.13900 54.21000 42.69900
N  7.41200 52.00900 40.59400
C  6.96200 50.75000 40.62500
C  7.86600 49.84100 39.72700
C  9.18400 50.63700 39.98400
C  8.70500 52.11100 40.30500
C  10.16300 50.20500 41.03500
C  7.47800 49.59400 38.24300
C  6.48700 50.53200 37.66400
H  6.23600 50.52100 36.14100
N  8.09100 54.94600 41.19500
C  9.26900 54.55900 40.58400
C  10.16500 55.66700 40.60800
C  9.45000 56.77600 41.13600
C  8.08000 56.27600 41.45000
C  11.61300 55.50700 40.23300
C  10.00500 58.16700 41.34900
O  11.00600 58.62200 40.77800
C  9.24800 59.05600 42.36200
N  5.23700 55.41800 41.97900
C  5.75100 56.71600 42.15200
C  4.65700 57.67700 42.84000
C  3.44300 56.66600 43.07000
C  3.98100 55.34100 42.52300
C  5.10500 58.37700 44.16400
C  2.00200 56.97900 42.51600
C  1.65700 58.47600 42.31700
N  4.74700 52.53800 41.84800
C  3.51500 52.86500 42.39900
C  2.66100 51.61500 42.51200
C  3.54900 50.62600 42.00300
C  4.73600 51.21600 41.62500
C  1.32500 51.53800 43.16300
C  3.61100 49.16700 41.69200
O  2.80700 48.28700 41.85400
C  5.10800 48.97600 41.28600
C  4.97000 48.12000 40.04300
O  4.33500 48.34900 39.08500
O  5.48900 46.89400 40.30000
C  5.24400 45.79000 39.34900
H  10.57800 52.96400 39.88300
H  7.10500 58.04700 41.91500
H  2.19200 54.36300 43.22100
H  8.00700 48.89300 40.24500
H  9.77400 50.69100 39.06900
H  9.62400 49.48700 41.65300
H  10.43200 51.10500 41.58800
H  10.98300 49.67500 40.55000
H  7.09600 48.57500 38.29400
H  8.31500 49.72300 37.55600
H  6.85700 51.50700 37.98000
H  5.53500 50.51200 38.19400
H  11.71500 55.40600 39.15300
H  12.13900 54.74400 40.80600
H  12.13600 56.43400 40.46800
H  9.87600 59.88700 42.68500
H  8.88000 58.42400 43.17000
H  8.39200 59.51400 41.86700
H  4.47900 58.56000 42.22600
H  3.39800 56.46400 44.14000
H  5.03300 59.45800 44.04800
H  6.15700 58.11900 44.28400
H  4.57100 58.12200 45.08000
H  1.25800 56.51900 43.16700
H  1.80900 56.41300 41.60400
H  0.62300 58.68700 42.58700
H  1.91600 58.83500 41.32000
H  2.37800 59.07500 42.87400
H  0.62100 52.18900 42.64600
H  1.25500 51.68400 44.24100
H  0.90800 50.54200 43.01500
H  5.65900 48.43000 42.05200
H  5.55700 44.79200 39.65700
H  5.89300 46.08300 38.52400
H  4.24700 45.73800 38.91300
Mg -2.48000 34.29500 26.59500
C  -3.88700 32.72700 29.31300
C  -0.53500 36.25700 28.58800
C  -1.51800 36.04300 23.81500
C  -4.46500 32.21800 24.47400
N  -2.30500 34.47000 28.73600
C  -2.92700 33.73500 29.68800
C  -2.25600 33.98400 31.06000
C  -1.22800 35.20600 30.78800
C  -1.37600 35.39200 29.27200
C  -1.46300 36.55200 31.54300
C  -1.59900 32.72600 31.69100
C  -1.47700 32.91000 33.23000
H  -2.35200 32.13100 34.22000
N  -1.20900 35.98500 26.25600
C  -0.46300 36.56000 27.20400
C  0.27700 37.65700 26.54900
C  -0.09500 37.62000 25.17900
C  -0.92000 36.52200 25.03400
C  1.35800 38.50100 27.30300
C  0.20700 38.61400 24.11700
O  -0.17000 38.49600 22.91900
C  0.94800 39.82700 24.42000
N  -2.95400 34.15400 24.44400
C  -2.35600 34.92100 23.47800
C  -2.69100 34.51800 22.01700
C  -3.51700 33.22600 22.34500
C  -3.74200 33.21800 23.80300
C  -3.58800 35.59700 21.24700
C  -2.81500 31.91900 21.85400
C  -3.65100 30.78300 21.29900
N  -3.96800 32.89800 26.78700
C  -4.58400 32.03300 25.81700
C  -5.34400 31.02000 26.51000
C  -5.18500 31.30500 27.86500
C  -4.29400 32.42700 27.97700
C  -6.14200 29.91900 25.94000
C  -5.53600 30.92200 29.21500
O  -6.32200 30.08300 29.61700
C  -4.80300 31.85500 30.17900
C  -5.81200 32.48100 31.02200
O  -6.76900 33.15000 30.60800
O  -5.54000 32.27300 32.32800
C  -6.34200 32.85500 33.33600
H  0.14100 36.73100 29.30200
H  -1.18800 36.47000 22.86600
H  -5.09700 31.67300 23.77000
H  -2.99600 34.37600 31.75700
H  -0.26100 34.89500 31.18300
H  -2.02800 37.32200 31.01700
H  -0.50600 36.88400 31.94600
H  -2.13300 36.44800 32.39700
H  -0.57700 32.62700 31.32500
H  -2.09300 31.79600 31.41000
H  -1.51300 33.96700 33.49200
H  -0.44100 32.64100 33.43500
H  2.32500 38.42900 26.80400
H  1.47900 38.21000 28.34700
H  1.03700 39.54100 27.24900
H  0.37500 40.44900 25.10800
H  0.96300 40.37500 23.47700
H  1.91200 39.52900 24.83100
H  -1.72400 34.34300 21.54600
H  -4.54200 33.29000 21.97800
H  -3.70100 36.50200 21.84400
H  -4.60600 35.33000 20.96200
H  -3.04100 35.99000 20.39000
H  -2.41600 31.51800 22.78600
H  -1.99300 32.10200 21.16100
H  -2.96900 30.48400 20.50300
H  -4.62500 31.19900 21.04300
H  -3.78400 29.97800 22.02200
H  -7.15800 30.31300 25.90600
H  -6.14300 29.06500 26.61700
H  -5.61900 29.63500 25.02700
H  -4.16700 31.24600 30.82200
H  -7.10700 32.09200 33.48200
H  -6.82700 33.79100 33.05900
H  -5.67100 33.09200 34.16200

