158

Mg 46.94500 25.25700 29.04800
C  47.79900 27.49700 31.74600
C  45.77400 23.04700 31.39400
C  46.96300 22.87300 26.73200
C  49.20300 27.13600 27.02600
N  46.72400 25.35200 31.25300
C  47.16700 26.27700 32.10500
C  46.77100 25.91900 33.57800
C  46.30600 24.42000 33.42400
C  46.16100 24.27100 31.93100
C  47.26000 23.35600 34.04600
C  45.60500 26.93500 34.15400
C  45.92300 27.48300 35.57700
H  46.27700 26.52900 36.74100
N  46.25600 23.35900 29.00500
C  45.79300 22.57400 30.05000
C  45.43900 21.29500 29.53700
C  45.58900 21.31200 28.11200
C  46.33500 22.50600 27.94200
C  44.93900 20.16500 30.40200
C  45.25500 20.28900 27.01300
O  45.40500 20.42500 25.76000
C  44.46700 19.07200 27.50700
N  47.92200 25.04100 27.15300
C  47.66200 24.05300 26.32200
C  48.40600 24.24400 24.97000
C  48.93900 25.68800 24.97200
C  48.65700 25.99700 26.44700
C  49.39000 23.14100 24.72100
C  48.46600 26.66900 23.90400
C  49.52600 27.49700 23.22400
N  48.17800 27.00800 29.19600
C  48.90200 27.64800 28.31100
C  49.38000 28.93900 28.89000
C  48.89600 28.89800 30.20100
C  48.21600 27.69000 30.39800
C  50.12100 29.95600 28.18100
C  49.00300 29.60400 31.48600
O  49.47400 30.68900 31.84600
C  48.28200 28.67200 32.54700
C  49.18500 28.41900 33.64800
O  49.95300 27.44800 33.64300
O  49.17700 29.35700 34.62900
C  50.14000 29.14200 35.73000
H  45.38000 22.27400 32.05800
H  46.99700 22.18600 25.88400
H  49.86900 27.75900 26.42400
H  47.64400 25.95500 34.22900
H  45.31200 24.31300 33.85700
H  47.47600 22.58700 33.30400
H  46.82400 22.88800 34.92800
H  48.22400 23.75600 34.36200
H  44.66200 26.38900 34.17200
H  45.47800 27.78000 33.47700
H  44.96900 27.93000 35.85500
H  46.67900 28.26000 35.46000
H  45.47300 19.22500 30.26600
H  43.92600 19.96900 30.05000
H  44.88700 20.36600 31.47200
H  43.45400 19.42800 27.69500
H  44.85000 18.66600 28.44300
H  44.49600 18.26500 26.77500
H  47.64100 24.15900 24.19800
H  50.02300 25.80400 24.97000
H  49.79000 22.66500 25.61700
H  50.24600 23.48700 24.14100
H  48.89500 22.36300 24.14000
H  47.72000 27.29100 24.39900
H  47.93100 26.13100 23.12200
H  49.24500 27.90800 22.25400
H  50.48200 26.99400 23.08000
H  49.69300 28.46100 23.70500
H  49.54600 30.10900 27.26800
H  51.10300 29.55000 27.93900
H  50.10100 30.88800 28.74700
H  47.39200 29.14700 32.96000
H  49.74000 28.39800 36.41900
H  50.36800 30.08200 36.23200
H  51.11800 28.72900 35.48400
Mg -6.44700 25.80700 25.57500
C  -4.45400 27.04600 28.11200
C  -7.65000 23.47500 27.77400
C  -8.03400 24.37200 22.95900
C  -4.80500 28.03100 23.31000
N  -6.14100 25.41300 27.68700
C  -5.30300 26.08500 28.54200
C  -5.56100 25.56000 29.98400
C  -6.26100 24.16300 29.80400
C  -6.74700 24.34000 28.33600
C  -5.36000 22.87300 29.98400
C  -6.41000 26.60600 30.79300
C  -6.28300 26.53500 32.37400
H  -5.67900 25.30400 33.09200
N  -7.77100 24.15000 25.39700
C  -8.10900 23.32800 26.43900
C  -9.03800 22.30700 25.94300
C  -9.17200 22.54700 24.51800
C  -8.25600 23.66400 24.20800
C  -9.78600 21.40300 26.91100
C  -9.98900 21.88000 23.41800
O  -10.03100 22.21500 22.24100
C  -10.96800 20.72900 23.78900
N  -6.32400 26.11600 23.47600
C  -7.20100 25.45200 22.59900
C  -6.85900 25.83000 21.15900
C  -6.20000 27.20500 21.32800
C  -5.72400 27.14300 22.79900
C  -6.00900 24.73700 20.31500
C  -7.28200 28.39700 21.27400
C  -7.50500 29.03300 19.88500
N  -4.91100 27.19800 25.66200
C  -4.36000 28.07500 24.67000
C  -3.37900 28.94200 25.30400
C  -3.40100 28.53800 26.62200
C  -4.32100 27.48400 26.79000
C  -2.62300 30.02100 24.64800
C  -2.78500 28.84600 27.92700
O  -1.86900 29.61800 28.13800
C  -3.52100 27.94100 29.00000
C  -2.56900 27.23800 29.84800
O  -1.74400 26.48900 29.34900
O  -2.74500 27.55400 31.11200
C  -1.89700 26.81800 32.01600
H  -7.82000 22.72500 28.54900
H  -8.46400 23.96500 22.04100
H  -4.63000 28.85000 22.60900
H  -4.66200 25.37400 30.57200
H  -7.00000 24.22200 30.60300
H  -5.22300 22.52100 28.96100
H  -6.04500 22.20200 30.50200
H  -4.40400 23.07000 30.47000
H  -7.40800 26.34000 30.44600
H  -6.23700 27.62300 30.44100
H  -7.31100 26.51700 32.73500
H  -5.94700 27.46300 32.83700
H  -9.21400 21.35500 27.83700
H  -10.04300 20.46600 26.41600
H  -10.76000 21.87500 27.03700
H  -11.64900 20.66100 22.94000
H  -11.46300 21.04100 24.70800
H  -10.45100 19.80800 24.05800
H  -7.75200 25.89000 20.53600
H  -5.46300 27.34600 20.53700
H  -5.11500 25.22500 19.92600
H  -6.46600 24.35200 19.40300
H  -5.84900 23.78500 20.82100
H  -6.86000 29.21300 21.86100
H  -8.27100 28.14200 21.65500
H  -6.88200 29.91300 19.72500
H  -8.55500 29.32600 19.85800
H  -7.41300 28.34200 19.04700
H  -3.29000 30.77200 24.22400
H  -2.24800 29.45800 23.79300
H  -1.81500 30.44300 25.24500
H  -4.12400 28.66500 29.54700
H  -2.33000 25.95600 32.52300
H  -1.81400 27.48900 32.87100
H  -0.86300 26.61900 31.73400

