158

Mg 47.74300 45.22700 43.17200
C  44.27500 44.93900 43.18400
C  47.90700 41.78200 43.02600
C  51.00400 45.49200 42.48000
C  47.33900 48.73100 42.73300
N  46.25100 43.58100 42.90800
C  44.86600 43.69700 43.10800
C  44.23200 42.26700 43.19000
C  45.45900 41.34400 43.47900
C  46.59600 42.28000 43.11800
C  45.57900 40.90000 44.94700
C  43.46500 41.85000 41.91500
C  43.47200 42.79500 40.71700
H  42.84800 42.36800 39.35800
N  49.20200 43.85900 42.70400
C  49.08800 42.51000 42.76800
C  50.40500 41.90500 42.47900
C  51.35000 42.92000 42.30100
C  50.53500 44.17600 42.48900
C  50.55000 40.41000 42.26500
C  52.87000 42.74800 41.90300
O  53.36500 41.64000 41.96300
C  53.70200 43.94200 41.58200
N  48.94300 46.84100 42.49800
C  50.26600 46.65000 42.47500
C  50.95200 47.98600 42.71000
C  49.83500 49.06900 42.55100
C  48.58700 48.18200 42.61400
C  51.70200 48.08100 44.10200
C  49.97400 49.80700 41.17300
C  49.74000 51.31000 41.29400
N  46.24600 46.60800 43.02100
C  46.20300 47.99600 42.92700
C  44.81000 48.44500 43.01900
C  44.05800 47.27000 43.05100
C  44.92200 46.20900 43.12600
C  44.41500 49.86400 43.05400
C  42.67900 46.79700 43.22400
O  41.63200 47.44000 43.20300
C  42.77900 45.28600 43.25200
C  42.21800 44.88400 44.53900
O  42.59100 45.26500 45.62100
O  41.20200 43.90500 44.37800
C  40.59600 43.47200 45.59800
H  48.02700 40.73100 43.29700
H  52.07700 45.69000 42.43900
H  47.21900 49.79600 42.52600
H  43.63900 42.22400 44.10400
H  45.45500 40.53400 42.75000
H  44.69900 40.29100 45.15700
H  45.54000 41.74900 45.62900
H  46.59000 40.49600 45.00300
H  42.42800 41.73600 42.22900
H  43.90300 40.90900 41.58100
H  44.47100 43.10700 40.41100
H  42.90200 43.67500 41.01300
H  50.65200 40.34200 41.18200
H  49.77400 39.73300 42.62300
H  51.53200 40.04900 42.57000
H  53.23900 44.43100 40.72500
H  54.73200 43.61200 41.44400
H  53.66100 44.56100 42.47900
H  51.69600 48.05500 41.91600
H  49.83000 49.77200 43.38400
H  51.51300 48.90300 44.79300
H  52.72100 48.09800 43.71700
H  51.59700 47.12500 44.61500
H  49.22300 49.36900 40.51500
H  50.96200 49.72200 40.71900
H  48.79000 51.48100 40.78700
H  50.51700 51.77000 40.68400
H  49.68600 51.53700 42.35900
H  45.06700 50.41800 43.72900
H  43.40100 50.03300 43.41600
H  44.54200 50.23900 42.03800
H  42.19700 44.96500 42.38900
H  40.04200 44.32500 45.98900
H  41.26100 43.13500 46.39400
H  40.01600 42.60800 45.27200
Mg -10.92700 16.88600 42.82000
C  -7.38300 16.73900 42.18000
C  -10.78300 20.14700 41.71200
C  -14.22000 16.90500 42.75500
C  -10.84800 13.39800 43.09300
N  -9.22600 18.33200 42.21700
C  -7.91300 18.00600 42.02000
C  -7.18500 19.28400 41.45700
C  -8.24400 20.39900 41.52100
C  -9.50000 19.56300 41.82400
C  -7.88200 21.43700 42.58600
C  -6.68000 18.94700 39.99700
C  -5.15900 19.23600 39.81300
H  -4.60200 19.63200 38.49500
N  -12.39300 18.39000 42.54600
C  -12.10800 19.61600 41.95100
C  -13.40300 20.22500 41.63000
C  -14.44300 19.35900 42.16100
C  -13.71600 18.19400 42.59000
C  -13.49400 21.57000 41.01600
C  -15.97300 19.63400 42.11300
O  -16.40900 20.75000 41.73000
C  -17.03600 18.74100 42.67100
N  -12.33400 15.32400 42.67900
C  -13.63400 15.64600 42.89600
C  -14.39200 14.47200 43.29200
C  -13.41000 13.33300 43.37800
C  -12.10900 14.06700 43.02300
C  -15.24900 14.59200 44.59200
C  -13.78200 12.07600 42.41500
C  -14.73800 11.10900 43.13200
N  -9.47100 15.36900 42.76300
C  -9.59700 13.99800 43.00400
C  -8.25400 13.40500 43.17400
C  -7.37800 14.45900 42.85400
C  -8.17800 15.61000 42.61500
C  -7.83100 12.05300 43.44300
C  -6.00400 14.75400 42.62300
O  -5.04600 13.93000 42.67900
C  -5.95700 16.23200 42.23300
C  -5.16100 17.00400 43.14700
O  -4.08400 17.55800 42.92000
O  -5.79700 17.05500 44.41500
C  -4.99400 17.52800 45.57200
H  -10.76600 21.18900 41.38500
H  -15.28200 16.90000 43.00900
H  -10.79700 12.33100 43.31900
H  -6.32900 19.40100 42.12100
H  -8.33000 20.98600 40.60600
H  -6.87800 21.81300 42.39000
H  -7.67400 20.84800 43.47900
H  -8.63000 22.22400 42.68900
H  -7.30800 19.44500 39.25800
H  -6.76800 17.86700 39.87600
H  -4.58400 18.41600 40.24300
H  -5.01100 20.10600 40.45300
H  -12.51900 21.92600 40.68100
H  -13.96300 22.26700 41.71000
H  -14.19900 21.59100 40.18500
H  -16.91600 17.80800 42.11900
H  -18.02100 19.12500 42.40100
H  -16.87200 18.61300 43.74100
H  -15.19100 14.34300 42.56100
H  -13.24700 12.92100 44.37400
H  -15.05600 15.49800 45.16700
H  -15.00200 13.68000 45.13500
H  -16.32400 14.57800 44.40900
H  -12.80000 11.65500 42.19900
H  -14.20900 12.53000 41.52100
H  -15.65800 10.96400 42.56600
H  -14.99600 11.41700 44.14500
H  -14.24400 10.15000 43.28800
H  -7.15300 11.68400 42.67400
H  -8.62000 11.30100 43.47400
H  -7.21700 12.07900 44.34200
H  -5.46700 16.18800 41.26000
H  -4.03100 17.01900 45.61800
H  -5.44300 17.28800 46.53500
H  -4.79200 18.59000 45.43500

