158

Mg 48.27900 24.23500 28.07500
C  49.32500 26.56300 30.57100
C  47.44700 21.98400 30.54500
C  47.27400 22.19800 25.65400
C  49.63400 26.47300 25.66900
N  48.36800 24.28300 30.29800
C  48.76000 25.38500 31.09200
C  48.45500 25.10400 32.55100
C  48.05700 23.57300 32.56700
C  47.91300 23.27100 31.03700
C  49.05100 22.58400 33.27600
C  47.39900 26.03900 33.17800
C  47.97800 26.61800 34.55400
H  47.11200 27.01300 35.72200
N  47.50900 22.37100 28.11300
C  47.28200 21.55000 29.18800
C  46.71300 20.29300 28.72500
C  46.55400 20.43100 27.31100
C  47.14000 21.68900 26.94500
C  46.23900 19.17300 29.67700
C  45.96400 19.45900 26.34500
O  46.20000 19.51800 25.13300
C  45.08000 18.30300 26.74300
N  48.58000 24.31200 25.99300
C  47.90700 23.36800 25.22500
C  48.10300 23.71800 23.70600
C  48.81000 25.16900 23.76300
C  49.04000 25.33700 25.20500
C  48.85800 22.63900 22.86700
C  47.92800 26.26800 23.16200
C  48.57900 27.55800 22.66900
N  49.33400 26.10900 28.06000
C  49.79200 26.89300 27.01900
C  50.41800 28.09900 27.48500
C  50.22900 28.00200 28.86900
C  49.67700 26.76800 29.17000
C  51.14800 29.06600 26.63300
C  50.56800 28.63900 30.14400
O  51.14100 29.65900 30.42900
C  49.99800 27.77900 31.35400
C  51.03400 27.36700 32.21700
O  51.91500 26.54000 31.93100
O  50.92700 27.94600 33.42200
C  51.78500 27.51500 34.53000
H  47.18100 21.40600 31.43200
H  46.79000 21.64700 24.84500
H  49.95000 27.19200 24.90900
H  49.43000 25.20100 33.02900
H  47.10300 23.35000 33.04600
H  49.36400 21.77600 32.61500
H  48.53600 22.14100 34.12800
H  49.94100 22.96900 33.77400
H  46.45300 25.57000 33.45000
H  47.10300 26.75700 32.41300
H  48.53700 27.54000 34.39800
H  48.65000 25.82600 34.88600
H  46.61500 18.22300 29.29700
H  45.14900 19.15300 29.70300
H  46.61000 19.39400 30.67800
H  45.58800 17.57600 27.37600
H  44.77200 17.72700 25.87100
H  44.19500 18.74700 27.19800
H  47.08300 23.88900 23.36400
H  49.79200 25.08200 23.29700
H  48.91200 21.59900 23.18800
H  49.85500 23.02400 22.64800
H  48.29000 22.73000 21.94200
H  47.36000 26.67900 23.99700
H  47.21700 25.93800 22.40400
H  48.30300 27.78800 21.64000
H  49.65800 27.51800 22.81400
H  48.19500 28.38000 23.27400
H  50.42300 29.46800 25.92500
H  51.97300 28.54500 26.14700
H  51.60500 29.89400 27.17500
H  49.22500 28.43300 31.75600
H  52.85000 27.64900 34.33700
H  51.60500 26.47300 34.79500
H  51.44200 28.10600 35.37900
Mg 26.20200 49.30100 26.38900
C  23.97100 50.68400 28.93400
C  28.29800 48.31700 28.95000
C  28.01700 47.92500 24.12900
C  23.97700 50.60100 24.04400
N  26.09400 49.55400 28.64000
C  25.06400 49.99200 29.45000
C  25.36700 49.86500 30.93400
C  26.80400 49.33300 30.94400
C  27.14800 49.04400 29.38700
C  27.90700 50.25400 31.65600
C  24.30100 48.91100 31.63100
C  24.02200 49.39800 33.04100
H  23.86300 48.31600 34.16100
N  27.99700 48.32900 26.47800
C  28.65500 47.91800 27.60600
C  29.84800 47.09900 27.17200
C  29.86700 47.22300 25.72400
C  28.56300 47.79200 25.39000
C  30.85600 46.60100 28.16200
C  30.91100 46.73500 24.70300
O  30.79700 46.77400 23.50100
C  32.13200 46.11100 25.19700
N  26.18500 49.45800 24.41400
C  26.88500 48.55000 23.70900
C  26.49600 48.42800 22.21200
C  25.32100 49.46800 22.21600
C  25.12500 49.85700 23.70400
C  27.44400 48.54000 20.98500
C  24.11600 48.96000 21.40900
C  23.00800 48.10100 22.12800
N  24.36000 50.40200 26.36900
C  23.62700 50.91300 25.35300
C  22.51700 51.65800 25.89100
C  22.59900 51.54000 27.24800
C  23.74500 50.79800 27.54100
C  21.47700 52.29400 25.09800
C  21.98500 52.05800 28.46400
O  21.10500 52.87400 28.60300
C  22.78300 51.42600 29.65300
C  23.05900 52.48500 30.62200
O  23.89900 53.38600 30.55200
O  22.38100 52.20700 31.78800
C  22.94400 52.90700 32.95700
H  28.98200 47.95400 29.72100
H  28.55000 47.37600 23.35000
H  23.23900 50.88200 23.29000
H  25.39200 50.84000 31.42000
H  26.80200 48.35300 31.42100
H  28.62800 50.46400 30.86700
H  28.30700 49.68100 32.49300
H  27.55700 51.20000 32.06900
H  24.63400 47.87900 31.74100
H  23.39000 48.94100 31.03300
H  23.08200 49.92700 32.88500
H  24.79800 50.08800 33.37200
H  30.70300 45.53000 28.29800
H  30.79500 47.16200 29.09400
H  31.87700 46.83200 27.85600
H  32.69200 45.93900 24.27800
H  31.83300 45.20600 25.72600
H  32.61100 46.90500 25.77100
H  26.07600 47.42500 22.14900
H  25.56600 50.44700 21.80400
H  28.50500 48.60300 21.22600
H  27.15500 49.46100 20.47900
H  27.15200 47.78300 20.25800
H  24.55400 48.41700 20.57100
H  23.60300 49.85400 21.05500
H  22.15800 48.78200 22.16600
H  23.24900 47.86500 23.16400
H  22.78900 47.17400 21.59700
H  21.21400 51.50300 24.39600
H  22.04100 53.12400 24.67200
H  20.62300 52.64400 25.67700
H  22.11900 50.76800 30.21300
H  23.98400 52.62200 33.11700
H  22.41800 52.53700 33.83700
H  22.68900 53.96500 32.91200

