158

Mg 30.71100 58.88700 39.94200
C  27.97400 56.80400 39.11100
C  32.74900 56.44500 38.86500
C  33.36400 61.01600 40.45900
C  28.56600 61.49300 40.45800
N  30.36000 56.86900 39.13300
C  29.16100 56.19300 38.80700
C  29.50800 54.74500 38.34100
C  31.02700 54.59400 38.59900
C  31.41600 56.09900 38.74500
C  31.37400 53.79000 39.87500
C  29.11300 54.47400 36.85400
C  27.87500 53.63500 36.51900
H  27.03200 54.12300 35.32100
N  32.76400 58.76400 39.66300
C  33.37500 57.66400 39.21700
C  34.81300 57.93600 39.08200
C  35.10800 59.17700 39.67200
C  33.66900 59.73100 40.02100
C  35.82700 56.94600 38.39100
C  36.50800 59.88400 39.78600
O  37.44800 59.36000 39.18700
C  36.63300 61.27000 40.51000
N  31.01000 61.04600 40.21900
C  32.18700 61.69700 40.52900
C  31.93000 63.12700 41.05300
C  30.32100 63.29400 40.92400
C  29.94400 61.83100 40.55300
C  32.55400 63.57500 42.41300
C  29.84500 64.28600 39.87900
C  29.60500 65.67500 40.45800
N  28.65500 59.10900 39.96900
C  27.95200 60.22000 40.26000
C  26.52900 59.96200 40.13100
C  26.49700 58.63900 39.66400
C  27.84200 58.11200 39.65700
C  25.46500 61.00300 40.23600
C  25.64300 57.54700 39.13200
O  24.37700 57.46900 38.92700
C  26.61900 56.40000 38.79100
C  25.97600 55.34000 39.65100
O  26.15700 55.22700 40.84000
O  25.22800 54.54400 38.84500
C  24.60300 53.30600 39.30800
H  33.33900 55.56700 38.59400
H  34.18200 61.64200 40.82300
H  27.83600 62.27200 40.69100
H  28.83400 54.09800 38.90300
H  31.60700 54.13100 37.80000
H  30.47100 53.18400 39.94600
H  31.40400 54.46200 40.73300
H  32.28800 53.25100 39.62300
H  29.92600 54.01400 36.29300
H  29.06000 55.42100 36.31800
H  27.28100 53.60000 37.43200
H  28.12600 52.66000 36.10200
H  36.35600 57.37000 37.53700
H  35.24700 56.05400 38.15500
H  36.58900 56.69600 39.13000
H  36.29900 61.06100 41.52600
H  35.97800 61.96300 39.98100
H  37.65000 61.65800 40.56200
H  32.48700 63.81700 40.41800
H  29.94900 63.36300 41.94600
H  32.49600 64.66300 42.43600
H  33.51100 63.15800 42.72800
H  31.85900 63.24200 43.18300
H  29.01200 63.95600 39.25800
H  30.63700 64.55500 39.18000
H  30.47200 66.33400 40.49600
H  29.29800 65.52600 41.49400
H  28.78800 66.16300 39.92700
H  24.70400 60.77600 39.48900
H  25.92900 61.97200 40.05000
H  25.10700 61.02100 41.26600
H  26.43300 56.21800 37.73300
H  23.52300 53.44100 39.26000
H  24.88800 53.03500 40.32400
H  24.77700 52.46800 38.63300
Mg -5.62800 24.96800 25.92500
C  -3.69300 26.34100 28.55500
C  -7.17300 23.03100 28.30000
C  -7.16200 23.05600 23.44000
C  -3.48500 26.37300 23.61500
N  -5.33900 24.55000 28.13100
C  -4.60700 25.38900 28.99000
C  -5.11400 25.23500 30.44700
C  -6.06500 23.99900 30.34700
C  -6.19900 23.82900 28.82200
C  -5.55000 22.65700 30.93800
C  -5.88600 26.47200 30.89700
C  -5.96300 26.68900 32.40600
H  -5.45000 25.60000 33.44900
N  -7.03000 23.34700 25.87000
C  -7.54500 22.75900 26.93400
C  -8.66200 21.85900 26.57600
C  -8.73600 21.90000 25.20400
C  -7.68700 22.77100 24.71100
C  -9.41600 20.96600 27.57300
C  -9.67700 21.20200 24.29600
O  -9.62900 21.28800 23.05300
C  -10.85300 20.37000 24.88000
N  -5.33300 24.71200 23.93300
C  -6.10400 23.90800 23.09700
C  -5.74900 24.18000 21.61500
C  -4.53500 25.19800 21.63100
C  -4.42000 25.48000 23.17300
C  -5.39300 22.85000 20.84800
C  -4.72100 26.49400 20.71900
C  -3.52700 26.77300 19.87700
N  -3.92400 26.18100 25.96300
C  -3.13700 26.69500 24.99000
C  -2.16700 27.66300 25.47900
C  -2.27900 27.53300 26.85100
C  -3.41000 26.68300 27.14500
C  -1.20200 28.44400 24.55800
C  -1.87900 27.92700 28.17800
O  -1.05700 28.80200 28.58400
C  -2.81000 27.31100 29.27100
C  -1.92900 26.72600 30.29800
O  -1.15800 25.78100 30.08200
O  -2.20900 27.16100 31.57700
C  -1.49200 26.60700 32.76100
H  -7.66300 22.32400 28.97300
H  -7.69700 22.71100 22.55200
H  -2.96100 26.81000 22.76300
H  -4.27300 25.13900 31.13300
H  -7.08100 24.20900 30.68100
H  -4.67800 22.81800 31.57300
H  -5.28700 21.98800 30.11900
H  -6.37000 22.15600 31.45200
H  -6.91200 26.37800 30.54200
H  -5.52300 27.40300 30.46300
H  -6.96100 27.02000 32.69300
H  -5.49600 27.65600 32.59400
H  -10.46100 21.27400 27.59600
H  -9.14900 21.09500 28.62200
H  -9.25800 19.92600 27.28800
H  -10.46400 19.45400 25.32600
H  -11.53900 20.18000 24.05500
H  -11.38600 21.01600 25.57800
H  -6.70600 24.50500 21.20600
H  -3.60700 24.68900 21.36900
H  -5.14700 22.18600 21.67600
H  -4.50500 23.00900 20.23500
H  -6.26000 22.47600 20.30400
H  -4.72500 27.30600 21.44700
H  -5.73900 26.40700 20.33900
H  -3.11500 27.67100 20.33800
H  -3.78900 26.90800 18.82800
H  -2.74100 26.02000 19.94100
H  -1.31400 27.97600 23.58000
H  -0.17600 28.30600 24.90000
H  -1.49600 29.48500 24.42500
H  -3.44400 28.08900 29.69700
H  -0.54400 27.13900 32.84600
H  -1.17500 25.56400 32.72100
H  -2.12100 26.68400 33.64800

