158

Mg 34.95200 2.86400 30.11000
C  32.89200 3.89000 32.47000
C  37.49100 2.72500 32.24500
C  36.88500 2.04900 27.44600
C  32.36000 3.51100 27.64700
N  35.21000 3.34400 32.12200
C  34.18300 3.62800 32.96500
C  34.65800 3.71300 34.41200
C  36.19500 3.48100 34.32200
C  36.36400 3.23800 32.80800
C  37.10100 4.70700 34.70100
C  33.89600 2.79400 35.47400
C  33.22000 3.67200 36.64400
H  33.97700 4.78900 37.14700
N  36.91000 2.41900 29.92300
C  37.82300 2.33100 30.93300
C  39.14700 2.07800 30.33500
C  38.85500 1.80700 28.95500
C  37.46300 2.09400 28.71900
C  40.39700 2.00300 31.12800
C  39.94700 1.37200 27.93200
O  39.69000 1.19600 26.74400
C  41.39800 1.08500 28.37200
N  34.69900 2.88800 27.77700
C  35.58000 2.32600 26.95700
C  35.13100 2.27300 25.49300
C  33.66700 2.69700 25.62700
C  33.53400 3.07800 27.11800
C  36.08300 3.13000 24.64400
C  32.48600 1.83400 25.13500
C  32.35900 0.47900 25.86300
N  33.04300 3.58600 30.01800
C  32.07000 3.76600 29.02600
C  30.81300 3.95400 29.63900
C  31.03200 4.08900 30.97400
C  32.45800 3.83100 31.15400
C  29.55300 4.04700 28.87300
C  30.40300 4.40400 32.26900
O  29.24400 4.58600 32.54400
C  31.59700 4.36500 33.23800
C  31.63700 5.70200 33.85500
O  32.29800 6.61700 33.47400
O  30.79700 5.87300 34.93400
C  30.94700 7.07500 35.80700
H  38.28500 2.72400 32.99500
H  37.51300 1.77100 26.59800
H  31.56900 3.68900 26.91500
H  34.46500 4.74200 34.71900
H  36.48600 2.58200 34.86500
H  37.53700 4.46900 35.67100
H  36.48200 5.58400 34.88800
H  37.81300 4.81400 33.88300
H  34.54100 2.11300 36.03000
H  33.06700 2.23500 35.04200
H  32.99700 2.95000 37.42900
H  32.28700 4.01500 36.19700
H  41.23900 2.34600 30.52600
H  40.60200 0.95300 31.33500
H  40.36200 2.58900 32.04700
H  42.00700 1.95100 28.63300
H  41.88000 0.74500 27.45600
H  41.40800 0.28400 29.11100
H  35.19300 1.24300 25.14100
H  33.50300 3.57000 24.99600
H  37.01200 3.51500 25.06600
H  35.53100 3.98400 24.25100
H  36.37500 2.42700 23.86400
H  32.63500 1.61700 24.07700
H  31.54800 2.39000 25.15300
H  31.32500 0.14000 25.79600
H  32.69800 0.46300 26.89900
H  32.91300 -0.24000 25.25900
H  29.60900 4.85800 28.14700
H  28.68600 4.21600 29.51100
H  29.51700 3.06100 28.40900
H  31.40600 3.62300 34.01300
H  30.79800 6.74700 36.83600
H  30.27000 7.89100 35.55300
H  31.94700 7.50700 35.81100
Mg 42.41200 41.85600 26.54600
C  41.57000 44.12200 29.00500
C  43.67600 39.78800 28.97800
C  43.09600 39.66800 24.12100
C  41.36600 44.29700 24.17800
N  42.56200 41.90600 28.75700
C  42.09100 42.88000 29.57400
C  42.40600 42.54900 31.09100
C  43.24200 41.21900 31.02400
C  43.17200 40.99700 29.45700
C  44.72600 41.28300 31.60400
C  41.12900 42.56300 32.02200
C  41.36500 43.21700 33.38000
H  40.49600 42.64300 34.55200
N  43.28400 40.02200 26.62200
C  43.73700 39.34500 27.69700
C  44.23500 38.06000 27.25300
C  44.09300 37.98500 25.84300
C  43.46900 39.22500 25.45400
C  44.75200 37.01300 28.26300
C  44.45000 36.80000 24.91000
O  44.29300 36.79900 23.69800
C  44.95700 35.47000 25.48000
N  42.43300 42.04100 24.43400
C  42.57800 40.89200 23.71900
C  41.95200 41.02700 22.31700
C  41.55100 42.56500 22.22100
C  41.70900 42.98800 23.68100
C  42.79500 40.48800 21.09200
C  40.17400 42.84400 21.71100
C  40.01800 43.97500 20.60100
N  41.81900 43.84600 26.56400
C  41.42300 44.70300 25.53900
C  40.99600 46.00700 26.06000
C  41.04900 45.74300 27.46300
C  41.54800 44.50000 27.67700
C  40.64500 47.27300 25.33700
C  40.71900 46.35900 28.72900
O  40.28500 47.42300 29.02300
C  41.04700 45.29200 29.78200
C  42.05900 45.93000 30.68700
O  43.25600 46.01500 30.59500
O  41.37200 46.49900 31.69200
C  42.05400 47.10800 32.84600
H  43.91000 39.03700 29.73600
H  43.03000 38.91700 23.33100
H  40.88300 45.00800 23.50500
H  43.03600 43.33200 31.51200
H  42.65900 40.47400 31.56500
H  45.06700 42.05300 32.29700
H  45.49000 41.31100 30.82700
H  44.91800 40.30800 32.05200
H  40.93700 41.52000 32.27300
H  40.20400 42.94200 31.58600
H  40.98200 44.21300 33.15600
H  42.43100 43.22400 33.60500
H  43.99400 36.23600 28.37000
H  44.96900 37.34400 29.27900
H  45.67100 36.51800 27.95000
H  45.97900 35.79800 25.66700
H  45.08200 34.72400 24.69400
H  44.44400 35.02100 26.33000
H  40.96700 40.56200 22.34700
H  42.30600 43.12600 21.67100
H  43.09000 41.30000 20.42700
H  42.13200 39.77400 20.60500
H  43.66900 39.88900 21.34900
H  39.51700 43.19300 22.50700
H  39.71400 41.94700 21.29700
H  39.26400 44.68100 20.94700
H  39.79000 43.60200 19.60200
H  40.97000 44.50500 20.56700
H  39.56900 47.31400 25.16500
H  41.12900 47.28600 24.36100
H  40.89400 48.15800 25.92300
H  40.06800 45.09400 30.22000
H  43.02000 47.55700 32.61400
H  42.34100 46.29700 33.51600
H  41.36000 47.71200 33.43100

