158

Mg 40.75000 9.00800 29.32000
C  42.64800 10.26800 32.14900
C  38.52500 7.89200 31.62300
C  38.96800 7.91700 26.88200
C  43.43900 9.89900 27.30800
N  40.70000 9.04400 31.63900
C  41.44400 9.69600 32.56500
C  40.82300 9.58900 33.95700
C  39.56500 8.73300 33.80500
C  39.60400 8.56000 32.22600
C  39.50000 7.44000 34.59400
C  40.53800 10.95000 34.71700
C  39.77000 11.00600 36.03500
H  40.65100 11.33300 37.29000
N  38.95600 8.01900 29.26300
C  38.21000 7.67500 30.33700
C  36.97900 7.00600 29.83300
C  37.07600 7.03800 28.41100
C  38.36500 7.66200 28.09000
C  35.84900 6.38600 30.74500
C  36.08400 6.55000 27.38600
O  36.43800 6.46700 26.21900
C  34.62800 6.12900 27.79800
N  41.19300 8.88900 27.39100
C  40.22300 8.44300 26.53600
C  40.60600 8.65000 25.02400
C  41.99900 9.30100 25.20800
C  42.29100 9.29100 26.75600
C  40.65000 7.36600 24.13700
C  42.01600 10.66300 24.45600
C  42.06900 11.96200 25.22100
N  42.67800 9.86500 29.59600
C  43.63900 10.21100 28.67800
C  44.70000 10.97400 29.22000
C  44.37500 11.00000 30.62800
C  43.08200 10.43200 30.78100
C  45.84000 11.52500 28.45100
C  44.82500 11.42800 32.04200
O  45.86300 11.98500 32.39600
C  43.62300 11.04200 33.03600
C  44.16900 10.29100 34.21900
O  44.24300 9.09700 34.37400
O  44.63100 11.21000 35.12500
C  45.24800 10.59800 36.34200
H  37.72400 7.70600 32.34100
H  38.44900 7.65100 25.95900
H  44.23200 10.19600 26.61900
H  41.56600 9.01200 34.50700
H  38.69600 9.35200 34.02500
H  40.45900 7.24200 35.07400
H  39.31900 6.66700 33.84700
H  38.69000 7.45900 35.32300
H  39.98600 11.60900 34.04600
H  41.56900 11.24300 34.91300
H  39.19400 10.10300 36.23900
H  39.10700 11.86000 35.90100
H  34.97200 6.98300 30.49600
H  36.14900 6.38900 31.79300
H  35.69600 5.37900 30.35700
H  34.03400 5.88900 26.91500
H  34.14200 6.94700 28.33000
H  34.65500 5.30200 28.50700
H  39.88800 9.39000 24.66900
H  42.75400 8.69500 24.70700
H  39.92300 7.41700 23.32700
H  40.38600 6.53900 24.79600
H  41.66200 7.24300 23.74900
H  41.16800 10.64900 23.77200
H  42.93800 10.62800 23.87500
H  41.38800 11.96700 26.07200
H  41.68300 12.66400 24.48200
H  43.08800 12.27300 25.44800
H  46.20500 12.35900 29.05000
H  45.44300 11.76000 27.46400
H  46.65300 10.82300 28.26700
H  43.15100 11.92300 33.47100
H  44.59600 10.09800 37.05900
H  45.71900 11.45800 36.81800
H  46.06800 9.92700 36.08700
Mg -2.47700 34.68100 25.94600
C  -4.29200 32.94500 28.56900
C  -0.86100 36.44200 28.47200
C  -0.86300 36.28700 23.62800
C  -4.35300 32.84700 23.63500
N  -2.63600 34.73700 28.26600
C  -3.34800 33.89200 29.06300
C  -3.02000 34.11400 30.57500
C  -2.05400 35.37100 30.49400
C  -1.76800 35.53900 28.98200
C  -2.60100 36.75600 31.13600
C  -2.38300 32.89100 31.18300
C  -2.90700 32.59000 32.57000
H  -1.92600 32.41400 33.77700
N  -1.03200 36.19000 26.00300
C  -0.53800 36.81300 27.10600
C  0.44300 37.74900 26.65500
C  0.61900 37.56100 25.27500
C  -0.43700 36.62900 24.89500
C  1.06200 38.74400 27.60000
C  1.55100 38.22700 24.32700
O  1.55500 38.04300 23.14000
C  2.76300 38.99000 24.87100
N  -2.65300 34.58000 23.86200
C  -1.83900 35.39700 23.11400
C  -2.16600 35.22200 21.55500
C  -3.19100 34.05100 21.63200
C  -3.40200 33.75600 23.10600
C  -2.62200 36.57300 20.92700
C  -2.81100 32.87900 20.68100
C  -1.78100 31.92100 21.23600
N  -4.09000 33.28400 26.04500
C  -4.65800 32.54600 24.96600
C  -5.59200 31.59200 25.49700
C  -5.49900 31.75600 26.86800
C  -4.50900 32.68600 27.22100
C  -6.38100 30.70300 24.59100
C  -6.01900 31.35400 28.17800
O  -6.95800 30.68600 28.47700
C  -5.18500 31.97100 29.27900
C  -6.12700 32.64600 30.14200
O  -6.67500 33.74300 29.98900
O  -6.42700 31.91300 31.29400
C  -7.13900 32.49900 32.39100
H  -0.33300 36.93900 29.28900
H  -0.29400 36.66800 22.77800
H  -4.79800 32.23700 22.84600
H  -3.95200 34.48500 31.00300
H  -1.10500 35.12300 30.97000
H  -3.68300 36.88400 31.15900
H  -2.31100 37.65400 30.59100
H  -2.20300 36.98500 32.12500
H  -1.30300 33.03900 31.19000
H  -2.43700 32.00100 30.55600
H  -3.43600 31.64700 32.42900
H  -3.64000 33.28800 32.97400
H  0.65600 38.75500 28.61100
H  1.02900 39.78200 27.26800
H  2.07800 38.34900 27.59700
H  3.61000 38.92700 24.18800
H  3.05500 38.26600 25.63100
H  2.35300 39.83900 25.41700
H  -1.16300 34.98000 21.20200
H  -4.14900 34.29400 21.17100
H  -3.69800 36.65600 20.77100
H  -2.08400 36.61900 19.98000
H  -2.20200 37.42000 21.46800
H  -2.32600 33.28400 19.79300
H  -3.66300 32.31800 20.29700
H  -1.42700 32.40400 22.14600
H  -0.94900 31.82100 20.53900
H  -2.34600 31.01500 21.45700
H  -5.89600 30.39100 23.66600
H  -7.29800 31.24700 24.36400
H  -6.47600 29.75300 25.11700
H  -4.67900 31.19600 29.85400
H  -7.81800 33.22000 31.93600
H  -6.46900 33.15100 32.95200
H  -7.55700 31.80000 33.11600

