158

Mg 43.97500 3.99800 47.17300
C  41.93100 6.72500 46.71800
C  41.37300 1.84400 46.57500
C  46.16200 1.31800 47.21200
C  46.69500 6.22500 47.17100
N  41.96600 4.26500 46.76400
C  41.28300 5.46600 46.59500
C  39.82800 5.28600 46.17900
C  39.66200 3.72200 46.55000
C  41.09500 3.23200 46.64900
C  38.76900 3.52000 47.77800
C  39.59800 5.56900 44.66400
C  38.37800 6.45400 44.34600
H  37.67900 6.19800 43.03700
N  43.82100 1.88600 47.03400
C  42.64400 1.18700 46.82400
C  42.85000 -0.22600 46.90500
C  44.28200 -0.37500 46.90400
C  44.87200 0.96700 47.07300
C  41.71200 -1.25900 46.82000
C  45.03400 -1.70900 46.71500
O  44.33000 -2.77800 46.65800
C  46.40800 -1.82000 46.33600
N  46.18000 3.82200 47.25300
C  46.81100 2.60700 47.31100
C  48.31700 2.81000 47.41000
C  48.42600 4.30200 47.67700
C  47.04100 4.86300 47.22200
C  48.93400 1.90000 48.55500
C  49.75600 4.88600 47.08800
C  50.77100 5.52600 48.04600
N  44.31100 6.02400 46.95000
C  45.45500 6.79800 46.92200
C  45.12300 8.21300 46.91400
C  43.71100 8.26400 46.87900
C  43.30800 6.93100 46.83300
C  46.05300 9.42000 46.90200
C  42.56600 9.07500 46.69500
O  42.53000 10.29600 46.64500
C  41.31400 8.16900 46.68000
C  40.44500 8.53900 47.79700
O  40.48600 8.00800 48.87000
O  39.53800 9.47400 47.55500
C  38.52500 9.81700 48.57500
H  40.50600 1.19900 46.41500
H  46.93900 0.55200 47.24400
H  47.51600 6.94400 47.12400
H  39.32200 5.97500 46.85400
H  39.26400 3.10000 45.74800
H  38.13800 4.38400 47.98900
H  39.34000 3.26100 48.66900
H  38.04500 2.75300 47.50100
H  39.40100 4.56600 44.28600
H  40.45500 5.98000 44.13000
H  38.54500 7.52600 44.45200
H  37.67700 6.30600 45.16700
H  41.90400 -1.80300 45.89500
H  40.69900 -0.86300 46.74500
H  41.73100 -1.93100 47.67800
H  47.16100 -1.84800 47.12400
H  46.76000 -1.16200 45.54200
H  46.49800 -2.81300 45.89600
H  48.77300 2.49800 46.47100
H  48.56000 4.43000 48.75100
H  48.24300 1.38100 49.21900
H  49.58800 2.44200 49.23900
H  49.54100 1.10600 48.12100
H  49.51600 5.65400 46.35300
H  50.24700 4.15900 46.44200
H  51.15600 6.43200 47.57800
H  51.63000 4.94800 48.38900
H  50.30900 5.65800 49.02400
H  46.75700 9.47600 46.07200
H  46.53200 9.30900 47.87400
H  45.39900 10.28100 46.76800
H  40.86500 8.23800 45.68900
H  38.86300 10.33900 49.46900
H  37.96800 8.97100 48.97600
H  37.78600 10.38600 48.01000
Mg -10.02600 40.48400 40.95000
C  -9.32800 37.09300 40.06100
C  -7.03900 41.27800 39.66200
C  -11.16200 43.57500 41.07900
C  -13.24200 39.36800 42.00400
N  -8.44700 39.31600 39.92200
C  -8.28300 37.97100 39.72100
C  -6.88800 37.52900 39.27800
C  -6.07900 38.88400 39.35200
C  -7.25400 39.90900 39.63300
C  -4.99300 39.08500 40.47500
C  -6.92300 36.83900 37.85600
C  -5.86000 35.76300 37.65000
H  -4.83900 35.92000 36.54100
N  -9.15100 42.20500 40.51700
C  -7.92000 42.38500 39.90800
C  -7.77000 43.77900 39.60400
C  -8.92300 44.49000 40.04900
C  -9.80500 43.43900 40.62300
C  -6.50100 44.31700 38.87900
C  -9.09800 46.03600 39.97400
O  -8.18000 46.79400 39.49800
C  -10.27900 46.60900 40.66800
N  -11.93100 41.32200 41.62200
C  -12.10300 42.68500 41.59800
C  -13.53700 43.10500 41.85300
C  -14.15000 41.73600 42.35100
C  -13.04300 40.73300 41.96500
C  -13.80800 44.36000 42.73900
C  -15.50900 41.35600 41.57300
C  -16.49900 40.49900 42.45700
N  -11.10600 38.60400 40.99700
C  -12.39200 38.36200 41.50300
C  -12.67100 36.85500 41.48000
C  -11.47500 36.33600 40.91800
C  -10.62100 37.42800 40.57200
C  -13.85400 36.05100 41.83600
C  -10.74400 35.09400 40.60200
O  -10.95500 33.89200 40.79800
C  -9.44500 35.57400 39.90200
C  -8.39500 34.82400 40.62900
O  -8.08500 34.90000 41.78700
O  -7.95200 33.95000 39.68100
C  -7.06500 32.96700 40.23800
H  -6.06200 41.63700 39.33000
H  -11.62300 44.55500 40.94300
H  -14.21000 38.92400 42.24900
H  -6.47000 36.84300 40.01500
H  -5.57900 39.16400 38.42500
H  -5.38900 39.80800 41.18800
H  -4.00500 39.31600 40.07800
H  -4.80200 38.16200 41.02300
H  -6.84400 37.68300 37.17000
H  -7.84400 36.38600 37.48800
H  -6.38200 34.82000 37.48500
H  -5.29500 35.70900 38.58000
H  -5.94100 44.92000 39.59300
H  -6.83300 44.93300 38.04300
H  -5.84800 43.51200 38.54100
H  -10.38500 46.11400 41.63300
H  -11.17900 46.59400 40.05400
H  -10.02400 47.64900 40.87300
H  -13.88000 43.36100 40.85100
H  -14.18000 41.68900 43.44000
H  -12.85400 44.70200 43.14200
H  -14.46300 44.06200 43.55700
H  -14.16000 45.27000 42.25200
H  -15.33000 40.78100 40.66400
H  -16.02700 42.29400 41.37100
H  -17.43100 41.02600 42.66200
H  -16.06900 40.40400 43.45400
H  -16.64900 39.46800 42.13600
H  -13.59400 35.00000 41.71100
H  -14.58000 36.37000 41.08800
H  -14.40400 36.18800 42.76700
H  -9.42900 35.34800 38.83600
H  -6.08200 33.41300 40.39000
H  -6.90800 32.22400 39.45700
H  -7.55500 32.35200 40.99300

