158

Mg 24.45500 -6.77500 47.95500
C  26.87700 -4.30300 47.12200
C  22.43800 -5.55800 45.33900
C  22.41400 -9.30500 48.60100
C  27.05400 -8.47300 49.79300
N  24.73600 -5.21700 46.28600
C  25.75700 -4.29600 46.26900
C  25.45600 -3.32700 45.16600
C  23.93200 -3.59200 44.73200
C  23.70900 -4.91700 45.48000
C  22.97100 -2.48900 45.06300
C  26.48200 -3.50400 44.00500
C  27.20600 -2.24600 43.50000
H  26.86400 -1.71600 42.11300
N  22.65900 -7.33300 47.22700
C  22.00100 -6.70900 46.12200
C  20.71500 -7.34500 46.08400
C  20.61500 -8.43800 46.97700
C  21.88500 -8.38200 47.70800
C  19.65700 -6.88200 45.07400
C  19.39800 -9.39400 47.13300
O  18.38500 -9.18200 46.45700
C  19.46800 -10.66300 47.99000
N  24.84200 -8.81600 48.77800
C  23.69900 -9.48600 49.15000
C  23.98100 -10.57200 50.21400
C  25.50300 -10.49100 50.38800
C  25.85500 -9.19600 49.62500
C  23.18000 -10.24100 51.49600
C  26.27300 -11.67700 49.88200
C  26.96800 -12.60900 50.88600
N  26.50400 -6.45900 48.49800
C  27.40600 -7.24300 49.28600
C  28.65100 -6.49700 49.40400
C  28.46800 -5.34600 48.66000
C  27.13600 -5.35300 48.10900
C  29.88700 -6.77400 50.26600
C  29.05800 -3.97600 48.28200
O  30.06800 -3.35500 48.63600
C  28.04000 -3.35800 47.24700
C  27.59600 -1.98700 47.75900
O  27.32100 -1.77200 48.94300
O  27.51800 -1.03000 46.76400
C  27.08600 0.24500 47.32000
H  21.72700 -5.24900 44.57000
H  21.69900 -10.03700 48.98200
H  27.88300 -8.85700 50.39300
H  25.59900 -2.32200 45.56400
H  23.81300 -3.68000 43.65200
H  23.38300 -1.59300 45.52800
H  22.15100 -2.90300 45.64800
H  22.60200 -2.07100 44.12600
H  25.95700 -3.92600 43.14900
H  27.22900 -4.28300 44.15800
H  28.28600 -2.39500 43.50100
H  27.01200 -1.35800 44.10200
H  19.82000 -5.82500 44.86500
H  18.69600 -7.03200 45.56600
H  19.67600 -7.41200 44.12200
H  20.42400 -11.11500 47.72500
H  18.59800 -11.28500 47.78100
H  19.55500 -10.38200 49.04000
H  23.71100 -11.53100 49.77200
H  25.63600 -10.24800 51.44300
H  22.52100 -9.38800 51.33600
H  23.75500 -10.23100 52.42300
H  22.48400 -11.07700 51.56000
H  27.01800 -11.23000 49.22400
H  25.69000 -12.42400 49.34300
H  26.24000 -13.38600 51.12100
H  27.16300 -12.05900 51.80700
H  27.85900 -13.15500 50.57800
H  30.78200 -6.68000 49.65100
H  29.99300 -7.79300 50.63900
H  30.04800 -6.08800 51.09800
H  28.40400 -3.28700 46.22200
H  26.56500 0.30800 48.27500
H  26.39900 0.62300 46.56300
H  27.90800 0.95400 47.41700
Mg 41.92200 7.95100 28.96800
C  43.96500 9.23500 31.68600
C  39.80300 6.56700 31.43400
C  40.47200 5.90600 26.68700
C  44.65300 8.51700 26.91500
N  41.87000 8.06800 31.30200
C  42.79400 8.58500 32.15300
C  42.42000 8.45800 33.69300
C  41.16800 7.51200 33.49600
C  40.85300 7.34800 31.95700
C  40.96600 6.23500 34.38300
C  42.19700 9.83400 34.46900
C  41.32700 9.76600 35.78200
H  41.96100 10.27900 37.13700
N  40.18600 6.68300 29.03800
C  39.44000 6.28900 30.09300
C  38.32400 5.53100 29.68200
C  38.48200 5.34400 28.29200
C  39.74500 6.00300 27.93700
C  37.15600 5.13300 30.54800
C  37.60900 4.63200 27.31600
O  37.87700 4.45600 26.12900
C  36.41300 3.77400 27.84800
N  42.46800 7.29400 27.08100
C  41.75900 6.34700 26.38000
C  42.44800 6.21700 24.96600
C  43.65900 7.15600 24.97600
C  43.65300 7.66900 26.36600
C  42.78800 4.78600 24.49100
C  43.61100 8.31300 23.92900
C  44.73500 8.25100 22.83500
N  43.88000 8.66000 29.23800
C  44.79400 8.98200 28.24600
C  45.82300 9.81900 28.80800
C  45.56500 9.98000 30.17000
C  44.30800 9.29100 30.37300
C  47.02100 10.23400 28.06700
C  46.06100 10.53800 31.42800
O  47.08700 11.07700 31.73900
C  44.92100 10.13400 32.43800
C  45.47600 9.51200 33.60700
O  45.78700 8.34200 33.79400
O  45.72800 10.49300 34.56100
C  46.47100 10.03900 35.77700
H  39.09600 6.23400 32.19700
H  40.11700 5.27900 25.86700
H  45.38300 8.85700 26.17800
H  43.25500 7.98600 34.21100
H  40.29000 8.11800 33.71900
H  40.89900 5.37400 33.71700
H  40.10700 6.35600 35.04300
H  41.84300 6.13900 35.02400
H  41.76400 10.61700 33.84700
H  43.15200 10.26000 34.77500
H  40.94000 8.75100 35.87200
H  40.46700 10.39300 35.54600
H  36.92200 4.07400 30.65500
H  36.17300 5.56300 30.36000
H  37.40700 5.34500 31.58700
H  35.94400 3.27900 26.99700
H  35.60600 4.34200 28.31000
H  36.87700 3.05600 28.52400
H  41.58700 6.47200 24.34800
H  44.57200 6.62100 24.71800
H  43.66500 4.70000 23.85100
H  41.91500 4.38800 23.97200
H  42.96000 4.19600 25.39200
H  43.72600 9.27900 24.42000
H  42.64100 8.43800 23.44900
H  45.66500 8.38400 23.38600
H  44.61100 9.02800 22.08100
H  44.72800 7.23600 22.43600
H  46.69700 10.65500 27.11500
H  47.69400 9.39900 27.87000
H  47.48600 11.06300 28.59900
H  44.24000 10.94100 32.71000
H  47.24900 9.29600 35.60500
H  45.82300 9.49800 36.46600
H  46.82800 10.91100 36.32500

