158

Mg 47.28000 44.48500 43.02800
C  43.97600 43.63500 43.16200
C  48.01900 40.99600 42.82300
C  50.57900 45.38600 42.32200
C  46.30600 47.84800 42.70700
N  46.16200 42.49600 42.86200
C  44.81800 42.43400 43.06600
C  44.32400 40.98600 43.08700
C  45.66300 40.12400 42.94700
C  46.66100 41.24600 42.95000
C  45.77600 39.11600 44.15800
C  43.36300 40.63100 41.90000
C  43.84100 41.08800 40.59500
H  43.75900 40.04900 39.43000
N  49.08100 43.36100 42.69900
C  49.14100 41.95300 42.66000
C  50.45300 41.62000 42.39200
C  51.11000 42.81800 41.99100
C  50.28800 43.93100 42.39800
C  50.94900 40.15700 42.44300
C  52.49400 42.87100 41.49600
O  53.10200 41.84800 41.32000
C  53.13900 44.16400 40.89300
N  48.30400 46.42700 42.39900
C  49.69600 46.51900 42.42200
C  50.08300 47.93700 42.39500
C  48.71900 48.69800 42.50600
C  47.67800 47.65000 42.51900
C  51.21400 48.31000 43.41200
C  48.49700 49.74300 41.39200
C  48.04100 51.15400 41.79800
N  45.53900 45.58300 43.06300
C  45.24400 46.89600 42.91100
C  43.84600 47.12700 43.06900
C  43.31000 45.88700 43.16000
C  44.34500 44.97600 43.11700
C  43.16500 48.42900 43.25200
C  42.07500 45.11100 43.34000
O  40.95700 45.49800 43.49600
C  42.49700 43.62500 43.34400
C  42.16500 42.99900 44.67200
O  42.59700 43.27400 45.79000
O  41.33500 41.86700 44.43600
C  40.98500 41.19200 45.64600
H  48.32800 39.95400 42.92600
H  51.63800 45.65100 42.30800
H  46.16000 48.92900 42.65200
H  43.70100 40.88700 43.97600
H  45.82200 39.62100 41.99300
H  45.96600 39.65800 45.08500
H  46.57800 38.42600 43.89500
H  44.92300 38.45100 44.28700
H  42.38700 41.02900 42.17700
H  43.25200 39.54700 41.88600
H  44.86700 41.45700 40.56700
H  43.20200 41.90000 40.24900
H  52.00000 40.09700 42.72700
H  50.76500 39.48000 41.60800
H  50.48900 39.58900 43.25100
H  52.44000 44.72900 40.27700
H  53.90700 43.83400 40.19300
H  53.56200 44.76300 41.70000
H  50.48400 48.30500 41.45100
H  48.74600 49.09700 43.52000
H  51.63000 47.37100 43.77800
H  50.78400 48.74900 44.31200
H  52.00200 48.95100 43.01800
H  47.74100 49.23200 40.79600
H  49.39800 49.85100 40.78800
H  48.94700 51.75000 41.68500
H  47.60700 51.21600 42.79600
H  47.23900 51.46900 41.13000
H  43.04500 48.59200 44.32300
H  42.15400 48.37400 42.84700
H  43.63000 49.29900 42.78800
H  41.91800 43.17200 42.54000
H  40.12000 40.61500 45.31800
H  40.62300 41.83400 46.44800
H  41.82100 40.64000 46.07700
Mg 48.08500 34.56200 27.13700
C  46.24900 33.00100 29.77300
C  48.57400 37.16900 29.31900
C  49.42900 36.29200 24.61400
C  47.14500 31.90000 25.17500
N  47.65600 34.85000 29.30500
C  46.92400 34.12900 30.19200
C  46.87400 34.74000 31.60500
C  47.31500 36.21900 31.24000
C  47.92800 36.08900 29.89200
C  46.15300 37.26200 31.40600
C  47.86000 34.04300 32.65200
C  47.31300 33.69200 34.01000
H  46.04800 34.41000 34.43900
N  49.06300 36.43700 27.03400
C  49.09700 37.36700 28.02500
C  49.65500 38.60700 27.52100
C  49.84900 38.39500 26.13600
C  49.48700 37.00900 25.83900
C  49.84200 39.83400 28.33400
C  50.28400 39.35000 25.08300
O  50.35400 39.09600 23.89300
C  50.71800 40.74300 25.55200
N  48.46100 34.17100 25.23400
C  48.91100 34.99700 24.30400
C  48.90300 34.42700 22.85700
C  48.45200 32.94800 23.14300
C  47.95100 32.96300 24.64000
C  47.88000 35.23300 21.90600
C  49.49800 31.81100 23.10000
C  48.98600 30.50700 22.56000
N  46.97600 32.71500 27.38200
C  46.64900 31.77400 26.44600
C  45.88700 30.71500 27.09100
C  45.71700 31.23100 28.32900
C  46.35300 32.44500 28.46900
C  45.36700 29.40400 26.58000
C  45.09900 30.85400 29.55400
O  44.62300 29.82200 29.94100
C  45.28200 32.10100 30.52800
C  45.72200 31.46700 31.85500
O  46.79500 30.96600 32.03200
O  44.63100 31.36700 32.69400
C  44.84600 30.61600 33.97200
H  48.66400 37.93800 30.09000
H  49.72100 36.86900 23.73400
H  46.94000 31.19600 24.36500
H  45.81900 34.71100 31.87900
H  48.08700 36.56300 31.92900
H  45.16500 36.82300 31.54900
H  46.10200 37.95400 30.56500
H  46.45700 37.79000 32.30900
H  48.81500 34.54900 32.78800
H  48.06900 33.08200 32.18100
H  48.09400 33.91900 34.73500
H  47.18800 32.63400 34.24100
H  50.80200 40.29300 28.09500
H  49.58600 39.61400 29.37000
H  49.16900 40.58600 27.92300
H  49.88800 41.23000 26.06400
H  50.83200 41.32800 24.63900
H  51.61900 40.58000 26.14400
H  49.89500 34.50900 22.41200
H  47.65500 32.70700 22.44000
H  47.59000 36.12100 22.46800
H  46.94000 34.74700 21.64700
H  48.39200 35.44400 20.96700
H  50.04200 31.68900 24.03700
H  50.28000 32.26800 22.49300
H  49.68400 30.15600 21.80000
H  47.98500 30.54600 22.12800
H  48.91300 29.75100 23.34100
H  45.08800 29.30600 25.53100
H  44.42100 29.16300 27.06400
H  46.17700 28.74600 26.89200
H  44.38100 32.68600 30.70900
H  44.67400 29.56900 33.72100
H  44.10200 30.95600 34.69300
H  45.84900 30.80600 34.35400

