158

Mg 47.64800 25.30000 29.06000
C  48.61600 27.33200 31.69300
C  46.13800 23.20300 31.38900
C  46.81700 23.21600 26.59300
C  48.87700 27.55200 26.84200
N  47.34100 25.34000 31.27300
C  47.86800 26.26800 32.13200
C  47.44100 26.01100 33.64000
C  46.78200 24.59100 33.47200
C  46.72600 24.37000 32.00600
C  47.53000 23.45100 34.27000
C  46.47800 27.07400 34.27400
C  47.03700 27.88700 35.36600
H  46.34900 27.94200 36.76700
N  46.63600 23.47500 29.03700
C  46.13600 22.74900 30.03100
C  45.51400 21.48600 29.51600
C  45.54300 21.63200 28.09400
C  46.34800 22.78800 27.86700
C  44.89800 20.43700 30.39200
C  44.86600 20.82100 26.95700
O  45.12100 21.01600 25.79200
C  43.74100 19.87500 27.30500
N  47.97500 25.31600 27.02600
C  47.60500 24.26600 26.25300
C  48.07900 24.54400 24.85600
C  48.61800 26.00700 24.83200
C  48.41500 26.36400 26.35000
C  49.01100 23.37200 24.22900
C  47.89300 26.92800 23.85800
C  48.78000 28.16400 23.43200
N  48.61200 26.99000 29.21300
C  49.00800 27.82400 28.18400
C  49.59800 29.10100 28.74600
C  49.40800 28.88700 30.08600
C  48.86700 27.66300 30.35700
C  50.24200 30.24800 28.00100
C  49.64500 29.53800 31.34400
O  50.17200 30.64000 31.60400
C  49.16400 28.57600 32.47700
C  50.38300 28.35800 33.33600
O  51.34000 27.65600 33.04100
O  50.21600 29.00000 34.52000
C  51.08600 28.64000 35.64100
H  45.62200 22.64200 32.17100
H  46.70600 22.63400 25.67600
H  49.33600 28.31200 26.20600
H  48.38200 25.84000 34.16300
H  45.80100 24.68900 33.93700
H  46.83000 22.72400 34.68300
H  48.18100 23.95800 34.98300
H  48.13200 22.85600 33.58300
H  45.64100 26.62200 34.80600
H  46.08500 27.75100 33.51500
H  46.95200 28.90800 34.99300
H  48.06200 27.56100 35.54000
H  45.18700 20.55300 31.43700
H  45.25000 19.48000 30.00500
H  43.81200 20.43300 30.29500
H  43.43900 19.34700 26.40000
H  42.85800 20.45400 27.57600
H  44.11900 19.21400 28.08600
H  47.12000 24.47800 24.34400
H  49.67700 25.96000 24.57800
H  49.99200 23.81400 24.05300
H  48.64400 22.95400 23.29100
H  49.10800 22.59400 24.98500
H  46.95100 27.24000 24.30900
H  47.56800 26.32100 23.01300
H  48.95000 28.15800 22.35500
H  49.76200 28.19100 23.90600
H  48.36500 29.12600 23.73300
H  49.46000 30.83800 27.52100
H  50.92400 29.99400 27.19000
H  50.71200 30.81100 28.80700
H  48.42900 29.13100 33.06000
H  51.16900 29.51600 36.28400
H  52.04400 28.21500 35.34300
H  50.54500 27.96600 36.30600
Mg 36.13600 48.83800 24.97000
C  36.40200 47.06600 28.06100
C  34.49200 51.31900 26.64500
C  35.53700 50.23400 21.99600
C  37.66600 46.13500 23.36500
N  35.20800 49.00900 27.16200
C  35.73500 48.27000 28.24000
C  35.39500 48.96500 29.53000
C  34.52500 50.21300 28.97500
C  34.78700 50.23200 27.51000
C  33.05300 50.20000 29.39700
C  36.66800 49.38400 30.33700
C  36.68400 49.80800 31.83800
H  35.43500 49.60300 32.65300
N  35.22900 50.52700 24.46100
C  34.62000 51.50400 25.25700
C  34.27000 52.61200 24.42500
C  34.59200 52.35300 23.10600
C  35.14100 50.98600 23.15000
C  33.59600 53.79000 25.03600
C  34.52200 53.21600 21.86600
O  34.97900 52.93200 20.77900
C  33.89900 54.65300 21.98300
N  36.34800 48.10400 22.99500
C  36.01100 48.90000 21.94000
C  36.49900 48.31900 20.63700
C  37.46900 47.22500 21.09800
C  37.26600 47.16900 22.59500
C  35.30400 47.72900 19.78600
C  38.97500 47.42300 20.70200
C  39.81400 48.40000 21.56600
N  36.90500 47.02200 25.54700
C  37.40300 45.97200 24.74700
C  37.92200 44.96200 25.55600
C  37.53300 45.33600 26.87900
C  36.78200 46.53400 26.77700
C  38.58700 43.78600 25.08300
C  37.62900 44.97100 28.26600
O  38.21600 44.10800 28.91200
C  36.84300 46.07500 29.10400
C  35.98500 45.50500 30.16100
O  34.80800 45.15900 30.03400
O  36.59400 45.50600 31.36400
C  35.80600 45.14700 32.51000
H  33.88900 52.02000 27.22600
H  35.43500 50.74300 21.03500
H  38.22200 45.39200 22.78800
H  34.78000 48.38300 30.21500
H  34.97700 51.14900 29.30200
H  32.90600 51.04000 30.07700
H  32.74300 49.28600 29.90400
H  32.41900 50.32500 28.52000
H  37.00600 50.25600 29.77700
H  37.39000 48.57500 30.22500
H  37.05400 50.83200 31.88200
H  37.45400 49.22600 32.34300
H  33.08600 53.52200 25.96200
H  32.91100 54.06600 24.23500
H  34.32400 54.56400 25.27700
H  33.91200 55.10100 20.99000
H  34.52900 55.29100 22.60300
H  32.84600 54.58600 22.25800
H  37.05500 49.08200 20.09200
H  37.16100 46.29000 20.63000
H  34.71400 48.59300 19.47800
H  34.70500 47.04400 20.38500
H  35.74200 47.21700 18.92900
H  38.99200 47.62100 19.63100
H  39.49700 46.47000 20.78500
H  40.30100 49.06200 20.85100
H  40.51800 47.98400 22.28700
H  39.05200 49.00500 22.05700
H  37.81000 43.20100 24.58900
H  39.09100 43.36500 25.95200
H  39.42500 44.05400 24.44000
H  37.68100 46.48800 29.66600
H  35.29400 44.20100 32.33800
H  35.15600 45.93600 32.88800
H  36.49000 44.88900 33.31800

