158

Mg 54.24200 24.40700 44.41700
C  51.67400 26.65800 43.66200
C  52.23300 21.86100 43.19900
C  56.95300 22.51600 44.43800
C  56.34600 27.28500 44.66500
N  52.22000 24.25100 43.65000
C  51.35000 25.31500 43.45400
C  49.97900 24.75300 42.93900
C  50.07800 23.22400 43.28300
C  51.59900 23.06700 43.37200
C  49.38700 22.71100 44.58500
C  49.72300 24.96500 41.44100
C  48.26100 25.25900 41.01000
H  48.05300 24.79100 39.57400
N  54.55000 22.38500 43.96200
C  53.59800 21.46300 43.44700
C  54.22700 20.20500 43.41400
C  55.60400 20.34800 43.85200
C  55.79000 21.78800 44.12600
C  53.45200 19.01400 42.85200
C  56.64300 19.19400 43.83600
O  56.41600 18.13500 43.28200
C  57.98300 19.35000 44.46200
N  56.37000 24.83400 44.29700
C  57.26900 23.89200 44.57300
C  58.64500 24.47700 44.93100
C  58.41300 25.91600 45.04700
C  56.95400 26.01000 44.65800
C  59.34600 23.83600 46.18700
C  59.34800 26.75900 44.14300
C  59.91400 27.97500 44.75400
N  54.06100 26.60600 44.34400
C  55.01200 27.65000 44.54900
C  54.34400 28.90800 44.69600
C  53.01900 28.57500 44.31600
C  52.91200 27.13000 44.10900
C  54.91100 30.21100 44.93000
C  51.64900 29.12400 44.13700
O  51.26600 30.28900 44.32100
C  50.83400 27.92100 43.44900
C  50.45300 28.22800 42.07500
O  51.24700 28.24200 41.14400
O  49.09100 28.71200 41.98700
C  48.74700 29.19300 40.61400
H  51.54000 21.09400 42.84700
H  57.76700 21.78800 44.44900
H  57.08400 28.07000 44.84300
H  49.20900 25.31000 43.47300
H  49.86200 22.54500 42.45900
H  50.07500 22.05900 45.12300
H  48.43100 22.20800 44.43600
H  49.22500 23.53400 45.28100
H  50.11000 24.14300 40.83900
H  50.40100 25.73900 41.08100
H  48.06400 26.33000 41.04300
H  47.53400 24.85300 41.71400
H  53.62500 18.81000 41.79600
H  52.37800 19.17300 42.94800
H  53.65500 18.20700 43.55700
H  58.46200 18.38600 44.63700
H  57.75600 19.88100 45.38600
H  58.69300 19.99400 43.94300
H  59.18500 24.24400 44.01300
H  58.38300 26.22000 46.09300
H  58.59300 23.37900 46.82900
H  59.87200 24.52900 46.84300
H  60.07100 23.11600 45.80800
H  58.91200 27.13600 43.21900
H  60.23900 26.20000 43.85600
H  59.77900 28.90900 44.20900
H  61.00000 27.90700 44.81100
H  59.49800 28.02600 45.76000
H  54.28000 30.55300 45.75100
H  54.62800 30.82500 44.07500
H  55.95800 30.18500 45.23100
H  50.04600 27.73000 44.17700
H  49.55300 29.51500 39.95500
H  48.20900 30.14000 40.59000
H  48.14800 28.36800 40.22800
Mg -12.14900 37.69600 42.75400
C  -9.94000 35.15700 41.82300
C  -10.01700 39.88600 41.05100
C  -14.43600 40.12900 43.32200
C  -14.38200 35.22700 43.98100
N  -10.28100 37.51700 41.51900
C  -9.53600 36.35000 41.23000
C  -8.31300 36.58600 40.43100
C  -8.18600 38.16300 40.53000
C  -9.62300 38.57200 40.95700
C  -7.11900 38.61900 41.53800
C  -8.44100 36.09800 38.93300
C  -7.36600 35.01000 38.47500
H  -6.03400 35.35600 37.80200
N  -12.27600 39.68000 42.15600
C  -11.26500 40.43200 41.55400
C  -11.66200 41.85100 41.61400
C  -12.91300 41.93800 42.25000
C  -13.24200 40.57800 42.64000
C  -10.73700 42.87100 41.13200
C  -13.68800 43.19400 42.37100
O  -13.25800 44.23800 41.89400
C  -15.00600 43.27800 43.05000
N  -14.29600 37.59100 43.35200
C  -14.93700 38.82200 43.63000
C  -16.18700 38.59900 44.42400
C  -16.20700 37.04100 44.48100
C  -14.87900 36.55300 43.89600
C  -16.23100 39.36800 45.79600
C  -17.45600 36.38500 43.91300
C  -17.76500 34.94800 44.38600
N  -12.12500 35.64500 43.03300
C  -13.09700 34.80000 43.57200
C  -12.51600 33.49600 43.64100
C  -11.30600 33.53800 42.90700
C  -11.09100 34.90600 42.58100
C  -13.25100 32.23800 44.32000
C  -10.15300 32.85200 42.41700
O  -9.90900 31.63900 42.63400
C  -9.26700 33.78000 41.58100
C  -7.86700 33.65200 42.13400
O  -7.13800 32.80400 41.67000
O  -7.61000 34.72300 43.03200
C  -6.31900 34.58000 43.75400
H  -9.29700 40.56700 40.59500
H  -15.12700 40.81100 43.82200
H  -15.20500 34.57200 44.27700
H  -7.48700 36.12600 40.97300
H  -8.02700 38.55900 39.52700
H  -6.30600 37.89600 41.59900
H  -7.41000 38.77100 42.57800
H  -6.69900 39.50900 41.06900
H  -8.51200 36.91600 38.21600
H  -9.38300 35.55000 38.93900
H  -7.85900 34.26100 37.85400
H  -6.98800 34.52400 39.37400
H  -9.67700 42.67100 41.28500
H  -10.89800 43.74300 41.76700
H  -10.98600 42.94200 40.07300
H  -15.80400 42.79500 42.48800
H  -15.24700 44.30900 43.30700
H  -14.81200 42.78100 44.00100
H  -16.86800 38.97900 43.66200
H  -16.16700 36.74000 45.52800
H  -15.22500 39.51500 46.18800
H  -16.84200 38.85500 46.53900
H  -16.73600 40.32800 45.68900
H  -17.21900 36.44900 42.85200
H  -18.22900 37.08700 44.22800
H  -18.80900 34.83500 44.67800
H  -17.06500 34.80700 45.21100
H  -17.44100 34.37900 43.51500
H  -13.26100 31.34100 43.70100
H  -14.23000 32.48300 44.73200
H  -12.61200 31.86800 45.12200
H  -9.20600 33.44500 40.54600
H  -5.64300 35.43300 43.71200
H  -5.80500 33.67400 43.43300
H  -6.54400 34.38500 44.80300

