158

Mg 34.71500 3.38400 29.72800
C  32.47100 4.35200 32.26700
C  37.22000 3.44000 32.22200
C  36.99700 2.81900 27.35800
C  32.29300 3.77300 27.37800
N  34.81100 3.72400 32.04900
C  33.76100 4.06000 32.84900
C  34.14600 4.26100 34.30500
C  35.72500 4.28700 34.20200
C  36.00600 3.83100 32.72200
C  36.31100 5.70700 34.61800
C  33.63400 3.14400 35.26000
C  33.36600 3.76500 36.64000
H  34.27400 4.93900 37.21400
N  36.80000 3.03500 29.82100
C  37.62300 2.99800 30.93300
C  38.94900 2.46900 30.50900
C  38.87000 2.32800 29.08200
C  37.54300 2.78100 28.68900
C  40.02300 2.19900 31.51300
C  39.90000 1.75500 28.18900
O  39.70600 1.46100 26.99000
C  41.17000 1.26300 28.74800
N  34.61500 3.25700 27.69900
C  35.71000 3.05600 26.88300
C  35.30600 2.99700 25.37200
C  33.74800 3.12200 25.39200
C  33.50900 3.37800 26.93600
C  35.91300 4.14900 24.56000
C  33.04200 1.74800 25.00200
C  31.77500 1.97500 24.25500
N  32.86600 3.92300 29.74900
C  31.97400 4.02800 28.75000
C  30.69300 4.29000 29.20400
C  30.81900 4.55600 30.53200
C  32.16700 4.23900 30.88700
C  29.40100 4.42200 28.33600
C  30.13600 5.00800 31.66800
O  28.95000 5.33000 31.80200
C  31.14700 4.76200 32.87900
C  31.18200 6.05800 33.70200
O  31.62200 7.10700 33.29200
O  30.74600 5.88900 35.01700
C  31.00900 6.96200 35.88100
H  38.03900 3.56800 32.93300
H  37.60500 2.53100 26.49800
H  31.57700 3.94200 26.57100
H  33.76000 5.26500 34.48400
H  36.23800 3.50800 34.76700
H  36.60100 6.21000 33.69500
H  37.14700 5.38000 35.23600
H  35.60500 6.32300 35.17500
H  34.43300 2.41500 35.39300
H  32.71100 2.68500 34.90600
H  33.30700 2.99700 37.41100
H  32.32900 4.08200 36.52400
H  40.98000 2.53800 31.11700
H  40.22400 1.15300 31.74700
H  39.79400 2.81600 32.38100
H  41.71900 0.80100 27.92700
H  41.02500 0.62900 29.62300
H  41.80100 2.12000 28.98200
H  35.65500 2.06600 24.92600
H  33.26200 3.87000 24.76700
H  36.14000 4.90400 25.31200
H  35.16000 4.53900 23.87500
H  36.84500 3.89100 24.05800
H  32.78000 1.23700 25.92800
H  33.77400 1.12500 24.48700
H  31.83400 1.40600 23.32700
H  31.57800 3.02000 24.01500
H  30.95300 1.51700 24.80500
H  28.60400 3.96400 28.92200
H  29.32000 3.98800 27.33900
H  29.16600 5.48500 28.27800
H  30.78200 3.98700 33.55400
H  30.83100 6.56000 36.87900
H  30.20900 7.65600 35.62100
H  32.01900 7.36100 35.79000
Mg 47.36100 16.86100 27.83000
C  45.43000 16.83000 30.80400
C  49.85300 18.58400 29.61600
C  48.98800 17.20300 25.08100
C  44.57300 15.54900 26.12700
N  47.55900 17.67300 29.95100
C  46.62700 17.54500 30.95700
C  47.22100 18.14800 32.26700
C  48.46100 18.93700 31.71100
C  48.62500 18.35000 30.33400
C  48.29400 20.47800 31.75300
C  47.58200 16.94200 33.21200
C  47.16800 17.14400 34.65900
H  46.69900 18.54600 35.08000
N  49.16000 17.65100 27.39500
C  50.04700 18.22700 28.27200
C  51.25000 18.51200 27.55100
C  51.02700 18.24400 26.18500
C  49.73400 17.62100 26.17200
C  52.53200 19.04400 28.19500
C  51.93300 18.43100 24.96400
O  51.53000 18.10000 23.84900
C  53.30100 19.15800 24.99300
N  46.85200 16.34200 25.92800
C  47.75200 16.56000 24.94800
C  47.16000 16.21300 23.57600
C  45.78200 15.53400 24.02000
C  45.75100 15.74400 25.47100
C  47.04700 17.40000 22.53300
C  45.76800 13.96400 23.64200
C  44.79000 13.66200 22.47500
N  45.46600 16.22700 28.31200
C  44.41800 15.75100 27.50700
C  43.20100 15.60000 28.30600
C  43.58100 15.94800 29.59900
C  44.89900 16.34900 29.55900
C  41.79400 15.21900 27.79800
C  43.04900 16.14200 30.91400
O  41.91500 15.94200 31.29500
C  44.22100 16.75600 31.72200
C  43.80600 18.12100 32.21300
O  44.01000 19.17500 31.66900
O  43.19700 17.97900 33.37700
C  42.48600 19.13100 33.95300
H  50.62400 19.13600 30.15700
H  49.38900 17.20900 24.06600
H  43.75600 14.97600 25.68300
H  46.39100 18.73200 32.66300
H  49.33600 18.69600 32.31400
H  47.45300 20.78600 32.37400
H  48.26700 20.75600 30.70000
H  49.10400 21.08400 32.15900
H  48.65900 16.79300 33.13000
H  46.94600 16.14200 32.83300
H  47.90300 16.76500 35.36900
H  46.27200 16.56500 34.88500
H  53.44000 18.51900 27.89800
H  52.50100 18.89600 29.27400
H  52.62100 20.10400 27.95600
H  53.54400 19.16800 23.93100
H  54.04000 18.67500 25.63400
H  53.17500 20.16400 25.39200
H  47.86500 15.44400 23.26300
H  44.90000 16.03800 23.62600
H  46.03300 17.35500 22.13600
H  47.74300 17.11000 21.74600
H  47.37500 18.32500 23.00700
H  45.49400 13.36600 24.51100
H  46.77600 13.56000 23.53900
H  45.08500 14.18800 21.56700
H  43.81800 14.01100 22.82300
H  44.62300 12.58600 22.42100
H  41.63500 15.56200 26.77500
H  41.10500 15.77600 28.43300
H  41.48200 14.17700 27.85800
H  44.45900 16.10800 32.56600
H  42.25400 19.76300 33.09600
H  43.11400 19.53200 34.74800
H  41.53700 18.84400 34.40800

