158

Mg 47.18100 17.12600 28.28000
C  45.33000 16.81500 31.26500
C  49.27100 19.50300 29.86300
C  48.28700 18.11100 25.32900
C  44.51500 15.47000 26.70000
N  47.18400 18.10600 30.26600
C  46.49400 17.63300 31.33300
C  47.08200 18.17900 32.62300
C  48.22400 19.15600 32.16400
C  48.27200 18.92800 30.64900
C  48.08100 20.66600 32.61300
C  47.48600 16.98400 33.53900
C  46.97900 17.01900 34.94400
H  46.73100 18.43800 35.66000
N  48.89600 18.34100 27.70900
C  49.53400 19.26800 28.44500
C  50.47800 19.82200 27.61000
C  50.36300 19.34000 26.29500
C  49.13700 18.55500 26.38200
C  51.35800 20.87500 27.98000
C  51.22200 19.55400 25.09700
O  50.91500 19.17200 23.94100
C  52.47000 20.43200 25.20600
N  46.53300 16.79300 26.32700
C  47.14400 17.38300 25.24500
C  46.41700 16.99600 23.98100
C  45.16400 16.22000 24.42700
C  45.40800 16.18900 25.93000
C  46.17200 18.27900 23.14800
C  44.92400 14.85100 23.79500
C  44.51500 14.82600 22.33600
N  45.40200 16.21100 28.82600
C  44.46200 15.55900 28.11000
C  43.40900 15.07700 28.99100
C  43.76200 15.47600 30.27500
C  44.96600 16.24400 30.15400
C  42.21500 14.12800 28.54900
C  43.38100 15.40600 31.67400
O  42.45600 14.83500 32.23100
C  44.38100 16.30700 32.36900
C  43.62800 17.53000 33.01800
O  43.27300 18.53400 32.46500
O  43.36500 17.26300 34.30400
C  42.67300 18.27800 35.08000
H  49.97200 20.13100 30.41700
H  48.72900 18.36300 24.36300
H  43.69300 15.02700 26.13400
H  46.31500 18.74500 33.15200
H  49.18900 18.86200 32.57400
H  48.07800 21.46300 31.87000
H  48.90800 20.88000 33.29000
H  47.15700 20.78800 33.17700
H  48.56800 16.93500 33.41700
H  47.14200 16.03000 33.13800
H  47.67400 16.47900 35.58600
H  46.01300 16.51400 34.92700
H  52.36700 20.48200 27.85500
H  51.47300 21.07900 29.04500
H  50.97500 21.76100 27.47300
H  53.27900 19.84400 25.63800
H  52.28400 21.33100 25.79500
H  52.65900 20.72600 24.17400
H  47.15200 16.40500 23.43300
H  44.26500 16.78300 24.17400
H  45.11900 18.39800 22.89400
H  46.64300 18.32100 22.16600
H  46.47700 19.19900 23.64700
H  43.94400 14.52600 24.14400
H  45.62100 14.09700 24.15700
H  44.48800 15.84100 21.94100
H  43.52700 14.36700 22.30400
H  45.21400 14.23000 21.74800
H  42.39800 13.20600 27.99700
H  41.46200 14.64700 27.95600
H  41.72000 13.83500 29.47600
H  44.75700 15.81700 33.26700
H  42.55500 18.03300 36.13600
H  41.66100 18.40100 34.69400
H  43.26100 19.19000 34.98300
Mg 47.69000 25.71100 28.77800
C  48.46800 27.92300 31.35700
C  46.34700 23.49500 31.29800
C  47.32100 23.26200 26.47500
C  49.55200 27.62200 26.48100
N  47.45100 25.72600 31.09300
C  47.78500 26.82900 31.85400
C  47.33400 26.60500 33.27900
C  46.79600 25.16500 33.27200
C  46.89900 24.74500 31.79600
C  47.50800 24.15900 34.22600
C  46.39900 27.55800 34.03900
C  46.80000 27.85100 35.48800
H  45.79000 28.04600 36.54900
N  46.80000 23.78600 28.82300
C  46.31200 23.09600 29.95400
C  45.71300 21.88400 29.41200
C  45.95800 21.82100 27.99700
C  46.69000 23.02100 27.70600
C  44.99200 20.96500 30.32800
C  45.45000 20.82100 27.02000
O  45.67100 20.88300 25.81800
C  44.51700 19.70400 27.46200
N  48.37500 25.46700 26.89700
C  48.03400 24.42600 26.12600
C  48.53400 24.56400 24.66200
C  48.67100 26.12000 24.65200
C  48.86900 26.43200 26.10300
C  49.86800 23.79700 24.57500
C  47.41900 27.00400 24.18100
C  47.75600 28.13700 23.20600
N  48.75900 27.40500 28.79300
C  49.50400 28.09100 27.82600
C  50.04700 29.28000 28.47900
C  49.62400 29.27900 29.80800
C  48.86300 28.13200 29.94900
C  50.86300 30.30900 27.75200
C  49.74600 29.95300 31.10700
O  50.36300 30.96500 31.39900
C  48.83400 29.13700 32.06700
C  49.65300 28.89700 33.29800
O  50.59700 28.11100 33.33900
O  49.44300 29.75500 34.32800
C  50.32300 29.48800 35.54000
H  45.82300 22.90900 32.05500
H  47.19100 22.40700 25.80800
H  50.06300 28.29000 25.78400
H  48.29700 26.58300 33.79000
H  45.72800 25.16600 33.49100
H  48.21100 23.44800 33.79300
H  46.77700 23.58400 34.79500
H  48.10100 24.68600 34.97500
H  45.36300 27.21700 34.03400
H  46.46400 28.44400 33.40700
H  47.37100 28.77900 35.46800
H  47.35700 26.96000 35.77700
H  45.56900 20.04100 30.32100
H  43.94800 20.68700 30.18300
H  44.89700 21.17800 31.39300
H  45.01000 18.96800 28.09600
H  44.31100 19.15300 26.54400
H  43.60000 20.12300 27.87600
H  47.77400 24.11300 24.02500
H  49.51900 26.33200 24.00100
H  50.75900 24.42400 24.53900
H  49.92200 23.20100 23.66400
H  50.00800 23.24300 25.50400
H  46.91100 27.51100 25.00100
H  46.64900 26.37100 23.74100
H  46.96100 28.19700 22.46300
H  48.74700 28.01400 22.76900
H  47.61600 29.04300 23.79500
H  50.45100 30.59600 26.78400
H  51.88300 29.92800 27.79700
H  50.77900 31.26500 28.26900
H  47.95800 29.75000 32.28200
H  50.48200 30.41900 36.08500
H  51.33700 29.29200 35.19000
H  49.90600 28.67700 36.13700

