158

Mg 8.99200 3.00000 27.09200
C  10.36000 1.49200 30.00600
C  7.01700 4.96600 29.35100
C  7.23900 4.20000 24.49200
C  10.02100 0.26100 25.19300
N  8.70900 3.13100 29.43600
C  9.51500 2.56200 30.35900
C  9.27100 3.10400 31.73300
C  8.01600 4.04900 31.51100
C  7.81000 4.05200 30.00900
C  6.68500 3.64500 32.13900
C  10.50000 3.84100 32.45500
C  10.93200 3.36700 33.86000
H  11.22100 4.46700 34.93400
N  7.48900 4.47000 26.96500
C  6.86800 5.16400 27.93500
C  6.02300 6.12700 27.27000
C  6.20200 6.05700 25.84800
C  6.96700 4.86400 25.73200
C  5.07400 7.07500 28.06200
C  5.80300 6.92400 24.69900
O  5.98700 6.63900 23.53200
C  5.07900 8.17300 25.01000
N  8.79600 2.43000 25.14300
C  8.06400 3.12200 24.22800
C  8.21200 2.53400 22.86200
C  9.07800 1.30300 23.05900
C  9.34800 1.32600 24.57300
C  6.89900 2.24600 22.16500
C  10.35100 1.31200 22.25600
C  10.46900 0.13800 21.26000
N  10.03000 1.26200 27.47700
C  10.46400 0.31300 26.58200
C  11.32500 -0.57300 27.26500
C  11.29500 -0.16500 28.65200
C  10.53000 0.96200 28.71200
C  11.83700 -1.97400 26.64200
C  11.64800 -0.61900 29.93400
O  12.33100 -1.58100 30.22300
C  11.06900 0.49900 30.89800
C  10.17300 -0.11400 31.88800
O  8.95100 -0.29300 31.78500
O  10.98200 -0.28500 33.06000
C  10.24200 -0.56300 34.28000
H  6.42800 5.60700 30.01100
H  6.84100 4.50800 23.52300
H  10.36600 -0.56500 24.56600
H  9.08200 2.22000 32.34300
H  8.30600 5.00600 31.94400
H  6.60700 4.42100 32.90100
H  6.65500 2.70100 32.68400
H  5.88000 3.69200 31.40700
H  10.28400 4.90900 32.44700
H  11.39200 3.73100 31.83700
H  11.82900 2.75900 33.74500
H  10.06600 2.82200 34.23800
H  5.48900 8.08000 27.99100
H  4.95200 6.81800 29.11500
H  4.12400 7.13200 27.53200
H  5.69000 8.66100 25.76900
H  4.08900 7.96600 25.41600
H  4.99800 8.82200 24.13800
H  8.80600 3.30200 22.36600
H  8.57100 0.34000 23.00700
H  6.04300 2.59600 22.74400
H  6.71700 1.17300 22.10500
H  6.84200 2.79900 21.22700
H  11.19800 1.13100 22.91800
H  10.61600 2.26100 21.79100
H  9.50900 -0.18700 20.85800
H  11.00100 -0.73000 21.65000
H  11.00800 0.55700 20.41100
H  12.92400 -2.02900 26.70800
H  11.63800 -1.91600 25.57200
H  11.37200 -2.84600 27.10100
H  11.89700 1.02800 31.36900
H  9.17200 -0.66800 34.09900
H  10.53300 0.11300 35.08300
H  10.60300 -1.51900 34.66000
Mg -11.90300 38.99800 41.87400
C  -9.88000 36.14500 41.22400
C  -9.45100 41.03500 40.61700
C  -14.17100 41.51500 42.02800
C  -14.49400 36.68600 42.69400
N  -9.93600 38.62400 40.91100
C  -9.30700 37.39700 40.80200
C  -7.97000 37.61300 40.10300
C  -7.73000 39.13900 40.07100
C  -9.12500 39.69100 40.55100
C  -6.50900 39.77000 40.73600
C  -7.71600 36.74100 38.78400
C  -6.50700 35.72600 38.74500
H  -5.53500 35.99100 37.67100
N  -11.77000 41.06200 41.47700
C  -10.64100 41.72500 40.90700
C  -10.93300 43.12700 40.92900
C  -12.32900 43.28000 41.15700
C  -12.85400 41.94500 41.58900
C  -9.97600 44.17000 40.38500
C  -13.04200 44.61700 41.10500
O  -12.44900 45.65200 40.85800
C  -14.56400 44.72300 41.39000
N  -14.04600 39.05700 42.18600
C  -14.65400 40.20900 42.34200
C  -16.08900 40.03000 42.90900
C  -16.22000 38.52000 43.03800
C  -14.82300 38.05400 42.61100
C  -16.30700 40.95200 44.13400
C  -17.42500 37.96400 42.14100
C  -18.72200 37.43600 42.90300
N  -12.21900 36.86300 41.90500
C  -13.30900 36.10900 42.31400
C  -12.95300 34.75400 42.31600
C  -11.61500 34.70900 41.93000
C  -11.19600 36.00000 41.68600
C  -13.84200 33.66300 42.81500
C  -10.47800 33.87000 41.66600
O  -10.30500 32.64800 41.74100
C  -9.28400 34.83200 41.20200
C  -8.19300 34.65100 42.20800
O  -8.29000 34.80800 43.41800
O  -7.12200 34.05100 41.61000
C  -5.97300 33.99500 42.44900
H  -8.70500 41.65300 40.11400
H  -14.90600 42.31100 42.16400
H  -15.28400 36.06700 43.12600
H  -7.26600 37.17300 40.80900
H  -7.69500 39.32400 38.99700
H  -5.69900 39.09200 41.00300
H  -6.75700 40.24200 41.68600
H  -6.09300 40.61400 40.18500
H  -7.72700 37.36000 37.88600
H  -8.56200 36.06100 38.68400
H  -6.90300 34.72700 38.56200
H  -6.03000 35.76700 39.72400
H  -8.94500 43.84700 40.52900
H  -10.12900 45.15800 40.81800
H  -10.18800 44.22600 39.31700
H  -14.96000 43.87000 40.83800
H  -14.81000 45.66400 40.89900
H  -14.85500 44.82400 42.43600
H  -16.83200 40.31500 42.16400
H  -16.39700 38.37300 44.10300
H  -15.39700 41.43500 44.48800
H  -16.70400 40.33400 44.94000
H  -16.99300 41.79700 44.07600
H  -17.07500 37.10500 41.56900
H  -17.76100 38.60800 41.32800
H  -19.56500 37.94900 42.43800
H  -18.71600 37.65200 43.97100
H  -18.94800 36.38500 42.72600
H  -14.46300 33.97800 43.65400
H  -13.21700 32.78900 43.00200
H  -14.55000 33.45800 42.01300
H  -8.90200 34.46800 40.24800
H  -5.23000 34.63100 41.96700
H  -5.60000 32.97200 42.50600
H  -6.00200 34.24100 43.51000

