158

Mg 49.04400 35.75300 27.80000
C  46.80600 33.98600 29.97300
C  49.03300 38.38200 29.81400
C  50.52600 37.47500 25.44300
C  48.14100 33.22700 25.34900
N  48.08500 36.08600 29.69900
C  47.29600 35.20900 30.51200
C  47.48600 35.67600 31.96600
C  47.79200 37.26500 31.85200
C  48.29900 37.26500 30.35500
C  46.58300 38.17800 31.94400
C  48.64200 34.85100 32.63500
C  48.57400 34.74500 34.12400
H  47.94900 35.76100 35.09500
N  49.90500 37.58500 27.71900
C  49.87000 38.49900 28.66500
C  50.60500 39.63700 28.23800
C  51.02400 39.50800 26.90900
C  50.53900 38.12900 26.62700
C  50.93200 40.83900 29.20000
C  51.78400 40.46500 25.92100
O  52.12300 40.06500 24.79400
C  52.11600 41.88100 26.31900
N  49.35600 35.37400 25.74100
C  49.96400 36.27400 24.96400
C  50.01000 35.95900 23.45000
C  49.48200 34.42800 23.51200
C  48.90000 34.32800 24.95000
C  49.46200 36.96300 22.46500
C  50.69800 33.38000 23.22300
C  50.29000 32.35300 22.26700
N  47.86700 33.86100 27.69400
C  47.58700 33.01400 26.66600
C  46.70500 31.96500 27.04400
C  46.43000 32.29300 28.35000
C  47.13000 33.44500 28.69100
C  46.09200 30.80700 26.17600
C  45.53900 31.93000 29.48100
O  44.76900 30.96000 29.73800
C  45.71200 33.09700 30.56000
C  45.92000 32.60600 31.96400
O  46.90800 32.01000 32.41400
O  44.77800 33.00600 32.73500
C  44.77600 32.72200 34.19000
H  49.13200 39.34700 30.31400
H  51.04100 37.99700 24.63400
H  47.89500 32.36900 24.72100
H  46.58400 35.50200 32.55100
H  48.56600 37.71200 32.47500
H  46.71000 39.05200 32.58300
H  45.76500 37.52900 32.25500
H  46.42700 38.60100 30.95200
H  49.51100 35.46600 32.40100
H  48.80200 33.85800 32.21400
H  49.49500 34.45400 34.62800
H  47.84000 33.97400 34.35800
H  50.08000 41.50200 29.05100
H  51.86400 41.30500 28.87900
H  50.91000 40.62600 30.26900
H  52.22500 42.52600 25.44700
H  53.07800 41.98800 26.82000
H  51.28200 42.43800 26.74500
H  51.06200 35.97200 23.16600
H  48.69600 34.30000 22.76800
H  48.41200 37.16600 22.67700
H  49.67900 36.63100 21.44900
H  49.93200 37.91600 22.70800
H  51.16300 33.02400 24.14200
H  51.48900 33.99200 22.79000
H  50.97900 32.45200 21.42800
H  49.32800 32.49500 21.77600
H  50.28900 31.35400 22.70500
H  45.17600 30.40000 26.60300
H  46.90800 30.11300 25.97200
H  45.85400 31.20200 25.18800
H  44.84100 33.74700 30.48100
H  44.96600 31.66000 34.34400
H  43.76300 32.92800 34.53400
H  45.47500 33.31300 34.78200
Mg 5.97200 54.35100 40.81300
C  5.05100 51.01900 40.36600
C  9.11400 53.63100 39.39200
C  6.63500 57.55500 41.02500
C  2.58200 55.03700 41.85000
N  6.93600 52.56700 40.03800
C  6.38400 51.33600 39.89600
C  7.42000 50.30000 39.40500
C  8.81300 51.06000 39.52300
C  8.25700 52.49900 39.52100
C  9.56700 50.60700 40.81000
C  7.04700 49.99400 37.96300
C  7.67600 48.77800 37.28400
H  6.86300 48.13800 36.11100
N  7.55800 55.43100 40.22500
C  8.78200 54.96400 39.73900
C  9.63800 56.08300 39.53700
C  9.08900 57.23700 40.05800
C  7.69000 56.78600 40.48600
C  10.91900 56.00800 38.78400
C  9.72700 58.53300 40.09700
O  10.85700 58.71600 39.60800
C  9.07400 59.59000 40.79900
N  4.79100 56.06800 41.28200
C  5.33400 57.26300 41.39500
C  4.34600 58.37100 41.85400
C  3.03000 57.59200 41.88400
C  3.45600 56.10500 41.64200
C  4.64600 59.03400 43.27200
C  1.97900 57.96800 40.83200
C  0.93000 59.08200 41.20100
N  4.17200 53.26600 41.08200
C  2.94100 53.64400 41.58500
C  2.17800 52.44800 41.84800
C  3.00400 51.38500 41.34300
C  4.16100 51.91800 40.88800
C  0.85900 52.40000 42.50200
C  3.03300 49.94600 41.25300
O  2.31200 49.03800 41.65400
C  4.42500 49.70800 40.66300
C  4.36100 48.69200 39.56100
O  3.81400 48.75500 38.43900
O  5.09100 47.57800 39.98000
C  4.75200 46.35800 39.18100
H  10.16800 53.40500 39.21700
H  6.69200 58.64100 41.13400
H  1.62200 55.37000 42.25000
H  7.30400 49.39200 39.99600
H  9.36000 50.99200 38.58200
H  9.17900 49.72200 41.31300
H  9.45300 51.43400 41.51100
H  10.63200 50.60000 40.57500
H  7.26500 50.87500 37.35800
H  5.96800 49.90800 37.84000
H  8.00000 48.04400 38.02200
H  8.55000 49.18900 36.77700
H  11.79000 56.13900 39.42600
H  10.93300 56.83800 38.07700
H  11.01000 55.07200 38.23300
H  8.28700 59.97800 40.15200
H  9.72000 60.38200 41.17700
H  8.69200 59.02100 41.64700
H  4.55500 59.14700 41.11800
H  2.56000 57.58500 42.86700
H  3.66300 59.33100 43.63900
H  5.15500 59.94400 42.95300
H  5.35100 58.55800 43.95300
H  1.40600 57.16800 40.36400
H  2.56100 58.36200 39.99900
H  0.94100 59.79600 40.37700
H  1.26800 59.54900 42.12600
H  -0.06800 58.67000 41.35300
H  0.15700 52.32200 41.67200
H  0.66600 53.31900 43.05500
H  0.94300 51.48100 43.08300
H  5.05300 49.27400 41.44100
H  3.70000 46.08200 39.25100
H  5.38900 45.58400 39.61000
H  5.01300 46.51600 38.13400

