158

Mg 47.31900 25.48900 28.78200
C  48.10000 27.80500 31.30600
C  46.05200 23.47900 31.19700
C  46.77700 23.38500 26.41500
C  49.12900 27.51500 26.45400
N  47.04900 25.69200 31.05800
C  47.48100 26.70400 31.86900
C  47.05100 26.47200 33.37200
C  46.60900 24.88000 33.31900
C  46.53700 24.66800 31.76700
C  47.65700 23.92600 34.05100
C  45.90900 27.48000 33.73800
C  45.74400 27.86400 35.19500
H  46.24600 26.94700 36.24500
N  46.53200 23.67700 28.81000
C  46.05100 23.00200 29.89700
C  45.45300 21.74200 29.45200
C  45.66900 21.69200 28.06100
C  46.35800 22.95400 27.71100
C  44.82500 20.67200 30.28900
C  45.17100 20.65000 27.08600
O  45.28100 20.83300 25.92700
C  44.44700 19.40100 27.49000
N  47.71400 25.49600 26.71900
C  47.46400 24.44900 26.00900
C  48.17900 24.54700 24.61700
C  48.50800 26.06300 24.48400
C  48.47700 26.38100 26.00700
C  49.38500 23.55200 24.53000
C  47.56000 26.91200 23.66100
C  47.83300 28.47000 23.62400
N  48.37400 27.22900 28.79000
C  49.04900 27.99000 27.76800
C  49.49000 29.28200 28.29400
C  49.10300 29.25500 29.68000
C  48.50700 27.99800 29.95100
C  50.23000 30.35900 27.51200
C  49.17100 30.03400 30.93700
O  49.62900 31.09100 31.28000
C  48.57200 29.02700 31.97900
C  49.56400 28.81400 33.06600
O  50.70800 28.32400 32.93000
O  48.97800 29.23900 34.23900
C  49.88400 29.30400 35.42300
H  45.70600 22.74500 31.92800
H  46.54000 22.75700 25.55400
H  49.75800 28.03200 25.72700
H  47.95400 26.66400 33.95000
H  45.58800 24.76600 33.68400
H  47.97400 23.22100 33.28200
H  47.14500 23.33800 34.81300
H  48.40800 24.61500 34.43600
H  45.00000 27.06100 33.30700
H  46.09800 28.39100 33.17000
H  44.73100 28.26400 35.24200
H  46.38300 28.74100 35.29400
H  43.77000 20.46100 30.11400
H  44.77400 21.05400 31.30900
H  45.39500 19.75900 30.11400
H  45.16300 18.98100 28.19700
H  44.27800 18.77600 26.61200
H  43.48600 19.68300 27.91900
H  47.39800 24.28100 23.90500
H  49.52200 26.24500 24.12800
H  49.18500 22.87700 23.69800
H  49.41800 22.93300 25.42700
H  50.32500 24.10200 24.47200
H  46.58900 26.70900 24.11200
H  47.71300 26.59100 22.63000
H  48.91400 28.56600 23.72300
H  47.24500 28.86900 24.45100
H  47.41200 28.93200 22.73100
H  50.94100 29.72700 26.98100
H  50.74300 31.05800 28.17400
H  49.51100 30.86500 26.86800
H  47.74100 29.50500 32.49700
H  49.29500 29.02800 36.29700
H  50.21100 30.33800 35.53500
H  50.78500 28.69000 35.40100
Mg 10.17700 47.60800 26.34400
C  8.44800 47.75100 29.48400
C  12.63200 49.43000 27.89800
C  11.72800 47.77800 23.42300
C  7.10600 46.99800 24.77900
N  10.54900 48.37800 28.40800
C  9.71200 48.28600 29.52600
C  10.38500 48.67400 30.85600
C  11.61400 49.52600 30.30500
C  11.58600 49.18200 28.78200
C  11.39800 51.04500 30.46300
C  10.85400 47.40000 31.69300
C  10.27300 47.45500 33.17500
H  10.39300 46.23400 34.06200
N  12.03900 48.23400 25.77700
C  12.90800 48.93500 26.58700
C  14.14000 48.99200 25.92000
C  13.92000 48.56300 24.58400
C  12.49200 48.20400 24.51700
C  15.45800 49.49900 26.50900
C  14.83500 48.19200 23.47400
O  14.52600 47.52200 22.47700
C  16.34600 48.52700 23.56200
N  9.54400 47.42700 24.33300
C  10.34000 47.37700 23.30100
C  9.57700 47.09800 21.95500
C  8.14300 46.75900 22.46200
C  8.23700 47.06500 23.98000
C  9.72100 48.21000 20.93100
C  7.41800 45.44000 22.15000
C  7.97600 44.15700 22.93800
N  8.21200 47.37700 27.02500
C  7.07600 47.04500 26.28600
C  5.95600 46.69400 27.13400
C  6.45700 46.94900 28.43100
C  7.77500 47.41100 28.30400
C  4.64400 46.10700 26.62400
C  6.11800 46.89200 29.75500
O  4.99800 46.68600 30.23600
C  7.42500 47.36000 30.58800
C  7.75500 46.16400 31.38600
O  8.43900 45.22000 31.09400
O  7.01900 46.23800 32.54300
C  6.80800 45.01800 33.39500
H  13.47000 50.00900 28.29000
H  12.21400 47.87300 22.44900
H  6.13900 46.95000 24.27400
H  9.71300 49.24400 31.49800
H  12.55200 49.38100 30.84100
H  10.71100 51.34100 31.25600
H  10.88500 51.48700 29.60900
H  12.34300 51.57800 30.57100
H  11.94200 47.37900 31.63500
H  10.57900 46.51900 31.11200
H  9.22800 47.69600 32.97900
H  10.82100 48.20700 33.74300
H  15.41900 49.76800 27.56500
H  15.76300 50.35800 25.91000
H  16.27300 48.81700 26.26600
H  16.78100 48.38600 22.57300
H  16.81300 47.90500 24.32700
H  16.35000 49.58300 23.82900
H  10.04600 46.16800 21.63500
H  7.50100 47.49100 21.97200
H  10.78000 48.43900 20.80700
H  9.27900 49.10500 21.36700
H  9.19100 47.91900 20.02400
H  7.59800 45.31100 21.08300
H  6.33100 45.39000 22.21900
H  8.52400 44.46300 23.83000
H  8.55200 43.57200 22.22100
H  7.09800 43.55700 23.17500
H  4.75200 45.34700 25.85100
H  4.07900 46.92500 26.17600
H  3.92300 45.79500 27.38000
H  7.20000 48.14200 31.31300
H  5.77100 44.72200 33.24200
H  6.93700 45.31800 34.43500
H  7.52800 44.22700 33.18400

