158

Mg 48.26200 16.60400 28.33200
C  46.10100 16.57300 31.19900
C  50.44300 18.62400 30.14300
C  50.11300 16.78100 25.52400
C  45.68700 15.09900 26.59000
N  48.24900 17.52900 30.42100
C  47.36400 17.21700 31.45400
C  47.89200 17.67300 32.81200
C  49.13200 18.58100 32.37600
C  49.31100 18.17400 30.88900
C  48.97700 20.15200 32.56400
C  48.46900 16.46700 33.62000
C  48.03000 16.36400 35.10800
H  47.57000 17.65200 35.80000
N  50.10800 17.58100 27.87500
C  50.86400 18.35700 28.78400
C  52.05700 18.73400 28.07700
C  51.99400 18.16500 26.75100
C  50.67900 17.53300 26.61400
C  53.09000 19.44100 28.76900
C  53.08100 18.14000 25.63700
O  52.87400 17.63400 24.53400
C  54.44700 18.61000 25.99600
N  47.91700 16.10700 26.34700
C  48.92000 16.10400 25.46400
C  48.52100 15.44400 24.14000
C  47.06000 15.03100 24.37300
C  46.85500 15.40800 25.87000
C  48.49700 16.55300 23.04400
C  46.68700 13.51700 23.92900
C  45.47000 13.43900 22.95500
N  46.36600 15.90000 28.77200
C  45.39300 15.29100 27.98900
C  44.20200 15.00700 28.68700
C  44.44300 15.44000 29.98800
C  45.73100 15.98900 29.99900
C  43.01400 14.30500 28.05200
C  43.95600 15.51300 31.32900
O  42.93300 15.05700 31.74900
C  45.04200 16.36100 32.23200
C  44.46400 17.61500 32.85700
O  44.43800 18.70000 32.28500
O  43.99400 17.27100 34.02800
C  42.71600 17.80700 34.50400
H  51.19000 19.13400 30.75400
H  50.77100 16.66400 24.66000
H  44.99600 14.48800 26.00600
H  47.11500 18.20600 33.36000
H  50.11600 18.41700 32.81500
H  49.68900 20.68200 33.19500
H  47.99400 20.37200 32.98000
H  48.99300 20.61700 31.57800
H  49.55600 16.51000 33.55700
H  48.01800 15.55100 33.23900
H  48.91100 16.10300 35.69400
H  47.28200 15.57100 35.08800
H  53.97400 18.82000 28.91300
H  52.85100 19.92500 29.71700
H  53.42600 20.14900 28.01200
H  54.45600 19.69900 26.04000
H  55.01200 18.45600 25.07700
H  54.92700 18.17800 26.87500
H  49.17000 14.58000 23.99200
H  46.32700 15.63600 23.83900
H  48.89300 17.54300 23.27000
H  47.53600 16.66200 22.54200
H  49.12400 16.08600 22.28500
H  46.43200 12.91200 24.79900
H  47.56700 13.05000 23.48700
H  45.80000 13.52500 21.92000
H  44.72100 14.19300 23.20000
H  45.02100 12.44700 22.99200
H  43.55100 13.40200 27.76200
H  42.74200 14.75000 27.09500
H  42.15400 14.17400 28.70800
H  45.38600 15.72200 33.04600
H  42.94200 18.49800 35.31500
H  42.03400 17.03400 34.85900
H  42.16100 18.29100 33.70100
Mg -5.65600 25.85000 26.20200
C  -4.30600 26.98500 29.28400
C  -7.82200 23.82800 28.13800
C  -6.54400 24.36800 23.36100
C  -3.20800 27.75900 24.50800
N  -6.03800 25.41100 28.40900
C  -5.31800 25.97800 29.43000
C  -5.83800 25.59000 30.79800
C  -6.87200 24.44400 30.42500
C  -6.99400 24.63800 28.87600
C  -6.43900 23.00200 30.73000
C  -6.48500 26.86700 31.49400
C  -6.42700 27.13400 32.98400
H  -6.17700 25.88500 33.90400
N  -7.04400 24.34900 25.81400
C  -7.80400 23.62700 26.76200
C  -8.64100 22.64800 25.99000
C  -8.23500 22.78700 24.58800
C  -7.22800 23.83700 24.54400
C  -9.51500 21.71600 26.69100
C  -8.80400 22.02700 23.33300
O  -8.34100 22.20500 22.19800
C  -9.85900 20.93500 23.45600
N  -4.90600 26.01900 24.23800
C  -5.57200 25.40500 23.25900
C  -4.94300 25.74700 21.82700
C  -4.03600 26.93700 22.23400
C  -3.98100 26.84700 23.74600
C  -4.20100 24.51500 21.20800
C  -4.64700 28.30300 21.84100
C  -3.66100 29.48500 21.69200
N  -4.10900 27.12800 26.72800
C  -3.18300 27.82200 25.93000
C  -2.32800 28.64500 26.77700
C  -2.75200 28.27800 28.13400
C  -3.82200 27.45600 28.02500
C  -1.15200 29.50900 26.37100
C  -2.44000 28.54000 29.53400
O  -1.63600 29.35300 30.03200
C  -3.48100 27.78700 30.32500
C  -2.66200 26.99100 31.34600
O  -2.28900 25.82000 31.16600
O  -2.69400 27.61900 32.53200
C  -2.14600 26.81600 33.64000
H  -8.65200 23.39900 28.70200
H  -6.70600 23.91900 22.37900
H  -2.59200 28.55600 24.08500
H  -5.02500 25.13900 31.36700
H  -7.85100 24.64700 30.85900
H  -5.63900 22.98300 31.47000
H  -6.10200 22.64000 29.75900
H  -7.27100 22.43900 31.15300
H  -7.48900 26.89500 31.06900
H  -6.04300 27.73800 31.01100
H  -7.37100 27.58500 33.29000
H  -5.64200 27.87800 33.12200
H  -10.55300 22.04300 26.62500
H  -9.39300 21.56200 27.76300
H  -9.29900 20.71200 26.32800
H  -10.36400 20.95100 22.49000
H  -10.60400 21.14000 24.22500
H  -9.36300 19.98900 23.67000
H  -5.77600 26.06500 21.20100
H  -3.06600 26.83700 21.74700
H  -4.16500 23.75700 21.99000
H  -3.16600 24.81100 21.03700
H  -4.68400 24.12600 20.31100
H  -5.36900 28.32600 22.65700
H  -5.23800 28.23900 20.92700
H  -3.87600 30.13200 22.54300
H  -4.00900 30.00800 20.80100
H  -2.60100 29.24200 21.62600
H  -1.44000 30.50700 26.70300
H  -1.05400 29.30900 25.30400
H  -0.26200 29.20400 26.92100
H  -4.08100 28.49500 30.89700
H  -1.11300 26.56900 33.39200
H  -2.62000 25.84000 33.74400
H  -2.21100 27.35100 34.58700

