158

Mg 41.77200 40.49400 26.90800
C  41.02200 42.77300 29.56400
C  42.96700 38.39200 29.34600
C  42.68700 38.47100 24.39600
C  41.32400 43.06800 24.60700
N  42.05400 40.64400 29.16300
C  41.53900 41.57200 30.07500
C  41.56000 41.15400 31.56100
C  42.19300 39.73400 31.30400
C  42.54000 39.60500 29.86800
C  43.33200 39.38000 32.28000
C  40.22400 41.22000 32.33000
C  40.27000 41.71600 33.81200
H  39.65000 40.84200 34.95600
N  42.73000 38.69400 26.84600
C  43.08100 37.92200 27.98300
C  43.64500 36.69000 27.48900
C  43.63000 36.69200 26.13500
C  43.01500 37.99400 25.71000
C  44.15200 35.56000 28.44200
C  43.97900 35.58100 25.09300
O  43.79800 35.64400 23.90600
C  44.51700 34.26000 25.57500
N  42.19000 40.83600 24.84100
C  42.31800 39.79500 24.02900
C  42.12000 40.06200 22.54800
C  41.73000 41.57500 22.57300
C  41.78700 41.86300 24.11500
C  43.31400 39.66400 21.53900
C  40.37200 41.90400 21.82300
C  39.00600 41.66200 22.44900
N  41.19200 42.51200 26.95900
C  41.01300 43.39800 25.94500
C  40.44100 44.61900 26.55900
C  40.44400 44.41700 27.91100
C  40.96200 43.11300 28.17500
C  40.13100 45.89800 25.83800
C  40.12400 45.04200 29.13600
O  39.73800 46.19600 29.35000
C  40.42200 43.99100 30.22700
C  41.28500 44.66000 31.16100
O  42.35000 45.25400 30.90600
O  40.87100 44.49300 32.44300
C  41.68200 45.11900 33.52300
H  43.23300 37.61200 30.06300
H  42.69900 37.81200 23.52500
H  41.06300 43.84700 23.88800
H  42.30000 41.83400 31.98300
H  41.47200 38.97200 31.60200
H  43.33700 40.00700 33.17100
H  44.31000 39.40300 31.79800
H  43.23100 38.36400 32.66100
H  39.92400 40.18000 32.45200
H  39.41700 41.63500 31.72700
H  39.68600 42.63100 33.70900
H  41.24400 42.13200 34.07100
H  45.21000 35.49500 28.19100
H  43.61300 34.63800 28.22400
H  44.14700 35.83000 29.49800
H  45.36500 34.22600 26.26000
H  44.68400 33.78300 24.60900
H  43.64900 33.75200 25.99500
H  41.21000 39.57500 22.19700
H  42.56200 42.15300 22.17000
H  43.71200 40.47900 20.93400
H  42.88000 38.87900 20.91900
H  44.04200 39.37200 22.29600
H  40.29200 41.18700 21.00600
H  40.46000 42.92300 21.44900
H  38.68700 42.63800 22.81700
H  39.15000 40.89800 23.21200
H  38.27300 41.21900 21.77500
H  39.44700 45.54000 25.06900
H  41.02500 46.27700 25.34400
H  39.72200 46.67100 26.49000
H  39.51100 43.62200 30.69700
H  41.01800 45.62400 34.22400
H  42.36900 45.91600 33.23800
H  42.13300 44.26200 34.02400
Mg 30.09400 56.45500 41.11400
C  27.01300 55.28400 39.81900
C  31.60500 53.73300 39.61500
C  33.02600 57.96100 41.44600
C  28.45300 59.40300 41.94300
N  29.33300 54.67100 39.99600
C  28.13100 54.46100 39.48900
C  27.99700 53.24600 38.56800
C  29.29500 52.53300 38.98400
C  30.18800 53.69000 39.69000
C  29.19000 51.25400 39.88700
C  27.92600 53.51100 37.00800
C  27.85500 54.87500 36.49400
H  27.08600 55.22600 35.23500
N  32.10000 55.93000 40.59500
C  32.50000 54.77300 40.02600
C  33.83300 54.86700 39.63500
C  34.36100 56.06600 40.22700
C  33.19200 56.71900 40.82800
C  34.43100 53.82600 38.69300
C  35.82300 56.59500 40.03400
O  36.66900 55.96600 39.35100
C  36.23900 57.94200 40.54200
N  30.65100 58.38300 41.64800
C  31.98800 58.71900 41.85800
C  32.11500 60.24400 42.26600
C  30.62900 60.60500 42.68800
C  29.87500 59.40300 42.03600
C  33.13700 60.48600 43.46600
C  30.20800 61.96300 42.20300
C  29.16000 62.83100 43.04500
N  28.08800 57.19900 41.04100
C  27.57300 58.38000 41.49400
C  26.16900 58.33700 41.29700
C  25.92000 57.13400 40.64400
C  27.12600 56.44900 40.51700
C  25.27500 59.50400 41.56800
C  24.84800 56.34000 40.19400
O  23.66300 56.48400 40.21300
C  25.46400 55.09800 39.53100
C  24.87700 53.93600 40.12200
O  25.25200 53.30600 41.08900
O  23.90600 53.49100 39.27300
C  23.26400 52.18700 39.59300
H  32.09600 52.79800 39.33900
H  33.96300 58.50600 41.57700
H  28.08200 60.38300 42.25000
H  27.13200 52.62300 38.79600
H  30.00000 52.26800 38.19700
H  29.77800 51.43400 40.78800
H  29.69400 50.44300 39.36200
H  28.15300 51.00400 40.11500
H  27.03200 52.99100 36.66300
H  28.71900 53.13900 36.36000
H  28.89600 55.15800 36.33700
H  27.66900 55.70500 37.17500
H  33.97300 54.04700 37.72900
H  34.26000 52.77700 38.93800
H  35.51600 53.85500 38.58800
H  35.70200 58.69800 39.96800
H  37.27900 58.05100 40.23500
H  36.19400 57.99800 41.63000
H  32.21800 60.71300 41.28700
H  30.32900 60.46400 43.72600
H  33.69300 59.57200 43.67000
H  32.70400 60.88900 44.38200
H  33.73400 61.32700 43.11500
H  29.84600 61.76200 41.19500
H  31.11600 62.54900 42.06500
H  29.69100 63.69000 43.45600
H  28.68300 62.22900 43.81800
H  28.35400 63.13500 42.37700
H  24.74500 59.67500 40.63100
H  25.74700 60.41900 41.92500
H  24.58000 59.27100 42.37600
H  25.30400 55.12200 38.45300
H  23.93100 51.50500 40.12000
H  22.81600 51.76700 38.69300
H  22.41000 52.46900 40.20900

