158

Mg -1.67200 17.61200 26.69600
C  -2.06600 15.31900 29.21600
C  -2.16400 20.25600 28.98200
C  -1.94500 19.83700 24.04400
C  -2.19700 15.01200 24.32000
N  -2.03300 17.71600 28.86600
C  -2.09300 16.66600 29.67600
C  -2.13500 17.10300 31.16600
C  -2.28600 18.70600 31.03400
C  -2.23200 18.87300 29.55200
C  -3.32300 19.37300 31.86700
C  -0.85400 16.70900 32.00200
C  -0.40700 17.66400 33.22900
H  -0.00600 16.98400 34.44000
N  -1.87600 19.68900 26.55100
C  -2.06600 20.60100 27.59300
C  -2.09300 21.97300 27.06000
C  -2.11900 21.81500 25.66800
C  -2.01800 20.39200 25.37400
C  -2.29200 23.21600 27.92000
C  -2.32400 22.89500 24.59200
O  -2.44500 22.65500 23.37600
C  -2.27600 24.33200 25.05800
N  -1.88100 17.47500 24.45100
C  -1.96100 18.56200 23.61700
C  -1.88700 18.03700 22.14900
C  -2.01200 16.50000 22.27700
C  -2.08500 16.28700 23.76300
C  -2.82700 18.65300 21.09400
C  -0.96900 15.59000 21.44700
C  -1.43900 14.90300 20.15400
N  -1.96900 15.62400 26.73100
C  -2.17000 14.69600 25.72600
C  -2.25100 13.36000 26.24600
C  -2.15300 13.53100 27.66600
C  -2.09000 14.91400 27.85600
C  -2.55500 12.09800 25.50300
C  -2.20100 12.87000 28.97000
O  -2.24700 11.66600 29.21900
C  -2.19900 14.05700 30.05600
C  -1.16400 13.81300 31.09900
O  0.04700 13.91700 31.02300
O  -1.82200 13.35700 32.25900
C  -0.92900 12.65200 33.24700
H  -2.35700 21.11700 29.62500
H  -1.88000 20.52500 23.19800
H  -2.35800 14.20700 23.59900
H  -2.98500 16.62200 31.65000
H  -1.31600 19.15200 31.25600
H  -4.04800 19.89900 31.24500
H  -2.82600 20.00900 32.60000
H  -3.82500 18.62900 32.48400
H  0.07800 16.55200 31.45900
H  -1.22700 15.86600 32.58200
H  -1.23500 18.32600 33.48300
H  0.47700 18.21800 32.91400
H  -1.49200 23.93300 27.73400
H  -2.30200 23.15300 29.00800
H  -3.21800 23.73900 27.68200
H  -3.24600 24.73100 25.35400
H  -2.09500 24.82600 24.10400
H  -1.47000 24.36800 25.79200
H  -0.83900 18.14600 21.86900
H  -3.03000 16.24600 21.97900
H  -2.71300 19.73200 20.98500
H  -3.86700 18.38200 21.27500
H  -2.54100 18.20600 20.14200
H  -0.47700 14.87000 22.10200
H  -0.08000 16.13000 21.12300
H  -1.40100 13.83200 20.35400
H  -0.72900 15.20300 19.38300
H  -2.43600 15.17600 19.80800
H  -3.36900 12.37600 24.83300
H  -2.79800 11.33400 26.24100
H  -1.64800 11.92000 24.92500
H  -3.11800 14.03900 30.64300
H  0.15000 12.58700 33.11000
H  -1.26500 11.61900 33.33200
H  -1.06500 13.15100 34.20700
Mg 25.39400 -7.26800 47.94600
C  27.54200 -4.95300 46.51300
C  23.10700 -6.67600 45.47700
C  23.60800 -10.09300 48.83700
C  28.11000 -8.40700 49.88000
N  25.52900 -6.05100 46.10800
C  26.36800 -5.02800 45.83700
C  25.85300 -4.09000 44.77100
C  24.34100 -4.64100 44.57100
C  24.33700 -5.96700 45.35700
C  23.25400 -3.72500 45.19600
C  26.70600 -4.13700 43.49400
C  26.80900 -2.75200 42.79500
H  26.41600 -2.72700 41.31300
N  23.51800 -8.14700 47.41100
C  22.68900 -7.62700 46.42800
C  21.46100 -8.30300 46.40700
C  21.54200 -9.40000 47.28400
C  22.96300 -9.26500 47.92700
C  20.34800 -7.93000 45.44700
C  20.57700 -10.42900 47.49900
O  19.53900 -10.38700 46.89600
C  20.61600 -11.55300 48.49300
N  25.82800 -8.99400 49.20600
C  24.87200 -9.94200 49.46700
C  25.34200 -10.93100 50.50700
C  26.76700 -10.39600 50.91000
C  26.97000 -9.22000 49.91300
C  24.28300 -11.12600 51.67800
C  27.85300 -11.53300 50.72500
C  28.34500 -11.82200 49.30000
N  27.37000 -6.71100 48.33800
C  28.33300 -7.20900 49.16000
C  29.47300 -6.32700 49.16900
C  29.12000 -5.38300 48.19100
C  27.89700 -5.72000 47.65200
C  30.71000 -6.47500 50.04400
C  29.60200 -4.16400 47.48000
O  30.63300 -3.51800 47.70600
C  28.64600 -3.90700 46.32800
C  28.17800 -2.48700 46.49700
O  28.65500 -1.52800 45.86600
O  27.14100 -2.31600 47.38100
C  26.57900 -0.94700 47.52000
H  22.32400 -6.31800 44.80500
H  22.93700 -10.86800 49.21400
H  28.94900 -8.78500 50.46700
H  25.83300 -3.09200 45.20900
H  24.15900 -4.78300 43.50600
H  23.56700 -2.68100 45.17500
H  22.90800 -3.92400 46.21000
H  22.34900 -3.95500 44.63500
H  26.32900 -4.84900 42.76000
H  27.73300 -4.31600 43.81400
H  27.85000 -2.44100 42.88200
H  26.22600 -2.04800 43.38900
H  19.40400 -8.41600 45.69300
H  20.62800 -8.13800 44.41400
H  20.12000 -6.86600 45.50200
H  21.44900 -12.25000 48.40100
H  19.73000 -12.11400 48.19500
H  20.58700 -11.16400 49.51100
H  25.46300 -11.96400 50.18200
H  26.71500 -10.06500 51.94700
H  24.64700 -11.08000 52.70500
H  23.69800 -12.01300 51.43700
H  23.56800 -10.30400 51.63200
H  27.36700 -12.46200 51.02300
H  28.64800 -11.15700 51.37000
H  29.43300 -11.79700 49.23900
H  27.92400 -11.11300 48.58700
H  28.06200 -12.85800 49.11700
H  30.60600 -5.79300 50.88800
H  31.36100 -6.15700 49.23000
H  30.99400 -7.51500 50.20400
H  29.15900 -4.00000 45.37100
H  25.63100 -0.94700 46.98100
H  27.28500 -0.17200 47.22200
H  26.28700 -0.76600 48.55400

