158

Mg -0.41800 7.56600 26.16200
C  0.48900 9.53500 28.87900
C  -0.22000 4.78300 28.17900
C  -0.66000 5.56300 23.39500
C  0.07000 10.34100 24.07200
N  0.04400 7.24200 28.31700
C  0.30500 8.20500 29.18900
C  0.35400 7.60700 30.68000
C  0.35000 6.00800 30.39400
C  -0.04300 6.00200 28.83300
C  1.73100 5.34100 30.65400
C  -0.89200 8.19900 31.41400
C  -1.04200 7.80300 32.87300
H  0.25800 7.62700 33.79100
N  -0.40500 5.40900 25.84000
C  -0.27800 4.50400 26.80900
C  -0.38300 3.17600 26.26900
C  -0.57700 3.32800 24.81800
C  -0.61400 4.81800 24.61600
C  -0.29300 1.88400 27.12300
C  -0.78200 2.17900 23.74200
O  -1.03800 2.42800 22.55600
C  -0.74500 0.77900 24.19500
N  -0.43900 7.85400 24.10600
C  -0.60200 6.90600 23.14800
C  -0.60100 7.45800 21.73500
C  -0.74400 9.05300 21.99800
C  -0.32600 9.14700 23.49400
C  0.77300 7.09400 20.97000
C  -2.15800 9.56100 21.64300
C  -2.33800 10.30600 20.38000
N  -0.00100 9.54300 26.39000
C  0.22000 10.57500 25.46800
C  0.70700 11.78100 26.18900
C  0.68400 11.32400 27.48600
C  0.42700 9.96500 27.59700
C  0.94300 13.13500 25.58400
C  0.96600 11.87100 28.82900
O  1.38800 12.99600 29.11600
C  0.69400 10.74100 29.80400
C  1.96700 10.57700 30.61400
O  2.90700 9.86100 30.31500
O  1.88700 11.35200 31.75200
C  3.18500 11.51700 32.42200
H  -0.15100 3.94800 28.88000
H  -0.72500 4.83500 22.58300
H  0.30000 11.23200 23.48400
H  1.25700 7.85900 31.23600
H  -0.40400 5.52600 31.01600
H  2.56300 6.03700 30.55100
H  2.02000 4.62300 29.88600
H  1.75900 4.93600 31.66500
H  -1.78800 7.80300 30.93600
H  -0.98200 9.27800 31.28700
H  -1.71800 6.94800 32.84900
H  -1.63300 8.50700 33.45900
H  0.63900 1.38600 26.85600
H  -1.10400 1.18300 26.92800
H  -0.41000 2.11700 28.18200
H  -0.69500 0.08800 23.35300
H  -1.69300 0.65000 24.71700
H  0.17100 0.63800 24.76900
H  -1.53500 7.19700 21.23900
H  0.12600 9.30600 21.39200
H  1.61100 7.06100 21.66600
H  1.02900 7.90300 20.28400
H  0.45300 6.12600 20.58400
H  -2.28400 10.27400 22.45800
H  -2.91400 8.78800 21.78400
H  -1.41000 10.31000 19.80700
H  -2.57100 11.35000 20.59000
H  -3.08400 9.81700 19.75400
H  1.84300 13.44500 26.11600
H  0.10800 13.75400 25.91100
H  1.10200 13.11000 24.50600
H  -0.14700 11.05600 30.42200
H  4.03000 11.68300 31.75500
H  3.38600 10.60300 32.98100
H  3.20700 12.36200 33.11000
Mg 43.35900 41.99500 26.71000
C  42.52300 44.41400 29.17400
C  44.03000 39.83200 29.26800
C  44.41200 39.99700 24.37200
C  43.00000 44.63900 24.37400
N  43.33100 42.12500 28.93700
C  42.88000 43.17300 29.72500
C  42.74300 42.71300 31.19400
C  43.50600 41.35500 31.17400
C  43.56000 41.06800 29.66900
C  44.90500 41.50800 31.89600
C  41.18900 42.64500 31.66800
C  40.85400 43.53800 32.84200
H  39.95800 43.12800 33.97500
N  44.06700 40.08300 26.79400
C  44.31200 39.33600 27.88900
C  44.66100 38.02200 27.50400
C  44.82700 38.04500 26.09900
C  44.41500 39.39700 25.67700
C  44.94500 36.91500 28.50600
C  45.30000 36.91700 25.17600
O  45.35900 37.06200 24.00400
C  45.83400 35.60700 25.80600
N  43.59100 42.29700 24.65100
C  44.01300 41.21400 23.84400
C  43.98600 41.58500 22.32400
C  43.71000 43.16600 22.44100
C  43.34800 43.37800 23.92700
C  45.18900 41.22300 21.41600
C  42.59400 43.53600 21.49100
C  42.85800 44.75800 20.62700
N  42.88500 44.13500 26.73600
C  42.81100 45.03500 25.67100
C  42.41500 46.33300 26.27100
C  42.22600 46.09800 27.65500
C  42.60300 44.79000 27.88500
C  42.15000 47.57300 25.61200
C  41.80400 46.69400 28.91000
O  41.35900 47.81800 29.23500
C  42.01500 45.62000 29.98800
C  43.00000 46.14300 30.91700
O  44.13100 46.45700 30.57400
O  42.47900 46.32700 32.13800
C  43.32900 47.05500 33.11800
H  44.24100 39.16400 30.10600
H  44.84000 39.37200 23.58500
H  42.84500 45.37900 23.58600
H  43.24700 43.44500 31.82500
H  42.93500 40.59200 31.70200
H  44.93300 40.80000 32.72500
H  44.96300 42.54600 32.22400
H  45.79300 41.38500 31.27600
H  40.97700 41.61000 31.93900
H  40.52000 42.73300 30.81300
H  40.54400 44.46100 32.35200
H  41.78500 43.79800 33.34500
H  46.00600 36.68800 28.40500
H  44.33600 36.02600 28.34300
H  44.85000 37.17000 29.56200
H  46.09700 34.94400 24.98200
H  44.99500 35.07800 26.25900
H  46.71500 35.80200 26.41700
H  43.12800 41.02100 21.95800
H  44.67400 43.66600 22.34200
H  46.13400 41.08800 21.94300
H  45.31800 42.13300 20.83100
H  44.85500 40.43500 20.74100
H  41.67800 43.65400 22.06900
H  42.24300 42.69300 20.89600
H  43.87000 45.16100 20.65500
H  42.30800 45.56600 21.11100
H  42.67000 44.62100 19.56200
H  41.10100 47.58000 25.31600
H  42.74800 47.48700 24.70500
H  42.38100 48.44600 26.22300
H  41.10000 45.28300 30.47500
H  43.33100 46.54200 34.07900
H  42.91500 48.06100 33.18900
H  44.38700 47.20600 32.90300

