158

Mg 44.23400 4.53600 48.70800
C  41.96800 7.05300 47.82200
C  41.48300 2.24500 48.23400
C  46.35100 2.01600 48.76800
C  46.81800 6.83700 48.41500
N  41.92500 4.63400 48.00600
C  41.31400 5.80100 47.81500
C  39.84100 5.56700 47.40800
C  39.64200 4.07900 47.92400
C  41.12200 3.58900 48.12200
C  38.81800 3.89500 49.27000
C  39.65900 5.69200 45.87400
C  38.52500 6.58700 45.36300
H  37.80200 6.14900 44.14700
N  43.98800 2.41400 48.60100
C  42.78200 1.69600 48.44700
C  43.08600 0.26500 48.43900
C  44.52200 0.19000 48.63600
C  45.02600 1.55600 48.67400
C  41.93400 -0.71300 48.30400
C  45.22200 -1.11400 48.73400
O  44.69400 -2.22800 48.57200
C  46.67600 -1.09200 49.27200
N  46.29800 4.49800 48.59900
C  46.94900 3.25300 48.79900
C  48.43700 3.46300 49.07800
C  48.60900 5.01500 49.17000
C  47.21800 5.50200 48.70400
C  48.98400 2.76800 50.32400
C  49.82700 5.58100 48.41500
C  50.61000 6.68800 49.16600
N  44.40000 6.56400 48.27400
C  45.53000 7.41700 48.13800
C  45.20400 8.76200 47.88200
C  43.77800 8.69300 47.81500
C  43.39700 7.30800 47.93100
C  46.24000 9.88500 47.74600
C  42.53500 9.49800 47.68300
O  42.37800 10.71000 47.59800
C  41.38500 8.38300 47.55800
C  40.35100 8.70400 48.64000
O  40.34100 8.21500 49.77200
O  39.47600 9.63100 48.14800
C  38.58200 10.06500 49.17100
H  40.56700 1.65100 48.23800
H  47.07200 1.19700 48.79900
H  47.45400 7.72300 48.46300
H  39.12100 6.23300 47.88200
H  39.06600 3.43600 47.25800
H  39.48900 3.60300 50.07800
H  38.05400 3.12400 49.16400
H  38.31800 4.83300 49.51300
H  39.45200 4.70100 45.47000
H  40.56600 6.01800 45.36600
H  39.02700 7.54500 45.23100
H  37.67900 6.74800 46.03100
H  41.40200 -0.82900 49.24800
H  42.28500 -1.64700 47.86500
H  41.16100 -0.31100 47.64900
H  47.45100 -0.74200 48.59100
H  46.95600 -2.04700 49.71700
H  46.63500 -0.37700 50.09400
H  48.94900 3.18500 48.15600
H  48.71600 5.32000 50.21100
H  48.12500 2.26100 50.76300
H  49.48400 3.44500 51.01700
H  49.68100 2.00100 49.98600
H  49.36800 6.10800 47.57800
H  50.49000 4.82100 48.00000
H  49.99900 6.93000 50.03600
H  50.56200 7.59800 48.56900
H  51.64400 6.45500 49.41900
H  45.64400 10.79700 47.74500
H  46.74600 9.75300 46.79000
H  46.98800 9.87000 48.53900
H  40.95200 8.43500 46.55900
H  38.84600 9.83300 50.20300
H  37.54200 9.79400 48.98600
H  38.69500 11.13900 49.03000
Mg -10.43300 38.89400 42.31800
C  -8.86900 35.92000 41.58300
C  -7.68900 40.58300 41.22600
C  -12.22400 41.75200 42.43600
C  -13.40100 37.01400 42.74500
N  -8.57800 38.22000 41.35400
C  -8.01900 36.97700 41.27400
C  -6.59500 37.01600 40.73600
C  -6.17500 38.51900 41.09500
C  -7.54800 39.15200 41.22600
C  -5.18400 38.75400 42.29600
C  -6.44300 36.64200 39.15300
C  -5.24000 35.75500 38.87700
H  -5.37600 34.69600 37.75400
N  -10.09100 40.89000 41.74400
C  -8.86400 41.35700 41.38900
C  -8.97900 42.77800 41.06100
C  -10.25400 43.15300 41.46700
C  -10.90800 41.94900 41.96400
C  -7.82300 43.62100 40.37700
C  -10.80400 44.64600 41.44700
O  -10.05600 45.54100 41.00200
C  -12.23900 45.01400 41.94500
N  -12.54500 39.33900 42.69100
C  -12.94600 40.59300 42.78100
C  -14.48600 40.62600 43.20100
C  -14.94500 39.11900 43.03700
C  -13.58800 38.41500 42.79500
C  -14.82400 41.36400 44.53400
C  -16.15200 38.86100 42.04300
C  -17.55700 38.41700 42.52600
N  -10.99800 36.87100 42.31300
C  -12.21400 36.24800 42.52700
C  -12.09800 34.78300 42.40300
C  -10.76300 34.62300 42.07100
C  -10.14900 35.90400 41.96900
C  -13.12100 33.79100 42.85000
C  -9.68400 33.64900 41.79300
O  -9.79900 32.46100 41.89900
C  -8.46800 34.49200 41.30500
C  -7.42500 34.03800 42.21400
O  -7.15600 34.52800 43.35300
O  -6.85200 32.93800 41.66400
C  -5.90200 32.19600 42.60700
H  -6.80500 41.13100 40.89500
H  -12.86200 42.61600 42.63200
H  -14.34900 36.48200 42.85100
H  -5.99200 36.37200 41.37600
H  -5.75200 39.02900 40.22900
H  -5.76300 39.23400 43.08500
H  -4.37500 39.43700 42.03900
H  -4.70700 37.86200 42.70100
H  -6.21500 37.54800 38.59100
H  -7.41700 36.28700 38.81900
H  -5.10000 35.24300 39.82900
H  -4.38100 36.30100 38.48800
H  -7.02600 42.95500 40.04500
H  -7.43300 44.44300 40.97800
H  -8.26300 44.06500 39.48400
H  -12.42700 44.67200 42.96300
H  -12.95000 44.83600 41.13800
H  -12.12400 46.09700 42.00400
H  -14.96900 41.15800 42.38100
H  -15.41500 38.69200 43.92300
H  -15.53500 42.18400 44.43100
H  -13.89300 41.87500 44.78100
H  -15.07200 40.78400 45.42200
H  -15.82200 38.19000 41.25100
H  -16.39400 39.76100 41.47700
H  -17.94500 37.50000 42.08200
H  -18.23900 39.26100 42.42300
H  -17.56100 38.32100 43.61100
H  -13.68800 33.29400 42.06200
H  -13.85900 34.20600 43.53600
H  -12.63600 33.07900 43.51800
H  -8.17600 34.26100 40.28100
H  -6.27600 32.28400 43.62700
H  -4.92400 32.67500 42.56600
H  -5.82800 31.14400 42.33200

