158

Mg 1.79200 -2.35400 44.95800
C  5.05200 -1.17300 43.86600
C  0.33900 -0.31300 42.58700
C  -1.14500 -4.02700 45.40700
C  3.58200 -5.19600 46.19000
N  2.66900 -1.01300 43.33300
C  3.94600 -0.52400 43.26000
C  3.97900 0.59400 42.19500
C  2.50300 0.81600 41.80300
C  1.72100 -0.21600 42.59600
C  2.01800 2.28500 41.85600
C  4.89400 0.16300 40.94100
C  6.16700 1.04400 40.73500
H  6.11200 1.91700 39.40400
N  -0.13900 -2.09800 44.22000
C  -0.51100 -1.10600 43.25000
C  -1.97200 -1.18300 43.19000
C  -2.49700 -2.17300 43.99100
C  -1.24300 -2.83900 44.60100
C  -2.69600 -0.25400 42.22700
C  -4.01300 -2.68100 44.00600
O  -4.84400 -2.01100 43.40900
C  -4.42200 -3.97800 44.59800
N  1.31600 -4.18100 45.84200
C  0.01600 -4.63900 45.88900
C  -0.11000 -5.99600 46.51900
C  1.35600 -6.41800 46.74300
C  2.17700 -5.19100 46.26900
C  -0.99900 -6.16000 47.78000
C  1.65900 -7.76300 46.05300
C  2.81300 -8.57000 46.75500
N  3.87400 -3.04000 45.14400
C  4.41800 -4.14800 45.69300
C  5.87200 -4.18400 45.57700
C  6.14500 -3.01000 44.87900
C  4.92100 -2.27400 44.72900
C  6.76000 -5.26100 45.93100
C  7.22600 -2.34100 44.23900
O  8.39100 -2.68600 44.06400
C  6.59700 -0.99200 43.76900
C  7.11800 0.10200 44.67200
O  6.58500 0.48300 45.73400
O  8.12800 0.71700 44.05300
C  8.55000 2.08400 44.58900
H  -0.20900 0.42500 41.99700
H  -1.99900 -4.70600 45.44900
H  4.09700 -6.08900 46.54800
H  4.26800 1.49100 42.74300
H  2.29800 0.64400 40.74700
H  1.47500 2.50600 40.93700
H  2.85000 2.98700 41.89700
H  1.35900 2.40700 42.71500
H  4.33100 0.14900 40.00800
H  5.16500 -0.87900 41.11300
H  7.12300 0.52900 40.83100
H  6.17300 1.71300 41.59600
H  -3.77000 -0.17800 42.39800
H  -2.72900 -0.62500 41.20300
H  -2.18800 0.71100 42.22800
H  -5.49900 -4.03600 44.43900
H  -4.13400 -3.84600 45.64000
H  -3.84700 -4.64700 43.95800
H  -0.56000 -6.55900 45.70200
H  1.51500 -6.61800 47.80300
H  -1.15300 -5.12700 48.09100
H  -0.50700 -6.73600 48.56400
H  -2.01300 -6.50200 47.57100
H  1.90800 -7.54500 45.01500
H  0.73200 -8.33300 46.10900
H  3.55000 -8.78000 45.98000
H  2.35400 -9.51500 47.04600
H  3.24700 -8.10600 47.64100
H  7.16900 -5.52400 44.95500
H  6.22000 -6.11200 46.34400
H  7.53200 -4.86200 46.58900
H  6.87800 -0.72400 42.75100
H  9.62800 2.07400 44.42500
H  8.40600 2.20200 45.66300
H  8.10500 2.90000 44.02000
Mg 35.57600 1.87800 29.21400
C  33.39800 3.06000 31.68300
C  38.09500 2.04400 31.40200
C  37.45400 1.11800 26.64700
C  32.72800 1.92700 27.00400
N  35.77700 2.72900 31.30700
C  34.67200 2.89400 32.14800
C  35.15200 2.86200 33.62800
C  36.74200 2.80600 33.44700
C  36.92200 2.48000 31.98500
C  37.38400 4.13500 33.83600
C  34.39100 1.68300 34.40500
C  33.93300 1.94800 35.87700
H  34.39700 3.27800 36.52300
N  37.50000 1.59100 29.06800
C  38.44800 1.67800 30.09800
C  39.69400 1.17100 29.57200
C  39.54900 1.02200 28.16900
C  38.10700 1.24200 27.88300
C  40.87500 0.89700 30.48500
C  40.57000 0.62700 27.16100
O  40.31400 0.49900 25.96600
C  42.01100 0.46100 27.54600
N  35.09100 1.50200 27.07800
C  36.08500 1.15200 26.24400
C  35.59600 0.94800 24.77000
C  34.06200 0.95800 25.04000
C  33.91200 1.44400 26.44300
C  36.07600 2.01600 23.80000
C  33.32300 -0.41400 24.85100
C  32.73700 -0.61100 23.48800
N  33.51300 2.48700 29.25000
C  32.52800 2.48400 28.31400
C  31.21900 2.96500 28.84700
C  31.56700 3.20800 30.17000
C  32.95200 2.94300 30.36300
C  29.84600 3.14500 28.17100
C  30.96700 3.59900 31.40100
O  29.87100 3.98800 31.80300
C  32.12200 3.44100 32.45300
C  32.23400 4.75700 33.20800
O  32.80000 5.75400 32.75800
O  31.60800 4.64200 34.37600
C  31.32400 5.92900 35.15000
H  38.95400 1.92200 32.06500
H  38.12100 0.86200 25.82100
H  31.83100 1.93900 26.38100
H  34.86600 3.78700 34.13000
H  37.22700 2.08100 34.10100
H  38.13000 4.01100 34.62100
H  36.74600 4.96600 34.13600
H  37.99700 4.55600 33.04000
H  35.09300 0.85300 34.48200
H  33.50200 1.38300 33.85000
H  34.13300 1.10400 36.53700
H  32.84800 1.96800 35.78100
H  41.31000 -0.07500 30.25500
H  40.69300 0.79400 31.55500
H  41.55500 1.72900 30.30300
H  42.67500 0.31000 26.69400
H  42.12500 -0.31800 28.30000
H  42.43200 1.34000 28.03300
H  35.94800 -0.05100 24.51300
H  33.56200 1.68400 24.39900
H  35.22500 2.42100 23.25300
H  36.87900 1.57000 23.21200
H  36.39300 2.84700 24.43000
H  32.57000 -0.62500 25.61000
H  34.06400 -1.20900 24.93700
H  31.65900 -0.48700 23.58200
H  32.95600 -1.63300 23.17900
H  33.09200 0.05600 22.70200
H  29.61700 4.20000 28.02000
H  29.23100 2.65300 28.92400
H  29.79400 2.64500 27.20400
H  31.77300 2.64100 33.10600
H  30.48300 6.47200 34.71900
H  32.08500 6.69900 35.27800
H  31.11400 5.50700 36.13300

