158

Mg 25.90500 50.69000 26.03500
C  23.81300 51.79300 28.61800
C  28.03800 49.32800 28.42000
C  28.20600 50.14300 23.64700
C  23.62600 51.94000 23.83800
N  25.90900 50.58300 28.30800
C  24.95500 51.11400 29.17600
C  25.23500 50.92900 30.63300
C  26.60500 50.17200 30.48700
C  26.95100 50.01400 28.98300
C  27.82700 50.78700 31.26800
C  24.08300 50.16500 31.38700
C  24.41900 49.42000 32.73200
H  23.57600 49.80100 33.97400
N  27.81700 49.82200 26.03300
C  28.49500 49.29700 27.05300
C  29.77000 48.64300 26.58300
C  29.85900 48.87800 25.25100
C  28.61900 49.70000 24.89600
C  30.65000 47.80700 27.47000
C  30.87700 48.28800 24.32000
O  30.93400 48.70000 23.20100
C  31.96100 47.30300 24.71800
N  25.99600 51.08100 24.07600
C  26.98100 50.64700 23.26200
C  26.53800 50.87000 21.75600
C  25.05800 51.29700 21.77000
C  24.84600 51.38100 23.34300
C  27.39100 51.81200 21.01000
C  23.99000 50.19800 21.12800
C  23.65300 50.55900 19.68300
N  24.04300 51.55800 26.11200
C  23.20400 51.99600 25.14900
C  22.00000 52.47700 25.63600
C  22.23700 52.54900 26.99500
C  23.47400 51.91500 27.26100
C  20.72100 52.94900 24.86900
C  21.68600 53.02000 28.24800
O  20.64900 53.71400 28.44400
C  22.65800 52.45200 29.38300
C  23.09500 53.53600 30.33900
O  24.16300 54.12300 30.30400
O  22.13500 53.69500 31.28700
C  22.28200 54.62900 32.42000
H  28.55200 48.97500 29.31600
H  29.00200 50.08100 22.90200
H  22.87200 52.22200 23.10100
H  25.33900 51.90900 31.09800
H  26.44500 49.16900 30.88200
H  27.62100 51.52700 32.04100
H  28.63900 51.14500 30.63500
H  28.35500 49.98600 31.78500
H  23.93600 49.30800 30.72900
H  23.12300 50.67700 31.45200
H  25.44800 49.57700 33.05600
H  24.16400 48.36100 32.69900
H  30.52200 46.72900 27.37500
H  30.52400 48.06300 28.52200
H  31.67900 48.13700 27.32300
H  31.53500 46.35600 25.04900
H  32.33400 47.92200 25.53400
H  32.71600 47.14400 23.94800
H  26.69400 49.91400 21.25600
H  24.88400 52.28700 21.34900
H  28.16200 52.21900 21.66500
H  26.80500 52.58000 20.50500
H  27.91700 51.17600 20.29800
H  23.07800 50.30600 21.71400
H  24.62700 49.31600 21.20000
H  22.56800 50.66200 19.66800
H  24.02100 49.76100 19.03800
H  24.04500 51.51400 19.33500
H  20.78400 54.02300 24.69400
H  19.85900 52.84300 25.52700
H  20.60600 52.40900 23.93000
H  21.99900 51.70800 29.82900
H  21.40400 55.26400 32.30000
H  23.13200 55.30700 32.33900
H  22.37900 54.15300 33.39600
Mg -10.00500 40.06300 43.15200
C  -8.69300 37.11500 42.12500
C  -7.87800 41.74100 41.02200
C  -11.91500 42.95400 43.40000
C  -12.67400 38.33500 44.61800
N  -8.60500 39.45400 41.56600
C  -8.09600 38.18900 41.41500
C  -6.98400 38.08800 40.42200
C  -6.66600 39.62500 40.15000
C  -7.72900 40.35700 40.97700
C  -5.18400 40.09700 40.56100
C  -7.49500 37.33800 39.16200
C  -6.65600 36.18600 38.58000
H  -5.56400 36.62000 37.58500
N  -9.80100 42.17000 42.48200
C  -8.78100 42.62900 41.63200
C  -9.01000 44.02900 41.40200
C  -10.20300 44.43400 42.07900
C  -10.72100 43.14400 42.74700
C  -8.21200 44.90200 40.41900
C  -10.83700 45.83700 41.93700
O  -10.25300 46.66700 41.22800
C  -12.06600 46.33000 42.66400
N  -12.02800 40.65600 43.85000
C  -12.53400 41.83100 43.92100
C  -14.02000 41.71700 44.46700
C  -14.20100 40.27100 44.81100
C  -12.87600 39.68000 44.41200
C  -14.30300 42.65900 45.70100
C  -15.39100 39.56600 44.08600
C  -16.23800 38.56000 44.91800
N  -10.49100 38.05600 43.54400
C  -11.58000 37.50700 44.13500
C  -11.42300 36.05200 44.20300
C  -10.16200 35.83000 43.40500
C  -9.75000 37.11700 43.00700
C  -12.39500 35.04300 44.76100
C  -9.24800 34.82200 42.82500
O  -9.25100 33.62700 42.85700
C  -8.11100 35.63900 42.16100
C  -6.89200 35.56900 43.04000
O  -6.52600 36.23100 43.99600
O  -6.28600 34.36300 42.78500
C  -4.98100 34.18400 43.40600
H  -7.07200 42.37200 40.64200
H  -12.59300 43.80800 43.34000
H  -13.45800 37.81300 45.17100
H  -6.14400 37.52200 40.82700
H  -6.81000 39.86500 39.09600
H  -5.32100 40.34900 41.61200
H  -4.76200 40.98300 40.08800
H  -4.50600 39.25200 40.44100
H  -7.61100 38.01500 38.31600
H  -8.47700 36.90700 39.35900
H  -7.14900 35.27100 38.25200
H  -5.98000 35.88100 39.37900
H  -8.72400 45.14800 39.48800
H  -7.29900 44.41100 40.08100
H  -7.79800 45.78100 40.91300
H  -12.28900 47.38400 42.49400
H  -11.89700 46.20400 43.73300
H  -12.92700 45.80700 42.24800
H  -14.59600 42.05100 43.60400
H  -14.25400 40.04100 45.87500
H  -14.85100 42.09500 46.45600
H  -14.97300 43.47700 45.43800
H  -13.40200 43.15300 46.06300
H  -14.98700 39.08600 43.19400
H  -16.11800 40.36300 43.93200
H  -15.59600 38.02900 45.62100
H  -16.75200 37.81700 44.30700
H  -17.06400 39.05600 45.42700
H  -12.30000 34.94300 45.84200
H  -12.40200 34.11900 44.18200
H  -13.42700 35.36900 44.63100
H  -7.96400 35.38700 41.11100
H  -5.03400 33.44300 44.20400
H  -4.61300 35.13600 43.78800
H  -4.39000 33.82500 42.56300

