158

Mg 41.67400 9.09800 29.38500
C  43.49400 10.53700 31.94700
C  39.52600 7.67100 31.59200
C  40.13700 7.63100 26.69100
C  44.29500 9.99800 27.16800
N  41.59500 9.01100 31.57800
C  42.33400 9.85100 32.42100
C  41.77100 9.81200 33.89600
C  40.62300 8.76800 33.76500
C  40.63700 8.34900 32.19600
C  40.64400 7.57300 34.70400
C  41.52000 11.23100 34.51700
C  40.36000 11.29800 35.54600
H  40.51700 12.11500 36.86100
N  40.02100 7.87100 29.11400
C  39.24900 7.31500 30.17800
C  38.10500 6.69000 29.65500
C  38.12700 6.80100 28.21700
C  39.47400 7.42400 27.91700
C  37.06500 6.03100 30.66000
C  37.15000 6.39200 27.22000
O  37.29500 6.41300 26.01000
C  35.88900 5.95500 27.73800
N  42.23000 8.74800 27.23700
C  41.35200 8.24600 26.34700
C  41.94900 8.29500 24.92500
C  43.26800 9.10500 25.06700
C  43.27100 9.25000 26.57800
C  42.13500 6.84700 24.43200
C  43.22200 10.51600 24.31800
C  42.05400 11.47600 24.61000
N  43.40100 10.16500 29.47100
C  44.39600 10.37500 28.54500
C  45.43400 11.21000 29.08500
C  45.09300 11.37500 30.48700
C  43.85000 10.64700 30.61300
C  46.51600 11.76200 28.25300
C  45.48800 11.91700 31.75700
O  46.45200 12.58500 32.13700
C  44.41600 11.37700 32.75700
C  45.10100 10.65800 33.86900
O  45.96000 9.81200 33.75600
O  44.68900 11.13200 35.13300
C  45.39000 10.68900 36.43000
H  38.88800 7.20500 32.34600
H  39.51500 7.13400 25.94300
H  45.06500 10.49800 26.57600
H  42.53300 9.49300 34.60800
H  39.63400 9.20700 33.89700
H  40.38100 6.69800 34.10900
H  39.86500 7.76400 35.44300
H  41.54400 7.55700 35.31800
H  41.39600 11.86400 33.63800
H  42.30000 11.55100 35.20700
H  40.14700 10.26000 35.80400
H  39.54800 11.79100 35.01200
H  36.16200 6.64000 30.67900
H  37.42300 5.97000 31.68800
H  36.67000 5.09100 30.27500
H  35.24500 5.70300 26.89500
H  35.35000 6.61400 28.41900
H  36.04500 5.03400 28.29900
H  41.23000 8.74000 24.23800
H  44.13000 8.55600 24.68800
H  41.74900 6.18700 25.20900
H  43.19200 6.65500 24.24500
H  41.54500 6.73100 23.52300
H  43.16700 10.33100 23.24500
H  44.15500 11.04800 24.50000
H  42.40600 12.40300 25.06300
H  41.29400 11.09700 25.29300
H  41.52400 11.63700 23.67100
H  47.09200 12.49800 28.81400
H  46.17400 12.16500 27.30000
H  47.19600 10.95800 27.97000
H  43.89400 12.28100 33.07100
H  46.03800 9.85700 36.15300
H  44.71500 10.25800 37.16900
H  45.98600 11.54000 36.76000
Mg 9.44500 47.97500 26.60400
C  7.57000 47.71900 29.51700
C  12.11600 49.28500 28.45700
C  11.20100 48.14800 23.80500
C  6.52900 47.44000 24.69700
N  9.73200 48.48500 28.76800
C  8.91300 48.16300 29.77300
C  9.47600 48.64200 31.21500
C  10.85400 49.32200 30.76500
C  10.89200 49.06600 29.20100
C  10.93800 50.84200 30.90900
C  9.64700 47.47700 32.31100
C  9.12300 47.67100 33.77900
H  9.37100 46.47100 34.80100
N  11.37000 48.57800 26.15700
C  12.33800 49.03300 27.06400
C  13.55900 49.13000 26.34000
C  13.36400 48.75100 24.98700
C  11.94500 48.48800 24.94400
C  14.83400 49.63100 27.09000
C  14.39900 48.57700 23.87300
O  14.04900 48.16100 22.74900
C  15.82600 48.71100 24.19200
N  8.90200 48.00000 24.54000
C  9.84300 47.93200 23.61600
C  9.29500 47.48400 22.24500
C  7.72400 47.41700 22.43400
C  7.68500 47.63600 23.96000
C  9.65000 48.35500 21.04300
C  7.01400 46.14900 21.82800
C  6.81600 44.90300 22.75500
N  7.44100 47.59800 26.97100
C  6.35600 47.49200 26.10500
C  5.16800 47.15500 26.90300
C  5.65200 47.24800 28.26200
C  6.97400 47.57600 28.21900
C  3.81400 46.91900 26.38500
C  5.26100 47.07100 29.62200
O  4.17700 46.86600 30.15400
C  6.48300 47.29000 30.51700
C  6.73900 45.99400 31.21900
O  7.25200 44.99500 30.78300
O  6.36000 46.15700 32.51400
C  6.22900 44.87500 33.17700
H  13.04600 49.58600 28.94400
H  11.81800 47.89600 22.93900
H  5.70000 47.12700 24.05900
H  8.92000 49.46700 31.66000
H  11.73600 48.89600 31.24300
H  11.95000 51.20500 30.72600
H  10.56500 51.08500 31.90400
H  10.12300 51.29900 30.34800
H  10.72500 47.31600 32.33400
H  9.21200 46.59900 31.83300
H  8.03400 47.63800 33.83300
H  9.42100 48.64100 34.17600
H  15.37100 48.73700 27.40800
H  14.63500 50.32300 27.90800
H  15.66000 50.07800 26.53600
H  16.30400 48.50000 23.23500
H  16.21400 47.94100 24.85800
H  16.01200 49.71400 24.57600
H  9.70200 46.48600 22.07800
H  7.20700 48.22500 21.91600
H  9.97600 49.33300 21.39700
H  8.73300 48.45700 20.46300
H  10.51200 47.92600 20.53300
H  7.56800 45.89300 20.92500
H  6.03500 46.54800 21.56200
H  7.45100 44.89000 23.64100
H  6.98600 43.90400 22.35200
H  5.75200 44.88900 22.98800
H  3.25800 47.85400 26.45600
H  3.29000 46.23000 27.04800
H  3.95200 46.65900 25.33500
H  6.24200 48.08200 31.22500
H  6.82800 44.01600 32.87400
H  5.19700 44.52700 33.12800
H  6.54700 45.12400 34.18900

