158

Mg 1.63000 -2.92200 44.84100
C  4.87000 -1.70900 44.14000
C  0.29800 -0.43100 42.74600
C  -1.37900 -4.61400 44.47900
C  3.05100 -5.79400 46.30700
N  2.48000 -1.17900 43.58900
C  3.87500 -0.97100 43.43300
C  4.02100 0.11500 42.33400
C  2.62500 0.84500 42.50300
C  1.69100 -0.25400 42.99900
C  2.61800 2.04600 43.53400
C  4.37900 -0.50200 40.92500
C  5.73800 -0.03000 40.28900
H  5.59300 0.59900 38.96200
N  -0.39200 -2.51000 43.88400
C  -0.68200 -1.43200 43.10900
C  -2.05300 -1.40300 42.68800
C  -2.61300 -2.68400 43.15800
C  -1.43700 -3.36300 43.80600
C  -2.78000 -0.32900 41.94600
C  -3.97400 -3.24800 43.07900
O  -4.84400 -2.55500 42.56400
C  -4.33300 -4.63900 43.51700
N  1.00000 -5.06300 45.10200
C  -0.30800 -5.34400 45.13500
C  -0.58900 -6.63000 46.03900
C  0.90600 -7.05600 46.48100
C  1.70000 -5.93800 45.92100
C  -1.56200 -6.40800 47.24900
C  1.22500 -8.49200 45.92300
C  1.39200 -9.65500 46.97100
N  3.57100 -3.59400 45.29700
C  3.98000 -4.72700 45.93400
C  5.43000 -4.62400 46.24700
C  5.81500 -3.47900 45.56300
C  4.63700 -2.86200 44.92700
C  6.27700 -5.58800 47.03900
C  6.93200 -2.68000 45.15400
O  8.18800 -2.78700 45.45100
C  6.39900 -1.60000 44.07400
C  6.96000 -0.27900 44.62100
O  8.00900 0.20000 44.15600
O  6.27100 0.15200 45.81400
C  6.43800 1.58800 46.03100
H  -0.05900 0.43400 42.18200
H  -2.17000 -5.36100 44.57200
H  3.40400 -6.66700 46.86000
H  4.84200 0.70600 42.74000
H  2.30900 1.19300 41.51900
H  3.64100 2.35200 43.75200
H  2.17100 1.79600 44.49600
H  2.09800 2.95800 43.24200
H  3.53200 -0.18000 40.31900
H  4.28800 -1.58400 41.01900
H  6.37600 -0.91400 40.30800
H  6.29100 0.72700 40.84500
H  -2.18600 0.58200 41.87400
H  -3.75600 -0.07100 42.35800
H  -2.90900 -0.57900 40.89300
H  -4.09700 -4.72700 44.57800
H  -3.74900 -5.36800 42.95600
H  -5.36700 -4.87600 43.26500
H  -1.13400 -7.38200 45.46700
H  1.07800 -6.96700 47.55400
H  -1.14900 -6.64000 48.23100
H  -2.50600 -6.94000 47.13200
H  -1.95700 -5.39300 47.21600
H  2.16800 -8.40900 45.38300
H  0.44500 -8.89200 45.27500
H  1.12500 -9.20900 47.93000
H  2.44500 -9.87700 47.14600
H  0.85700 -10.55300 46.66400
H  6.83900 -6.31000 46.44600
H  5.66500 -6.19100 47.70900
H  6.96800 -5.09700 47.72500
H  6.84500 -1.74400 43.09000
H  7.10000 2.10600 45.33800
H  6.73300 1.69000 47.07600
H  5.46400 2.07200 46.11100
Mg 7.24100 53.39800 41.70400
C  6.55900 49.93800 40.86800
C  10.44000 52.88500 40.27200
C  7.73000 56.61000 41.71000
C  3.86100 53.69500 42.63500
N  8.27300 51.63500 40.45000
C  7.82300 50.34200 40.38500
C  8.88600 49.53600 39.69400
C  10.18800 50.32000 39.90300
C  9.61600 51.71300 40.16200
C  11.11900 49.89000 41.08700
C  8.46000 49.46800 38.14100
C  8.76100 48.13100 37.35800
H  7.78200 47.78200 36.27300
N  8.90800 54.59800 41.15400
C  10.09400 54.20800 40.67700
C  10.98400 55.31700 40.61500
C  10.25700 56.38300 41.18100
C  8.93200 55.88100 41.41000
C  12.38100 55.25000 40.08200
C  10.67700 57.86700 41.43400
O  11.76200 58.23500 40.92000
C  9.93500 58.67700 42.32400
N  5.97300 54.88500 42.02600
C  6.39400 56.20000 41.91500
C  5.24900 57.17300 42.20200
C  4.14100 56.23300 42.78000
C  4.63000 54.83300 42.38300
C  5.52700 58.48700 43.06000
C  2.69800 56.54300 42.38300
C  2.11000 56.14500 41.06900
N  5.59600 52.08800 41.88400
C  4.26600 52.36400 42.27100
C  3.53500 51.07500 42.36900
C  4.46200 50.14500 41.84800
C  5.60400 50.75300 41.54000
C  2.11600 50.78900 42.82600
C  4.60000 48.77400 41.36300
O  3.79600 47.83200 41.39400
C  6.02100 48.54000 40.91700
C  5.99200 47.75600 39.64200
O  5.59100 48.08800 38.54100
O  6.28800 46.46500 40.01000
C  6.18700 45.38100 39.05500
H  11.49300 52.66000 40.08900
H  7.84700 57.69300 41.78500
H  2.84900 53.86100 43.01100
H  8.90300 48.49500 40.01600
H  10.74300 50.39600 38.96900
H  10.97800 50.63700 41.86700
H  12.17300 49.80800 40.82100
H  10.79200 48.94000 41.50900
H  8.92700 50.26600 37.56300
H  7.39200 49.68100 38.17700
H  8.86600 47.41400 38.17200
H  9.66800 48.29400 36.77600
H  12.96600 55.42300 40.98500
H  12.65600 55.98700 39.32700
H  12.71500 54.24100 39.84000
H  9.49100 58.12800 43.15500
H  9.15400 59.21700 41.78800
H  10.56700 59.43700 42.78200
H  4.90700 57.46800 41.21000
H  4.08300 56.21900 43.86800
H  5.30100 59.41800 42.54100
H  6.56300 58.52100 43.39600
H  4.85500 58.51300 43.91900
H  2.80400 57.62500 42.45600
H  2.02400 56.28800 43.20200
H  2.06400 56.90600 40.29000
H  1.07700 55.80300 41.14100
H  2.57500 55.28400 40.59000
H  2.04900 50.81700 43.91400
H  1.88000 49.77600 42.49800
H  1.40900 51.52300 42.43900
H  6.42700 47.89200 41.69400
H  5.61700 44.56800 39.50300
H  7.09800 45.09400 38.52900
H  5.59000 45.53000 38.15500

