158

Mg 0.61300 7.63600 25.67700
C  1.32300 9.70600 28.62100
C  1.03300 5.03700 27.89800
C  0.20800 5.72700 23.12600
C  0.61000 10.57700 23.84100
N  1.17400 7.40500 28.04900
C  1.22400 8.39000 29.02600
C  1.49000 7.74300 30.37100
C  1.64600 6.21600 30.07100
C  1.16600 6.18300 28.61600
C  3.00100 5.57500 30.36800
C  0.39000 8.12400 31.30100
C  0.71600 7.98400 32.81200
H  1.76300 6.96700 33.33900
N  0.62900 5.63900 25.53600
C  0.79200 4.72900 26.53500
C  0.67200 3.38800 25.99500
C  0.41900 3.52900 24.55400
C  0.37500 5.00400 24.36600
C  0.71700 2.16200 26.77200
C  0.27700 2.52900 23.46400
O  -0.07900 2.85700 22.33300
C  0.46800 1.08400 23.72100
N  0.63600 8.14900 23.75400
C  0.36100 7.13400 22.80400
C  0.11300 7.79900 21.39800
C  -0.17300 9.29200 21.75600
C  0.40000 9.35000 23.21600
C  1.30600 7.46900 20.43100
C  -1.73600 9.59600 21.77700
C  -2.19100 10.93000 21.21900
N  0.98700 9.74800 26.09500
C  0.92000 10.81700 25.18300
C  1.38600 12.04100 25.87400
C  1.50100 11.70000 27.25000
C  1.28800 10.30100 27.31500
C  1.41200 13.48000 25.25200
C  1.70200 12.20600 28.55800
O  1.95200 13.34900 28.92300
C  1.63400 10.97700 29.49700
C  2.84800 10.81300 30.35300
O  3.87300 10.17300 30.08000
O  2.62400 11.43700 31.52000
C  3.67200 11.37400 32.54200
H  1.04800 4.15500 28.54100
H  0.04100 5.17700 22.19700
H  0.41300 11.40300 23.15500
H  2.42600 8.15600 30.74600
H  0.86100 5.70800 30.63200
H  3.40800 5.36200 29.37900
H  2.90000 4.64200 30.92300
H  3.46300 6.31300 31.02300
H  -0.48800 7.48300 31.22500
H  0.13600 9.15600 31.05800
H  -0.19300 7.71200 33.34900
H  1.04100 8.97900 33.11600
H  -0.00400 1.42400 26.42000
H  0.36900 2.40900 27.77500
H  1.71200 1.72300 26.85500
H  1.35600 0.92800 24.33300
H  0.48800 0.46400 22.82400
H  -0.37000 0.78700 24.35100
H  -0.78700 7.38000 20.94900
H  0.27600 9.92200 20.98900
H  1.95600 6.80500 21.00200
H  1.84800 8.38800 20.20600
H  0.87300 7.04300 19.52600
H  -1.96000 9.66600 22.84100
H  -2.38100 8.80900 21.38600
H  -1.31900 11.44400 20.81400
H  -2.72500 11.54000 21.94800
H  -2.87800 10.76200 20.38900
H  0.62700 14.13600 25.62900
H  1.22800 13.54200 24.18000
H  2.34200 13.98900 25.50300
H  0.82900 11.20200 30.19700
H  4.27500 12.27800 32.44800
H  4.33100 10.51800 32.39600
H  3.11400 11.41600 33.47700
Mg -5.58100 24.46400 26.32200
C  -3.81600 26.21800 28.65500
C  -6.94400 22.53700 28.66800
C  -7.27000 22.76800 23.77200
C  -3.99700 26.30500 23.76900
N  -5.49800 24.45300 28.46600
C  -4.73000 25.30300 29.24200
C  -5.14100 25.11400 30.71400
C  -5.84000 23.76200 30.71900
C  -6.13500 23.56700 29.18800
C  -5.11500 22.62100 31.45300
C  -6.14000 26.21900 31.11500
C  -6.44600 26.55000 32.58600
H  -5.96600 25.56500 33.66200
N  -6.92800 22.93800 26.25900
C  -7.42300 22.30300 27.35800
C  -8.37000 21.33000 26.95400
C  -8.46300 21.36000 25.54800
C  -7.54800 22.37300 25.15800
C  -9.19700 20.63000 28.05300
C  -9.50200 20.56500 24.63400
O  -9.49300 20.68400 23.36100
C  -10.55600 19.64400 25.24700
N  -5.55900 24.44300 24.06300
C  -6.36400 23.73600 23.24200
C  -6.38800 24.10600 21.76300
C  -5.28800 25.28200 21.85700
C  -4.89800 25.33200 23.31500
C  -5.97400 22.93900 20.85800
C  -5.89500 26.62900 21.36600
C  -5.54100 27.01400 19.88500
N  -4.17700 26.04400 26.20900
C  -3.64100 26.64300 25.10500
C  -2.59200 27.55500 25.57400
C  -2.62700 27.48700 27.02600
C  -3.61600 26.50200 27.27500
C  -1.69800 28.38700 24.79100
C  -2.04400 27.92500 28.30000
O  -1.18700 28.80800 28.56800
C  -2.92000 27.20200 29.39700
C  -2.13800 26.76900 30.59900
O  -1.71200 25.61900 30.75200
O  -2.02000 27.73600 31.58100
C  -1.69000 27.15400 32.90100
H  -7.41600 21.85900 29.38300
H  -7.74100 22.12100 23.03000
H  -3.47300 26.90300 23.02100
H  -4.25200 25.17700 31.34200
H  -6.85700 23.80300 31.11000
H  -4.55700 22.02500 30.73100
H  -5.75300 21.99000 32.07200
H  -4.32600 23.05300 32.06900
H  -7.12000 25.93900 30.72800
H  -5.72000 27.10900 30.64700
H  -7.48800 26.77000 32.82000
H  -5.90400 27.47700 32.77300
H  -9.60800 21.34300 28.76800
H  -8.52500 20.01100 28.64700
H  -10.03100 20.03200 27.68600
H  -9.95200 18.81900 25.62500
H  -11.15100 19.26100 24.41900
H  -11.32100 20.08100 25.88900
H  -7.37100 24.47800 21.47600
H  -4.41300 25.04500 21.25300
H  -4.97900 23.13500 20.46000
H  -6.68500 22.79700 20.04500
H  -5.89000 22.00700 21.41700
H  -5.53500 27.46800 21.96300
H  -6.97500 26.60100 21.50900
H  -4.81600 26.33600 19.43600
H  -5.13300 28.01500 19.74000
H  -6.49400 26.94200 19.36100
H  -1.25900 27.93000 23.90400
H  -0.88100 28.76400 25.40700
H  -2.28800 29.22600 24.42200
H  -3.58300 28.00700 29.71300
H  -1.75900 27.88700 33.70500
H  -0.68600 26.73200 32.94600
H  -2.42200 26.37200 33.10400

