158

Mg 35.63800 48.42800 26.38400
C  35.74300 46.63300 29.45400
C  34.49100 51.12500 28.22700
C  35.46400 50.23000 23.53900
C  36.39800 45.56100 24.64200
N  35.08100 48.80000 28.63400
C  35.33200 47.97000 29.70300
C  35.12300 48.72700 31.04400
C  34.57100 50.09300 30.56700
C  34.70000 50.00400 29.08800
C  33.14400 50.40100 31.19900
C  36.40700 48.57000 32.05100
C  36.01900 48.28900 33.54200
H  36.15200 49.41300 34.55100
N  34.88200 50.41700 25.90200
C  34.64400 51.43800 26.87400
C  34.41300 52.65100 26.19600
C  34.82600 52.47900 24.82400
C  35.06900 51.02400 24.67100
C  33.90400 53.92800 26.82400
C  35.06700 53.55200 23.68100
O  35.51100 53.20300 22.60300
C  34.62100 54.99100 23.92600
N  35.66600 47.92100 24.31400
C  35.74400 48.88000 23.38800
C  35.98300 48.18800 22.04500
C  36.44600 46.77300 22.39600
C  36.24000 46.77100 23.92100
C  34.81400 48.33300 21.08300
C  37.95200 46.47700 22.06300
C  38.25900 45.32300 21.14200
N  35.97200 46.42500 26.86600
C  36.25600 45.37000 26.02800
C  36.35600 44.13100 26.82400
C  36.14600 44.61100 28.12000
C  35.92100 45.97900 28.14200
C  36.64600 42.82300 26.27000
C  36.05900 44.16800 29.46600
O  36.22300 43.03700 29.89400
C  35.85700 45.49700 30.34400
C  34.65000 45.29400 31.21700
O  33.50600 45.64500 30.91400
O  35.08800 44.85500 32.45100
C  34.08600 44.42900 33.44700
H  34.15900 51.90600 28.91500
H  35.35000 50.76800 22.59600
H  36.55300 44.68500 24.01000
H  34.27500 48.27200 31.55500
H  35.30600 50.80400 30.94200
H  32.72800 51.24800 30.65200
H  33.04000 50.65200 32.25500
H  32.47900 49.56300 30.99500
H  36.92000 49.53200 32.03500
H  37.07700 47.78600 31.70000
H  36.55800 47.43000 33.94100
H  35.02100 47.86800 33.41500
H  34.69400 54.67900 26.85500
H  33.59900 53.67600 27.83900
H  32.97400 54.28900 26.38500
H  34.54400 55.39400 22.91600
H  35.36900 55.61900 24.41100
H  33.60400 55.10200 24.30200
H  36.84100 48.75300 21.68000
H  35.81000 46.06500 21.86400
H  35.07400 48.97600 20.24300
H  33.96000 48.88400 21.47800
H  34.51100 47.36900 20.67500
H  38.58900 46.45300 22.94700
H  38.37400 47.34600 21.55700
H  37.52000 44.56500 20.88200
H  39.05200 44.80200 21.67700
H  38.72300 45.70600 20.23300
H  35.99000 42.80000 25.40000
H  36.45300 42.01200 26.97300
H  37.68000 42.85500 25.92800
H  36.82500 45.57800 30.83800
H  34.32400 43.45900 33.88200
H  33.14900 44.23900 32.92300
H  34.03100 45.03700 34.35000
Mg -10.91900 16.66400 40.50700
C  -7.44200 16.53000 40.52500
C  -10.66700 20.07600 39.91700
C  -14.34300 16.89000 39.92000
C  -10.99700 13.26800 40.09500
N  -9.30900 18.08900 40.38200
C  -7.96700 17.84900 40.39800
C  -7.12900 19.08500 40.16400
C  -8.16300 20.22200 40.54000
C  -9.46900 19.42600 40.22300
C  -8.10000 20.75800 42.08300
C  -6.63300 19.08900 38.70100
C  -5.08700 19.00800 38.43900
H  -4.68200 18.23000 37.21800
N  -12.33500 18.35300 40.03500
C  -12.06500 19.65600 39.86600
C  -13.22400 20.50300 39.68600
C  -14.31900 19.58700 39.91400
C  -13.71900 18.19300 39.95200
C  -13.09200 22.02100 39.35900
C  -15.76600 19.97600 39.88900
O  -15.93700 21.20100 39.84900
C  -16.96300 19.07300 40.01300
N  -12.43900 15.30300 40.12900
C  -13.72800 15.59000 39.91400
C  -14.59600 14.38500 39.76800
C  -13.49900 13.22400 39.67300
C  -12.23700 13.97100 40.01700
C  -15.71400 14.26800 40.84900
C  -13.44000 12.62400 38.23100
C  -12.70300 11.19000 38.10900
N  -9.56000 15.16700 40.56100
C  -9.74000 13.79500 40.33800
C  -8.40100 13.11900 40.23400
C  -7.52400 14.18200 40.28500
C  -8.23200 15.34200 40.48700
C  -8.13300 11.69600 40.00300
C  -6.09600 14.46700 40.24500
O  -5.11300 13.70300 40.04500
C  -6.03100 15.96700 40.55800
C  -5.22600 16.08600 41.81400
O  -5.34800 15.39500 42.83500
O  -4.36700 17.21000 41.66300
C  -3.58300 17.56900 42.88000
H  -10.52100 21.14300 39.73500
H  -15.43500 16.89200 39.93600
H  -11.05200 12.20000 39.87500
H  -6.24800 19.26600 40.78000
H  -8.02900 21.08300 39.88600
H  -8.93700 20.35500 42.65300
H  -7.98300 21.83800 42.16700
H  -7.15000 20.50400 42.55300
H  -6.99700 20.01600 38.25800
H  -7.01200 18.24900 38.11900
H  -4.61300 18.57200 39.31800
H  -4.61900 19.97900 38.27800
H  -13.12700 22.03600 38.27000
H  -12.13000 22.46700 39.61400
H  -13.80700 22.70200 39.82200
H  -17.82300 19.71900 40.18800
H  -16.87200 18.36600 40.83700
H  -16.94600 18.62100 39.02100
H  -15.11900 14.40800 38.81200
H  -13.57400 12.50200 40.48600
H  -15.93000 13.20000 40.79800
H  -16.62600 14.72900 40.46800
H  -15.28800 14.45600 41.83400
H  -12.84100 13.33500 37.66100
H  -14.41600 12.46500 37.77300
H  -12.94600 10.76700 39.08300
H  -11.65700 11.22500 37.80400
H  -13.20300 10.44600 37.48900
H  -8.25100 11.10100 40.90900
H  -7.09200 11.55300 39.71400
H  -8.72000 11.15500 39.26000
H  -5.37900 16.27700 39.74100
H  -2.72100 18.03300 42.39900
H  -3.22800 16.68400 43.40800
H  -3.92400 18.31300 43.59900

