158

Mg 16.90500 -1.80800 27.97100
C  15.70000 0.41000 30.43100
C  19.03900 -3.12500 30.18600
C  18.44300 -3.54000 25.46100
C  15.39800 0.27100 25.60800
N  17.34700 -1.31300 30.12600
C  16.66000 -0.53600 30.92100
C  16.93600 -0.88000 32.36600
C  18.19700 -1.83600 32.32100
C  18.23200 -2.11600 30.74900
C  19.60400 -1.26600 32.79000
C  15.71400 -1.37100 33.17300
C  15.41200 -0.72000 34.56100
H  16.62200 -0.17900 35.31900
N  18.55800 -3.15600 27.79600
C  19.22100 -3.61800 28.87100
C  19.98000 -4.74400 28.49800
C  19.75900 -4.94300 27.09000
C  18.93300 -3.79400 26.70300
C  20.66100 -5.65900 29.56500
C  20.29700 -6.05900 26.12200
O  20.02500 -6.09200 24.88300
C  21.20600 -7.05800 26.72800
N  16.90200 -1.69400 25.83900
C  17.58100 -2.56500 25.03500
C  17.40700 -2.26500 23.53900
C  16.24400 -1.19900 23.58800
C  16.12200 -0.84700 25.08700
C  18.66700 -1.77300 22.80300
C  14.97900 -1.58400 22.70600
C  13.73200 -1.95700 23.56800
N  15.63500 -0.15600 27.95100
C  15.13500 0.56700 26.89800
C  14.35400 1.70000 27.41000
C  14.50300 1.57700 28.79500
C  15.31400 0.50700 29.06500
C  13.47500 2.58200 26.57700
C  14.07600 2.17700 30.03700
O  13.27300 3.03000 30.15800
C  14.85700 1.43600 31.13100
C  15.66100 2.40200 31.95900
O  16.69100 2.92900 31.59100
O  15.13200 2.65700 33.20000
C  15.75300 3.75000 33.93500
H  19.74700 -3.59400 30.87200
H  18.86100 -4.07300 24.60400
H  14.95300 0.88800 24.82500
H  17.21100 0.04200 32.87800
H  17.99300 -2.77100 32.84200
H  19.83300 -1.78600 33.72000
H  19.50200 -0.22800 33.10800
H  20.49000 -1.27800 32.15500
H  15.75700 -2.44300 33.36600
H  14.77500 -1.10700 32.68800
H  15.03100 -1.49200 35.23000
H  14.60300 0.00700 34.48800
H  20.32400 -6.67800 29.37400
H  20.34300 -5.38900 30.57200
H  21.74000 -5.51500 29.50800
H  21.82400 -7.37700 25.89000
H  20.75000 -8.00900 27.00400
H  21.84600 -6.76200 27.55900
H  17.04100 -3.23700 23.20800
H  16.60800 -0.29600 23.09900
H  18.55600 -0.80200 22.32000
H  19.12000 -2.43100 22.06100
H  19.45800 -1.63800 23.54000
H  15.29100 -2.39500 22.04800
H  14.64900 -0.73700 22.10400
H  13.32800 -1.09200 24.09300
H  14.00700 -2.67000 24.34500
H  12.98400 -2.52000 23.00900
H  13.00000 3.38000 27.14800
H  12.81800 1.92300 26.01000
H  14.20000 3.07500 25.93000
H  14.09000 0.89900 31.69000
H  15.36000 3.71800 34.95100
H  15.38200 4.69000 33.52700
H  16.83000 3.62100 34.04200
Mg 25.13600 1.50900 29.94500
C  27.10200 1.04400 32.86600
C  22.36600 1.28000 32.08900
C  23.24700 1.60100 27.29200
C  27.88500 0.59800 28.05000
N  24.85500 1.37700 32.23900
C  25.76800 1.25800 33.20400
C  25.19900 1.31700 34.67800
C  23.76200 1.18800 34.37200
C  23.60200 1.31000 32.79000
C  22.93600 -0.02300 34.92900
C  25.65800 2.57800 35.55600
C  26.18000 2.23600 36.97400
H  25.69300 3.09800 38.16600
N  23.03300 1.60400 29.75400
C  22.10800 1.50300 30.72300
C  20.84200 1.74600 30.00100
C  21.02700 1.74300 28.59000
C  22.47400 1.69900 28.47400
C  19.62900 2.11300 30.66800
C  20.09200 1.81400 27.45100
O  20.44200 1.80800 26.24000
C  18.59100 1.89100 27.75400
N  25.45600 0.73300 27.96600
C  24.57500 1.16800 27.03100
C  25.07600 1.14100 25.57700
C  26.58200 0.74200 25.83200
C  26.66500 0.75300 27.41500
C  24.24700 0.15200 24.71000
C  27.54200 1.69400 25.04200
C  28.04200 2.97900 25.80000
N  27.13500 1.05000 30.29500
C  28.13400 0.75100 29.42100
C  29.33600 0.68700 30.17300
C  28.97300 0.88000 31.52400
C  27.61900 1.06000 31.53600
C  30.63900 0.39200 29.58600
C  29.54300 0.68700 32.80500
O  30.67400 0.39000 33.22300
C  28.29800 0.87500 33.76500
C  28.39500 -0.30000 34.73500
O  27.83500 -1.42700 34.59700
O  29.03400 0.08100 35.81300
C  28.82400 -0.71400 37.06400
H  21.51400 1.21300 32.76900
H  22.81500 1.71400 26.29600
H  28.79400 0.48500 27.45700
H  25.52900 0.44300 35.24000
H  23.21000 2.08900 34.64000
H  22.22200 0.34200 35.66700
H  23.56900 -0.70900 35.49200
H  22.61300 -0.79900 34.23500
H  24.82800 3.28400 35.57900
H  26.54400 3.02300 35.10200
H  27.27000 2.22000 36.99100
H  25.85400 1.25800 37.32900
H  19.64800 2.05500 31.75600
H  18.96500 1.25500 30.56100
H  19.19700 3.04200 30.29600
H  18.05200 1.82700 26.80900
H  18.26300 2.80200 28.25500
H  18.26300 1.08600 28.41200
H  25.03900 2.12000 25.09900
H  26.76800 -0.31600 25.64300
H  23.34500 -0.11800 25.25900
H  24.81600 -0.72200 24.39300
H  23.83200 0.61200 23.81300
H  27.05300 2.03100 24.12800
H  28.47200 1.22900 24.71500
H  27.56500 2.91500 26.77800
H  27.69400 3.82100 25.20200
H  29.13100 2.95600 25.79600
H  31.48900 0.80100 30.13200
H  30.69400 0.79900 28.57600
H  30.66700 -0.68700 29.43400
H  28.32600 1.77400 34.37900
H  28.27200 -1.64600 36.94300
H  28.35200 -0.07400 37.81000
H  29.79100 -0.96900 37.49700

