158

Mg 26.94800 49.84800 26.40500
C  24.67200 51.05400 28.84000
C  28.72400 48.50500 28.95500
C  29.08800 49.04800 24.04200
C  25.14400 51.67600 24.05300
N  26.66200 49.78100 28.61000
C  25.69300 50.28400 29.37800
C  25.76400 49.73900 30.84600
C  27.22900 49.22800 30.90900
C  27.57400 49.15000 29.36200
C  28.33100 49.94200 31.75900
C  24.58800 48.77600 31.35100
C  23.72500 49.35700 32.56400
H  23.91800 48.49100 33.77300
N  28.63800 48.85000 26.52600
C  29.28200 48.36900 27.63800
C  30.50900 47.77100 27.27500
C  30.63300 47.89600 25.86000
C  29.41100 48.59200 25.39000
C  31.42600 47.11100 28.29700
C  31.72700 47.43700 24.89700
O  31.51100 47.54100 23.69300
C  33.02000 46.84500 25.34300
N  27.10400 50.33600 24.43700
C  28.03400 49.80200 23.55200
C  27.92400 50.32500 22.07300
C  26.60200 51.17800 22.15300
C  26.27100 51.08200 23.65000
C  29.21000 50.96900 21.50700
C  25.34000 50.65700 21.33700
C  24.60800 51.76600 20.55900
N  25.19200 51.12800 26.38700
C  24.60400 51.74900 25.32100
C  23.43000 52.38000 25.75200
C  23.41900 52.15000 27.17800
C  24.52300 51.38300 27.51100
C  22.59800 53.26100 24.89000
C  22.72400 52.35800 28.36300
O  21.75400 53.02800 28.64100
C  23.43900 51.63900 29.48300
C  23.73100 52.48400 30.70800
O  24.66900 53.30600 30.84300
O  22.68300 52.44100 31.54400
C  22.63400 53.41600 32.66000
H  29.29300 48.00800 29.74400
H  29.64600 48.76600 23.14700
H  24.49000 52.20300 23.35500
H  25.87400 50.62000 31.47800
H  27.13900 48.24600 31.37300
H  28.99200 49.20700 32.21700
H  27.87800 50.61400 32.48800
H  28.93100 50.59200 31.12200
H  25.03300 47.78600 31.46000
H  23.80400 48.64400 30.60500
H  22.73900 49.32800 32.10100
H  23.99900 50.35200 32.91400
H  32.31600 47.74000 28.28700
H  31.57900 46.11500 27.88000
H  31.02400 47.07200 29.31000
H  33.57900 46.72100 24.41500
H  32.83600 45.94500 25.92900
H  33.58100 47.49100 26.01800
H  27.79800 49.48000 21.39700
H  26.86400 52.22000 21.97100
H  28.98400 52.00600 21.25800
H  29.73000 50.36700 20.76200
H  29.97400 50.98700 22.28300
H  24.68800 50.15900 22.05500
H  25.73500 49.98300 20.57700
H  23.61900 51.81800 21.01400
H  24.53200 51.42000 19.52800
H  25.06000 52.75600 20.61900
H  22.27500 54.06200 25.55500
H  21.69500 52.71600 24.61700
H  22.96000 53.66600 23.94500
H  22.83100 50.77900 29.76500
H  23.26500 54.29100 32.50400
H  23.07900 52.87200 33.49400
H  21.57800 53.66300 32.77000
Mg -12.60700 16.02200 42.31500
C  -9.56600 14.62800 41.55500
C  -11.68400 18.84200 40.44800
C  -15.79500 17.10900 41.93400
C  -13.82100 12.78100 42.98200
N  -10.83200 16.59000 41.13300
C  -9.67100 15.88200 40.96200
C  -8.63300 16.70800 40.21100
C  -9.29600 18.07600 39.86200
C  -10.72700 17.83600 40.48400
C  -8.39600 19.29500 40.31600
C  -8.03000 15.90600 38.95400
C  -6.43500 15.72800 38.91900
H  -5.78800 16.65800 37.78200
N  -13.54600 17.92400 41.66900
C  -12.98400 18.89900 40.93300
C  -13.90400 19.99600 40.72700
C  -15.11500 19.47500 41.08800
C  -14.81500 18.13300 41.61000
C  -13.53600 21.29900 40.14300
C  -16.50500 20.20200 41.02000
O  -16.66600 21.20000 40.34300
C  -17.65300 19.66200 41.80200
N  -14.57100 15.06900 42.25200
C  -15.76100 15.74400 42.22200
C  -16.94100 14.76400 42.43300
C  -16.22600 13.51900 43.17200
C  -14.77600 13.80400 42.78200
C  -18.13900 15.27700 43.30300
C  -16.74700 12.13900 42.69700
C  -16.66200 11.00300 43.72000
N  -11.84400 14.05900 42.42100
C  -12.44300 12.81200 42.73900
C  -11.38300 11.81200 42.95900
C  -10.21200 12.47200 42.54200
C  -10.59300 13.81300 42.11900
C  -11.58400 10.41700 43.48900
C  -8.83700 12.30400 42.30000
O  -8.07900 11.36700 42.49400
C  -8.31700 13.71300 41.65100
C  -7.44700 14.19500 42.68600
O  -7.84000 14.60800 43.77800
O  -6.16300 14.10700 42.26600
C  -5.11400 14.59400 43.21300
H  -11.30800 19.72500 39.92700
H  -16.82800 17.38400 41.71400
H  -14.13500 11.83300 43.42400
H  -7.83300 16.77900 40.94800
H  -9.49900 18.24300 38.80400
H  -8.35200 20.03300 39.51400
H  -7.40900 18.96700 40.63900
H  -8.74800 19.84100 41.19100
H  -8.36000 16.35000 38.01500
H  -8.45800 14.90400 38.97700
H  -6.18100 14.68000 38.76000
H  -5.96400 16.06100 39.84300
H  -13.93700 21.35200 39.13100
H  -12.45300 21.38300 40.05500
H  -13.87800 22.04400 40.86100
H  -18.26900 19.06500 41.12900
H  -18.26100 20.50600 42.12800
H  -17.21000 19.18100 42.67400
H  -17.40000 14.40300 41.51200
H  -16.44500 13.70500 44.22400
H  -18.99200 14.73100 42.89900
H  -18.28700 16.31800 43.01700
H  -18.05200 15.23800 44.38900
H  -16.05400 11.84900 41.90700
H  -17.72100 12.24000 42.21800
H  -15.97400 11.28600 44.51600
H  -16.28700 10.03700 43.38400
H  -17.64500 11.01600 44.19100
H  -11.95200 9.64700 42.81000
H  -12.19500 10.37800 44.39100
H  -10.56800 10.06300 43.66300
H  -7.76300 13.66300 40.71400
H  -5.04600 15.68100 43.21300
H  -4.12900 14.14300 43.09600
H  -5.33000 14.33800 44.25000

