158

Mg -1.97000 18.05900 26.96600
C  -2.26300 15.95900 29.79200
C  -2.65900 20.79400 29.22600
C  -1.66200 20.11800 24.52100
C  -2.12900 15.23300 24.85300
N  -2.32400 18.31700 29.21700
C  -2.37500 17.32400 30.16400
C  -2.60900 17.83300 31.54600
C  -2.97900 19.27700 31.25500
C  -2.60800 19.50500 29.78400
C  -4.45500 19.65500 31.58600
C  -1.45200 17.70400 32.66700
C  -2.01100 17.11200 33.92600
H  -1.01000 16.73800 35.02200
N  -2.06200 20.11300 26.92800
C  -2.36200 21.07400 27.88100
C  -2.16600 22.42700 27.37700
C  -1.76700 22.19700 26.04100
C  -1.79400 20.79000 25.78300
C  -2.47000 23.72000 28.11900
C  -1.43000 23.30400 24.95900
O  -1.12000 22.98200 23.78500
C  -1.40000 24.72200 25.33500
N  -2.15400 17.69600 24.90000
C  -1.88400 18.79100 24.12000
C  -1.74700 18.30900 22.64500
C  -2.20000 16.77200 22.74100
C  -2.10400 16.49400 24.23100
C  -2.53700 19.05000 21.53700
C  -1.47400 15.83500 21.76100
C  -0.09500 15.28400 22.11200
N  -2.11900 15.98600 27.16200
C  -2.15900 14.98700 26.25100
C  -2.32700 13.68300 26.86400
C  -2.34200 13.97600 28.26900
C  -2.18500 15.41200 28.41800
C  -2.63100 12.40200 26.22400
C  -2.51200 13.45200 29.62000
O  -2.69000 12.28500 29.99100
C  -2.43900 14.71300 30.66900
C  -1.32000 14.51800 31.63300
O  -0.09400 14.69800 31.34000
O  -1.71400 13.98300 32.80400
C  -0.68100 13.77100 33.88200
H  -2.90100 21.64600 29.86600
H  -1.36800 20.65200 23.61500
H  -1.92900 14.35900 24.22900
H  -3.46000 17.29500 31.96300
H  -2.35200 19.97100 31.81500
H  -4.55900 20.34300 32.42600
H  -5.03300 18.74900 31.76400
H  -4.88100 20.10400 30.68900
H  -1.08200 18.69400 32.93300
H  -0.64300 17.08200 32.28500
H  -2.67200 16.26900 33.72400
H  -2.58000 17.92600 34.37600
H  -1.57400 24.33600 28.20300
H  -2.89800 23.56100 29.10800
H  -3.30400 24.16000 27.57200
H  -0.59200 25.08600 25.97000
H  -2.40600 24.82200 25.74200
H  -1.39200 25.35500 24.44800
H  -0.66900 18.19200 22.53200
H  -3.26800 16.68000 22.54600
H  -3.06000 19.92200 21.92800
H  -3.29400 18.39700 21.10100
H  -1.74000 19.42600 20.89600
H  -1.25300 16.38600 20.84700
H  -2.12500 14.98600 21.55000
H  0.45600 15.72900 22.94000
H  0.45800 15.30000 21.17300
H  -0.15200 14.22700 22.37100
H  -3.62800 12.43100 25.78500
H  -2.65200 11.61600 26.97900
H  -1.84900 12.15200 25.50700
H  -3.30400 14.86600 31.31400
H  -1.20100 13.81900 34.83900
H  0.18100 14.42400 33.74800
H  -0.21500 12.79000 33.78900
Mg 49.00600 34.72100 27.97700
C  46.89400 32.97900 30.26200
C  49.46600 37.12100 30.38200
C  50.33100 36.78400 25.51100
C  48.02400 32.48500 25.46500
N  48.36200 34.89600 30.11200
C  47.58300 34.04900 30.87000
C  47.70200 34.43500 32.30200
C  48.12300 35.93700 32.22900
C  48.73000 35.96700 30.84400
C  47.05400 37.12000 32.38600
C  48.74100 33.55700 33.11500
C  48.57000 33.38700 34.61200
H  47.95300 34.48700 35.39200
N  49.88100 36.67400 28.00600
C  50.07200 37.39600 29.10200
C  50.81400 38.60000 28.74400
C  51.04700 38.54200 27.32000
C  50.36600 37.30100 26.88200
C  51.08300 39.69100 29.80800
C  51.86100 39.51800 26.42200
O  51.90800 39.50200 25.21000
C  52.43600 40.69000 27.08900
N  49.20500 34.68200 25.76000
C  49.89500 35.52300 25.04600
C  50.15800 35.10600 23.58900
C  49.42900 33.65300 23.58600
C  48.83000 33.58500 25.02200
C  49.69400 36.07200 22.54800
C  50.34200 32.38400 23.28000
C  50.37700 32.02300 21.81600
N  47.83700 33.02000 27.90100
C  47.50400 32.26000 26.77900
C  46.65800 31.09300 27.23500
C  46.30900 31.42600 28.53100
C  47.08700 32.56400 28.93000
C  46.18500 29.99800 26.43200
C  45.42600 31.09300 29.67000
O  44.57600 30.23100 29.81900
C  45.75000 32.06900 30.84300
C  46.07600 31.36100 32.10900
O  46.69900 30.33300 32.21700
O  45.56100 32.07500 33.17400
C  45.46300 31.43500 34.55900
H  49.52700 37.90900 31.13500
H  50.85400 37.42100 24.79600
H  47.76800 31.78400 24.66800
H  46.68400 34.40500 32.68800
H  48.84200 36.12100 33.02700
H  45.97800 36.94300 32.40800
H  47.34100 37.83900 31.61900
H  47.17300 37.56100 33.37600
H  49.74800 33.93700 32.94200
H  48.72900 32.53200 32.74300
H  49.55700 33.21200 35.04100
H  47.92500 32.53100 34.80800
H  52.08100 40.11700 29.71300
H  50.98700 39.38700 30.85100
H  50.41700 40.52500 29.58400
H  53.44100 40.58900 27.49800
H  51.75800 40.98800 27.88900
H  52.67200 41.38200 26.28100
H  51.24700 35.08000 23.60600
H  48.61500 33.84800 22.88800
H  48.63100 35.89000 22.39100
H  50.26300 36.00400 21.62100
H  49.88300 37.09900 22.86100
H  49.99400 31.52000 23.84500
H  51.37900 32.57200 23.55600
H  51.40000 31.74300 21.56400
H  49.97800 32.83500 21.20700
H  49.68500 31.23900 21.50900
H  46.54200 28.99100 26.64900
H  46.51900 30.15100 25.40600
H  45.09600 30.00200 26.45700
H  44.90500 32.70100 31.11600
H  45.16200 32.22000 35.25300
H  46.43800 30.97200 34.71100
H  44.65600 30.71700 34.41800

