158

Mg 1.22900 8.66400 27.11300
C  1.85700 10.75400 29.82000
C  1.47900 5.95500 29.47700
C  1.28800 6.47000 24.60800
C  1.62600 11.22600 25.01000
N  1.51700 8.43900 29.31000
C  1.64400 9.42100 30.24900
C  1.69500 8.93800 31.67100
C  1.90500 7.44200 31.52200
C  1.53700 7.23200 30.03200
C  3.33000 6.82500 31.90400
C  0.33200 9.27500 32.41200
C  0.14500 8.97800 33.91900
H  1.38800 8.51000 34.65800
N  1.23600 6.49600 27.05400
C  1.35000 5.55500 28.10300
C  1.39500 4.23300 27.53500
C  1.55700 4.41000 26.11500
C  1.32800 5.82400 25.84400
C  1.42400 3.00700 28.41600
C  1.82400 3.38000 25.04400
O  1.99200 3.64100 23.84800
C  1.94300 1.91300 25.49400
N  1.23700 8.82800 25.24700
C  1.22700 7.84000 24.32000
C  1.12900 8.35900 22.91300
C  0.93000 9.85300 23.09800
C  1.33100 9.98900 24.52800
C  2.12300 7.83200 21.84800
C  -0.45700 10.49300 22.83300
C  -0.52200 11.53800 21.72700
N  1.54100 10.69300 27.31400
C  1.67300 11.66300 26.36300
C  2.14000 12.86300 27.06700
C  2.15500 12.60100 28.40800
C  1.75300 11.29600 28.55300
C  2.41100 14.16600 26.38000
C  2.32800 13.17500 29.70800
O  2.59800 14.31600 30.08000
C  2.11700 11.97100 30.66500
C  3.32400 11.84200 31.47500
O  4.40000 11.32800 31.14700
O  3.09800 12.32600 32.74000
C  4.23900 12.26600 33.73100
H  1.69000 5.20300 30.24000
H  1.57000 5.84600 23.75700
H  1.66800 12.10100 24.35800
H  2.54000 9.43900 32.14300
H  1.20000 6.90500 32.15600
H  3.27500 5.98500 32.59700
H  3.83800 7.64500 32.41100
H  3.73300 6.50200 30.94400
H  -0.31500 8.59200 31.86300
H  0.03900 10.29700 32.16900
H  -0.59500 8.18400 34.02100
H  -0.25500 9.83400 34.46200
H  0.56100 2.43600 28.07200
H  1.26600 3.29100 29.45700
H  2.33200 2.47300 28.13700
H  2.46900 1.33200 24.73600
H  1.02300 1.36200 25.69100
H  2.68300 1.67300 26.25800
H  0.11600 8.05500 22.65000
H  1.68300 10.36500 22.49900
H  2.63900 8.71900 21.48000
H  1.55700 7.31800 21.07100
H  2.85800 7.12300 22.22900
H  -0.79100 10.98700 23.74500
H  -1.16800 9.70600 22.58200
H  -0.05200 12.45400 22.08400
H  -1.53400 11.79200 21.41100
H  -0.04000 11.26800 20.78700
H  1.60800 14.42500 25.69000
H  3.41300 14.22900 25.95500
H  2.34700 14.90100 27.18200
H  1.30400 12.11900 31.37600
H  5.03500 12.96600 33.47500
H  4.78100 11.32200 33.78000
H  3.82000 12.43400 34.72300
Mg 24.50500 -5.74400 46.05500
C  26.51900 -3.52800 44.25100
C  21.83500 -4.73700 44.12100
C  22.77800 -8.43900 47.17200
C  27.36500 -6.75700 47.91100
N  24.31700 -4.35500 44.30800
C  25.22300 -3.54400 43.77400
C  24.56300 -2.68700 42.66100
C  23.02600 -3.00300 42.84200
C  23.03400 -4.11500 43.81900
C  21.99700 -1.90100 43.32800
C  25.13800 -3.02000 41.24400
C  25.71000 -1.83100 40.37000
H  25.21100 -1.69800 38.89800
N  22.57900 -6.50600 45.62900
C  21.65700 -5.96400 44.83300
C  20.44100 -6.79500 44.91800
C  20.76400 -7.93400 45.71300
C  22.05900 -7.62000 46.25000
C  19.30600 -6.58900 44.05800
C  19.85500 -9.14400 45.93600
O  18.75600 -9.25200 45.34600
C  20.38000 -10.35600 46.74700
N  24.97200 -7.33200 47.40600
C  24.02900 -8.31600 47.72500
C  24.62800 -9.27200 48.77400
C  26.08300 -8.83100 48.92900
C  26.18800 -7.56900 48.06000
C  23.81600 -9.25200 50.11300
C  27.07900 -10.00600 48.63200
C  27.56800 -10.75300 49.88800
N  26.58000 -5.15000 46.21800
C  27.59100 -5.72300 46.98900
C  28.79900 -5.07000 46.63300
C  28.46300 -4.22600 45.56500
C  27.09100 -4.32200 45.33700
C  30.13300 -5.20300 47.29400
C  28.89000 -3.28300 44.56900
O  30.05300 -2.87000 44.41000
C  27.68300 -2.83400 43.71300
C  27.51500 -1.33400 43.81400
O  26.84500 -0.65600 44.58000
O  28.30500 -0.85000 42.80600
C  28.56300 0.57800 42.63400
H  20.98800 -4.36600 43.54100
H  22.39000 -9.39800 47.52200
H  28.22500 -7.14600 48.46000
H  24.72000 -1.61400 42.76600
H  22.65200 -3.41800 41.90500
H  21.17800 -1.78200 42.61800
H  22.48600 -0.92700 43.31700
H  21.62800 -2.10300 44.33300
H  24.37500 -3.40200 40.56600
H  25.87100 -3.81400 41.38200
H  26.77800 -2.01000 40.24500
H  25.68200 -0.88200 40.90500
H  19.20300 -5.54000 43.78000
H  18.41900 -6.92400 44.59400
H  19.40800 -7.25600 43.20200
H  20.54800 -9.95400 47.74600
H  21.35900 -10.63100 46.35300
H  19.67500 -11.18800 46.77000
H  24.45300 -10.27900 48.39600
H  26.20900 -8.35400 49.90100
H  24.45300 -8.99200 50.95800
H  23.42900 -10.24000 50.36400
H  22.95400 -8.59500 49.99000
H  27.92600 -9.59900 48.07900
H  26.55500 -10.66700 47.94200
H  26.95100 -11.63600 50.05300
H  27.51300 -10.12300 50.77600
H  28.55900 -11.12000 49.62200
H  30.84200 -4.65700 46.67200
H  30.26900 -6.28200 47.21700
H  30.13600 -4.82000 48.31400
H  27.78700 -3.17400 42.68300
H  29.64400 0.68800 42.54600
H  28.13100 1.32100 43.30500
H  28.22700 0.84900 41.63300

