158

Mg 1.79200 -2.35400 44.95800
C  5.05200 -1.17300 43.86600
C  0.33900 -0.31300 42.58700
C  -1.14500 -4.02700 45.40700
C  3.58200 -5.19600 46.19000
N  2.66900 -1.01300 43.33300
C  3.94600 -0.52400 43.26000
C  3.97900 0.59400 42.19500
C  2.50300 0.81600 41.80300
C  1.72100 -0.21600 42.59600
C  2.01800 2.28500 41.85600
C  4.89400 0.16300 40.94100
C  6.16700 1.04400 40.73500
H  6.11200 1.91700 39.40400
N  -0.13900 -2.09800 44.22000
C  -0.51100 -1.10600 43.25000
C  -1.97200 -1.18300 43.19000
C  -2.49700 -2.17300 43.99100
C  -1.24300 -2.83900 44.60100
C  -2.69600 -0.25400 42.22700
C  -4.01300 -2.68100 44.00600
O  -4.84400 -2.01100 43.40900
C  -4.42200 -3.97800 44.59800
N  1.31600 -4.18100 45.84200
C  0.01600 -4.63900 45.88900
C  -0.11000 -5.99600 46.51900
C  1.35600 -6.41800 46.74300
C  2.17700 -5.19100 46.26900
C  -0.99900 -6.16000 47.78000
C  1.65900 -7.76300 46.05300
C  2.81300 -8.57000 46.75500
N  3.87400 -3.04000 45.14400
C  4.41800 -4.14800 45.69300
C  5.87200 -4.18400 45.57700
C  6.14500 -3.01000 44.87900
C  4.92100 -2.27400 44.72900
C  6.76000 -5.26100 45.93100
C  7.22600 -2.34100 44.23900
O  8.39100 -2.68600 44.06400
C  6.59700 -0.99200 43.76900
C  7.11800 0.10200 44.67200
O  6.58500 0.48300 45.73400
O  8.12800 0.71700 44.05300
C  8.55000 2.08400 44.58900
H  -0.20900 0.42500 41.99700
H  -1.99900 -4.70600 45.44900
H  4.09700 -6.08900 46.54800
H  4.26800 1.49100 42.74300
H  2.29800 0.64400 40.74700
H  1.47500 2.50600 40.93700
H  2.85000 2.98700 41.89700
H  1.35900 2.40700 42.71500
H  4.33100 0.14900 40.00800
H  5.16500 -0.87900 41.11300
H  7.12300 0.52900 40.83100
H  6.17300 1.71300 41.59600
H  -3.77000 -0.17800 42.39800
H  -2.72900 -0.62500 41.20300
H  -2.18800 0.71100 42.22800
H  -5.49900 -4.03600 44.43900
H  -4.13400 -3.84600 45.64000
H  -3.84700 -4.64700 43.95800
H  -0.56000 -6.55900 45.70200
H  1.51500 -6.61800 47.80300
H  -1.15300 -5.12700 48.09100
H  -0.50700 -6.73600 48.56400
H  -2.01300 -6.50200 47.57100
H  1.90800 -7.54500 45.01500
H  0.73200 -8.33300 46.10900
H  3.55000 -8.78000 45.98000
H  2.35400 -9.51500 47.04600
H  3.24700 -8.10600 47.64100
H  7.16900 -5.52400 44.95500
H  6.22000 -6.11200 46.34400
H  7.53200 -4.86200 46.58900
H  6.87800 -0.72400 42.75100
H  9.62800 2.07400 44.42500
H  8.40600 2.20200 45.66300
H  8.10500 2.90000 44.02000
Mg 10.00500 48.33400 26.56500
C  7.89300 47.77700 29.30400
C  12.39000 49.40300 28.80200
C  12.12900 48.30700 23.97900
C  7.29800 47.77600 24.32700
N  10.04400 48.64200 28.79300
C  9.08600 48.30800 29.69100
C  9.42900 48.73000 31.11300
C  10.84000 49.40100 30.89300
C  11.13800 49.24000 29.39700
C  10.96700 50.97500 31.28300
C  9.31900 47.62800 32.16700
C  9.80200 48.06300 33.52200
H  9.17100 47.46200 34.81200
N  11.93300 48.80300 26.42200
C  12.78400 49.11400 27.46500
C  14.10300 49.25500 26.97100
C  14.07300 49.10100 25.56700
C  12.63300 48.74100 25.25600
C  15.36000 49.63800 27.84800
C  15.08500 49.44700 24.57100
O  14.87900 49.41500 23.35400
C  16.41800 49.84500 24.98500
N  9.77900 48.17000 24.40600
C  10.80600 48.09700 23.61100
C  10.34500 47.72500 22.17300
C  8.95300 47.16600 22.35500
C  8.63400 47.79000 23.70200
C  10.47000 48.90800 21.14600
C  8.77400 45.60700 22.42100
C  8.14100 44.86800 21.23100
N  7.98700 48.11600 26.71000
C  7.01200 47.79000 25.74400
C  5.73200 47.36300 26.41200
C  6.08100 47.38200 27.75600
C  7.42800 47.78900 27.89300
C  4.43900 47.05200 25.68400
C  5.46700 47.04500 29.04400
O  4.33100 46.69400 29.36700
C  6.65100 47.40300 30.05000
C  6.80500 46.15800 30.85200
O  7.60400 45.22600 30.64600
O  5.88500 46.27200 31.78800
C  5.97600 45.21300 32.80900
H  13.17800 49.81800 29.43400
H  12.82800 48.25200 23.14100
H  6.54100 47.33200 23.67800
H  8.71300 49.47900 31.45200
H  11.57200 48.81800 31.45100
H  11.66800 51.00400 32.11700
H  10.11500 51.51000 31.70300
H  11.34800 51.69800 30.56200
H  9.80000 46.73100 31.77700
H  8.25100 47.42100 32.22800
H  9.87700 49.15100 33.50200
H  10.84600 47.75100 33.49600
H  15.91500 48.71300 28.00300
H  15.05400 50.01500 28.82400
H  15.98100 50.45200 27.47200
H  16.30600 50.82900 25.43900
H  17.07300 49.83400 24.11400
H  16.72200 48.97300 25.56400
H  11.01800 46.89600 21.95200
H  8.25800 47.61000 21.64200
H  11.10600 49.75200 21.41600
H  9.45400 49.21800 20.90100
H  10.84900 48.51800 20.20200
H  8.18900 45.27400 23.27800
H  9.77300 45.17100 22.44700
H  7.95200 45.56800 20.41700
H  7.12200 44.55700 21.46000
H  8.67200 43.98800 20.86900
H  4.61100 46.40200 24.82700
H  4.06400 47.95600 25.20500
H  3.73300 46.58200 26.36900
H  6.28500 48.25300 30.62500
H  5.85000 45.85500 33.68000
H  6.91700 44.66600 32.85400
H  5.04700 44.64600 32.75300

