158

Mg 8.84500 3.37900 27.08600
C  10.12000 1.55900 29.75600
C  7.44900 5.61100 29.16300
C  7.10900 4.48800 24.44500
C  10.16900 0.70500 24.94100
N  8.88100 3.53900 29.31000
C  9.37700 2.70800 30.18300
C  9.13700 3.18800 31.58900
C  8.21300 4.44300 31.33700
C  8.19100 4.59400 29.85600
C  6.87200 4.42800 32.01600
C  10.41400 3.50200 32.48500
C  10.24500 4.51200 33.64300
H  11.06800 4.30600 34.90100
N  7.45200 4.86800 26.80500
C  7.14100 5.78700 27.79600
C  6.27700 6.83200 27.28800
C  6.07300 6.43300 25.91800
C  6.85300 5.16000 25.63600
C  5.81600 8.07200 28.02900
C  5.31500 7.15700 24.78400
O  5.18500 6.79300 23.60900
C  4.71100 8.54800 25.00300
N  8.63900 2.68700 24.98000
C  7.87700 3.39900 24.09100
C  7.88200 2.69100 22.77400
C  8.98200 1.60400 22.96600
C  9.35000 1.73200 24.35000
C  6.48800 2.13800 22.42700
C  10.14200 1.73600 21.89900
C  10.37200 0.61600 20.88700
N  10.05900 1.54900 27.21600
C  10.50100 0.61700 26.29000
C  11.08200 -0.53800 27.00400
C  11.03700 -0.16600 28.36300
C  10.41300 1.12200 28.43900
C  11.53600 -1.80900 26.45400
C  11.36700 -0.49700 29.64000
O  12.00900 -1.46400 30.05400
C  10.76400 0.58800 30.63400
C  9.87600 -0.09000 31.52800
O  8.74300 -0.48700 31.28600
O  10.52100 -0.25500 32.77900
C  9.68400 -0.81300 33.86600
H  6.85900 6.22000 29.85300
H  6.58000 4.88800 23.57700
H  10.47300 -0.14900 24.33200
H  8.55600 2.47100 32.16900
H  8.71200 5.35900 31.65200
H  6.67300 5.47900 32.22900
H  6.85600 3.80500 32.91000
H  6.09800 3.93000 31.43100
H  11.27500 3.79400 31.88400
H  10.66500 2.56700 32.98500
H  9.19000 4.47000 33.91400
H  10.38100 5.52700 33.27000
H  6.08600 8.00000 29.08300
H  4.72700 8.03500 27.99600
H  6.22300 9.02000 27.67600
H  5.46000 9.34000 24.98200
H  4.11100 8.54300 25.91300
H  4.00000 8.66500 24.18500
H  8.16200 3.37200 21.97000
H  8.52100 0.61900 22.88700
H  6.17700 2.50800 21.45000
H  5.63500 2.31500 23.08200
H  6.60600 1.07300 22.22900
H  11.07100 1.87600 22.45000
H  10.04600 2.66100 21.33000
H  9.99600 1.09900 19.98600
H  9.71700 -0.23800 21.05800
H  11.37300 0.22300 20.70800
H  12.57400 -1.85000 26.12500
H  10.79900 -2.01200 25.67800
H  11.42600 -2.45100 27.32800
H  11.58700 1.07200 31.15900
H  8.61400 -0.62600 33.78500
H  10.01700 -0.50500 34.85700
H  9.87200 -1.88700 33.84700
Mg 15.82500 51.09700 26.20400
C  18.04000 50.21500 28.89400
C  13.42900 51.63200 28.49000
C  13.76000 51.41500 23.71100
C  18.56100 50.15300 24.02900
N  15.81200 50.92800 28.32300
C  16.80200 50.64100 29.20900
C  16.36100 51.10700 30.60400
C  14.79700 51.27600 30.57400
C  14.69100 51.43100 29.03100
C  14.13300 49.95000 31.04100
C  17.10300 52.50000 31.02300
C  17.59700 52.86500 32.46800
H  16.96100 52.11400 33.64400
N  13.89700 51.49800 26.14700
C  13.01300 51.71500 27.17000
C  11.68500 51.79600 26.68600
C  11.75000 51.56000 25.25100
C  13.16500 51.50200 24.99100
C  10.40100 51.88100 27.58500
C  10.68900 51.48200 24.18500
O  10.99100 51.09300 23.04600
C  9.22500 51.80400 24.58800
N  16.16800 50.90200 24.19000
C  15.07900 51.15000 23.35300
C  15.57200 51.05700 21.81900
C  17.07100 50.62000 21.96300
C  17.32400 50.58400 23.49700
C  14.69000 50.19300 20.81200
C  18.08100 51.42600 21.13600
C  19.03000 50.70900 20.19100
N  17.85300 50.32700 26.39300
C  18.79500 50.06500 25.40200
C  20.00200 49.63500 26.02700
C  19.83000 49.72900 27.42600
C  18.48200 50.09600 27.56000
C  21.33300 49.21000 25.39100
C  20.41900 49.55400 28.70100
O  21.52100 49.16000 29.06000
C  19.28800 49.83100 29.75200
C  19.11300 48.69400 30.68100
O  18.57600 47.64700 30.45700
O  19.64300 49.03200 31.89200
C  19.30200 48.11000 32.95500
H  12.63200 51.81800 29.21300
H  13.15500 51.64500 22.83200
H  19.40700 49.95000 23.36900
H  16.71100 50.28300 31.22500
H  14.25700 52.03900 31.13500
H  14.92600 49.20300 31.08800
H  13.29800 49.66000 30.40400
H  13.78800 50.20800 32.04200
H  16.52600 53.30300 30.56300
H  18.08400 52.63700 30.56800
H  17.35000 53.89100 32.74000
H  18.68400 52.83200 32.54600
H  9.90100 50.91500 27.64900
H  9.80500 52.63200 27.06700
H  10.66400 52.31800 28.54900
H  8.56900 51.74200 23.72000
H  9.17700 52.83800 24.92900
H  8.95600 51.05500 25.33300
H  15.48300 52.09100 21.48500
H  17.16100 49.57700 21.65800
H  13.73200 49.88900 21.23400
H  15.29600 49.55600 20.16700
H  14.31600 50.85300 20.03000
H  18.68300 52.01700 21.82700
H  17.50400 52.09200 20.49500
H  19.12200 51.45100 19.39700
H  18.48200 49.89900 19.71000
H  19.91900 50.37400 20.72600
H  22.15600 49.61100 25.98200
H  21.27600 49.68800 24.41200
H  21.38200 48.12100 25.36900
H  19.53600 50.71500 30.34000
H  20.00900 47.28900 33.08200
H  18.26900 47.76600 32.91400
H  19.31400 48.73300 33.84900

