158

Mg 48.18300 15.89700 28.48400
C  46.17700 15.61900 31.38800
C  50.25000 18.00000 30.21800
C  50.07200 16.06100 25.81000
C  45.83200 14.00900 26.75700
N  48.09500 16.77700 30.55800
C  47.23200 16.36400 31.57100
C  47.75800 16.94700 32.94600
C  48.94300 17.86600 32.47300
C  49.05700 17.57200 30.96000
C  48.74200 19.44500 32.68500
C  48.19900 15.90200 33.92300
C  48.03200 16.33700 35.45200
H  49.10900 15.89200 36.41400
N  49.86800 16.96100 28.16500
C  50.59500 17.77600 28.95600
C  51.82200 18.21300 28.31200
C  51.79700 17.64900 26.96900
C  50.56900 16.80300 26.91600
C  52.89800 19.02100 29.02000
C  52.86100 17.74700 25.86800
O  52.81200 17.09800 24.82800
C  54.09800 18.54900 26.03800
N  47.88400 15.29300 26.53300
C  48.91500 15.37100 25.60500
C  48.58300 14.68200 24.27700
C  47.14500 14.23100 24.53100
C  46.92900 14.51200 25.99900
C  48.57900 15.70400 23.00500
C  46.97600 12.72800 24.14500
C  47.80100 11.64500 24.93800
N  46.38100 15.05700 28.94100
C  45.54500 14.25200 28.11500
C  44.37000 13.97900 28.83300
C  44.57000 14.45200 30.14300
C  45.82500 15.09200 30.16300
C  43.18600 13.19800 28.26700
C  43.95800 14.47300 31.43400
O  42.89600 14.00600 31.85900
C  44.98700 15.16800 32.34300
C  44.43100 16.48400 32.88500
O  44.11800 17.50400 32.23800
O  44.29500 16.38000 34.28100
C  44.08500 17.70200 34.93600
H  50.88200 18.68800 30.78300
H  50.74700 16.17000 24.95900
H  45.08100 13.41000 26.23700
H  46.98300 17.57200 33.39000
H  49.86300 17.56200 32.97100
H  48.58700 20.05700 31.79600
H  49.56900 19.82500 33.28400
H  47.86000 19.73400 33.25600
H  49.25600 15.73000 33.72200
H  47.67100 14.97800 33.68800
H  47.12000 15.80700 35.72400
H  47.86400 17.41000 35.53300
H  52.81600 19.10200 30.10400
H  53.06800 19.98700 28.54500
H  53.76900 18.39400 28.83100
H  53.85000 19.38000 26.69900
H  54.30600 18.86500 25.01600
H  54.99300 18.05800 26.42200
H  49.26000 13.85100 24.08000
H  46.35800 14.85000 24.10100
H  47.58100 15.84500 22.58800
H  49.22300 15.34100 22.20400
H  48.85000 16.72300 23.27900
H  47.42800 12.64500 23.15700
H  45.90200 12.58200 24.03200
H  47.08100 10.87400 25.21200
H  48.34200 12.02800 25.80200
H  48.57700 11.19300 24.32100
H  42.80900 13.40500 27.26500
H  42.36900 13.46700 28.93600
H  43.38000 12.12600 28.30200
H  45.34300 14.42300 33.05500
H  44.50600 18.49600 34.31900
H  44.60800 17.67300 35.89200
H  43.00100 17.81600 34.92600
Mg 41.25700 41.38400 27.00000
C  40.18900 43.66700 29.56900
C  42.18800 39.24800 29.52000
C  42.61500 39.61600 24.65300
C  40.70100 43.99800 24.70200
N  41.42500 41.58400 29.29800
C  40.74200 42.51800 30.11300
C  40.84300 42.08200 31.64300
C  41.60300 40.65500 31.56600
C  41.77900 40.49000 30.03700
C  42.94000 40.33800 32.26200
C  39.45700 41.99800 32.41900
C  39.43800 41.68300 33.87300
H  38.84900 42.75700 34.83000
N  42.17000 39.70200 27.06200
C  42.37500 38.85600 28.10200
C  42.98300 37.64300 27.61800
C  43.02100 37.69700 26.26700
C  42.65300 39.06500 25.92700
C  43.30900 36.46700 28.59900
C  43.32100 36.59500 25.25600
O  43.40900 36.78300 24.04900
C  43.62700 35.21200 25.70700
N  41.55500 41.69300 24.90200
C  42.22700 40.83200 24.10800
C  42.27900 41.27500 22.62000
C  41.55400 42.67300 22.76800
C  41.22900 42.78100 24.18000
C  43.71900 41.28500 22.11000
C  40.45100 43.00100 21.73000
C  38.91300 42.66300 22.02100
N  40.42200 43.34400 27.02300
C  40.32500 44.31000 26.03100
C  39.75900 45.55500 26.56100
C  39.74500 45.32200 27.94300
C  40.23600 43.99000 28.16900
C  39.37500 46.76600 25.88000
C  39.39200 45.97400 29.15800
O  38.97000 47.10700 29.37900
C  39.67300 44.96100 30.21200
C  40.50400 45.50200 31.32500
O  41.68700 45.84600 31.28200
O  39.63200 45.65600 32.46200
C  40.13400 46.44900 33.59200
H  42.53200 38.57100 30.30400
H  43.07500 39.00000 23.87800
H  40.55700 44.69200 23.87100
H  41.38200 42.71900 32.34400
H  40.84100 39.92900 31.85000
H  42.62400 39.49000 32.87000
H  43.16100 41.17700 32.92200
H  43.72100 39.98600 31.58800
H  38.92100 41.13300 32.02700
H  39.08200 42.99700 32.19900
H  40.47000 41.43400 34.12100
H  38.75500 40.84700 34.02000
H  42.98900 36.59500 29.63400
H  44.39100 36.33600 28.60600
H  42.84900 35.52600 28.29900
H  43.75900 34.55400 24.84800
H  42.82900 34.84500 26.35300
H  44.52100 35.25200 26.32900
H  41.62600 40.65100 22.00900
H  42.28600 43.47600 22.68500
H  43.81500 40.57600 21.28700
H  44.48500 41.01800 22.83700
H  44.12100 42.27500 21.89700
H  40.65400 42.41500 20.83300
H  40.63500 44.04700 21.48300
H  38.58500 42.05900 21.17500
H  38.29200 43.54900 21.88600
H  38.88400 42.15200 22.98300
H  38.46000 47.05400 26.39700
H  38.96000 46.47500 24.91500
H  40.08900 47.58300 25.77500
H  38.70700 44.77700 30.68200
H  40.57400 45.80900 34.35700
H  39.32300 47.09700 33.92200
H  40.96600 47.11700 33.36900

