158

Mg 44.12700 4.97900 47.45600
C  42.03800 7.70900 46.76000
C  41.29000 2.86100 46.99800
C  46.17700 2.43700 47.26100
C  46.86600 7.26600 47.61800
N  41.93800 5.27100 46.85800
C  41.34500 6.51300 46.64300
C  39.84600 6.36400 46.33100
C  39.63300 4.86400 46.85800
C  41.03000 4.28600 46.89100
C  38.97900 4.87100 48.25700
C  39.64000 6.51900 44.80600
C  38.53400 7.52900 44.42200
H  38.47200 8.08900 42.97800
N  43.82000 2.91700 47.07300
C  42.60700 2.22600 47.02300
C  42.90400 0.82200 46.97400
C  44.27400 0.66500 46.90900
C  44.86300 1.98500 47.09000
C  41.84600 -0.20200 46.91400
C  45.02700 -0.66300 46.78600
O  44.39500 -1.69700 46.68400
C  46.50600 -0.77200 46.76800
N  46.26000 4.90100 47.39200
C  46.87600 3.67500 47.43300
C  48.35000 3.75700 47.65400
C  48.59600 5.29100 47.82100
C  47.15900 5.89100 47.59400
C  48.89200 2.78700 48.75900
C  49.60500 5.97200 46.86200
C  50.69300 6.97800 47.32400
N  44.43900 7.03000 47.34600
C  45.59100 7.76600 47.31600
C  45.30300 9.15300 47.15400
C  43.92300 9.21200 46.95100
C  43.43600 7.86700 47.01400
C  46.28800 10.27200 47.05400
C  42.76900 10.05800 46.62800
O  42.65800 11.22300 46.44300
C  41.46500 9.06100 46.54800
C  40.67300 9.50100 47.82600
O  40.60400 8.91000 48.89200
O  39.85200 10.53100 47.53100
C  38.84900 10.94100 48.46800
H  40.33400 2.34500 46.89000
H  46.91500 1.63800 47.36000
H  47.70800 7.92800 47.82700
H  39.28800 7.17800 46.79300
H  39.00500 4.25700 46.20600
H  38.53600 5.84900 48.44200
H  39.69600 4.42700 48.94800
H  38.17900 4.14600 48.10700
H  39.32400 5.59300 44.32700
H  40.52100 6.87500 44.27100
H  38.20500 8.35100 45.05900
H  37.61300 6.94700 44.39700
H  41.87400 -0.76400 45.98000
H  40.92500 0.37700 46.97000
H  41.92100 -0.92500 47.72700
H  46.92000 -0.33000 45.86200
H  46.75100 -1.83200 46.83400
H  46.82200 -0.20400 47.64300
H  48.73900 3.39800 46.70100
H  48.81300 5.44400 48.87800
H  49.36400 1.94800 48.24800
H  48.05100 2.42400 49.34900
H  49.71300 3.20000 49.34600
H  48.98000 6.41800 46.08800
H  50.18900 5.29700 46.23600
H  50.59400 7.92300 46.79100
H  51.69500 6.60100 47.11800
H  50.57000 7.17400 48.38900
H  45.90000 11.00700 46.35000
H  47.25100 9.88100 46.72700
H  46.56600 10.77800 47.97900
H  40.75300 9.14500 45.72700
H  37.94100 10.89500 47.86600
H  39.02000 11.93400 48.88300
H  38.60400 10.20100 49.23000
Mg 50.00400 46.79100 42.22000
C  46.57800 47.13500 41.63600
C  49.88100 43.91500 40.27400
C  53.27200 46.82400 42.14200
C  49.91100 50.15200 43.26100
N  48.37500 45.73000 41.00100
C  47.10100 46.02500 40.99100
C  46.35800 45.20900 39.87900
C  47.44900 44.10800 39.47600
C  48.65000 44.64900 40.27700
C  47.05400 42.67000 39.85200
C  45.96000 46.21700 38.65700
C  44.53600 45.90600 38.16300
H  44.32500 45.70800 36.71500
N  51.40900 45.37900 41.38900
C  51.13500 44.25000 40.77400
C  52.40300 43.59400 40.63400
C  53.44200 44.46600 40.96400
C  52.71500 45.59200 41.58000
C  52.54700 42.23600 40.05100
C  54.89500 44.29200 40.70200
O  55.36200 43.34700 40.07400
C  55.90500 45.36000 41.00300
N  51.43900 48.38300 42.57900
C  52.75900 48.03400 42.55000
C  53.60000 49.17800 43.09000
C  52.45900 50.32100 43.38600
C  51.17900 49.55700 43.13500
C  54.43000 48.84600 44.41600
C  52.68400 51.62400 42.53500
C  52.20200 52.85500 43.33400
N  48.54700 48.27700 42.56800
C  48.68800 49.51400 43.05000
C  47.40100 50.17200 43.23800
C  46.48900 49.23500 42.67900
C  47.26700 48.09900 42.31500
C  47.11900 51.54700 43.76900
C  45.08200 48.91700 42.32300
O  44.05900 49.56900 42.38700
C  45.08100 47.46900 41.70900
C  44.46700 46.57200 42.62800
O  44.89400 46.25600 43.72400
O  43.32500 46.09300 42.06300
C  42.94000 44.82800 42.64500
H  49.71600 43.01500 39.67800
H  54.35100 46.85000 42.30700
H  49.94600 51.20400 43.55300
H  45.54100 44.63600 40.31700
H  47.74900 44.18900 38.43100
H  45.96800 42.57900 39.85000
H  47.40000 42.37600 40.84300
H  47.45000 42.11200 39.00300
H  46.70400 46.04700 37.87900
H  45.95400 47.26900 38.94400
H  43.84100 46.72000 38.37100
H  44.10000 45.06000 38.69300
H  53.27000 42.33400 39.24100
H  51.55300 41.88000 39.78400
H  53.03200 41.68600 40.85700
H  55.59600 46.34100 40.64300
H  56.84600 45.11800 40.50900
H  56.04400 45.42400 42.08200
H  54.29500 49.43100 42.29000
H  52.41700 50.62700 44.43100
H  55.48200 49.11200 44.30800
H  54.30400 47.87300 44.88900
H  54.11400 49.51600 45.21500
H  52.12600 51.34200 41.64200
H  53.74600 51.83400 42.41200
H  51.38300 53.32500 42.79000
H  52.99500 53.59200 43.46400
H  51.83200 52.65300 44.33900
H  46.07000 51.72100 44.00900
H  47.42600 52.24200 42.98800
H  47.80900 51.71800 44.59500
H  44.57500 47.51900 40.74500
H  41.91300 44.82200 43.01200
H  43.63200 44.32700 43.32200
H  43.03600 44.13500 41.80900

