158

Mg 7.85500 3.23500 27.37500
C  9.37300 1.96100 30.16300
C  6.01600 5.34300 29.41200
C  6.17100 4.06800 24.67400
C  9.21500 0.38900 25.56300
N  7.88300 3.73900 29.50400
C  8.58400 3.04900 30.40900
C  8.28900 3.54100 31.84800
C  7.25700 4.71500 31.55800
C  7.07400 4.61200 30.05300
C  5.87800 4.67800 32.32300
C  9.55900 3.90400 32.74800
C  9.33900 4.82300 33.98000
H  10.27600 4.90500 35.23000
N  6.50800 4.66400 27.03500
C  5.79600 5.38600 28.01700
C  4.88200 6.27600 27.34700
C  5.05700 6.02700 25.92800
C  5.95600 4.90300 25.80800
C  3.96600 7.30500 27.94700
C  4.55100 6.83900 24.79400
O  4.94300 6.63600 23.60800
C  3.63000 7.93500 24.92900
N  7.90000 2.43700 25.31100
C  7.03300 3.03300 24.40700
C  7.06800 2.26400 23.06500
C  8.15600 1.18600 23.33800
C  8.43100 1.30500 24.78400
C  5.70900 1.76000 22.59100
C  9.37700 1.25900 22.41900
C  9.69200 0.09200 21.44600
N  9.03200 1.58000 27.71300
C  9.51700 0.56100 26.90900
C  10.37900 -0.37400 27.63800
C  10.32800 0.16100 28.93100
C  9.48700 1.28800 28.94000
C  11.11000 -1.58800 27.15200
C  10.75500 -0.03700 30.31600
O  11.45300 -0.92600 30.77800
C  10.17400 1.12500 31.10000
C  9.41700 0.51200 32.19900
O  8.28700 0.04700 32.14100
O  10.04900 0.69000 33.43500
C  9.39900 0.30900 34.65100
H  5.28100 5.96400 29.92900
H  5.55200 4.37000 23.82700
H  9.60900 -0.44500 24.97900
H  7.74400 2.87900 32.52000
H  7.74500 5.67600 31.72600
H  5.54900 5.66600 32.64500
H  5.93000 4.25500 33.32600
H  4.93900 4.38500 31.85200
H  10.29300 4.43700 32.14400
H  10.08700 3.00700 33.07300
H  8.40500 4.48800 34.43200
H  9.32100 5.84500 33.60000
H  4.30700 8.28900 27.62700
H  4.01200 7.21200 29.03200
H  3.01800 6.99700 27.50600
H  4.16100 8.69900 25.49700
H  2.72300 7.71400 25.49100
H  3.30200 8.43200 24.01600
H  7.40400 2.91200 22.25600
H  7.74600 0.18400 23.21200
H  4.93900 2.10000 23.28300
H  5.80000 0.67400 22.56400
H  5.46000 2.05600 21.57200
H  10.26800 1.33200 23.04100
H  9.36000 2.14800 21.78800
H  8.74900 -0.38400 21.17900
H  10.47300 -0.50800 21.91400
H  10.21500 0.49600 20.57900
H  11.55600 -1.28900 26.20300
H  10.39300 -2.39700 27.01000
H  11.86500 -1.92600 27.86100
H  10.99700 1.76100 31.42500
H  10.00800 -0.13500 35.43900
H  8.58300 -0.39000 34.46600
H  8.97300 1.23400 35.04000
Mg -2.08400 34.24400 26.53600
C  -3.77300 32.95100 29.29600
C  -0.60100 36.54000 28.65000
C  -0.53300 35.77300 23.84200
C  -3.84900 32.23500 24.44000
N  -2.27400 34.76700 28.68200
C  -2.89800 33.99500 29.64700
C  -2.44400 34.31100 31.05100
C  -1.60700 35.62300 30.79100
C  -1.51200 35.62700 29.25200
C  -2.09600 36.92500 31.38300
C  -1.64800 33.14600 31.76000
C  -1.01300 33.55000 33.09400
H  -1.46600 32.85700 34.34200
N  -0.79000 36.01400 26.25100
C  -0.21900 36.73600 27.25100
C  0.73000 37.70200 26.65300
C  0.74000 37.49500 25.20800
C  -0.20200 36.37200 25.00300
C  1.60000 38.64000 27.46800
C  1.43100 38.16400 24.09700
O  1.16600 37.90200 22.91000
C  2.49700 39.07200 24.40400
N  -2.28200 34.16900 24.41800
C  -1.52400 34.78900 23.53800
C  -1.52500 34.17400 22.16100
C  -2.48200 32.95900 22.33400
C  -2.92900 33.10700 23.85600
C  -2.17700 35.13200 20.97300
C  -1.77600 31.56100 22.10100
C  -2.83200 30.51800 21.69100
N  -3.59800 32.91200 26.72900
C  -4.13600 32.10700 25.79400
C  -4.93600 31.11500 26.42300
C  -4.89600 31.44300 27.83600
C  -4.07300 32.53100 27.93500
C  -5.67700 30.03900 25.73100
C  -5.39200 31.08600 29.15700
O  -6.17200 30.17400 29.52200
C  -4.59800 32.03800 30.16600
C  -5.57500 32.65700 31.00200
O  -6.70900 33.00500 30.60400
O  -5.22000 32.59200 32.31900
C  -6.36800 32.71100 33.28700
H  -0.04500 37.10400 29.40300
H  -0.06000 35.93700 22.87200
H  -4.48700 31.72000 23.71800
H  -3.40100 34.48800 31.54200
H  -0.63100 35.52900 31.26700
H  -2.57800 37.66700 30.74700
H  -1.30000 37.46900 31.89200
H  -2.85600 36.58400 32.08700
H  -0.94700 32.70900 31.04900
H  -2.40400 32.37500 31.90900
H  -1.03500 34.63200 33.22300
H  0.05700 33.34900 33.04100
H  2.62800 38.63800 27.10400
H  1.62400 38.30300 28.50500
H  1.14300 39.62900 27.46300
H  2.15000 39.94700 24.95300
H  2.86300 39.46700 23.45700
H  3.34800 38.60500 24.90000
H  -0.52500 33.90800 21.81800
H  -3.35200 33.04300 21.68200
H  -3.26400 35.09700 20.90000
H  -1.78400 34.89000 19.98600
H  -1.91500 36.18600 21.06200
H  -1.52700 31.28800 23.12600
H  -0.80600 31.52300 21.60500
H  -2.39400 29.92500 20.88800
H  -3.83800 30.92500 21.58900
H  -3.02000 29.75500 22.44700
H  -5.43600 29.09900 26.22700
H  -5.52000 29.87600 24.66400
H  -6.75700 30.12900 25.84400
H  -3.98900 31.37800 30.78400
H  -6.80000 31.73300 33.49800
H  -7.07400 33.43400 32.87800
H  -6.05800 33.26800 34.17100

