158

Mg 47.07100 44.47500 43.52000
C  43.52000 44.13800 43.14400
C  47.19500 41.06900 42.58900
C  50.41400 44.76700 43.25200
C  46.70100 47.92100 43.58600
N  45.53200 42.84600 42.92000
C  44.22000 42.95200 42.88200
C  43.60800 41.60300 42.68200
C  44.72600 40.54000 42.77800
C  45.92500 41.54900 42.75700
C  44.68200 39.44400 43.88400
C  42.61400 41.34500 41.45500
C  42.86600 42.14800 40.15700
H  42.89700 41.44700 38.85100
N  48.66400 43.14400 43.00200
C  48.43300 41.84700 42.54900
C  49.73700 41.25500 42.27600
C  50.71000 42.25200 42.52600
C  49.97000 43.45000 42.96400
C  49.89600 39.75800 42.01300
C  52.16500 42.04000 42.49700
O  52.62200 41.04900 41.92500
C  53.15600 43.05300 43.05500
N  48.44900 46.12800 43.58800
C  49.76000 46.02200 43.51000
C  50.46300 47.34600 43.45600
C  49.26700 48.30200 43.15400
C  48.06200 47.41900 43.44800
C  51.18000 47.62900 44.74000
C  49.26600 48.97600 41.78600
C  49.66700 50.45000 41.77600
N  45.49300 45.83200 43.47900
C  45.44300 47.19100 43.61800
C  44.07300 47.59900 43.94600
C  43.31700 46.43800 43.70100
C  44.16600 45.36000 43.44800
C  43.64300 49.09600 44.25300
C  41.98600 45.93100 43.65100
O  40.94100 46.52000 43.78500
C  42.01300 44.43300 43.26700
C  41.35300 43.58900 44.22600
O  40.71300 42.63200 43.95600
O  41.43100 44.00900 45.49500
C  41.16000 42.99600 46.47100
H  47.12500 40.01400 42.31500
H  51.49800 44.89300 43.21600
H  46.77600 49.00900 43.64300
H  43.06400 41.56400 43.62600
H  44.76500 40.04200 41.80800
H  43.66400 39.40700 44.27300
H  45.33400 39.60100 44.74300
H  44.91000 38.60500 43.22600
H  41.59100 41.47900 41.80700
H  42.74200 40.26700 41.36000
H  43.76800 42.75900 40.16400
H  42.09700 42.91900 40.10900
H  50.00600 39.52800 40.95300
H  49.11400 39.17300 42.49800
H  50.81700 39.48900 42.53000
H  53.33000 43.87000 42.35400
H  54.09000 42.52400 43.24200
H  52.78200 43.38700 44.02300
H  51.16800 47.31600 42.62600
H  49.33500 49.15000 43.83500
H  51.44200 46.73500 45.30500
H  50.72100 48.37100 45.39400
H  52.17500 48.02900 44.55000
H  48.28900 48.88700 41.31000
H  49.91000 48.42400 41.10100
H  50.11400 50.75800 42.72200
H  48.75900 51.04500 41.67000
H  50.35900 50.70200 40.97300
H  43.29100 49.59300 43.34900
H  44.42400 49.73300 44.66800
H  42.78100 49.01900 44.91500
H  41.56300 44.36600 42.27600
H  41.41300 41.97700 46.17900
H  40.08300 42.98800 46.63400
H  41.66700 43.24900 47.40200
Mg 41.76600 41.67300 27.30600
C  40.76200 44.15000 29.67900
C  42.54800 39.58700 29.78900
C  42.93200 39.48200 24.93000
C  41.31500 44.06400 24.75500
N  41.61800 41.91300 29.47500
C  41.08400 42.87200 30.24900
C  41.08800 42.44300 31.72500
C  41.72000 41.02300 31.67200
C  41.97900 40.80600 30.19500
C  42.92900 40.70600 32.58000
C  39.81100 42.59100 32.56600
C  39.57000 41.53900 33.57800
H  38.99200 42.02300 34.95500
N  42.55600 39.83500 27.39400
C  42.82000 39.11100 28.52300
C  43.29700 37.79900 28.19700
C  43.48700 37.80900 26.76300
C  42.94000 39.04600 26.30900
C  43.55600 36.73100 29.26700
C  44.14400 36.68400 25.93800
O  44.37600 36.79700 24.77200
C  44.69600 35.43200 26.60500
N  42.01500 41.72000 25.06100
C  42.58600 40.70000 24.36400
C  42.50800 41.04300 22.87700
C  41.92000 42.47700 22.81500
C  41.73500 42.79000 24.32200
C  43.92500 40.84400 22.26300
C  40.55600 42.49800 22.07600
C  39.43800 41.58900 22.47500
N  41.23500 43.78700 27.14700
C  41.04600 44.55500 26.05000
C  40.67800 45.93500 26.54000
C  40.46400 45.70100 27.92800
C  40.83700 44.43000 28.28400
C  40.55900 47.14600 25.73800
C  40.02500 46.42300 29.10100
O  39.62500 47.54600 29.27400
C  40.07800 45.32200 30.36600
C  40.86000 45.92600 31.41900
O  42.03400 46.27100 31.41300
O  39.99000 46.29400 32.39500
C  40.54700 46.96400 33.56500
H  42.64900 38.97200 30.68600
H  43.09000 38.72600 24.15700
H  41.26200 44.87200 24.02200
H  41.83600 43.14600 32.09000
H  40.90000 40.32100 31.82600
H  42.88700 41.24900 33.52300
H  43.87800 40.93600 32.09600
H  42.85800 39.67400 32.92300
H  39.03500 42.54800 31.80200
H  39.86700 43.48200 33.19200
H  40.53000 41.10300 33.85300
H  38.84100 40.81000 33.22300
H  44.58800 36.39100 29.18900
H  42.91700 35.86800 29.07400
H  43.23400 36.78200 30.30700
H  45.53900 35.66300 27.25600
H  44.95500 34.73000 25.81200
H  43.93300 34.99700 27.25100
H  41.81400 40.35200 22.39800
H  42.71000 43.08600 22.37500
H  43.93200 40.27700 21.33200
H  44.57500 40.31400 22.95900
H  44.28300 41.85700 22.08000
H  40.84800 42.21400 21.06500
H  40.19500 43.52200 22.18100
H  39.16200 40.86900 21.70500
H  38.58400 42.24200 22.65600
H  39.60300 41.15800 23.46300
H  40.91500 47.89100 26.44900
H  39.53200 47.35200 25.43800
H  41.33100 47.08200 24.97100
H  39.10900 44.94900 30.69600
H  40.90800 46.34200 34.38400
H  39.64800 47.47900 33.90300
H  41.39100 47.60100 33.30200

