158

Mg 24.05700 -5.09300 45.83400
C  26.07500 -2.85000 44.09100
C  21.50900 -4.16400 43.47800
C  22.14400 -7.67000 46.80900
C  26.76800 -6.40500 47.44000
N  23.81600 -3.67500 44.04600
C  24.76200 -2.76900 43.61400
C  24.23400 -1.92800 42.42300
C  22.69900 -2.22000 42.47600
C  22.62700 -3.42600 43.39600
C  21.74900 -1.08300 42.90100
C  24.92400 -2.44100 41.05800
C  25.56000 -1.43400 40.22200
H  25.20500 -1.54300 38.75800
N  22.05200 -5.77900 45.20700
C  21.20100 -5.22700 44.35500
C  19.94900 -5.97900 44.43700
C  20.10700 -6.94000 45.42000
C  21.47700 -6.80500 45.88200
C  18.65200 -5.56500 43.67500
C  18.96300 -7.81700 45.92700
O  17.85700 -7.68400 45.48000
C  19.15800 -8.84900 47.00900
N  24.43100 -6.85000 46.92200
C  23.44500 -7.69400 47.32700
C  23.94500 -8.74600 48.22500
C  25.43000 -8.29100 48.48600
C  25.60300 -7.14500 47.53900
C  23.08100 -8.85900 49.48000
C  26.62400 -9.38800 48.18300
C  27.76700 -9.44900 49.25200
N  26.02400 -4.66000 45.85400
C  27.05100 -5.31100 46.59100
C  28.23200 -4.53500 46.46700
C  27.90000 -3.54200 45.48000
C  26.58700 -3.64700 45.16800
C  29.59800 -4.97600 46.84100
C  28.46300 -2.49300 44.65700
O  29.52200 -2.00200 44.54100
C  27.33100 -2.08200 43.53400
C  27.07800 -0.62400 43.69800
O  26.38700 -0.12000 44.56500
O  27.80900 0.05700 42.71800
C  27.91300 1.53900 42.76600
H  20.60900 -3.86600 42.93700
H  21.64200 -8.49100 47.32400
H  27.69000 -6.74700 47.91500
H  24.26700 -0.84300 42.52200
H  22.35700 -2.48400 41.47500
H  20.90200 -0.91100 42.23700
H  22.32300 -0.15600 42.91000
H  21.27400 -1.23400 43.87100
H  24.19000 -2.90500 40.39900
H  25.75200 -3.13200 41.21700
H  26.63900 -1.39900 40.37100
H  25.18500 -0.42700 40.40700
H  18.05500 -6.40000 43.30900
H  18.91400 -5.01300 42.77300
H  18.01300 -4.95000 44.31000
H  18.20800 -9.26900 47.34000
H  19.50200 -8.21900 47.82900
H  19.97400 -9.53400 46.77700
H  23.87200 -9.72000 47.74100
H  25.59600 -7.87600 49.48000
H  23.71000 -9.09300 50.33800
H  22.46900 -9.75700 49.39200
H  22.50600 -7.94300 49.61700
H  26.97100 -9.17100 47.17300
H  26.23800 -10.40700 48.17900
H  27.85400 -10.53200 49.34100
H  27.46300 -9.07500 50.23000
H  28.68300 -9.02300 48.84200
H  29.61400 -5.32500 47.87400
H  30.29300 -4.17900 46.57900
H  29.85500 -5.80300 46.18000
H  27.66800 -2.28600 42.51800
H  28.25200 1.90000 41.79500
H  28.56500 1.87500 43.57200
H  26.95600 2.02000 42.96500
Mg -1.85000 33.67900 27.57700
C  -3.86800 32.04100 30.08100
C  -0.70000 35.76400 30.05400
C  -0.39800 35.42500 25.22700
C  -3.70000 31.92100 25.12900
N  -2.22900 33.81700 29.80300
C  -3.01300 33.01800 30.66600
C  -2.76800 33.33600 32.12700
C  -1.95100 34.66300 32.02800
C  -1.69600 34.85600 30.44400
C  -2.57300 35.89300 32.65600
C  -2.10900 32.14900 32.97100
C  -3.09100 31.61600 34.08200
H  -2.53300 31.55500 35.45500
N  -0.54000 35.30700 27.64700
C  -0.16500 36.05700 28.76700
C  0.76900 37.03200 28.30400
C  0.88800 36.96200 26.84000
C  -0.14200 35.88300 26.49300
C  1.37000 38.03900 29.22300
C  1.65200 37.89200 25.85900
O  1.56000 37.94300 24.65800
C  2.48000 38.99000 26.47600
N  -2.04100 33.65200 25.45000
C  -1.25400 34.50300 24.65600
C  -1.34000 34.21200 23.16200
C  -2.21600 32.87600 23.22600
C  -2.70000 32.80900 24.67300
C  -2.01800 35.46200 22.40900
C  -1.29800 31.59400 22.98300
C  -1.93000 30.43200 22.09700
N  -3.44600 32.18600 27.54300
C  -4.07200 31.55600 26.48100
C  -5.06600 30.68000 27.00300
C  -4.91800 30.72400 28.37900
C  -3.94400 31.71900 28.69700
C  -5.84600 29.74200 26.21500
C  -5.33800 30.10700 29.66700
O  -6.23100 29.27800 29.83400
C  -4.68400 30.94800 30.79800
C  -5.74900 31.48100 31.65200
O  -6.38100 32.48800 31.36800
O  -5.96200 30.75100 32.78300
C  -6.77800 31.39800 33.86000
H  -0.26400 36.23200 30.93900
H  0.15700 35.98800 24.47400
H  -4.29500 31.31800 24.44000
H  -3.71000 33.65100 32.57700
H  -1.00400 34.43700 32.51900
H  -2.33500 36.79700 32.09600
H  -2.37000 36.10900 33.70500
H  -3.66000 35.80800 32.63900
H  -1.17400 32.42600 33.45700
H  -1.95300 31.24400 32.38400
H  -3.41200 30.58000 33.97900
H  -3.92300 32.31300 34.17500
H  1.23100 37.91800 30.29700
H  1.06400 39.05900 28.98800
H  2.42600 37.85300 29.02900
H  1.93500 39.54800 27.23800
H  2.89600 39.63900 25.70600
H  3.35800 38.58800 26.98100
H  -0.30200 34.04100 22.87400
H  -3.07500 32.81000 22.55900
H  -2.45500 36.19300 23.08900
H  -2.72000 35.06600 21.67500
H  -1.20700 35.98800 21.90600
H  -0.89500 31.26700 23.94200
H  -0.36500 31.97200 22.56700
H  -2.91800 30.76000 21.77300
H  -1.98900 29.58200 22.77700
H  -1.35500 30.18700 21.20500
H  -5.79300 28.69200 26.50200
H  -5.56500 29.78100 25.16200
H  -6.86900 30.11700 26.24600
H  -4.10700 30.26700 31.42400
H  -6.14700 31.76500 34.67000
H  -7.54100 30.75600 34.30000
H  -7.34700 32.30100 33.63600

