158

Mg 41.27200 8.90100 29.32100
C  43.32600 10.21700 31.93100
C  39.13900 7.71200 31.63700
C  39.40500 7.64100 26.78900
C  43.66000 10.03300 27.04300
N  41.40200 8.80300 31.53100
C  42.19200 9.52500 32.40200
C  41.80200 9.44400 33.89800
C  40.49600 8.63800 33.71700
C  40.32700 8.34700 32.19000
C  40.40300 7.37300 34.68500
C  41.58700 10.91700 34.51500
C  40.85200 10.96600 35.90600
H  41.54400 11.90200 36.95900
N  39.39900 7.94800 29.21300
C  38.78300 7.43700 30.27400
C  37.56100 6.80800 29.80700
C  37.59400 6.92000 28.41000
C  38.82100 7.51100 28.05200
C  36.54000 6.24600 30.79100
C  36.59000 6.45700 27.45700
O  36.67600 6.67900 26.24400
C  35.30800 5.84100 27.93900
N  41.59800 8.75500 27.23200
C  40.64000 8.20900 26.40600
C  40.98100 8.33100 24.90200
C  42.14800 9.37900 25.00200
C  42.49000 9.46500 26.49300
C  41.34700 6.90400 24.30000
C  41.72500 10.83700 24.47600
C  41.43200 12.00200 25.44600
N  43.16700 9.84400 29.42800
C  44.00600 10.19400 28.41000
C  45.11500 10.98600 28.95300
C  44.88300 10.86300 30.27100
C  43.67500 10.25400 30.57700
C  46.14100 11.77000 28.21300
C  45.41400 11.25700 31.50100
O  46.46900 11.76200 31.78700
C  44.37000 11.01900 32.64500
C  44.97400 10.26000 33.80700
O  45.31300 9.07500 33.73900
O  45.15600 11.05500 34.91300
C  45.57800 10.39000 36.16400
H  38.49800 7.31800 32.42900
H  38.93300 7.20600 25.90600
H  44.33300 10.34200 26.24000
H  42.51500 8.79200 34.40400
H  39.77300 9.36900 34.08000
H  41.38000 7.03300 35.03000
H  39.93500 6.57800 34.10600
H  39.91000 7.68700 35.60500
H  41.00500 11.57800 33.87300
H  42.57800 11.35400 34.63700
H  40.85700 9.97400 36.35600
H  39.81300 11.29400 35.88700
H  36.19200 5.27500 30.43900
H  35.76800 7.01500 30.82100
H  36.94100 6.20500 31.80300
H  34.87300 6.42100 28.75300
H  35.60600 4.93100 28.45900
H  34.59000 5.70700 27.13000
H  40.15300 8.77800 24.35200
H  43.05200 9.00000 24.52500
H  40.97700 6.16300 25.00800
H  42.43600 6.85500 24.27400
H  41.05900 6.82500 23.25100
H  40.88700 10.82800 23.77900
H  42.55600 11.10600 23.82300
H  41.29500 11.57700 26.44000
H  40.48500 12.50100 25.24100
H  42.32200 12.63000 25.40900
H  46.04900 11.73300 27.12800
H  47.10600 11.42400 28.58500
H  46.01300 12.81400 28.49900
H  43.93400 11.98200 32.90900
H  44.98100 10.69500 37.02300
H  46.62800 10.66200 36.26300
H  45.61700 9.30100 36.12600
Mg 35.13400 49.10600 26.54600
C  35.56300 46.91800 29.26000
C  34.01200 51.54200 28.66600
C  34.24100 50.99400 23.82500
C  35.85600 46.52200 24.43300
N  34.79200 49.31900 28.73200
C  35.16700 48.22700 29.61000
C  34.88700 48.73500 31.01000
C  34.40200 50.24000 30.87000
C  34.37200 50.39200 29.38100
C  33.03300 50.48500 31.55200
C  36.12700 48.59600 31.86900
C  36.01500 48.03100 33.34100
H  36.46600 49.11800 34.36200
N  34.35600 51.00800 26.30700
C  33.93200 51.85200 27.33600
C  33.60700 53.17400 26.76300
C  33.64500 53.11300 25.37300
C  34.06300 51.63300 25.10000
C  33.51500 54.43700 27.63500
C  33.52100 54.19200 24.35600
O  33.68200 53.97000 23.17100
C  33.11600 55.63200 24.69500
N  35.08500 48.85600 24.41400
C  34.61200 49.70500 23.49100
C  34.48300 49.04600 22.09600
C  35.27100 47.70400 22.33900
C  35.51200 47.68300 23.81200
C  33.06000 48.79900 21.46700
C  36.58100 47.43400 21.46100
C  36.93900 45.96800 21.03300
N  35.58600 47.15600 26.75800
C  35.88700 46.25500 25.76000
C  36.13600 44.96400 26.41200
C  35.98500 45.18800 27.76000
C  35.68100 46.51300 27.89000
C  36.33800 43.61200 25.78200
C  36.06500 44.53800 29.08000
O  36.34100 43.41800 29.44300
C  35.70800 45.67700 30.09800
C  34.43100 45.39500 30.79300
O  33.37500 45.05500 30.22000
O  34.55300 45.41700 32.19400
C  33.43500 44.82900 32.94400
H  33.52300 52.30300 29.27700
H  33.92200 51.57500 22.95700
H  36.00500 45.59100 23.88200
H  34.06700 48.10400 31.35200
H  35.05300 51.03400 31.23500
H  32.80700 49.64700 32.21100
H  32.32800 50.43800 30.72300
H  32.86000 51.46300 32.00100
H  36.66300 49.54400 31.89400
H  36.86800 47.97100 31.36900
H  36.64600 47.15400 33.48300
H  35.01100 47.72600 33.63600
H  34.32100 55.13300 27.40200
H  33.39600 54.32800 28.71300
H  32.58800 54.92300 27.32900
H  33.23900 56.26000 23.81200
H  33.70900 56.16300 25.43900
H  32.08800 55.69200 25.05300
H  35.01800 49.63900 21.35300
H  34.66400 46.81200 22.18100
H  33.10200 49.43300 20.58100
H  32.19500 49.01900 22.09200
H  32.86600 47.83500 20.99500
H  37.35900 47.73900 22.16000
H  36.64900 48.08300 20.58700
H  38.00200 45.80300 21.20800
H  36.76900 45.83500 19.96500
H  36.41200 45.20100 21.60100
H  37.39100 43.62300 25.49700
H  35.77700 43.32600 24.89200
H  36.24300 42.88300 26.58600
H  36.50500 45.93000 30.79700
H  32.49300 45.26400 32.60900
H  33.66600 45.32900 33.88500
H  33.44400 43.74000 32.99900

