158

Mg 25.35800 -6.30900 46.83200
C  27.08500 -3.53800 45.76200
C  22.74300 -5.54200 44.73200
C  24.09400 -9.41300 47.46400
C  28.37300 -7.27900 48.59000
N  25.02000 -4.84500 45.24200
C  25.85600 -3.74500 45.06000
C  25.12100 -2.64300 44.15800
C  23.76900 -3.42400 43.85500
C  23.81200 -4.64200 44.66000
C  22.50700 -2.48300 44.12400
C  25.99000 -2.46100 42.80200
C  26.61700 -1.09400 42.51300
H  26.56400 -0.60400 41.06400
N  23.58400 -7.21000 46.35100
C  22.71300 -6.79100 45.42200
C  21.60500 -7.73100 45.34100
C  21.83400 -8.75100 46.30200
C  23.20400 -8.49200 46.75800
C  20.44800 -7.64500 44.29800
C  20.85200 -9.87300 46.64600
O  19.72300 -9.95100 46.17300
C  21.16500 -10.73400 47.79000
N  26.15900 -8.16900 47.82000
C  25.42900 -9.25400 47.92000
C  26.28600 -10.41000 48.50700
C  27.42800 -9.58900 49.21700
C  27.35200 -8.22200 48.48900
C  25.46600 -11.21100 49.57400
C  28.83700 -10.27700 49.24200
C  29.48900 -10.34600 50.58700
N  27.38700 -5.66900 47.12600
C  28.40100 -6.12900 47.88200
C  29.49700 -5.10800 47.92000
C  28.96000 -3.98900 47.18900
C  27.72300 -4.47300 46.59100
C  30.84100 -5.19700 48.68100
C  29.17000 -2.64500 46.74600
O  30.05800 -1.85400 46.99200
C  28.01100 -2.30900 45.77500
C  27.34500 -1.03200 46.31100
O  27.13200 -0.04900 45.62700
O  26.95600 -1.18900 47.67200
C  26.28400 -0.01700 48.31200
H  21.95100 -5.24500 44.04100
H  23.76300 -10.45200 47.52800
H  29.24400 -7.54100 49.19400
H  24.88700 -1.74700 44.73300
H  23.67300 -3.81400 42.84200
H  22.67600 -1.47400 43.74800
H  22.22700 -2.50800 45.17700
H  21.76700 -2.89200 43.43600
H  25.35400 -2.50800 41.91900
H  26.81100 -3.16100 42.64800
H  27.65500 -1.23000 42.81600
H  26.19300 -0.35500 43.19300
H  20.74500 -8.02700 43.32200
H  20.02200 -6.64200 44.28600
H  19.60900 -8.33700 44.36900
H  20.30300 -11.27800 48.17500
H  21.50600 -10.17600 48.66200
H  21.89600 -11.40900 47.34500
H  26.49300 -11.12600 47.71300
H  27.02800 -9.59200 50.23100
H  25.98400 -11.47800 50.49500
H  25.22200 -12.21300 49.22100
H  24.50300 -10.73100 49.74500
H  29.53700 -9.64800 48.69200
H  28.86200 -11.24300 48.73800
H  29.90800 -11.35200 50.54400
H  28.80500 -10.28800 51.43300
H  30.28800 -9.60700 50.65500
H  31.62700 -4.67300 48.13700
H  31.08500 -6.25200 48.81100
H  30.84500 -4.65900 49.62800
H  28.51400 -2.13800 44.82400
H  25.29100 -0.26900 48.68500
H  26.24000 0.86800 47.67700
H  26.90500 0.18700 49.18400
Mg 46.89700 16.24900 27.89000
C  44.77100 16.24200 30.69400
C  49.01200 18.37700 29.71200
C  48.39400 17.40100 24.98800
C  44.35100 15.04000 25.99600
N  46.81000 17.33900 29.87000
C  45.98300 17.02700 30.89100
C  46.44500 17.56800 32.21700
C  47.71900 18.39700 31.87800
C  47.88900 18.01800 30.40300
C  47.68100 19.87100 32.19400
C  46.87300 16.40600 33.16200
C  46.64700 16.57500 34.67400
H  46.29500 17.97200 35.19300
N  48.56300 17.61300 27.38900
C  49.33000 18.26600 28.34700
C  50.52600 18.71700 27.69800
C  50.42100 18.43200 26.28200
C  49.03500 17.84900 26.15900
C  51.66300 19.27300 28.43600
C  51.39000 18.77700 25.10400
O  51.20000 18.49700 23.92000
C  52.77400 19.33200 25.38900
N  46.50500 16.26200 25.78600
C  47.23600 16.68200 24.81600
C  46.84700 16.14500 23.43600
C  45.57800 15.34300 23.77700
C  45.42300 15.62100 25.32100
C  46.62700 17.29700 22.43500
C  45.70600 13.73600 23.43800
C  44.71600 13.21600 22.34700
N  44.99900 15.56500 28.24800
C  44.15000 14.98400 27.37000
C  42.92800 14.66100 28.09900
C  43.11800 15.09200 29.39900
C  44.36700 15.69100 29.45500
C  41.59800 14.08200 27.60100
C  42.55400 15.19200 30.82300
O  41.45800 14.84600 31.17400
C  43.63300 15.98100 31.68300
C  42.97900 17.17400 32.32700
O  42.73200 18.18800 31.69600
O  42.57500 17.00000 33.63200
C  41.97600 18.04900 34.42000
H  49.71900 18.91300 30.34800
H  48.90400 17.65200 24.05500
H  43.55300 14.61900 25.38000
H  45.70100 18.26700 32.59900
H  48.64400 18.03300 32.32600
H  47.83000 20.49400 31.31200
H  48.48900 20.15600 32.86700
H  46.69600 20.10700 32.59500
H  47.91900 16.14600 33.00200
H  46.31300 15.54300 32.80200
H  47.61300 16.27700 35.08300
H  45.93500 15.85200 35.07200
H  51.62100 19.57900 29.48100
H  51.82200 20.19400 27.87400
H  52.52000 18.64800 28.18400
H  53.32600 19.23800 24.45400
H  53.30400 18.78200 26.16600
H  52.71900 20.40200 25.59400
H  47.64400 15.47300 23.11700
H  44.69800 15.72400 23.25900
H  46.72300 18.20400 23.03200
H  45.65100 17.27600 21.95100
H  47.35000 17.32900 21.62000
H  45.38700 13.26700 24.36900
H  46.77200 13.52400 23.35200
H  45.08600 12.24500 22.01900
H  44.66800 13.90300 21.50200
H  43.71900 13.01400 22.73700
H  41.29200 14.83300 26.87200
H  40.98900 13.89300 28.48500
H  41.81700 13.11100 27.15700
H  43.96800 15.33300 32.49400
H  42.03600 17.88400 35.49500
H  40.91000 18.16600 34.22500
H  42.52900 18.97100 34.23900

