158

Mg 47.08900 16.00300 28.26700
C  44.82200 15.44900 30.96900
C  49.25100 17.34500 30.68600
C  49.09900 16.81500 25.79300
C  44.72500 14.78300 26.20600
N  47.01200 16.44900 30.58600
C  46.04000 16.03800 31.43500
C  46.33800 16.44100 32.89700
C  47.65200 17.28500 32.75800
C  48.01800 17.09000 31.25700
C  47.47900 18.85700 32.99600
C  46.51100 15.20200 33.78500
C  46.08200 15.41900 35.26800
H  46.35600 16.94700 35.71200
N  48.98700 16.80100 28.27300
C  49.69200 17.27400 29.34700
C  50.99100 17.71200 28.85700
C  50.97300 17.50800 27.38700
C  49.69500 16.97300 27.06500
C  52.04600 18.10400 29.73300
C  52.11000 17.65800 26.26200
O  52.01400 17.21300 25.14400
C  53.41600 18.31900 26.68200
N  46.86000 15.85100 26.24300
C  47.82200 16.41400 25.39500
C  47.20100 16.52500 24.00800
C  46.05200 15.47700 24.03000
C  45.83400 15.32900 25.53900
C  46.69500 17.96500 23.84000
C  46.45000 14.01700 23.53500
C  45.31900 13.15700 22.83600
N  45.13200 15.29400 28.46400
C  44.31600 14.73600 27.54600
C  43.14700 14.19000 28.16000
C  43.27600 14.50300 29.53500
C  44.56300 15.09800 29.64600
C  41.96900 13.65300 27.36700
C  42.58300 14.49500 30.77600
O  41.45900 14.10300 31.05800
C  43.57500 15.04300 31.82800
C  42.90200 16.22600 32.48200
O  42.67900 17.21900 31.86000
O  42.65900 15.89300 33.77400
C  42.03700 16.97900 34.47900
H  49.94600 17.75300 31.42200
H  49.51500 17.45200 25.00900
H  44.02500 14.36600 25.47900
H  45.47500 17.04400 33.17900
H  48.42900 16.91800 33.42900
H  47.97200 19.31800 32.14000
H  47.99800 19.30500 33.84400
H  46.41900 19.09700 33.08100
H  47.49600 14.77300 33.60100
H  45.76200 14.52500 33.37400
H  46.81200 14.87200 35.86500
H  45.05700 15.08500 35.43000
H  52.71900 17.24700 29.68500
H  51.68900 18.40900 30.71600
H  52.60400 18.94200 29.31400
H  53.98700 18.53300 25.77800
H  53.98100 17.55800 27.22000
H  53.21800 19.22100 27.26100
H  47.95000 16.28000 23.25500
H  45.15500 15.84300 23.53000
H  45.61100 17.85900 23.84600
H  47.10200 18.34000 22.90100
H  47.03800 18.63900 24.62500
H  46.83300 13.52600 24.42900
H  47.28100 14.14800 22.84200
H  44.30300 13.55100 22.80700
H  45.19900 12.24800 23.42500
H  45.63900 12.88400 21.83000
H  41.28700 13.24400 28.11300
H  42.22500 12.84800 26.67900
H  41.65800 14.59600 26.91700
H  43.91400 14.19800 32.42800
H  41.62300 17.78800 33.87700
H  42.80600 17.36000 35.15100
H  41.23900 16.51600 35.05900
Mg -5.46800 25.16300 25.64400
C  -3.98400 26.69100 28.41700
C  -6.81000 22.77600 27.77100
C  -6.49200 23.56900 23.03100
C  -3.48000 27.24100 23.54600
N  -5.30600 24.72100 27.81600
C  -4.77300 25.61800 28.76000
C  -5.20900 25.26200 30.19900
C  -5.79500 23.81100 29.96000
C  -6.01800 23.72600 28.44500
C  -4.86400 22.59200 30.41700
C  -6.30900 26.23800 30.76400
C  -6.34900 26.58600 32.24500
H  -5.89700 25.49300 33.24700
N  -6.51500 23.39200 25.44100
C  -7.02700 22.55900 26.39000
C  -7.79500 21.50700 25.76500
C  -7.89800 21.80600 24.36600
C  -6.94700 22.95000 24.19900
C  -8.47700 20.35400 26.57100
C  -8.68700 21.19400 23.26200
O  -8.72200 21.66900 22.14500
C  -9.42000 19.94200 23.47400
N  -4.90400 25.28200 23.60100
C  -5.56200 24.47100 22.69400
C  -5.17800 24.79700 21.21200
C  -4.12100 26.01500 21.47400
C  -4.17300 26.22400 22.90400
C  -4.73700 23.62600 20.31800
C  -4.39600 27.21800 20.48500
C  -5.66000 28.04300 20.84300
N  -4.12100 26.64500 25.96100
C  -3.39600 27.46700 24.97400
C  -2.75800 28.51300 25.65700
C  -2.94500 28.29900 27.01800
C  -3.73900 27.13400 27.16200
C  -2.08300 29.71100 25.10900
C  -2.65400 28.80400 28.36300
O  -2.16800 29.84300 28.75000
C  -3.42300 27.80300 29.35900
C  -2.39900 27.14600 30.23800
O  -1.41700 26.55600 29.84700
O  -2.65600 27.37700 31.57900
C  -1.71100 26.80500 32.56200
H  -7.19100 22.09600 28.53600
H  -6.89300 23.03000 22.17000
H  -2.94600 27.92800 22.88600
H  -4.35800 25.28100 30.88000
H  -6.73000 23.76600 30.51700
H  -4.60700 21.97400 29.55600
H  -5.36000 22.03500 31.21200
H  -3.93900 22.97600 30.84800
H  -7.27300 25.88000 30.40500
H  -6.16700 27.14000 30.16900
H  -7.37600 26.70100 32.59400
H  -5.74900 27.47200 32.45400
H  -7.91200 19.51100 26.17400
H  -9.53400 20.35200 26.30300
H  -8.33300 20.35300 27.65200
H  -8.92900 19.26100 24.16800
H  -9.24200 19.40400 22.54200
H  -10.48800 20.00400 23.68400
H  -6.05700 25.25900 20.76300
H  -3.07500 25.79300 21.26400
H  -5.15700 23.65100 19.31200
H  -5.04800 22.65900 20.71300
H  -3.68600 23.76000 20.06300
H  -4.62800 26.67100 19.57200
H  -3.45400 27.76400 20.43900
H  -6.15000 27.51100 21.65900
H  -6.35900 28.02800 20.00700
H  -5.42900 29.07700 21.09700
H  -1.01200 29.58500 25.26700
H  -2.48500 30.60800 25.58100
H  -2.25100 29.76500 24.03400
H  -4.15100 28.35400 29.95600
H  -0.73400 27.28200 32.49400
H  -1.60100 25.72100 32.52600
H  -2.17400 26.95200 33.53800

