158

Mg 25.73100 0.36400 29.41900
C  27.81000 0.21200 32.32100
C  23.01800 0.82100 31.52900
C  23.77000 0.10200 26.71200
C  28.55000 -0.70200 27.50800
N  25.42900 0.47900 31.65400
C  26.42800 0.40100 32.62200
C  25.80300 0.53200 34.03100
C  24.26900 0.65500 33.74800
C  24.21400 0.67300 32.20000
C  23.31600 -0.36800 34.46000
C  26.50100 1.59100 34.94300
C  25.50400 2.09000 36.06300
H  25.95500 1.97800 37.44300
N  23.73100 0.60000 29.12900
C  22.79100 0.79100 30.10200
C  21.48200 0.85100 29.45900
C  21.74600 0.86400 28.02700
C  23.17600 0.46900 27.94300
C  20.20300 1.01800 30.28300
C  20.79200 1.11100 26.82200
O  21.02100 1.11100 25.57700
C  19.52600 1.76300 27.21600
N  26.15300 -0.39700 27.37800
C  25.16100 -0.27800 26.40600
C  25.61200 -0.85500 25.03800
C  27.17400 -0.96600 25.25200
C  27.33100 -0.65500 26.76100
C  24.99300 -2.17000 24.74300
C  28.02000 0.06400 24.40900
C  27.56500 1.46600 24.54900
N  27.76300 -0.05800 29.75300
C  28.73200 -0.52600 28.93800
C  29.98600 -0.62900 29.67600
C  29.65800 -0.37600 31.02100
C  28.28700 -0.10100 31.05700
C  31.23800 -1.07000 29.01300
C  30.18200 -0.25900 32.37000
O  31.36600 -0.33200 32.78200
C  29.02200 0.03200 33.27200
C  28.82400 -1.00900 34.33900
O  28.64000 -2.17800 34.11300
O  29.11400 -0.45900 35.59800
C  29.10200 -1.42600 36.79000
H  22.11800 0.97900 32.12600
H  23.03600 -0.11000 25.93200
H  29.40200 -1.11400 26.96400
H  26.05200 -0.41000 34.52000
H  23.91200 1.64100 34.04400
H  22.51900 0.16800 34.97500
H  23.84800 -1.02700 35.14700
H  22.92700 -1.00400 33.66500
H  26.96500 2.34200 34.30300
H  27.34900 1.03100 35.33700
H  24.59100 1.49700 36.11100
H  25.34400 3.16300 35.95400
H  20.33600 0.59000 31.27700
H  19.26200 0.67600 29.85200
H  19.93200 2.07100 30.37000
H  18.83400 1.08900 27.72000
H  19.02300 2.14400 26.32700
H  19.81300 2.67900 27.73200
H  25.34000 -0.19400 24.21500
H  27.55800 -1.96700 25.05500
H  24.17600 -2.37000 25.43600
H  25.73000 -2.91300 25.04800
H  24.63300 -2.27700 23.71900
H  28.00200 -0.30800 23.38400
H  29.06300 -0.07900 24.69200
H  26.72200 1.67100 25.20900
H  27.35600 1.85800 23.55400
H  28.32200 2.10700 25.00000
H  31.75700 -1.43200 29.90000
H  31.89900 -0.30900 28.59900
H  30.94800 -1.79500 28.25200
H  29.23600 1.01300 33.69600
H  29.03100 -2.47500 36.50000
H  28.23200 -1.36600 37.44400
H  29.97200 -1.33300 37.44000
Mg -1.94400 35.32100 27.12400
C  -3.98700 34.07600 29.67100
C  -1.02900 37.93900 29.07800
C  -0.34600 36.72500 24.41000
C  -3.15000 32.80400 24.97900
N  -2.46200 35.91400 29.23800
C  -3.27900 35.23100 30.06700
C  -3.30000 35.89400 31.48700
C  -2.40600 37.20700 31.23700
C  -1.95400 37.02100 29.72800
C  -3.13700 38.55900 31.44100
C  -2.68000 35.00000 32.65100
C  -3.30400 35.11300 33.99900
H  -2.70100 36.18700 34.85700
N  -0.93700 37.05400 26.77800
C  -0.67900 38.04100 27.69000
C  0.09500 39.12200 27.12800
C  0.27000 38.80500 25.73500
C  -0.32100 37.46800 25.59000
C  0.43100 40.36200 27.96000
C  0.95800 39.67600 24.66500
O  0.78700 39.46400 23.49400
C  1.82400 40.92700 25.04200
N  -1.76100 34.85600 24.95800
C  -0.97500 35.50600 24.12000
C  -0.86800 34.88200 22.73100
C  -1.91500 33.75300 22.87400
C  -2.28900 33.77700 24.36400
C  -0.93400 35.83800 21.47200
C  -1.42500 32.41700 22.35000
C  -2.14100 32.04600 21.03800
N  -3.14400 33.73100 27.25800
C  -3.59100 32.79100 26.34900
C  -4.54400 31.90400 26.92200
C  -4.64500 32.37800 28.24400
C  -3.81800 33.51200 28.39100
C  -5.28700 30.82100 26.21100
C  -5.23700 31.93700 29.48300
O  -5.92700 31.01200 29.84900
C  -4.75300 33.10000 30.44100
C  -5.95800 33.72700 31.02100
O  -6.53100 34.66900 30.50100
O  -6.28000 33.08300 32.17400
C  -7.46600 33.65800 32.78500
H  -0.81700 38.70400 29.82800
H  0.26700 37.14700 23.61100
H  -3.59300 31.99700 24.39100
H  -4.31200 36.26000 31.65900
H  -1.52700 37.16400 31.88100
H  -2.56900 39.10400 32.19500
H  -4.17300 38.41300 31.74500
H  -3.36900 39.07700 30.51000
H  -1.66200 35.28800 32.91400
H  -2.72200 33.96800 32.30200
H  -3.19800 34.15100 34.50100
H  -4.36600 35.27500 33.81900
H  1.41300 40.33400 28.43100
H  -0.36200 40.52400 28.68900
H  0.52200 41.25000 27.33500
H  2.36900 40.83900 25.98100
H  1.09000 41.72300 25.17100
H  2.55000 41.10700 24.24900
H  0.09900 34.38000 22.72900
H  -2.81300 34.16700 22.41700
H  -1.50000 36.74300 21.69700
H  -1.59600 35.35300 20.75600
H  0.05400 36.04300 21.05900
H  -1.74200 31.63400 23.03900
H  -0.36000 32.18800 22.29700
H  -2.97300 31.39400 21.30600
H  -1.36600 31.55500 20.44900
H  -2.42600 32.95400 20.50600
H  -6.20600 30.58400 26.74600
H  -4.83100 29.85300 26.00000
H  -5.57600 31.32900 25.29100
H  -4.28000 32.61800 31.29700
H  -8.16800 33.80700 31.96500
H  -7.21200 34.53700 33.37700
H  -8.02200 32.99500 33.44700

