158

Mg 24.33000 -5.89600 46.14200
C  26.32200 -3.26500 44.61900
C  21.64300 -4.58200 44.30200
C  22.63800 -8.48900 47.02900
C  27.16800 -6.90300 47.76600
N  24.08200 -4.06400 44.62300
C  25.00400 -3.18800 44.19700
C  24.40300 -2.33300 43.06800
C  22.87000 -2.52400 43.23100
C  22.80400 -3.79800 44.13900
C  22.42800 -1.29900 44.09300
C  24.98700 -2.82200 41.70000
C  25.71400 -1.85000 40.78700
H  25.29700 -1.79600 39.37600
N  22.45400 -6.56500 45.61000
C  21.45900 -5.87900 44.93600
C  20.28500 -6.75700 44.89700
C  20.49800 -7.84600 45.80200
C  21.91900 -7.68800 46.13500
C  18.94900 -6.36000 44.19600
C  19.47900 -8.87400 46.12900
O  18.36900 -8.95100 45.58400
C  19.79300 -9.90600 47.26000
N  24.80100 -7.40800 47.31000
C  23.93300 -8.43200 47.53600
C  24.61600 -9.49600 48.41600
C  25.99100 -8.89600 48.78900
C  25.97600 -7.60100 47.99400
C  23.76700 -10.26700 49.60000
C  27.25400 -9.80700 48.48300
C  28.29600 -10.04000 49.64500
N  26.35800 -5.17100 46.31200
C  27.39000 -5.72100 47.04100
C  28.51800 -4.81500 46.92400
C  28.22700 -3.94700 45.91100
C  26.81500 -4.11700 45.57700
C  29.87300 -4.89100 47.62300
C  28.70000 -2.89300 45.03900
O  29.80900 -2.39700 44.91000
C  27.52700 -2.43800 44.09200
C  27.23600 -0.95600 44.23100
O  26.46800 -0.48600 45.03300
O  28.07400 -0.32300 43.29000
C  27.88000 1.14500 43.25100
H  20.72900 -4.19900 43.84400
H  22.08500 -9.36900 47.36600
H  28.04800 -7.17100 48.35500
H  24.73200 -1.29900 43.18100
H  22.23900 -2.60400 42.34600
H  21.81500 -1.72200 44.88900
H  21.75000 -0.63700 43.55400
H  23.14400 -0.56400 44.46200
H  24.17500 -3.26900 41.12600
H  25.68400 -3.62300 41.94500
H  26.79500 -1.98300 40.81300
H  25.52600 -0.84000 41.15300
H  18.46100 -7.19500 43.69300
H  19.10000 -5.56500 43.46600
H  18.24200 -6.00400 44.94600
H  20.06700 -9.34400 48.15300
H  20.53600 -10.58700 46.84500
H  18.86000 -10.45100 47.40300
H  24.89300 -10.16400 47.60000
H  26.06200 -8.54000 49.81700
H  22.88000 -9.67100 49.81800
H  24.39000 -10.28900 50.49500
H  23.49500 -11.27300 49.28100
H  28.02300 -9.38900 47.83300
H  26.83200 -10.76500 48.18200
H  29.31700 -9.71600 49.44500
H  28.38000 -11.11700 49.79500
H  27.89600 -9.53600 50.52500
H  29.87500 -4.87100 48.71300
H  30.56000 -4.20500 47.12700
H  30.36900 -5.85600 47.51600
H  27.76800 -2.69800 43.06200
H  26.82900 1.33200 43.02800
H  28.54800 1.63500 42.54200
H  28.18200 1.57300 44.20700
Mg -1.94400 35.32100 27.12400
C  -3.98700 34.07600 29.67100
C  -1.02900 37.93900 29.07800
C  -0.34600 36.72500 24.41000
C  -3.15000 32.80400 24.97900
N  -2.46200 35.91400 29.23800
C  -3.27900 35.23100 30.06700
C  -3.30000 35.89400 31.48700
C  -2.40600 37.20700 31.23700
C  -1.95400 37.02100 29.72800
C  -3.13700 38.55900 31.44100
C  -2.68000 35.00000 32.65100
C  -3.30400 35.11300 33.99900
H  -2.70100 36.18700 34.85700
N  -0.93700 37.05400 26.77800
C  -0.67900 38.04100 27.69000
C  0.09500 39.12200 27.12800
C  0.27000 38.80500 25.73500
C  -0.32100 37.46800 25.59000
C  0.43100 40.36200 27.96000
C  0.95800 39.67600 24.66500
O  0.78700 39.46400 23.49400
C  1.82400 40.92700 25.04200
N  -1.76100 34.85600 24.95800
C  -0.97500 35.50600 24.12000
C  -0.86800 34.88200 22.73100
C  -1.91500 33.75300 22.87400
C  -2.28900 33.77700 24.36400
C  -0.93400 35.83800 21.47200
C  -1.42500 32.41700 22.35000
C  -2.14100 32.04600 21.03800
N  -3.14400 33.73100 27.25800
C  -3.59100 32.79100 26.34900
C  -4.54400 31.90400 26.92200
C  -4.64500 32.37800 28.24400
C  -3.81800 33.51200 28.39100
C  -5.28700 30.82100 26.21100
C  -5.23700 31.93700 29.48300
O  -5.92700 31.01200 29.84900
C  -4.75300 33.10000 30.44100
C  -5.95800 33.72700 31.02100
O  -6.53100 34.66900 30.50100
O  -6.28000 33.08300 32.17400
C  -7.46600 33.65800 32.78500
H  -0.81700 38.70400 29.82800
H  0.26700 37.14700 23.61100
H  -3.59300 31.99700 24.39100
H  -4.31200 36.26000 31.65900
H  -1.52700 37.16400 31.88100
H  -2.56900 39.10400 32.19500
H  -4.17300 38.41300 31.74500
H  -3.36900 39.07700 30.51000
H  -1.66200 35.28800 32.91400
H  -2.72200 33.96800 32.30200
H  -3.19800 34.15100 34.50100
H  -4.36600 35.27500 33.81900
H  1.41300 40.33400 28.43100
H  -0.36200 40.52400 28.68900
H  0.52200 41.25000 27.33500
H  2.36900 40.83900 25.98100
H  1.09000 41.72300 25.17100
H  2.55000 41.10700 24.24900
H  0.09900 34.38000 22.72900
H  -2.81300 34.16700 22.41700
H  -1.50000 36.74300 21.69700
H  -1.59600 35.35300 20.75600
H  0.05400 36.04300 21.05900
H  -1.74200 31.63400 23.03900
H  -0.36000 32.18800 22.29700
H  -2.97300 31.39400 21.30600
H  -1.36600 31.55500 20.44900
H  -2.42600 32.95400 20.50600
H  -6.20600 30.58400 26.74600
H  -4.83100 29.85300 26.00000
H  -5.57600 31.32900 25.29100
H  -4.28000 32.61800 31.29700
H  -8.16800 33.80700 31.96500
H  -7.21200 34.53700 33.37700
H  -8.02200 32.99500 33.44700

