158

Mg 47.38600 34.19000 26.48500
C  45.90200 32.69600 29.32800
C  47.99600 36.98900 28.33400
C  48.37500 35.73300 23.63100
C  46.61200 31.24100 24.72400
N  46.84800 34.79200 28.56700
C  46.40000 33.97100 29.51700
C  46.47600 34.67600 30.89800
C  46.72900 36.13200 30.48400
C  47.23900 36.01300 29.06200
C  45.50800 37.15900 30.54800
C  47.68700 34.16500 31.73000
C  47.48300 34.20300 33.29400
H  46.75400 35.40000 33.91600
N  48.30600 35.99900 26.07000
C  48.42700 37.01700 26.97200
C  49.28300 38.06600 26.37800
C  49.34900 37.75400 24.95000
C  48.55600 36.53400 24.82400
C  49.76500 39.28300 27.14900
C  50.04900 38.60900 23.89900
O  50.17200 38.07000 22.81500
C  50.79200 39.92600 24.14500
N  47.26900 33.63300 24.40000
C  47.89500 34.40700 23.46600
C  48.10900 33.56800 22.20900
C  47.86900 32.14500 22.67400
C  47.19900 32.30900 24.01000
C  47.41300 34.21100 20.99900
C  49.04000 31.18500 22.54200
C  49.95100 30.94000 23.72400
N  46.41700 32.32900 26.87100
C  46.23300 31.25900 26.08700
C  45.62500 30.24000 26.83100
C  45.40900 30.78200 28.08300
C  45.95800 32.07900 28.12400
C  45.25500 28.92500 26.28800
C  44.79900 30.44600 29.37100
O  44.38300 29.34600 29.78400
C  45.08100 31.67300 30.22100
C  45.47100 31.32200 31.60200
O  46.58700 31.12700 32.06000
O  44.30600 31.25800 32.42400
C  44.36300 30.83900 33.84800
H  48.27400 37.80300 29.00600
H  48.82500 36.18700 22.74600
H  46.61000 30.31400 24.14700
H  45.51700 34.50200 31.38500
H  47.45600 36.62600 31.12800
H  44.61400 36.59600 30.81600
H  45.26700 37.58000 29.57200
H  45.58700 38.05900 31.15700
H  48.60500 34.73300 31.57600
H  48.00500 33.16200 31.44700
H  48.46000 34.12400 33.77100
H  46.97300 33.32000 33.67800
H  50.80400 39.51900 26.91400
H  49.98000 39.15400 28.21000
H  49.05000 40.07000 26.90900
H  50.19800 40.71500 24.60600
H  51.17500 40.31900 23.20300
H  51.70700 39.70300 24.69300
H  49.17600 33.78300 22.16600
H  47.06000 31.73400 22.07000
H  46.74200 35.02900 21.26000
H  46.88400 33.42300 20.46200
H  48.15200 34.56500 20.28100
H  49.67800 31.67200 21.80400
H  48.66900 30.24900 22.12400
H  49.72100 31.34600 24.70900
H  50.99000 31.17600 23.49300
H  49.91900 29.85300 23.80500
H  44.67500 28.29900 26.96600
H  46.12300 28.30500 26.06200
H  44.68600 29.03900 25.36500
H  44.09300 32.11600 30.34200
H  44.57700 31.53900 34.65600
H  44.98300 29.94800 33.95100
H  43.37900 30.48300 34.15100
Mg 41.52600 40.51200 26.61600
C  40.62100 43.02100 28.83300
C  42.14700 38.37800 29.26400
C  42.56400 38.24000 24.34000
C  41.06100 42.82400 24.00300
N  41.38800 40.68000 28.74300
C  41.00100 41.80100 29.48100
C  40.98900 41.54700 30.98000
C  41.50900 40.07900 31.08700
C  41.80000 39.70100 29.62800
C  42.81300 39.77300 31.93600
C  39.54600 41.62200 31.66500
C  39.44200 42.77100 32.74200
H  38.81000 42.34400 34.04300
N  42.35500 38.57000 26.80000
C  42.36200 37.85800 27.96000
C  42.69300 36.47500 27.65000
C  43.00600 36.42500 26.20700
C  42.69700 37.79000 25.74400
C  42.69600 35.31900 28.64000
C  43.48700 35.33700 25.34400
O  43.88800 35.58600 24.23300
C  43.56700 33.90400 25.98300
N  41.81000 40.52200 24.51400
C  42.13500 39.46700 23.79400
C  42.18200 39.74000 22.27200
C  41.51000 41.12700 22.19800
C  41.49000 41.56100 23.67300
C  43.57800 39.43400 21.54000
C  40.04500 41.26000 21.54000
C  38.80600 40.70900 22.33600
N  40.96500 42.55900 26.41200
C  40.77500 43.32600 25.24800
C  40.27600 44.65100 25.61000
C  40.22500 44.58100 27.02400
C  40.61300 43.29900 27.41500
C  39.93000 45.82400 24.68900
C  39.95200 45.29800 28.23600
O  39.52800 46.41800 28.40300
C  40.16100 44.31800 29.44900
C  41.21600 44.94100 30.27000
O  42.39900 45.13600 29.98200
O  40.60100 45.52000 31.27900
C  41.49700 45.98100 32.37200
H  42.03100 37.74700 30.14900
H  42.96900 37.49100 23.65600
H  40.79500 43.51800 23.20200
H  41.70300 42.25600 31.40100
H  40.72100 39.44800 31.49800
H  42.91400 40.72200 32.46400
H  43.69300 39.59700 31.31800
H  42.56700 38.91100 32.55600
H  39.17400 40.67300 32.05100
H  38.81700 41.95600 30.92600
H  38.82700 43.60800 32.41000
H  40.36300 43.27300 33.03800
H  41.97900 34.60500 28.23300
H  42.23000 35.48700 29.61100
H  43.64300 34.81100 28.82100
H  44.17000 33.90800 26.89100
H  44.05100 33.24300 25.26400
H  42.54300 33.57800 26.16300
H  41.39400 39.02900 22.02200
H  42.17300 41.82700 21.68800
H  43.97600 40.43800 21.38900
H  43.55000 38.99900 20.54100
H  44.18700 38.83300 22.21500
H  40.24000 40.78400 20.57900
H  39.89300 42.32900 21.39200
H  39.12000 40.30000 23.29700
H  38.33800 39.91800 21.75100
H  38.15200 41.56000 22.52500
H  38.85900 45.78700 24.49100
H  40.59000 45.73700 23.82600
H  40.13900 46.75700 25.21200
H  39.18700 44.31000 29.93900
H  40.84100 46.46800 33.09300
H  42.25600 46.71200 32.09500
H  41.98100 45.10900 32.81200

