158

Mg -1.16400 7.05500 26.34700
C  0.01200 9.34700 28.78100
C  -1.10300 4.61300 28.97500
C  -2.13100 4.79200 24.10500
C  -0.34900 9.34100 23.86800
N  -0.43900 6.96200 28.64800
C  -0.30500 8.09700 29.35400
C  -0.33000 7.72400 30.87400
C  -0.44500 6.21100 30.92800
C  -0.61200 5.86000 29.38100
C  0.71800 5.28400 31.48600
C  -1.53400 8.49200 31.50000
C  -1.60100 8.75100 33.04100
H  -0.39300 8.42700 33.97000
N  -1.66800 5.02100 26.51700
C  -1.52200 4.24800 27.64700
C  -2.07800 2.93600 27.34400
C  -2.30300 2.93300 25.89500
C  -2.00100 4.24700 25.44700
C  -2.22600 1.79700 28.30100
C  -2.80000 1.78100 25.04300
O  -2.92200 1.91500 23.86700
C  -3.10000 0.42000 25.56900
N  -1.19100 7.09800 24.28400
C  -1.78000 6.06200 23.64300
C  -2.07700 6.48800 22.15300
C  -1.68900 8.00900 22.10200
C  -0.99200 8.16600 23.45200
C  -1.37000 5.59400 21.13100
C  -2.83800 8.97200 22.01300
C  -2.72200 10.20900 21.08800
N  -0.31800 8.97500 26.29800
C  -0.11100 9.76700 25.25400
C  0.39000 11.03000 25.70100
C  0.29800 10.98300 27.08800
C  0.00500 9.63700 27.42900
C  0.86200 12.15900 24.85500
C  0.51900 11.72800 28.26900
O  0.95700 12.87100 28.49400
C  0.20100 10.72000 29.47400
C  1.39500 10.65400 30.36200
O  2.38200 9.95500 30.09100
O  1.27200 11.47800 31.44900
C  2.43900 11.36000 32.40200
H  -1.21200 3.94800 29.83400
H  -2.65000 4.14300 23.39700
H  -0.35800 10.11800 23.10000
H  0.56900 8.05100 31.39600
H  -1.30900 5.88100 31.50500
H  0.85300 4.52100 30.72000
H  0.63800 4.84500 32.48100
H  1.58500 5.94500 31.46400
H  -2.39200 7.83300 31.36700
H  -1.76800 9.44900 31.03500
H  -2.40800 8.10600 33.38600
H  -2.01100 9.71600 33.33700
H  -3.27200 1.50100 28.37800
H  -1.85900 2.15300 29.26400
H  -1.66700 0.91200 27.99700
H  -3.75700 -0.20200 24.96100
H  -3.56500 0.45700 26.55400
H  -2.16000 -0.12800 25.50400
H  -3.13200 6.29300 21.96400
H  -0.86900 8.19300 21.40800
H  -1.07800 6.22300 20.29000
H  -1.99700 4.73400 20.89700
H  -0.48300 5.26700 21.67400
H  -3.03900 9.41600 22.98900
H  -3.73900 8.42900 21.73000
H  -3.47400 10.16600 20.30000
H  -1.70600 10.36500 20.72700
H  -2.84600 11.10700 21.69400
H  0.85800 13.03200 25.50800
H  0.21100 12.34300 24.00100
H  1.89100 11.91900 24.58800
H  -0.63700 11.13400 30.03500
H  2.77600 12.26300 32.91000
H  3.34600 10.98300 31.92800
H  2.18500 10.69700 33.22900
Mg 48.21600 16.46200 28.18900
C  46.57700 16.49300 31.18100
C  50.73500 18.41400 29.83200
C  50.04000 17.09800 25.22500
C  45.61100 15.39800 26.56700
N  48.48300 17.56400 30.36100
C  47.80300 17.15600 31.42500
C  48.48200 17.53400 32.75800
C  49.60000 18.58100 32.19600
C  49.67300 18.12300 30.72100
C  49.37400 20.09400 32.34900
C  48.93400 16.37000 33.69000
C  48.29500 16.50300 35.12000
H  48.70400 17.64400 36.06600
N  50.12700 17.46700 27.65100
C  51.00200 18.09600 28.45600
C  52.23300 18.54400 27.73100
C  52.08800 18.15400 26.40200
C  50.73100 17.57900 26.39300
C  53.44100 18.97100 28.46600
C  53.01000 18.16100 25.20600
O  52.60200 18.00600 24.05700
C  54.53500 18.49000 25.27800
N  47.95700 16.08400 26.19900
C  48.76600 16.41300 25.11400
C  48.12800 15.83700 23.76400
C  46.77700 15.18400 24.32500
C  46.79500 15.52900 25.78000
C  48.02700 16.92800 22.66600
C  46.43400 13.74200 23.99900
C  45.75800 13.51500 22.66600
N  46.47900 15.97300 28.67300
C  45.43200 15.54000 27.92600
C  44.33800 15.14300 28.77000
C  44.79500 15.46600 30.04500
C  46.04200 16.05700 29.94600
C  42.94400 14.69200 28.29300
C  44.37200 15.46300 31.45800
O  43.34300 15.17200 32.04600
C  45.46100 16.12500 32.29500
C  44.96500 17.34300 33.01500
O  45.00600 18.48500 32.55400
O  44.46900 16.91900 34.23700
C  43.74300 17.87100 35.11700
H  51.48100 19.00100 30.37200
H  50.45400 17.08500 24.21500
H  44.68900 15.18800 26.02100
H  47.76500 18.19000 33.25100
H  50.53800 18.27400 32.65900
H  50.05800 20.44000 33.12400
H  48.33900 20.32800 32.60000
H  49.71900 20.59600 31.44500
H  50.00000 16.46800 33.89500
H  48.85000 15.37400 33.25600
H  48.40400 15.54600 35.63100
H  47.21000 16.48600 35.01700
H  53.14400 19.85200 29.03400
H  54.31500 19.28300 27.89300
H  53.74100 18.20800 29.18400
H  55.06700 18.22100 24.36500
H  54.99500 17.90600 26.07500
H  54.72800 19.54300 25.48100
H  48.77400 15.02100 23.44200
H  46.06400 15.84600 23.83400
H  48.22900 16.52600 21.67300
H  48.76600 17.72200 22.78000
H  47.04400 17.39700 22.63100
H  45.67300 13.43800 24.71900
H  47.34200 13.15600 24.13600
H  46.02400 12.54300 22.25100
H  45.89500 14.33200 21.95700
H  44.69400 13.54400 22.90100
H  42.75200 15.26600 27.38700
H  42.19500 15.06400 28.99300
H  42.70800 13.65300 28.06300
H  45.92900 15.45300 33.01400
H  44.37300 18.15000 35.96200
H  42.76500 17.46100 35.36500
H  43.56300 18.82600 34.62300

