158

Mg 27.02400 50.60100 26.40300
C  24.85200 51.32900 29.17000
C  29.21700 49.29500 28.63200
C  29.14400 50.14000 23.87200
C  24.46700 51.71000 24.23200
N  26.94300 50.19200 28.62800
C  25.92400 50.57500 29.53300
C  26.39100 50.26900 30.95500
C  27.87700 49.80900 30.75700
C  27.98800 49.64500 29.22800
C  28.98100 50.73400 31.38900
C  25.35100 49.27300 31.68200
C  24.49500 49.75600 32.86600
H  24.34200 48.74300 33.99700
N  28.92800 49.87400 26.24300
C  29.68700 49.38000 27.31800
C  30.99700 48.96500 26.88300
C  31.07700 49.33500 25.51400
C  29.70300 49.79700 25.13800
C  31.99400 48.13400 27.70200
C  32.20600 49.36100 24.55600
O  31.97900 49.67500 23.38000
C  33.63300 49.02600 25.05400
N  26.84900 50.86300 24.37500
C  27.84600 50.58100 23.57200
C  27.39100 50.81100 22.13100
C  25.83600 51.13100 22.22700
C  25.66800 51.13300 23.67400
C  28.33200 51.87000 21.43500
C  24.93800 50.04000 21.50000
C  23.51700 50.46600 21.09100
N  25.08700 51.35600 26.60500
C  24.20800 51.84000 25.64300
C  23.01700 52.39400 26.22700
C  23.36100 52.30100 27.60200
C  24.55400 51.60000 27.78500
C  21.79400 52.96200 25.60700
C  22.80200 52.62400 28.94000
O  21.86400 53.35200 29.25900
C  23.77300 51.89900 30.00000
C  24.24400 53.01100 30.86400
O  25.15500 53.76500 30.63100
O  23.59700 52.84600 32.05800
C  23.98400 53.94700 33.03000
H  30.06300 49.16800 29.31000
H  29.72200 49.90700 22.97500
H  23.69400 51.94100 23.49700
H  26.37100 51.19100 31.53600
H  27.95500 48.81300 31.19400
H  29.76800 50.08600 31.77600
H  28.51800 51.23700 32.23800
H  29.41000 51.40600 30.64500
H  26.01000 48.47400 32.02200
H  24.79100 48.73800 30.91500
H  23.48300 50.00400 32.54700
H  24.97800 50.65900 33.23800
H  32.73400 48.81200 28.12700
H  32.51200 47.34500 27.15700
H  31.43500 47.64400 28.50000
H  33.62900 47.96100 25.28200
H  33.80000 49.66800 25.91900
H  34.22500 49.28300 24.17500
H  27.54000 49.95300 21.47500
H  25.66200 52.12700 21.81800
H  27.81100 52.78000 21.13900
H  28.81500 51.45600 20.55000
H  29.19900 52.09000 22.05800
H  24.83000 49.28400 22.27700
H  25.52800 49.56500 20.71700
H  23.46600 51.49500 21.44700
H  22.75800 49.85300 21.57600
H  23.28000 50.52800 20.02900
H  21.80000 54.05100 25.55900
H  20.93400 52.63500 26.19200
H  21.72800 52.54700 24.60100
H  23.25500 51.10400 30.53700
H  23.94700 54.99900 32.74900
H  24.94500 53.68100 33.47100
H  23.16400 53.86100 33.74300
Mg 6.53500 53.99400 41.24400
C  5.92100 50.58200 40.83100
C  9.71400 53.40100 39.79100
C  6.87300 57.24700 40.74400
C  3.16000 54.49300 42.12200
N  7.69300 52.21200 40.35300
C  7.30000 50.90900 40.44800
C  8.43200 49.90300 40.14200
C  9.67800 50.83900 40.06700
C  8.97400 52.20500 39.99000
C  10.59800 50.68600 41.32800
C  8.31800 48.91100 38.90900
C  8.01900 49.65300 37.59500
H  7.37200 48.93600 36.44900
N  8.06200 55.14400 40.31500
C  9.26600 54.74900 39.86400
C  10.09500 55.88200 39.58300
C  9.32500 57.02500 39.87800
C  8.03500 56.51500 40.39200
C  11.46200 55.75400 39.01000
C  9.72900 58.49400 39.56600
O  10.83500 58.71900 39.06900
C  8.82800 59.67600 39.84800
N  5.09900 55.59300 41.11500
C  5.57000 56.87500 41.09400
C  4.45100 57.95800 41.28100
C  3.32300 57.04100 41.85200
C  3.86600 55.62300 41.69600
C  4.87700 59.09600 42.20400
C  1.92800 57.20000 41.24200
C  1.32600 58.61100 41.39000
N  4.89200 52.75200 41.55100
C  3.60500 53.11600 41.94700
C  2.76600 51.91500 41.95200
C  3.62400 50.89600 41.53600
C  4.93200 51.45300 41.27900
C  1.33600 51.79300 42.32300
C  3.66400 49.47100 41.21200
O  2.82900 48.59000 41.27800
C  5.19900 49.19200 40.82500
C  5.14300 48.45800 39.57100
O  4.73300 48.84600 38.46600
O  5.45600 47.06200 39.86100
C  5.02200 46.10600 38.85200
H  10.78000 53.18000 39.70300
H  7.08700 58.31100 40.86100
H  2.14100 54.66700 42.47200
H  8.43600 49.20200 40.97600
H  10.21800 50.65400 39.13900
H  11.51100 50.19500 40.99000
H  10.10900 50.07200 42.08300
H  10.86100 51.70400 41.61700
H  7.49900 48.23100 39.14500
H  9.22300 48.30600 38.87600
H  8.93800 50.11500 37.23300
H  7.42800 50.52000 37.88900
H  11.81100 54.76300 38.72000
H  12.15000 56.09200 39.78400
H  11.40700 56.44200 38.16600
H  7.93200 59.38600 39.29800
H  9.27600 60.51200 39.31000
H  8.80200 59.88300 40.91800
H  4.11300 58.35100 40.32200
H  3.11400 57.03300 42.92200
H  5.76600 58.87800 42.79600
H  4.12700 59.29500 42.96900
H  5.08100 59.96100 41.57300
H  1.18000 56.59600 41.75600
H  2.00600 56.87800 40.20400
H  0.44900 58.65100 42.03500
H  1.08800 58.92800 40.37400
H  2.03000 59.35300 41.76700
H  0.96500 52.76400 42.65300
H  1.10900 51.13900 43.16400
H  0.74200 51.59800 41.43000
H  5.60100 48.53700 41.59800
H  5.31300 45.11300 39.19500
H  5.64400 46.37500 37.99900
H  3.96200 46.27200 38.66300

