158

Mg 17.66500 -2.40100 28.20700
C  16.97700 -0.43800 31.13100
C  19.43000 -4.51800 30.29100
C  18.89400 -3.92900 25.51300
C  16.15500 0.07500 26.27300
N  18.18600 -2.43300 30.50600
C  17.60800 -1.63600 31.44000
C  17.80400 -2.23600 32.84300
C  18.65700 -3.53100 32.54100
C  18.80500 -3.46700 31.03700
C  20.00600 -3.53100 33.38700
C  16.48200 -2.67200 33.51500
C  16.23700 -2.13800 34.99100
H  17.45300 -1.68100 35.88400
N  18.93100 -4.02400 27.93400
C  19.48700 -4.77900 28.92600
C  20.33700 -5.82700 28.28300
C  20.12700 -5.74300 26.87600
C  19.24000 -4.58700 26.70300
C  21.07600 -6.84800 29.15300
C  20.60400 -6.62800 25.75300
O  20.29800 -6.41600 24.58700
C  21.29500 -7.81800 26.18200
N  17.51100 -1.93800 26.13700
C  18.15700 -2.70700 25.18500
C  17.85700 -2.16000 23.77000
C  16.66700 -1.14700 24.07400
C  16.75300 -1.02100 25.55200
C  19.00700 -1.47500 23.01700
C  15.24000 -1.65800 23.66400
C  14.14300 -0.61700 23.29100
N  16.78300 -0.59500 28.54700
C  16.12000 0.28500 27.65000
C  15.34500 1.24400 28.46100
C  15.80100 1.06300 29.78500
C  16.65100 -0.07700 29.78300
C  14.38500 2.35300 27.95600
C  15.56400 1.51400 31.10000
O  14.79900 2.41000 31.49000
C  16.35400 0.58800 32.06100
C  17.26900 1.37600 32.88300
O  18.40100 1.66300 32.59700
O  16.58800 1.95900 33.88700
C  17.35300 2.88900 34.68900
H  19.75900 -5.35300 30.91300
H  19.39000 -4.29800 24.61300
H  15.73700 0.86100 25.64100
H  18.39500 -1.48200 33.36400
H  18.13600 -4.47300 32.71300
H  19.93100 -2.91000 34.28000
H  20.81800 -3.12500 32.78500
H  20.21700 -4.53900 33.74500
H  16.31700 -3.74400 33.41600
H  15.78700 -2.06900 32.93000
H  15.63600 -2.91100 35.47100
H  15.54700 -1.29600 34.92500
H  20.47800 -7.75100 29.03800
H  21.39200 -6.69600 30.18600
H  22.06900 -6.99200 28.72600
H  22.31500 -7.76600 26.56000
H  21.58300 -8.35600 25.27900
H  20.59400 -8.47500 26.69700
H  17.57100 -3.07700 23.25500
H  16.72800 -0.15200 23.63300
H  19.75000 -1.44200 23.81400
H  18.68600 -0.46700 22.75500
H  19.35100 -1.99800 22.12500
H  14.94500 -2.24200 24.53500
H  15.38500 -2.24900 22.75900
H  13.25800 -0.74000 23.91600
H  13.75300 -0.95600 22.33100
H  14.56800 0.37600 23.14800
H  13.45500 1.90700 27.60400
H  14.87600 2.80300 27.09300
H  14.25800 3.18700 28.64700
H  15.69500 0.10600 32.78300
H  17.38600 2.50100 35.70700
H  16.85600 3.85500 34.77800
H  18.38900 3.05400 34.39400
Mg -5.35900 25.19100 26.58700
C  -3.39600 26.71000 29.07400
C  -6.45500 22.85200 29.00300
C  -7.29100 23.62000 24.20400
C  -3.88500 27.27900 24.31500
N  -4.86200 24.78400 28.78500
C  -4.23700 25.70900 29.59400
C  -4.47300 25.43800 31.07700
C  -5.12600 23.92600 31.02900
C  -5.54100 23.84400 29.50200
C  -4.09300 22.91200 31.51800
C  -5.50700 26.50100 31.67200
C  -5.44700 26.74600 33.18400
H  -4.94200 25.52600 34.00400
N  -6.70900 23.44000 26.56100
C  -7.05800 22.70200 27.66800
C  -7.96200 21.65800 27.23000
C  -8.29100 21.93200 25.84400
C  -7.43100 23.02700 25.47500
C  -8.48500 20.54900 28.11600
C  -9.34900 21.28800 24.93200
O  -9.51800 21.53700 23.77100
C  -10.33900 20.10100 25.45000
N  -5.44400 25.29200 24.56300
C  -6.39500 24.68400 23.77300
C  -6.24700 25.04600 22.22800
C  -5.41100 26.35900 22.38100
C  -4.87500 26.36500 23.88300
C  -5.62300 23.94700 21.46500
C  -6.25400 27.68200 22.28700
C  -6.65600 28.09200 20.86800
N  -3.80000 26.51900 26.68600
C  -3.35000 27.36500 25.63500
C  -2.36300 28.33600 26.08900
C  -2.37600 28.13800 27.50800
C  -3.22600 26.99000 27.74700
C  -1.56000 29.38300 25.36000
C  -1.92500 28.64400 28.82300
O  -1.40100 29.66200 29.13200
C  -2.54900 27.67900 29.89100
C  -1.54600 27.03400 30.68500
O  -0.87000 26.09800 30.33800
O  -1.49200 27.56200 31.93100
C  -0.61000 26.94500 32.89200
H  -6.83500 22.14000 29.73700
H  -7.94100 23.17600 23.44700
H  -3.67300 28.06600 23.58900
H  -3.48900 25.45800 31.54700
H  -6.02100 24.04000 31.64000
H  -3.36000 23.29900 32.22500
H  -3.56400 22.72500 30.58400
H  -4.44000 22.03200 32.06000
H  -6.53300 26.26600 31.39200
H  -5.25000 27.44500 31.19300
H  -6.45000 27.03000 33.50400
H  -4.78900 27.59900 33.35100
H  -9.46000 20.84900 28.49900
H  -7.85000 20.45600 28.99700
H  -8.59400 19.57400 27.64000
H  -9.70400 19.46200 26.06300
H  -10.64900 19.58000 24.54500
H  -11.10400 20.51200 26.10900
H  -7.25600 25.27300 21.88600
H  -4.57200 26.38100 21.68600
H  -5.75400 22.97100 21.93300
H  -4.59600 24.12700 21.14700
H  -6.17500 23.73000 20.55000
H  -5.65800 28.49600 22.70000
H  -7.13600 27.68000 22.92700
H  -6.08400 28.94400 20.50000
H  -7.67700 28.47100 20.81900
H  -6.65000 27.26600 20.15600
H  -1.58400 30.26200 26.00400
H  -1.95200 29.52700 24.35300
H  -0.50300 29.12000 25.37600
H  -3.17600 28.30200 30.52900
H  0.33400 26.56800 32.50000
H  -1.12600 26.33900 33.63700
H  -0.33600 27.77400 33.54500

