158

Mg 0.57200 7.44700 25.69900
C  1.25100 9.67400 28.27500
C  0.88400 4.89500 27.92700
C  0.01300 5.20300 23.09500
C  1.00700 9.96000 23.39300
N  1.18900 7.29600 27.82400
C  1.22000 8.35500 28.69900
C  1.35300 7.89900 30.12100
C  1.53300 6.33000 29.96800
C  1.14100 6.16200 28.49300
C  2.90900 5.69600 30.33400
C  0.01000 8.31500 30.84800
C  0.16700 8.61500 32.36000
H  1.29800 8.01600 33.08300
N  0.47000 5.38800 25.54300
C  0.57900 4.50700 26.59800
C  0.13300 3.22100 26.15900
C  -0.00500 3.17000 24.76600
C  0.21900 4.66800 24.40800
C  -0.03900 2.09800 27.11400
C  -0.31200 2.06400 23.86100
O  -0.54000 2.30900 22.67600
C  -0.34600 0.56900 24.47100
N  0.76300 7.56000 23.51400
C  0.33800 6.51700 22.70400
C  0.06200 7.05300 21.28900
C  0.41800 8.53900 21.43600
C  0.70300 8.71200 22.87800
C  0.76700 6.29700 20.10100
C  -0.46100 9.58400 20.74800
C  -1.80000 9.88600 21.47200
N  0.99100 9.48700 25.74600
C  1.16900 10.37200 24.74600
C  1.60600 11.66400 25.35600
C  1.60900 11.42000 26.75000
C  1.12900 10.11800 26.95900
C  1.84300 12.98100 24.54400
C  1.89900 11.99500 28.01300
O  2.24500 13.12700 28.29800
C  1.69500 10.87600 29.08600
C  2.93100 10.72400 29.89200
O  3.98600 10.17400 29.53600
O  2.67600 11.20400 31.15200
C  3.80700 11.15100 32.12100
H  1.01500 4.04800 28.60300
H  -0.15400 4.60100 22.19900
H  0.98400 10.82100 22.72200
H  2.22800 8.28700 30.64400
H  0.81600 5.81000 30.60200
H  3.54000 6.53800 30.61800
H  3.40400 5.17200 29.51600
H  2.71600 5.06200 31.19900
H  -0.82500 7.67500 30.56300
H  -0.36300 9.24400 30.41700
H  -0.76100 8.36200 32.87200
H  0.21300 9.70400 32.38300
H  -0.30800 2.42500 28.11800
H  0.84400 1.46100 27.14300
H  -0.88200 1.48400 26.79500
H  -1.21500 0.30600 25.07400
H  0.59100 0.41900 25.00600
H  -0.36000 -0.16500 23.66500
H  -1.01900 6.97100 21.18300
H  1.36100 8.74100 20.92800
H  1.36000 5.61800 20.71500
H  1.53700 6.78900 19.50700
H  0.01800 5.74900 19.52900
H  -0.71700 9.50700 19.69100
H  0.10600 10.50900 20.85100
H  -1.84400 10.74600 22.14000
H  -2.08700 9.04300 22.10100
H  -2.55400 10.09900 20.71400
H  1.50100 13.80600 25.17000
H  1.38200 13.14300 23.57000
H  2.92600 13.04700 24.44400
H  0.93300 11.13800 29.82000
H  3.71300 11.69600 33.06000
H  4.79700 11.28300 31.68500
H  4.00300 10.14900 32.50100
Mg 47.32000 24.59100 28.78000
C  48.04700 26.89400 31.32800
C  46.43900 22.31600 31.13300
C  47.05800 22.39100 26.30300
C  48.55200 26.96600 26.44100
N  47.28800 24.69900 30.97300
C  47.47300 25.72000 31.82300
C  47.09200 25.33600 33.23000
C  46.95000 23.79700 33.18400
C  47.01700 23.54400 31.66100
C  48.12200 23.01800 33.95000
C  45.80800 26.10000 33.82500
C  45.98100 26.61400 35.33600
H  44.77100 26.51000 36.18200
N  46.71400 22.56800 28.72400
C  46.35600 21.88100 29.83900
C  45.89100 20.59400 29.30400
C  46.16400 20.56000 27.89700
C  46.63800 21.89200 27.58300
C  45.39000 19.53500 30.22700
C  45.93300 19.48400 26.81600
O  46.39600 19.47500 25.68200
C  45.45800 18.10400 27.28300
N  47.87500 24.67200 26.66800
C  47.54900 23.64600 25.86700
C  47.70800 24.05300 24.37900
C  47.84500 25.58500 24.41600
C  48.14300 25.75600 25.93100
C  48.94200 23.36100 23.73900
C  46.52900 26.34100 24.05100
C  45.24700 26.02200 24.83000
N  48.15600 26.46800 28.83000
C  48.49500 27.32900 27.81700
C  48.87900 28.60300 28.24300
C  48.70400 28.52400 29.66500
C  48.32000 27.14000 29.97500
C  49.32800 29.79200 27.46500
C  48.86700 29.21300 30.92200
O  49.16000 30.38300 31.22100
C  48.29400 28.20500 32.03300
C  49.40600 28.04400 33.05700
O  50.63300 27.90700 32.87100
O  48.97900 28.33600 34.30400
C  49.87400 28.39300 35.41200
H  46.21200 21.58000 31.90600
H  47.00000 21.73500 25.43200
H  48.81800 27.79700 25.78400
H  47.97100 25.49500 33.85500
H  45.96900 23.50700 33.56100
H  47.91500 22.89400 35.01300
H  48.92600 23.74500 33.83600
H  48.33000 22.12600 33.35900
H  45.02600 25.34600 33.92200
H  45.45000 26.94900 33.24200
H  46.30600 27.65300 35.28800
H  46.85100 26.05500 35.68100
H  44.68000 18.83100 29.79300
H  44.92600 20.06400 31.05900
H  46.21600 18.90500 30.55700
H  45.64300 17.30800 26.56200
H  44.38100 18.19900 27.42100
H  46.01300 17.92200 28.20400
H  46.78500 23.78800 23.86300
H  48.58000 25.94000 23.69400
H  48.75500 22.90800 22.76600
H  49.27600 22.50900 24.33200
H  49.72200 24.10500 23.58200
H  46.30600 26.12200 23.00700
H  46.78300 27.40100 24.06500
H  45.25600 25.16000 25.49700
H  44.39400 25.96800 24.15400
H  45.04500 26.86700 25.48900
H  49.67800 30.62900 28.06800
H  48.49100 30.16200 26.87300
H  50.15100 29.40300 26.86400
H  47.36500 28.62700 32.41400
H  50.75400 27.76000 35.29900
H  49.42900 28.10500 36.36500
H  50.12800 29.44800 35.51400

