158

Mg 54.91200 23.60300 44.85100
C  53.05900 26.44800 44.39900
C  52.33900 21.68400 43.75500
C  57.13000 21.00500 44.55000
C  57.70500 25.67900 45.96100
N  52.92100 24.03400 44.23400
C  52.37100 25.27500 44.02900
C  50.90800 25.12000 43.54000
C  50.67100 23.60700 43.77000
C  52.01300 23.04600 43.91600
C  49.86000 23.37000 45.10000
C  50.59800 25.55600 42.07000
C  49.12500 25.73600 41.61000
H  48.61000 24.76400 40.54900
N  54.80800 21.59400 44.13300
C  53.61100 21.02000 43.82200
C  53.85300 19.67100 43.53400
C  55.26500 19.39700 43.73200
C  55.84300 20.68200 44.10800
C  52.65800 18.86700 42.98000
C  55.97600 18.06100 43.40400
O  55.35000 17.14500 42.89200
C  57.38300 17.70900 43.67100
N  57.15800 23.41400 45.01600
C  57.74100 22.21800 44.94700
C  59.18800 22.31600 45.50900
C  59.41900 23.83500 45.89500
C  58.01400 24.33300 45.61100
C  59.48900 21.31500 46.64000
C  60.44100 24.59100 44.95000
C  61.86700 24.53100 45.50900
N  55.29300 25.61400 45.26900
C  56.42700 26.27600 45.70900
C  56.14000 27.69600 45.87200
C  54.83000 27.83500 45.37500
C  54.41000 26.52100 44.96900
C  57.08700 28.78100 46.31300
C  53.73900 28.73900 45.04300
O  53.53400 29.93100 45.20500
C  52.61000 27.87600 44.30800
C  52.24700 28.46900 42.97200
O  52.87500 28.42200 41.91600
O  51.03300 29.05600 43.03900
C  50.35000 29.38800 41.78100
H  51.40300 21.14100 43.60800
H  57.86500 20.20000 44.48900
H  58.53500 26.33800 46.22300
H  50.26900 25.73000 44.17800
H  50.08000 23.27200 42.91800
H  49.05000 24.07200 45.29700
H  50.48300 23.21800 45.98100
H  49.36700 22.44400 44.80200
H  50.99400 24.72500 41.48600
H  51.27400 26.32500 41.69400
H  49.01400 26.71500 41.14200
H  48.46300 25.63600 42.47000
H  53.03800 18.07400 42.33500
H  51.91700 19.34800 42.34200
H  52.08800 18.50800 43.83700
H  57.99600 18.45700 43.16800
H  57.57100 16.75500 43.17800
H  57.52500 17.68200 44.75100
H  60.03300 22.16900 44.83500
H  59.73000 23.93200 46.93500
H  59.65600 21.68800 47.65000
H  60.46200 20.86600 46.44200
H  58.68300 20.58300 46.70300
H  60.11100 25.62700 44.88800
H  60.34900 24.29200 43.90600
H  62.45300 24.49400 44.59100
H  62.08100 23.62000 46.06700
H  61.96900 25.40400 46.15200
H  56.78600 29.22000 47.26400
H  57.12000 29.57200 45.56500
H  58.09700 28.42000 46.50900
H  51.72600 27.93000 44.94300
H  50.53200 28.69700 40.95700
H  50.70600 30.38900 41.53700
H  49.26500 29.39400 41.89000
Mg 49.19800 35.04900 26.77000
C  46.99300 33.79000 29.41800
C  49.57300 37.87400 28.88300
C  50.73400 36.65600 24.27200
C  47.93900 32.57500 24.70200
N  48.42600 35.57800 28.89500
C  47.65000 34.94200 29.81700
C  47.73600 35.59300 31.18600
C  48.26300 37.02900 30.81500
C  48.78200 36.84500 29.42800
C  47.29000 38.23900 30.96600
C  48.65700 34.80900 32.16200
C  48.39500 34.86300 33.68600
H  47.28800 35.84800 34.12900
N  50.16600 36.93200 26.64400
C  50.26900 37.89600 27.63900
C  51.01800 39.01600 27.08300
C  51.32200 38.75200 25.75800
C  50.79400 37.36100 25.46700
C  51.41100 40.23200 27.98100
C  51.97600 39.68400 24.73600
O  52.05500 39.26400 23.57800
C  52.31900 41.16000 24.98900
N  49.34900 34.63100 24.81500
C  50.06900 35.45500 23.91900
C  50.01800 34.73800 22.47900
C  49.36000 33.34700 22.79700
C  48.77100 33.55100 24.16900
C  49.28500 35.56400 21.46000
C  50.24300 31.98200 22.49000
C  49.54300 30.94000 21.62200
N  47.85300 33.42100 27.05700
C  47.49700 32.58800 25.99800
C  46.58100 31.64600 26.62500
C  46.24400 32.14800 27.90200
C  47.16100 33.16600 28.16800
C  45.96400 30.55000 25.79300
C  45.48600 31.93700 29.06900
O  44.61500 31.11500 29.25700
C  45.97700 32.96000 30.17200
C  46.57300 32.11100 31.26900
O  47.71900 31.62700 31.26700
O  45.72800 31.91200 32.31700
C  46.27900 30.99800 33.37200
H  49.76400 38.78300 29.45800
H  51.11500 37.24100 23.43200
H  47.51300 31.85600 24.00000
H  46.71500 35.59800 31.56800
H  49.08500 37.34500 31.45600
H  46.99100 38.76600 30.06100
H  47.88200 38.93400 31.56200
H  46.44400 37.93400 31.58200
H  49.65800 35.21200 32.01400
H  48.73900 33.77100 31.83900
H  49.28900 35.18500 34.22000
H  48.22300 33.85400 34.06100
H  51.58600 39.90700 29.00600
H  50.62500 40.98700 27.97700
H  52.26500 40.79600 27.60600
H  53.33600 41.28100 25.36400
H  51.68000 41.52000 25.79500
H  52.18300 41.73300 24.07300
H  51.07500 34.71600 22.21400
H  48.42800 33.24100 22.24200
H  49.98700 36.24900 20.98500
H  48.45300 36.11800 21.89500
H  48.79400 34.96400 20.69500
H  50.52000 31.52200 23.43800
H  51.21400 32.20100 22.04500
H  49.94000 30.86300 20.61000
H  48.47500 31.10700 21.48300
H  49.64200 29.98600 22.14200
H  45.28100 30.06500 26.49000
H  46.72000 29.85200 25.43300
H  45.41300 30.82700 24.89400
H  45.21700 33.47800 30.75700
H  45.42600 30.67100 33.96700
H  46.85300 31.66700 34.01200
H  46.81800 30.10800 33.04800

