158

Mg -1.40800 17.70600 27.24000
C  -2.17200 15.36200 29.71400
C  -1.79700 20.20500 29.51400
C  -1.18500 19.95300 24.69100
C  -1.51300 15.09700 24.81000
N  -2.01000 17.73400 29.36900
C  -2.03900 16.65700 30.18800
C  -1.95300 17.04600 31.65500
C  -2.00200 18.63700 31.55300
C  -1.90100 18.90900 30.04300
C  -3.01700 19.46100 32.35500
C  -0.68200 16.41700 32.47000
C  -0.24900 17.11200 33.73100
H  -0.23400 16.32300 35.13900
N  -1.50800 19.80600 27.14900
C  -1.70200 20.62100 28.20400
C  -1.59400 21.98900 27.73500
C  -1.47000 21.97600 26.31100
C  -1.39200 20.53500 25.95400
C  -1.77600 23.14500 28.74600
C  -1.30400 23.09500 25.29500
O  -1.03900 22.90900 24.12000
C  -1.30500 24.47600 25.80800
N  -1.37500 17.51700 25.08800
C  -1.28900 18.61300 24.29600
C  -1.17300 18.25100 22.72100
C  -1.16700 16.71600 22.79900
C  -1.35200 16.40000 24.29300
C  -2.25100 18.90900 21.72300
C  0.12900 16.10200 22.26800
C  1.32400 16.47100 23.11500
N  -1.72800 15.61600 27.22400
C  -1.76300 14.76000 26.13000
C  -2.09700 13.41100 26.65500
C  -2.22700 13.60400 28.05600
C  -2.04700 14.94400 28.35800
C  -2.35700 12.09300 25.87900
C  -2.46000 12.92300 29.25800
O  -2.71200 11.76100 29.48900
C  -2.52200 14.02300 30.40400
C  -1.52700 13.54700 31.38600
O  -0.31700 13.53000 31.25000
O  -2.12300 12.88900 32.41500
C  -1.24900 12.18400 33.35200
H  -1.56800 20.94000 30.28900
H  -1.14200 20.55900 23.78400
H  -1.47800 14.31000 24.05300
H  -2.82100 16.70500 32.21800
H  -1.01100 18.96500 31.86700
H  -3.80000 19.75400 31.65600
H  -2.57200 20.41000 32.65400
H  -3.46300 18.94000 33.20300
H  0.25500 16.21300 31.95100
H  -0.98900 15.43600 32.83300
H  -0.95400 17.90700 33.97600
H  0.61300 17.73900 33.50500
H  -1.53700 22.88600 29.77700
H  -2.80900 23.49000 28.68400
H  -1.17300 23.99900 28.43800
H  -1.27800 25.23700 25.02700
H  -0.44400 24.57000 26.46900
H  -2.17000 24.71100 26.42800
H  -0.17300 18.60900 22.47700
H  -2.00300 16.25700 22.27200
H  -2.99400 18.23200 21.30300
H  -1.64400 19.19800 20.86500
H  -2.68100 19.78100 22.21600
H  0.27100 16.52900 21.27500
H  0.04800 15.01600 22.21900
H  1.57500 15.61900 23.74700
H  1.17500 17.40800 23.65100
H  2.16600 16.73900 22.47800
H  -1.51300 11.44200 26.10800
H  -2.51000 12.27300 24.81500
H  -3.28900 11.62600 26.19600
H  -3.55800 13.89800 30.72200
H  -0.40900 11.73200 32.82400
H  -1.80500 11.40900 33.88000
H  -0.73200 12.89300 34.00000
Mg 9.68400 49.06800 25.53100
C  7.77100 49.41600 28.42600
C  12.49100 49.90600 27.30900
C  11.49100 48.77100 22.63900
C  6.75700 48.42100 23.75700
N  10.04300 49.78200 27.55800
C  9.14500 49.64600 28.59000
C  9.82800 49.97500 29.94700
C  11.18100 50.47200 29.46800
C  11.28700 49.99500 28.04700
C  11.31300 52.02200 29.42900
C  9.79900 48.82300 30.94600
C  10.87500 48.76200 32.04100
H  10.52700 47.75200 33.14400
N  11.72800 49.27900 25.04700
C  12.76900 49.52000 25.97200
C  14.04700 49.43700 25.23900
C  13.71800 49.14700 23.89300
C  12.25100 49.02800 23.77900
C  15.43900 49.59200 25.89700
C  14.77600 48.88900 22.76800
O  14.49100 48.82300 21.57600
C  16.30600 48.75900 23.11300
N  9.22800 48.73500 23.49100
C  10.12700 48.69000 22.48300
C  9.46500 48.05800 21.20800
C  7.93500 48.04100 21.56200
C  7.99100 48.40400 23.01500
C  9.90300 48.69800 19.86100
C  7.27000 46.71300 21.23200
C  7.55500 45.54700 22.20800
N  7.62700 49.03500 25.94100
C  6.56100 48.71500 25.17400
C  5.35100 48.78200 25.89400
C  5.78800 49.04400 27.16700
C  7.14200 49.22700 27.16200
C  4.00100 48.31100 25.37700
C  5.34100 49.09800 28.51200
O  4.23400 48.86200 28.93500
C  6.58000 49.28100 29.47200
C  6.76300 48.02400 30.25000
O  7.45300 47.03300 29.98300
O  5.93700 48.02200 31.33300
C  6.10900 46.93400 32.39100
H  13.43600 50.02600 27.84300
H  12.02300 48.59800 21.70100
H  5.85300 48.23800 23.17200
H  9.37000 50.81500 30.46900
H  12.07800 50.06100 29.93000
H  10.71500 52.37600 28.58900
H  12.32100 52.38000 29.22000
H  11.02500 52.43500 30.39600
H  9.71100 47.92400 30.33600
H  8.92100 48.90500 31.58700
H  11.09900 49.76100 32.41600
H  11.78200 48.41700 31.54500
H  15.94400 48.62800 25.97100
H  15.43400 49.94500 26.92800
H  16.04000 50.34300 25.38500
H  16.54200 47.90100 23.74300
H  16.75000 49.71800 23.38200
H  16.76800 48.33700 22.22100
H  9.67000 46.99700 21.06300
H  7.23000 48.71500 21.07700
H  9.10400 49.30200 19.43200
H  10.29600 47.90000 19.23100
H  10.68600 49.39300 20.16500
H  7.60900 46.38100 20.25100
H  6.23200 46.99600 21.05600
H  8.25600 45.76900 23.01300
H  7.97900 44.65700 21.74300
H  6.57300 45.41500 22.66300
H  3.50700 49.07400 24.77600
H  3.30600 48.09900 26.19000
H  4.15500 47.44400 24.73500
H  6.28800 50.10700 30.12100
H  5.97800 47.38900 33.37300
H  7.18000 46.73800 32.35500
H  5.53800 46.06400 32.06700

