158

Mg 42.36900 41.34200 26.34300
C  41.70200 43.65600 28.68900
C  43.69900 39.23700 28.59500
C  43.69000 39.38700 23.76100
C  41.63900 43.86200 23.85400
N  42.72200 41.46700 28.43200
C  42.17800 42.40400 29.23000
C  42.40000 42.06200 30.68400
C  43.19400 40.68100 30.64500
C  43.13500 40.44100 29.13300
C  44.71400 40.72200 31.23900
C  41.05800 41.92800 31.46900
C  41.16800 41.47200 32.94100
H  40.48900 42.36300 33.99400
N  43.41100 39.38800 26.20100
C  43.85500 38.74800 27.27700
C  44.43500 37.48100 26.79300
C  44.31600 37.49000 25.32100
C  43.75200 38.78300 24.97100
C  45.06100 36.46700 27.78300
C  44.64900 36.34000 24.40400
O  44.38900 36.34700 23.20600
C  45.12600 35.00900 24.99900
N  42.44200 41.49300 24.12000
C  43.13300 40.64500 23.36400
C  43.03500 41.01100 21.92800
C  42.19500 42.29800 21.93200
C  42.15300 42.58900 23.43500
C  44.39200 41.12300 21.14700
C  40.83100 42.14000 21.33100
C  39.60200 41.79900 22.06200
N  41.76800 43.32700 26.24500
C  41.57500 44.24900 25.19200
C  41.11600 45.50500 25.68500
C  41.17000 45.32200 27.09600
C  41.65200 44.01100 27.33700
C  40.67800 46.68400 24.86100
C  40.78900 45.81900 28.42200
O  40.28700 46.88000 28.76700
C  41.10100 44.77600 29.51400
C  42.12100 45.34600 30.37400
O  43.18200 45.81700 29.99000
O  41.74600 45.24300 31.66800
C  42.73600 45.88500 32.62600
H  43.93200 38.44400 29.30900
H  44.04400 38.77900 22.92600
H  41.33500 44.59500 23.10400
H  43.04300 42.81100 31.14600
H  42.62900 39.91300 31.17400
H  44.94500 41.77100 31.42400
H  45.45700 40.58000 30.45500
H  44.77900 40.19500 32.19200
H  40.39000 41.23800 30.95400
H  40.37600 42.77300 31.56700
H  42.24600 41.42400 33.09400
H  40.88500 40.43800 33.13800
H  45.73200 37.05200 28.41200
H  45.62000 35.60200 27.42600
H  44.42400 36.10100 28.58800
H  44.52800 34.74300 25.87100
H  46.18200 35.06600 25.26100
H  45.02100 34.24400 24.22900
H  42.48300 40.13600 21.58500
H  42.72700 43.15500 21.51900
H  44.49200 40.23200 20.52700
H  45.24400 41.26400 21.81100
H  44.32900 41.92100 20.40600
H  40.96700 41.35100 20.59100
H  40.65400 43.10000 20.84500
H  39.69900 41.79600 23.14800
H  39.15500 40.85300 21.75700
H  38.87700 42.60600 21.95800
H  39.93500 46.39700 24.11800
H  41.48100 47.19000 24.32500
H  40.09300 47.34900 25.49600
H  40.20600 44.45000 30.04400
H  43.77800 45.60500 32.47300
H  42.50400 45.53000 33.63100
H  42.67900 46.97400 32.61700
Mg 17.00200 52.42300 26.49600
C  18.95700 51.23300 29.00200
C  14.75900 53.71200 28.87900
C  14.93500 53.43200 23.94300
C  19.10000 50.89700 24.09500
N  16.83100 52.37400 28.60500
C  17.74200 51.83800 29.40800
C  17.41900 52.20400 30.88500
C  15.92500 52.58300 30.87100
C  15.85000 52.97500 29.38400
C  14.95400 51.37100 31.23200
C  18.40900 53.25200 31.50600
C  18.43100 53.57500 33.03900
H  17.58700 52.65100 33.99000
N  15.06100 53.45000 26.37000
C  14.41100 53.89400 27.50900
C  13.31300 54.74100 27.01200
C  13.26000 54.67800 25.61500
C  14.40300 53.82200 25.23100
C  12.45900 55.53900 27.96800
C  12.34400 55.28800 24.66300
O  12.55500 55.16300 23.43900
C  11.22600 56.12100 25.14400
N  17.02800 52.28000 24.30500
C  16.08600 52.74100 23.52000
C  16.41400 52.40800 22.03000
C  17.90400 51.94700 22.06000
C  18.00000 51.66100 23.56100
C  15.45300 51.51100 21.23100
C  18.97200 53.00300 21.65900
C  19.95000 52.51900 20.56500
N  18.64400 51.28300 26.46100
C  19.40900 50.67100 25.41400
C  20.64900 50.09000 26.01600
C  20.42100 50.26000 27.41900
C  19.27800 50.95800 27.62600
C  21.76900 49.29400 25.28700
C  21.04300 49.99300 28.76800
O  22.03300 49.41100 29.17100
C  20.04600 50.61400 29.79100
C  19.44300 49.46500 30.50000
O  18.85000 48.53500 30.00000
O  19.68600 49.64300 31.85400
C  19.17500 48.60200 32.72400
H  14.01700 54.01500 29.62200
H  14.31200 53.84200 23.14600
H  19.80300 50.58100 23.32200
H  17.51800 51.31200 31.50400
H  15.67100 53.38900 31.55900
H  14.15300 51.37800 30.49300
H  14.41200 51.45500 32.17400
H  15.51800 50.44200 31.15800
H  18.42300 54.17100 30.92000
H  19.35600 52.73000 31.36900
H  17.93300 54.54500 33.06000
H  19.45500 53.68100 33.39500
H  12.59300 56.55300 27.59000
H  12.85500 55.49200 28.98200
H  11.42800 55.20600 27.85000
H  11.54500 57.03600 25.64400
H  10.74000 55.51500 25.90800
H  10.40800 56.34200 24.45800
H  16.32300 53.32200 21.44300
H  17.96000 51.00000 21.52300
H  15.06700 52.00200 20.33700
H  14.68600 51.23400 21.95400
H  15.88900 50.56200 20.91900
H  19.51100 53.37300 22.53100
H  18.55200 53.96300 21.36000
H  19.51600 51.82100 19.84900
H  20.79800 51.97800 20.98500
H  20.43100 53.38000 20.10200
H  22.39600 48.96900 26.11700
H  22.29300 49.89800 24.54600
H  21.26600 48.48800 24.75300
H  20.54300 51.33400 30.44100
H  19.85100 47.75100 32.79900
H  18.16300 48.29900 32.45600
H  18.92400 49.05300 33.68400

