158

Mg 49.68100 45.82300 41.31500
C  46.38300 45.90300 40.19800
C  49.89600 42.57600 40.32400
C  53.05200 46.04100 41.48000
C  49.47500 49.30200 41.87200
N  48.32800 44.50800 40.06500
C  47.04800 44.71700 39.87100
C  46.33700 43.48000 39.23800
C  47.42200 42.32200 39.62700
C  48.64500 43.15500 40.06900
C  46.98400 41.22800 40.67500
C  46.04600 43.70400 37.72200
C  44.64600 43.34100 37.23000
H  44.20200 43.92000 35.86300
N  51.21800 44.41000 41.26000
C  51.13600 43.08200 40.83500
C  52.40200 42.49900 40.83800
C  53.31700 43.58000 41.06200
C  52.52100 44.76400 41.28200
C  52.50400 40.96000 40.66000
C  54.86800 43.30900 41.11200
O  55.36600 42.23200 40.83100
C  55.82400 44.40700 41.48100
N  51.03800 47.43400 41.79800
C  52.37000 47.26200 41.79000
C  53.10700 48.56600 42.15300
C  51.93400 49.51900 42.57700
C  50.75300 48.73900 42.01700
C  54.29000 48.40500 43.07100
C  51.99500 50.95100 41.95400
C  52.54700 52.10300 42.83600
N  48.20500 47.32500 41.13900
C  48.31300 48.63600 41.41600
C  47.03500 49.24300 41.02000
C  46.19300 48.24000 40.63800
C  47.00400 47.08400 40.63800
C  46.68300 50.72700 41.30500
C  44.94000 47.92600 40.03800
O  44.01900 48.60400 39.72900
C  44.94500 46.35500 39.87400
C  43.99200 45.84600 40.84700
O  44.37800 45.40000 41.94000
O  42.66400 46.03200 40.47200
C  41.66200 45.45100 41.35900
H  49.84400 41.51900 40.05200
H  54.13500 46.17600 41.52500
H  49.34500 50.36600 42.08400
H  45.37400 43.31300 39.72200
H  47.60100 41.74800 38.71800
H  47.71200 40.95100 41.43800
H  46.72200 40.34600 40.09200
H  46.07800 41.49200 41.22000
H  46.71800 43.00700 37.22200
H  46.29100 44.71300 37.39000
H  43.93700 43.64900 37.99900
H  44.56000 42.25500 37.19800
H  53.29200 40.54200 41.28600
H  52.77000 40.72800 39.62900
H  51.63700 40.41600 41.03500
H  56.03200 45.12600 40.68900
H  56.77000 43.86900 41.54100
H  55.43100 44.83100 42.40500
H  53.55700 48.92400 41.22700
H  51.91800 49.45200 43.66500
H  54.17600 49.05600 43.93800
H  55.25000 48.67500 42.63100
H  54.39500 47.37900 43.42200
H  51.04400 51.24400 41.51000
H  52.71100 50.82500 41.14200
H  52.79400 51.62800 43.78500
H  51.86300 52.94400 42.95900
H  53.36400 52.55100 42.27100
H  46.88600 50.83900 42.36900
H  45.67900 50.98800 40.97000
H  47.42000 51.33900 40.78500
H  44.71800 46.06200 38.84900
H  41.00700 44.84000 40.73700
H  41.22100 46.32700 41.83500
H  42.05000 44.83700 42.17200
Mg 16.98000 51.80000 25.98000
C  19.17000 49.95700 28.21100
C  14.93400 52.27500 28.70000
C  14.86200 53.09400 23.94400
C  18.84900 50.36300 23.44400
N  17.11100 51.27700 28.17800
C  18.08400 50.58800 28.89100
C  17.88000 50.70800 30.38100
C  16.37400 51.02600 30.34400
C  16.09900 51.49900 28.96500
C  15.40500 49.91100 30.85400
C  18.82000 51.81000 31.03800
C  19.19300 51.53900 32.44000
H  18.14400 50.93700 33.31000
N  15.19300 52.71900 26.30600
C  14.48000 52.88300 27.49700
C  13.40000 53.81700 27.32400
C  13.34100 54.09500 25.85200
C  14.44300 53.29100 25.26600
C  12.57200 54.40600 28.48000
C  12.41500 54.98800 25.08500
O  12.64600 55.26900 23.92300
C  11.25400 55.69900 25.76200
N  16.74400 51.44400 23.86200
C  15.82300 52.29100 23.26400
C  16.24800 52.62300 21.82600
C  17.69500 52.02100 21.73800
C  17.84400 51.23200 23.11300
C  15.27400 51.93300 20.80700
C  18.87400 53.09500 21.59600
C  19.83900 52.92300 20.41500
N  18.65800 50.45800 25.80700
C  19.21200 49.89200 24.71200
C  20.28700 48.98400 25.07200
C  20.30700 49.05600 26.47000
C  19.30300 49.92200 26.84400
C  21.20200 48.14000 24.09900
C  21.03400 48.59100 27.63700
O  22.08200 47.92500 27.72200
C  20.32400 49.18200 28.84000
C  19.85700 48.16400 29.77900
O  19.17200 47.17000 29.53700
O  20.52300 48.40000 30.96100
C  20.32200 47.35800 32.03200
H  14.27200 52.44500 29.55200
H  14.38400 53.73900 23.20400
H  19.59200 50.10900 22.68400
H  18.05100 49.67300 30.68000
H  16.16100 51.93900 30.90000
H  14.84400 49.51500 30.00700
H  14.70600 50.39800 31.53400
H  15.96100 49.08200 31.29100
H  18.25700 52.74100 30.97500
H  19.75700 51.84200 30.48200
H  19.49400 52.51000 32.83400
H  20.03400 50.85300 32.34200
H  12.65500 53.82600 29.39900
H  11.52000 54.57300 28.25200
H  13.12100 55.33100 28.65800
H  10.75800 56.28500 24.98800
H  11.79400 56.28200 26.50800
H  10.59100 54.96400 26.21700
H  16.27200 53.70700 21.72300
H  17.73000 51.39700 20.84500
H  14.25500 52.03200 21.17900
H  15.54300 50.89400 20.61500
H  15.20700 52.45600 19.85300
H  19.28500 52.92100 22.59000
H  18.48400 54.11200 21.54200
H  19.53100 52.05200 19.83600
H  20.88300 52.83000 20.71100
H  19.80400 53.83400 19.81700
H  21.77300 47.31300 24.52200
H  22.01800 48.78500 23.77600
H  20.53100 47.79000 23.31500
H  20.97400 49.82600 29.43300
H  20.64700 46.40900 31.60800
H  19.30000 47.16200 32.35600
H  21.00600 47.68400 32.81600

