158

Mg 30.11400 58.88100 38.25700
C  27.44200 56.54200 37.65500
C  32.18300 56.15300 38.13800
C  32.65100 61.07100 38.36700
C  27.79200 61.43900 38.12500
N  29.82100 56.53600 37.72700
C  28.65700 55.86400 37.65500
C  28.90500 54.33600 37.59300
C  30.51900 54.19500 37.80500
C  30.89700 55.69700 37.91600
C  30.83100 53.36700 39.02200
C  28.49600 53.60500 36.25000
C  29.12600 54.17700 34.88500
H  28.14900 54.72600 33.91400
N  32.13600 58.65500 38.21400
C  32.81500 57.42300 38.23600
C  34.26700 57.67800 38.30300
C  34.40700 59.13900 38.29600
C  33.01300 59.69100 38.30000
C  35.25500 56.52500 38.21300
C  35.80300 59.83400 38.30400
O  36.85400 59.24300 38.48100
C  35.77900 61.27000 38.29100
N  30.24100 60.93300 38.26500
C  31.38700 61.64300 38.43200
C  31.12500 63.19900 38.55000
C  29.61000 63.23000 38.60700
C  29.18000 61.78200 38.26200
C  31.91300 63.94300 39.66900
C  29.00300 64.35900 37.67900
C  27.92300 65.26100 38.18600
N  28.06700 59.02200 37.84100
C  27.26400 60.16300 37.84400
C  25.91600 59.77000 37.57800
C  25.93000 58.38500 37.53500
C  27.24200 57.96500 37.65400
C  24.74100 60.70500 37.31000
C  25.07900 57.25900 37.37400
O  23.84000 57.18400 37.20700
C  26.04200 56.06100 37.40700
C  25.59600 55.16900 38.51500
O  25.80300 55.35000 39.71200
O  24.95500 54.06700 38.02300
C  24.25100 53.31400 39.05900
H  32.86300 55.32400 37.92700
H  33.31800 61.93500 38.39600
H  27.09700 62.28100 38.10900
H  28.26400 53.79300 38.28800
H  31.05200 53.77200 36.95300
H  30.10800 52.56800 39.18500
H  30.94700 53.95300 39.93400
H  31.75600 52.86200 38.74500
H  27.41100 53.64600 36.15000
H  28.76600 52.55700 36.38100
H  29.53400 53.36200 34.28800
H  29.89200 54.92700 35.07900
H  35.34800 56.18600 37.18100
H  34.78500 55.71400 38.76900
H  36.20500 56.74900 38.69900
H  35.29200 61.65200 39.18800
H  35.20500 61.76100 37.50500
H  36.76200 61.71500 38.13200
H  31.48100 63.56600 37.58700
H  29.39500 63.47700 39.64700
H  32.52500 63.17300 40.13800
H  31.16800 64.40000 40.32100
H  32.55300 64.73500 39.28100
H  28.58900 63.88400 36.78900
H  29.80300 65.03700 37.38200
H  27.18700 65.63900 37.47600
H  28.21400 66.20200 38.65200
H  27.43600 64.67800 38.96800
H  23.96400 60.14600 36.78900
H  25.10700 61.40300 36.55700
H  24.40700 61.09200 38.27300
H  25.93000 55.61000 36.42100
H  23.73800 53.93600 39.79200
H  24.94100 52.60500 39.51600
H  23.40200 52.87600 38.53400
Mg 17.18400 52.18400 24.59900
C  18.89000 50.95600 27.31200
C  14.48800 53.04000 26.52000
C  15.36900 53.02300 21.70200
C  19.65500 50.86300 22.47700
N  16.74900 51.96200 26.68900
C  17.67900 51.51100 27.63300
C  17.11600 51.86100 29.00000
C  15.60100 52.23200 28.71100
C  15.59800 52.45800 27.19100
C  14.55100 51.19100 29.22900
C  17.89200 52.99100 29.68700
C  17.49900 53.71000 31.00200
H  16.58800 52.92900 32.01600
N  15.17600 52.94800 24.21900
C  14.24800 53.23100 25.11500
C  13.06500 53.76100 24.46000
C  13.34400 53.92600 23.09100
C  14.70400 53.30500 22.91800
C  11.82900 54.05300 25.22600
C  12.45500 54.50700 22.04900
O  12.80800 54.67200 20.86500
C  11.00000 54.83400 22.36700
N  17.46000 51.98300 22.41800
C  16.60100 52.43200 21.45800
C  17.22800 52.39200 20.10000
C  18.61900 51.90800 20.32300
C  18.61700 51.54300 21.84300
C  16.39700 51.35400 19.16400
C  19.74800 52.87900 19.98600
C  21.10000 52.20300 19.80300
N  19.04800 51.20600 24.81800
C  19.89300 50.68500 23.87200
C  20.96000 49.91600 24.54600
C  20.69200 50.16800 25.98200
C  19.40400 50.77000 26.03200
C  22.08800 49.09900 23.88900
C  21.14800 49.94100 27.25500
O  22.14300 49.36600 27.62300
C  20.01800 50.52100 28.22900
C  19.64500 49.59200 29.30900
O  19.17500 48.45400 29.21400
O  19.86200 50.19300 30.53200
C  19.24200 49.53000 31.72400
H  13.67700 53.28400 27.21000
H  14.76500 53.17800 20.80600
H  20.47400 50.49400 21.85600
H  17.23700 51.02700 29.69100
H  15.25400 53.18800 29.10200
H  13.67700 51.77900 29.50700
H  14.91500 50.56600 30.04400
H  14.21600 50.54000 28.42100
H  17.93700 53.79800 28.95500
H  18.95100 52.75300 29.78900
H  17.01000 54.65700 30.77400
H  18.45900 53.98200 31.44200
H  11.60400 55.09700 25.00800
H  11.99500 54.19200 26.29500
H  11.04700 53.35800 24.92200
H  10.49600 54.20600 23.10300
H  10.38300 54.65100 21.48700
H  10.99800 55.85900 22.73600
H  17.24800 53.37600 19.63200
H  18.84000 50.95700 19.83700
H  17.01300 50.67700 18.57100
H  15.89900 51.92900 18.38400
H  15.70800 50.78200 19.78500
H  19.78600 53.60900 20.79400
H  19.56100 53.34100 19.01700
H  21.85300 52.55600 20.50800
H  21.44900 52.45200 18.80100
H  21.01900 51.11600 19.79900
H  22.74700 49.83500 23.42900
H  21.73800 48.37100 23.15800
H  22.63900 48.49700 24.61200
H  20.42400 51.43200 28.66700
H  19.24700 48.44500 31.62000
H  18.19800 49.83700 31.67500
H  19.74000 49.73400 32.67200

