158

Mg 8.60400 3.56100 27.71600
C  10.15400 2.12600 30.57500
C  7.12000 5.78300 29.71200
C  7.05000 4.70900 24.99700
C  9.88200 0.89300 25.87700
N  8.62300 3.83700 29.89800
C  9.29400 3.12700 30.83600
C  9.04600 3.72100 32.29100
C  8.08600 4.91800 31.91700
C  7.91600 4.87500 30.43800
C  6.69900 4.83000 32.65100
C  10.30300 4.23700 32.97900
C  10.08400 4.99100 34.33800
H  10.76200 4.38600 35.61800
N  7.38600 5.00600 27.36900
C  6.91300 5.87200 28.34000
C  6.22000 6.94300 27.65300
C  6.11900 6.54600 26.31600
C  6.89900 5.35700 26.22400
C  5.60300 8.16800 28.34000
C  5.36300 7.25800 25.12300
O  5.54700 7.08300 23.91300
C  4.44900 8.45000 25.52300
N  8.37100 2.82300 25.68200
C  7.78000 3.54000 24.72300
C  7.87800 2.89200 23.36500
C  8.76600 1.68400 23.62300
C  9.07000 1.78700 25.14800
C  6.51200 2.58100 22.60900
C  10.00100 1.74700 22.67100
C  10.00000 0.57400 21.62900
N  9.85300 1.85700 28.05100
C  10.34400 0.91500 27.19000
C  11.15300 -0.01300 27.90600
C  11.14400 0.49600 29.19900
C  10.34600 1.61500 29.26400
C  11.91900 -1.10100 27.37700
C  11.62400 0.20100 30.58400
O  12.36300 -0.64900 30.95200
C  10.92400 1.24200 31.51200
C  10.09500 0.69500 32.54700
O  9.17300 -0.13000 32.42300
O  10.51900 1.22800 33.76600
C  10.11100 0.37700 34.95600
H  6.68800 6.49300 30.42000
H  6.58600 5.05600 24.07100
H  10.22500 0.08800 25.22500
H  8.48100 3.07100 32.95900
H  8.46200 5.88900 32.23900
H  6.52800 5.78600 33.14600
H  6.80100 4.14000 33.48900
H  5.92600 4.64600 31.90500
H  10.86000 4.85100 32.27100
H  10.89800 3.35300 33.20700
H  9.00600 5.02900 34.49800
H  10.32000 6.05000 34.23700
H  4.53600 8.28900 28.15000
H  6.15800 8.95100 27.82300
H  5.77700 8.18900 29.41500
H  3.78400 8.74000 24.70900
H  5.15200 9.17500 25.93300
H  3.78400 7.99800 26.25900
H  8.29100 3.65500 22.70500
H  8.30700 0.71700 23.41600
H  5.65400 2.84600 23.22800
H  6.34200 1.50500 22.57700
H  6.39900 3.05000 21.63200
H  10.90900 1.68600 23.27000
H  10.01800 2.69300 22.13000
H  9.31200 -0.23800 21.86400
H  11.02900 0.21600 21.58800
H  9.62000 0.85000 20.64600
H  12.69100 -1.43500 28.07000
H  12.23300 -0.96600 26.34200
H  11.18200 -1.89800 27.47300
H  11.75800 1.71200 32.03300
H  10.68300 -0.55100 34.95300
H  9.06000 0.09300 34.91500
H  10.19400 0.80100 35.95700
Mg 7.32200 57.15200 42.09400
C  5.54000 54.10800 41.73400
C  10.00800 55.62700 40.71800
C  8.57400 60.30000 41.59500
C  4.21400 58.73100 43.06500
N  7.63400 55.10000 41.26400
C  6.79300 54.03600 41.14800
C  7.44500 52.84000 40.51900
C  9.02100 53.23600 40.71000
C  8.87800 54.73100 40.78600
C  9.72500 52.64200 41.99600
C  7.00200 52.74900 39.07100
C  7.38300 51.48900 38.32500
H  6.43000 50.94300 37.32300
N  8.99000 57.82900 41.30700
C  9.98700 57.06500 40.83900
C  11.15200 57.87100 40.43900
C  10.75600 59.26000 40.54600
C  9.38600 59.20700 41.16900
C  12.50700 57.33300 40.06500
C  11.64400 60.42100 40.24900
O  12.71500 60.20900 39.67300
C  11.20600 61.78200 40.55900
N  6.49600 59.27300 42.48600
C  7.25600 60.29700 42.11900
C  6.39100 61.59400 42.27500
C  5.01700 61.09000 42.75100
C  5.24200 59.60700 42.84200
C  7.06900 62.58700 43.20800
C  3.72100 61.44300 41.89800
C  2.80900 62.45700 42.52000
N  5.29000 56.59000 42.40600
C  4.19900 57.28800 42.85800
C  3.04600 56.37000 43.00600
C  3.54600 55.11900 42.61100
C  4.89300 55.29700 42.20400
C  1.64700 56.55900 43.58400
C  3.16300 53.70300 42.51100
O  2.19600 53.05800 42.81700
C  4.50100 53.01100 41.93800
C  3.98600 52.42000 40.65300
O  3.56200 53.06600 39.67000
O  4.01800 51.08900 40.72400
C  3.12900 50.40100 39.81400
H  10.93700 55.09800 40.49400
H  8.91800 61.28200 41.26300
H  3.28000 59.11600 43.47900
H  7.26100 51.90300 41.04500
H  9.61100 52.89800 39.85800
H  8.98300 52.08000 42.56300
H  10.14900 53.37300 42.68600
H  10.45900 51.89100 41.70400
H  7.57300 53.51100 38.54100
H  5.92100 52.87200 38.99600
H  7.64600 50.67700 39.00300
H  8.25400 51.68900 37.70100
H  12.66100 56.36100 40.53400
H  13.22000 58.04100 40.48700
H  12.60400 57.25900 38.98200
H  11.03500 61.78700 41.63600
H  10.32200 62.07600 39.99400
H  12.05700 62.42700 40.34000
H  6.25900 62.14100 41.34100
H  4.99600 61.40400 43.79400
H  8.04000 62.86400 42.79600
H  7.30700 62.05500 44.12900
H  6.49800 63.50700 43.33700
H  3.26100 60.49700 41.61300
H  4.15900 61.92600 41.02500
H  2.18900 61.90900 43.23000
H  2.34400 63.03200 41.71900
H  3.40100 63.16600 43.09800
H  0.86200 56.27100 42.88500
H  1.58000 57.56700 43.99500
H  1.48700 55.94100 44.46700
H  4.83100 52.22600 42.61800
H  2.09400 50.59600 40.09600
H  3.28100 49.32200 39.84800
H  3.27500 50.61000 38.75400

