158

Mg 40.82600 41.38000 26.63900
C  40.27500 43.81200 29.20200
C  41.67000 39.15800 29.05800
C  41.75300 39.34000 24.11500
C  40.76000 44.12500 24.33500
N  40.90000 41.50500 28.94000
C  40.69600 42.56100 29.77300
C  40.88500 42.17600 31.18400
C  41.28300 40.69500 31.06800
C  41.27400 40.41500 29.62100
C  42.60100 40.37000 31.82200
C  39.54400 42.53800 31.98300
C  39.18500 41.74700 33.33400
H  38.59900 42.61400 34.51400
N  41.52200 39.48400 26.57300
C  41.81300 38.74500 27.69000
C  42.29200 37.46000 27.28300
C  42.20700 37.40000 25.89200
C  41.75400 38.71500 25.44500
C  42.75700 36.39700 28.25000
C  42.50900 36.18500 24.88700
O  42.33100 36.31400 23.65100
C  42.97500 34.86500 25.44600
N  41.31700 41.70000 24.50700
C  41.52300 40.64600 23.65300
C  41.25600 41.02600 22.22100
C  41.30400 42.57400 22.33900
C  41.03000 42.81500 23.78700
C  42.23500 40.41900 21.09600
C  40.34600 43.33700 21.42600
C  38.87000 43.61400 21.81500
N  40.34100 43.52500 26.61100
C  40.50600 44.44100 25.60100
C  40.24800 45.73400 26.19100
C  40.02800 45.50500 27.56900
C  40.20600 44.18800 27.79300
C  40.33100 47.00000 25.44700
C  39.74700 46.24100 28.77900
O  39.57600 47.38200 29.04400
C  39.95200 45.14200 29.89000
C  41.20600 45.50900 30.67200
O  42.31900 45.44000 30.20900
O  40.92200 45.94900 31.91200
C  42.04000 46.02000 32.82800
H  41.94600 38.47700 29.86600
H  41.82200 38.49100 23.43200
H  40.88900 44.98800 23.67800
H  41.69800 42.83200 31.49600
H  40.41400 40.18900 31.48900
H  42.76300 41.03500 32.67000
H  43.46400 40.52800 31.17600
H  42.57000 39.39900 32.31700
H  38.62300 42.45100 31.40700
H  39.63900 43.54400 32.39400
H  40.06200 41.19700 33.67400
H  38.31700 41.15600 33.04000
H  42.90800 36.80100 29.25100
H  43.71700 35.97400 27.95400
H  41.96900 35.64500 28.23200
H  43.24700 34.10600 24.71300
H  42.12400 34.54200 26.04500
H  43.81100 35.00300 26.13200
H  40.19300 40.82800 22.08400
H  42.31400 42.96000 22.20000
H  41.75700 39.52600 20.69400
H  43.22900 40.12400 21.43100
H  42.40400 41.19200 20.34600
H  40.40900 42.83600 20.46100
H  40.85100 44.26300 21.14900
H  38.23400 43.40800 20.95400
H  38.72800 44.68900 21.92500
H  38.58000 43.09200 22.72700
H  41.05600 47.07900 24.63700
H  40.69500 47.67900 26.21700
H  39.31100 47.29900 25.20500
H  39.10300 45.11900 30.57400
H  42.27500 47.07700 32.95000
H  42.92300 45.44400 32.54900
H  41.76000 45.51400 33.75200
Mg 7.51000 54.51600 41.15200
C  6.72100 51.05200 41.39500
C  10.39900 53.63400 39.57900
C  7.94700 57.69700 40.33300
C  4.04100 55.19200 41.90100
N  8.35900 52.53400 40.43800
C  7.87500 51.24200 40.62600
C  8.75300 50.19400 39.96100
C  10.09500 51.04600 39.81500
C  9.66000 52.46500 40.05200
C  11.34400 50.64500 40.74500
C  8.19700 49.67600 38.58400
C  7.42700 50.64300 37.62500
H  7.94400 50.94400 36.20000
N  9.05600 55.56200 40.20700
C  10.20500 55.03400 39.69700
C  11.06800 56.10700 39.19700
C  10.45600 57.37600 39.43700
C  9.09000 56.92100 39.94900
C  12.34300 55.86100 38.57500
C  10.97900 58.72800 39.07000
O  12.12200 58.75100 38.67700
C  10.18600 59.99600 39.21800
N  6.09800 56.16400 40.91300
C  6.60500 57.38800 40.69700
C  5.54200 58.42300 41.03900
C  4.25800 57.55600 41.25200
C  4.80300 56.15200 41.33100
C  5.93900 59.33100 42.31400
C  3.04200 57.66900 40.15700
C  2.95100 56.57700 39.12800
N  5.80200 53.46900 41.82200
C  4.48300 53.87500 42.07200
C  3.74600 52.69100 42.49700
C  4.59300 51.55800 42.35200
C  5.82300 52.08400 41.87100
C  2.35500 52.72700 43.01500
C  4.71000 50.18900 42.56100
O  3.91400 49.40800 43.06300
C  6.04400 49.81800 41.91600
C  5.72900 48.95900 40.76600
O  4.69000 49.01400 40.07800
O  6.57900 47.90800 40.76100
C  6.24600 46.78900 39.93200
H  11.14900 53.15000 38.95000
H  7.99200 58.78400 40.24400
H  3.02600 55.46600 42.19900
H  8.90300 49.37100 40.66000
H  10.49400 50.96800 38.80300
H  12.35300 50.53300 40.34800
H  11.06700 49.77700 41.34300
H  11.35600 51.39000 41.54100
H  7.61700 48.76900 38.75000
H  9.04300 49.33500 37.98600
H  7.30000 51.66300 37.98900
H  6.47900 50.14200 37.43100
H  12.39700 56.38500 37.62100
H  12.43100 54.81500 38.28200
H  13.16200 56.24000 39.18700
H  9.13800 59.89100 38.93400
H  10.54100 60.77500 38.54200
H  10.30900 60.32100 40.25100
H  5.19400 58.98200 40.17000
H  3.93800 57.74000 42.27700
H  6.84300 59.00000 42.82700
H  5.16200 59.43000 43.07200
H  6.01100 60.38700 42.05700
H  2.99600 58.59900 39.59000
H  2.11400 57.66800 40.73000
H  2.09400 55.92200 39.28700
H  3.89400 56.04700 38.99800
H  2.78200 57.07400 38.17300
H  2.05200 51.72700 43.32500
H  1.73300 52.96700 42.15200
H  2.16300 53.51900 43.73800
H  6.55100 49.22200 42.67500
H  5.87900 47.16800 38.97800
H  5.59500 46.08500 40.45100
H  7.16900 46.20900 39.92200

