158

Mg -1.82800 17.75300 26.34700
C  -2.11000 15.43000 29.03100
C  -2.30200 20.29300 28.56400
C  -2.27100 19.85900 23.73400
C  -1.79600 15.02900 24.24200
N  -2.18200 17.83100 28.56000
C  -2.10000 16.79900 29.47600
C  -2.27700 17.29400 30.92000
C  -2.43500 18.85200 30.75100
C  -2.33000 19.03200 29.18500
C  -3.62800 19.57800 31.44200
C  -1.09200 16.77100 31.82500
C  -0.48600 17.62000 32.96800
H  -0.15400 16.90100 34.27800
N  -2.11700 19.69100 26.21600
C  -2.26300 20.65800 27.22900
C  -2.12100 22.02700 26.66100
C  -2.13900 21.85800 25.23600
C  -2.15500 20.41700 25.02700
C  -1.84300 23.21200 27.59000
C  -1.98500 22.92400 24.17000
O  -1.78700 22.69500 22.98300
C  -2.23900 24.34100 24.58100
N  -2.17200 17.47600 24.26100
C  -2.18100 18.48500 23.36100
C  -2.03600 18.00400 21.90200
C  -1.99800 16.47200 22.10900
C  -1.92900 16.28300 23.63700
C  -3.31500 18.46800 21.11300
C  -0.74700 15.77400 21.39200
C  0.64600 16.02700 21.95700
N  -1.98700 15.66700 26.56200
C  -1.91700 14.68200 25.60500
C  -1.98300 13.39600 26.24200
C  -2.10000 13.62600 27.60300
C  -2.01300 15.01200 27.74600
C  -1.96600 12.18500 25.46600
C  -2.21600 12.93900 28.85600
O  -2.25000 11.78600 29.23400
C  -2.25400 14.11700 29.77500
C  -1.15900 13.74300 30.65400
O  -0.01600 13.96700 30.45800
O  -1.62300 13.05700 31.74200
C  -0.64100 12.75500 32.83500
H  -2.27200 20.99800 29.39800
H  -2.35700 20.57000 22.91000
H  -1.71600 14.17800 23.56300
H  -3.19300 16.84900 31.31000
H  -1.47000 19.26600 31.04100
H  -3.20000 20.49900 31.83700
H  -4.20800 19.06100 32.20600
H  -4.32000 19.90400 30.66500
H  -0.27300 16.62000 31.12100
H  -1.43500 15.81200 32.21400
H  -1.21300 18.39600 33.20700
H  0.40200 18.03900 32.49700
H  -1.05300 23.88700 27.26200
H  -1.57600 23.00200 28.62600
H  -2.72300 23.85600 27.60000
H  -3.00700 24.34500 25.35500
H  -2.52700 25.08600 23.84000
H  -1.33700 24.68500 25.08600
H  -1.09700 18.43300 21.55300
H  -2.96600 16.06200 21.82100
H  -3.09500 19.00800 20.19200
H  -4.06000 19.14200 21.53500
H  -3.78500 17.56200 20.72900
H  -0.64900 16.31900 20.45300
H  -0.95300 14.71000 21.27700
H  0.93700 15.05000 22.34400
H  0.61700 16.69600 22.81600
H  1.38700 16.41700 21.26000
H  -1.54600 11.31800 25.97700
H  -1.23900 12.38100 24.67900
H  -2.96000 11.97700 25.07100
H  -3.15500 14.27700 30.36700
H  -0.00300 12.02100 32.34000
H  -1.01800 12.31900 33.76000
H  -0.06700 13.65200 33.06500
Mg 48.76400 44.59200 43.24600
C  45.59600 44.93600 42.23000
C  48.83200 41.30700 42.03100
C  52.14600 44.82000 42.91700
C  48.80500 48.16500 43.76800
N  47.41600 43.27300 42.27700
C  46.13600 43.63000 41.99500
C  45.35900 42.50600 41.25200
C  46.26000 41.30000 41.66400
C  47.60900 41.98800 41.96100
C  45.77400 40.30300 42.79400
C  45.29900 42.70000 39.74000
C  43.88300 42.34600 39.11000
H  43.86700 41.47700 37.73000
N  50.23600 43.20300 42.72200
C  50.05800 41.88400 42.29700
C  51.32600 41.28300 42.13500
C  52.34100 42.26700 42.47400
C  51.59800 43.51400 42.70300
C  51.53900 39.71500 41.84500
C  53.86300 41.97000 42.47600
O  54.27700 40.86400 42.17400
C  54.74800 43.07100 42.97000
N  50.28000 46.30900 43.26400
C  51.61200 46.08100 43.25500
C  52.38300 47.37400 43.43000
C  51.31600 48.38500 43.73800
C  50.04200 47.58600 43.63800
C  53.42900 47.17100 44.51300
C  51.28100 49.50000 42.67000
C  51.09800 50.98200 43.17000
N  47.49300 46.17100 43.34300
C  47.56700 47.50500 43.58100
C  46.26200 48.14200 43.33500
C  45.45400 47.16000 42.78500
C  46.27900 45.99300 42.86800
C  46.05800 49.64200 43.53400
C  44.16100 46.97500 42.14200
O  43.24200 47.76200 41.87200
C  44.20100 45.40200 41.92200
C  43.15400 44.74900 42.77500
O  42.35600 43.93000 42.34400
O  43.08300 45.32300 44.05000
C  41.91500 44.90600 44.78800
H  48.85300 40.28700 41.64200
H  53.23100 44.86500 42.80500
H  48.87800 49.21800 44.04600
H  44.34500 42.43900 41.64600
H  46.57000 40.73900 40.78200
H  46.38700 40.36300 43.69400
H  46.00300 39.27600 42.50700
H  44.73200 40.44200 43.08200
H  46.11800 42.16400 39.26200
H  45.39900 43.76500 39.52900
H  43.45400 43.32400 38.89300
H  43.20900 42.00100 39.89400
H  52.40600 39.59000 41.19600
H  50.70400 39.18800 41.38500
H  51.71200 39.20000 42.79000
H  55.66400 42.61600 43.34600
H  54.21500 43.45700 43.83900
H  54.99500 43.74400 42.14900
H  52.82100 47.43700 42.43500
H  51.35600 48.83000 44.73200
H  53.56100 46.14200 44.84500
H  53.22300 47.84100 45.34800
H  54.36500 47.38900 43.99900
H  50.38200 49.26900 42.09900
H  52.21100 49.37200 42.11600
H  51.18700 51.05500 44.25400
H  50.12800 51.43300 42.96100
H  51.88300 51.57700 42.70300
H  45.88400 49.85100 44.59000
H  45.16000 49.93700 42.99200
H  46.87900 50.23700 43.13600
H  44.01700 45.25400 40.85800
H  40.96200 45.36600 44.52600
H  41.92700 44.98400 45.87500
H  41.72400 43.83900 44.66900

