158

Mg -1.44400 17.69900 27.24500
C  -2.18700 15.55200 29.88400
C  -2.37400 20.35900 29.35900
C  -1.81300 19.80200 24.52300
C  -1.45200 14.94600 25.13200
N  -2.21400 17.93700 29.48400
C  -2.33300 16.88300 30.32900
C  -2.47700 17.45000 31.77400
C  -2.72600 18.99500 31.53700
C  -2.49400 19.14100 29.98500
C  -4.04100 19.60800 32.07700
C  -1.28600 17.02700 32.65100
C  -0.69000 17.98800 33.74300
H  -0.28200 17.39000 35.09100
N  -2.00800 19.73400 26.99200
C  -2.20600 20.64900 27.99000
C  -2.44100 21.96100 27.42000
C  -2.15300 21.88500 26.04000
C  -2.05700 20.41100 25.77200
C  -2.95000 23.19300 28.21200
C  -2.05200 22.96400 24.95600
O  -2.05600 22.71200 23.75500
C  -2.16100 24.43700 25.31600
N  -1.65200 17.41300 25.09500
C  -1.61000 18.45900 24.21200
C  -1.40900 17.96400 22.72100
C  -1.14600 16.42300 22.94300
C  -1.47400 16.25700 24.49900
C  -2.62300 18.36500 21.79500
C  0.26300 15.93100 22.45000
C  1.35900 16.51500 23.40300
N  -1.67800 15.58300 27.39800
C  -1.70100 14.67600 26.45700
C  -1.80800 13.38200 27.02900
C  -2.05300 13.61800 28.40900
C  -1.97100 14.98600 28.60800
C  -1.89400 12.04400 26.36500
C  -2.25300 13.08100 29.73200
O  -2.42300 11.95700 30.14500
C  -2.35700 14.26900 30.68400
C  -1.29300 14.01800 31.72700
O  -0.15000 14.25300 31.60100
O  -1.85600 13.42300 32.83800
C  -0.87600 12.94200 33.78800
H  -2.51600 21.29400 29.90500
H  -1.58700 20.51200 23.72400
H  -1.36300 14.10100 24.44500
H  -3.39000 16.98800 32.14900
H  -1.90600 19.58600 31.94300
H  -4.83200 19.74200 31.33900
H  -3.88400 20.61700 32.45700
H  -4.46900 19.09800 32.94000
H  -0.38100 16.88900 32.06000
H  -1.58000 16.07400 33.09100
H  -1.39000 18.78900 33.98000
H  0.13000 18.46300 33.20500
H  -2.19600 23.96500 28.36100
H  -3.29200 22.93000 29.21300
H  -3.82400 23.49700 27.63500
H  -1.27900 24.64100 25.92300
H  -3.11200 24.68700 25.78600
H  -2.01800 25.05600 24.43000
H  -0.47900 18.37200 22.32500
H  -1.83400 15.73000 22.45900
H  -3.51800 18.33100 22.41500
H  -2.69300 17.61700 21.00500
H  -2.38900 19.35900 21.41500
H  0.44300 16.38500 21.47600
H  0.13800 14.84900 22.47600
H  1.02600 17.16200 24.21500
H  2.07200 17.10300 22.82500
H  1.96200 15.73500 23.86800
H  -1.14500 12.15300 25.58000
H  -2.88500 11.91500 25.92900
H  -1.66100 11.26300 27.08800
H  -3.25700 14.32500 31.29600
H  -0.17700 13.71500 34.10700
H  -0.42500 12.02200 33.41300
H  -1.58800 12.62900 34.55100
Mg 8.96600 4.53100 27.46300
C  10.26200 2.89600 30.39500
C  7.05700 6.36800 29.66700
C  7.48000 6.02700 24.85700
C  10.41200 2.15000 25.57900
N  8.55400 4.45800 29.77400
C  9.30400 3.85000 30.80500
C  8.98500 4.35600 32.24500
C  8.00100 5.48700 31.92900
C  7.84000 5.45300 30.34600
C  6.60000 5.42400 32.73800
C  10.19700 4.84100 33.08000
C  9.82400 5.44200 34.45600
H  10.87500 5.13500 35.60000
N  7.52400 5.94900 27.28800
C  6.88100 6.60200 28.32300
C  5.97600 7.62400 27.76300
C  6.21200 7.59500 26.37100
C  7.03400 6.41900 26.11400
C  5.07900 8.53900 28.68300
C  5.66200 8.48000 25.26700
O  5.88400 8.30400 24.05200
C  4.81700 9.73200 25.66000
N  8.95500 4.10300 25.52900
C  8.42100 4.96800 24.57300
C  8.87200 4.61900 23.15000
C  9.68100 3.31200 23.41400
C  9.79100 3.23200 24.90900
C  7.69600 4.40800 22.13700
C  11.07700 3.25300 22.72100
C  12.17800 4.00600 23.51300
N  10.14300 2.89400 27.84900
C  10.65100 2.01200 26.90900
C  11.48000 1.07500 27.58000
C  11.27600 1.35700 28.95600
C  10.50400 2.47500 29.06000
C  12.30600 -0.07200 27.05000
C  11.62800 0.94900 30.28700
O  12.45700 0.15500 30.59000
C  11.00500 1.99300 31.26300
C  10.27200 1.12500 32.28000
O  9.19800 0.64400 32.06300
O  10.97400 1.17400 33.52400
C  10.26000 0.68700 34.72600
H  6.60800 7.12700 30.31200
H  7.11200 6.40900 23.90300
H  11.00100 1.47400 24.95400
H  8.57300 3.47900 32.74500
H  8.43500 6.41000 32.31400
H  6.45100 6.37300 33.25500
H  6.69900 4.70200 33.54800
H  5.86000 5.27700 31.95200
H  10.96400 5.42300 32.56900
H  10.62700 3.92200 33.47800
H  8.84800 5.06600 34.76400
H  9.68300 6.51700 34.34200
H  5.55200 9.46400 29.01200
H  4.93300 7.91800 29.56800
H  4.13400 8.76400 28.19100
H  5.10800 10.23000 26.58600
H  3.80900 9.31800 25.64700
H  4.81700 10.51400 24.90000
H  9.50800 5.45100 22.84500
H  9.18800 2.42500 23.01700
H  7.73000 5.10300 21.29700
H  6.75200 4.31400 22.67300
H  7.71700 3.40400 21.71200
H  11.04700 3.81900 21.79000
H  11.35200 2.20100 22.63500
H  11.66300 4.61700 24.25500
H  12.63600 4.67600 22.78600
H  12.97100 3.32900 23.82900
H  13.14700 -0.14000 27.74100
H  12.54300 0.24000 26.03300
H  11.65300 -0.94500 27.04500
H  11.85400 2.47500 31.74700
H  10.94100 0.44100 35.54000
H  9.66200 -0.20200 34.52300
H  9.58000 1.45700 35.09000

