158

Mg 47.32200 24.33800 27.57400
C  48.28500 26.67800 30.05500
C  47.07300 21.97400 30.03200
C  46.73300 21.97400 25.22900
C  48.24400 26.65400 25.10200
N  47.69700 24.39500 29.77800
C  47.76900 25.47900 30.55300
C  47.67000 25.07000 32.03700
C  47.38100 23.55100 32.01100
C  47.42600 23.26300 30.47600
C  48.33400 22.69300 32.90900
C  46.78500 26.06000 32.89400
C  46.29900 25.64800 34.34200
H  46.79700 26.61300 35.44000
N  46.94600 22.24500 27.62000
C  46.79800 21.49400 28.75800
C  46.35400 20.17100 28.44000
C  46.26300 20.10900 26.99200
C  46.80500 21.38600 26.51100
C  45.92500 19.14000 29.58100
C  45.71300 19.00700 26.11000
O  45.90100 19.09000 24.86400
C  44.94700 17.87400 26.55300
N  47.47700 24.27200 25.59800
C  46.92500 23.28300 24.81200
C  46.65400 23.76000 23.34400
C  46.93400 25.24400 23.43600
C  47.58500 25.41300 24.76300
C  47.43800 22.95200 22.24700
C  45.63700 26.05400 23.16800
C  44.62300 26.21700 24.37700
N  48.18400 26.34600 27.50000
C  48.47100 27.09200 26.45700
C  49.01000 28.35500 26.94200
C  48.95100 28.30800 28.33700
C  48.51100 27.00100 28.63600
C  49.38400 29.43600 26.04800
C  49.18500 28.96800 29.56800
O  49.65000 30.01500 29.84900
C  48.67800 28.02400 30.68100
C  49.77900 27.92400 31.58700
O  50.70100 27.16900 31.60100
O  49.56400 28.80100 32.62100
C  50.53000 28.77000 33.80100
H  46.76700 21.24500 30.78600
H  46.38400 21.38600 24.37800
H  48.10400 27.39700 24.31300
H  48.67600 25.31300 32.37900
H  46.37500 23.30100 32.34500
H  47.99100 21.66500 33.03100
H  48.25600 23.19200 33.87500
H  49.36400 22.73100 32.55300
H  46.00500 26.45400 32.24200
H  47.38800 26.96800 32.91200
H  46.71200 24.67500 34.60800
H  45.22200 25.51600 34.44800
H  46.79900 18.56100 29.88000
H  45.27700 18.34500 29.21100
H  45.37800 19.53000 30.44000
H  44.28400 17.55100 25.75000
H  44.25600 18.22600 27.31800
H  45.63600 17.05300 26.75400
H  45.60000 23.60200 23.11400
H  47.56700 25.44700 22.57200
H  48.48500 23.25300 22.30300
H  47.23700 23.16800 21.19800
H  47.25000 21.87900 22.26000
H  45.15100 25.50800 22.36000
H  45.81600 27.08400 22.85700
H  44.89000 26.96400 25.12500
H  44.12500 25.30200 24.69900
H  43.76000 26.79600 24.04700
H  49.09400 30.37900 26.51100
H  48.80000 29.31500 25.13600
H  50.46200 29.55600 25.93400
H  47.79000 28.49000 31.10900
H  50.47100 27.79400 34.28200
H  50.43800 29.49700 34.60800
H  51.54000 28.76000 33.39100
Mg 36.54200 49.06900 26.30800
C  36.38000 46.98500 29.22000
C  35.61900 51.64000 28.29200
C  35.89000 50.76000 23.48900
C  36.91000 46.09500 24.39000
N  36.17500 49.22800 28.44000
C  36.27800 48.33700 29.44800
C  36.18900 48.94700 30.84700
C  35.53100 50.34800 30.56600
C  35.75100 50.44000 28.94000
C  33.97400 50.47500 30.85900
C  37.47100 49.12300 31.65600
C  37.36400 48.72500 33.13100
H  37.21600 49.83100 34.13600
N  36.04800 51.01100 25.95600
C  35.70500 51.94900 26.90900
C  35.63100 53.28600 26.24700
C  35.70200 53.06200 24.82000
C  35.88900 51.55400 24.69600
C  35.45300 54.57200 26.96700
C  35.53700 54.00300 23.63800
O  35.74500 53.64300 22.46500
C  35.22600 55.40200 23.94500
N  36.35900 48.58200 24.23500
C  36.17300 49.43600 23.25500
C  36.26900 48.84600 21.85600
C  36.87900 47.38000 22.17700
C  36.73100 47.34500 23.69900
C  34.80400 48.79800 21.11000
C  38.37300 47.13500 21.70800
C  38.62500 45.86600 20.94200
N  36.61700 46.98600 26.65100
C  36.79100 45.93100 25.78200
C  36.83000 44.67900 26.53700
C  36.63100 45.04400 27.87000
C  36.53700 46.44500 27.92300
C  37.01800 43.26800 25.96300
C  36.41700 44.51100 29.22000
O  36.35200 43.37000 29.66500
C  36.43400 45.80100 30.10900
C  35.19300 45.74800 30.94700
O  34.07000 45.72700 30.56200
O  35.61400 45.80600 32.31400
C  34.52400 45.95200 33.29500
H  35.28100 52.52100 28.84200
H  35.54200 51.38900 22.66600
H  37.10000 45.21500 23.77200
H  35.45200 48.39500 31.43000
H  36.08600 51.17300 31.01200
H  33.48900 49.50400 30.96200
H  33.53600 51.11000 30.08900
H  33.76600 51.04800 31.76300
H  37.83100 50.15100 31.63500
H  38.23700 48.49900 31.19600
H  38.18300 48.05000 33.38200
H  36.49400 48.07100 33.18500
H  34.52500 54.91100 26.50800
H  36.22500 55.32700 26.82000
H  35.37900 54.44600 28.04700
H  35.17100 55.90400 22.97900
H  35.99600 55.89100 24.54200
H  34.29800 55.36300 24.51600
H  36.92400 49.51600 21.29900
H  36.26000 46.57300 21.78600
H  34.05600 49.16800 21.81100
H  34.44900 47.80900 20.81900
H  34.80500 49.45800 20.24300
H  39.00600 47.16400 22.59500
H  38.65200 48.02800 21.14800
H  37.80900 45.15300 21.05500
H  39.55300 45.41600 21.29500
H  38.71300 46.15300 19.89400
H  38.09000 43.23100 25.77100
H  36.45400 43.14800 25.03800
H  36.63600 42.45900 26.58500
H  37.42000 45.80400 30.57400
H  33.57000 45.90700 32.77000
H  34.70600 46.77000 33.99200
H  34.61700 45.04100 33.88600

