158

Mg 16.35100 -2.08000 27.55100
C  15.38800 -0.00700 30.31900
C  18.60100 -3.52600 29.62900
C  17.53800 -3.60700 24.85300
C  14.24600 -0.32200 25.55100
N  16.78400 -1.87700 29.70700
C  16.28900 -1.00700 30.68700
C  16.78000 -1.32900 32.08200
C  17.88300 -2.39800 31.79300
C  17.74400 -2.61100 30.25900
C  19.27300 -1.99900 32.27200
C  15.68100 -1.87900 32.98700
C  15.57300 -1.30000 34.51200
H  16.82300 -0.90700 35.26300
N  17.78100 -3.47200 27.32100
C  18.62300 -3.93100 28.28900
C  19.46800 -4.95500 27.73600
C  19.10300 -5.08900 26.35800
C  18.10500 -3.98800 26.07300
C  20.35900 -5.82700 28.44900
C  19.64800 -6.12900 25.31900
O  19.19800 -6.13800 24.21000
C  20.83000 -7.05700 25.63300
N  16.03800 -1.93000 25.45700
C  16.62100 -2.62300 24.51900
C  16.29700 -2.11700 23.10000
C  14.89300 -1.44200 23.37000
C  15.09400 -1.18000 24.87200
C  17.42000 -1.29100 22.38100
C  13.60900 -2.26600 22.98700
C  12.61400 -2.84700 24.04600
N  15.06800 -0.54300 27.82900
C  14.16300 0.01100 26.92000
C  13.46800 1.12400 27.55600
C  13.88600 1.06700 28.91300
C  14.89100 0.08800 29.01100
C  12.71300 2.19100 26.76100
C  13.74100 1.79900 30.15200
O  13.06600 2.80900 30.39900
C  14.61800 1.03000 31.18100
C  15.55000 1.97100 31.91100
O  16.49300 2.55400 31.45200
O  15.11100 2.04100 33.22400
C  15.65100 3.12500 34.09300
H  19.32400 -4.09100 30.22200
H  18.00400 -4.04200 23.96600
H  13.37800 0.03000 24.99000
H  17.23600 -0.37600 32.34900
H  17.64500 -3.31200 32.33800
H  19.33100 -1.19900 33.00900
H  20.03500 -1.79000 31.52100
H  19.72600 -2.84800 32.78400
H  15.63900 -2.96700 32.93600
H  14.76100 -1.81500 32.40600
H  15.09600 -2.08800 35.09500
H  15.02700 -0.35700 34.51600
H  21.32200 -5.90000 27.94300
H  19.92800 -6.82700 28.41200
H  20.44200 -5.67200 29.52500
H  21.76800 -6.64400 25.26300
H  20.68800 -7.90100 24.95800
H  20.93100 -7.60200 26.57100
H  16.25700 -3.04400 22.52700
H  14.77700 -0.42800 22.98800
H  17.15400 -0.27500 22.08800
H  17.71200 -1.88100 21.51200
H  18.27000 -1.35800 23.06000
H  14.06400 -3.15700 22.55500
H  13.10800 -1.77300 22.15400
H  12.90900 -2.58800 25.06300
H  12.43000 -3.92100 24.01100
H  11.62900 -2.39500 23.93900
H  12.88300 3.14700 27.25500
H  11.70800 1.77800 26.84900
H  13.06400 2.19300 25.72900
H  13.88300 0.56700 31.84000
H  14.82900 3.81300 34.28900
H  16.52300 3.62500 33.67000
H  15.97600 2.59400 34.98700
Mg 44.56900 4.13300 46.43800
C  42.31100 6.75100 46.54800
C  41.87600 1.89600 45.89800
C  46.78700 1.60700 45.56800
C  47.14100 6.40400 46.10500
N  42.38800 4.33600 46.24000
C  41.66600 5.52300 46.31300
C  40.17500 5.23700 46.36200
C  40.00700 3.67400 46.13900
C  41.51100 3.26100 46.15000
C  39.12000 2.88500 47.24300
C  39.36900 6.08100 45.39700
C  39.33100 5.85000 43.89500
H  39.51200 7.03700 42.90000
N  44.36200 2.02500 45.98700
C  43.18100 1.35800 45.86400
C  43.43300 -0.02000 45.44400
C  44.85200 -0.15800 45.47000
C  45.46400 1.18000 45.65900
C  42.34100 -1.02000 45.11800
C  45.60200 -1.43500 45.19100
O  45.08400 -2.54600 44.98000
C  47.16800 -1.53700 45.14800
N  46.74400 3.99600 45.88800
C  47.39100 2.79500 45.78700
C  48.88800 2.98600 45.53100
C  48.96600 4.58800 45.41500
C  47.58700 5.05000 45.90900
C  49.85700 2.28700 46.55300
C  49.09300 5.17400 43.98500
C  50.54500 5.25400 43.57500
N  44.73100 6.12800 46.31100
C  45.83900 6.89700 46.39500
C  45.55300 8.27600 46.69700
C  44.15900 8.24800 46.79500
C  43.71600 6.96100 46.46200
C  46.45800 9.44100 46.77300
C  42.99100 9.02100 47.25900
O  42.93900 10.18000 47.61000
C  41.71600 8.12200 46.94500
C  40.85000 8.09400 48.07000
O  40.95500 7.41700 49.10700
O  39.76600 8.85200 47.76800
C  38.56900 8.65200 48.66000
H  41.02100 1.21900 45.84700
H  47.45600 0.81800 45.21900
H  47.93200 7.15400 46.17700
H  39.82000 5.53000 47.35000
H  39.47900 3.40700 45.22400
H  38.24000 2.33800 46.90500
H  38.75200 3.69100 47.87800
H  39.81000 2.32400 47.87400
H  39.55900 7.15200 45.46600
H  38.33200 6.20300 45.71100
H  38.34400 5.46500 43.64000
H  40.09500 5.10800 43.66200
H  42.67400 -1.73900 44.37000
H  41.37900 -0.59400 44.83300
H  42.08300 -1.54800 46.03600
H  47.69100 -1.25700 46.06200
H  47.62200 -1.00900 44.31000
H  47.50100 -2.57200 45.06300
H  49.06300 2.59500 44.52900
H  49.81600 4.83000 46.05300
H  50.62300 1.90000 45.88000
H  49.39700 1.48400 47.12900
H  50.40100 3.05100 47.10700
H  48.67600 6.17600 43.88200
H  48.60000 4.64400 43.17000
H  51.16700 4.95600 44.41900
H  50.78500 6.27200 43.26800
H  50.73400 4.48900 42.82200
H  47.25200 9.44800 46.02600
H  46.83100 9.37200 47.79500
H  45.96600 10.38900 46.55500
H  41.19800 8.61300 46.12100
H  37.71200 8.68000 47.98800
H  38.40200 9.47900 49.35000
H  38.52600 7.72200 49.22700

