158

Mg 26.92700 49.93400 26.30300
C  24.72500 50.96100 28.77300
C  29.16500 49.16700 28.62700
C  29.14700 49.52800 23.73600
C  24.66900 51.34800 23.90600
N  26.97100 50.16200 28.47600
C  25.93000 50.47900 29.25500
C  26.23200 50.17000 30.75200
C  27.72900 49.59800 30.72500
C  27.95900 49.66500 29.19700
C  28.82500 50.34800 31.53100
C  25.26000 49.06600 31.26800
C  25.17200 48.85900 32.76000
H  25.87000 49.79800 33.79400
N  28.79700 49.25100 26.21500
C  29.66900 49.07800 27.27100
C  30.98000 48.79900 26.82000
C  30.91300 48.81100 25.41300
C  29.53700 49.20700 25.05500
C  32.12000 48.49800 27.79300
C  32.04500 48.57300 24.44400
O  31.91300 48.70100 23.25600
C  33.37600 48.18400 24.93800
N  26.99500 50.45300 24.18800
C  27.98100 50.09100 23.31200
C  27.58100 50.17100 21.81300
C  26.24300 50.95400 21.89900
C  25.87400 50.82000 23.40200
C  28.60900 51.06700 21.03600
C  25.14800 50.27000 20.97800
C  24.45900 51.17100 19.85000
N  25.05600 51.01300 26.28300
C  24.25800 51.43500 25.26200
C  23.08800 52.14100 25.87100
C  23.27700 52.05300 27.25100
C  24.44900 51.27800 27.46400
C  22.07600 52.85100 25.10300
C  22.68400 52.39000 28.53300
O  21.67800 53.03300 28.83700
C  23.60300 51.65400 29.57900
C  23.95800 52.61800 30.58000
O  24.89200 53.41800 30.50100
O  23.06500 52.61200 31.59800
C  23.23900 53.69100 32.57700
H  29.89200 48.86900 29.38600
H  29.79900 49.31700 22.88600
H  23.98600 51.73100 23.14400
H  26.40600 51.03800 31.38800
H  27.81500 48.61700 31.19100
H  29.51500 50.94700 30.93700
H  29.43400 49.65400 32.11000
H  28.44700 51.01800 32.30400
H  25.61600 48.09000 30.93800
H  24.25800 49.22500 30.86900
H  25.22400 47.80100 33.02000
H  24.16400 49.12900 33.07800
H  32.13900 47.40800 27.76300
H  31.81600 48.84100 28.78200
H  33.14000 48.86000 27.66100
H  33.20400 47.39700 25.67300
H  33.75600 49.11200 25.36500
H  33.95700 47.89600 24.06100
H  27.56300 49.15900 21.40700
H  26.31000 52.01100 21.64000
H  28.83900 50.56700 20.09500
H  29.52400 51.20700 21.61100
H  28.21000 52.03500 20.73000
H  24.57500 49.64000 21.65900
H  25.63200 49.53600 20.33300
H  25.11100 51.93900 19.43400
H  23.62900 51.78200 20.20400
H  24.18900 50.50000 19.03400
H  21.62300 52.26200 24.30600
H  22.42700 53.75800 24.61100
H  21.20800 53.05000 25.73100
H  22.89800 50.90900 29.94900
H  22.38000 53.91400 33.20900
H  23.48100 54.62300 32.06800
H  23.95200 53.35500 33.33000
Mg -2.23100 34.03100 28.22500
C  -4.21300 32.55900 30.63900
C  -1.01400 36.18000 30.78700
C  -0.53000 35.63600 25.86100
C  -3.58700 31.87100 25.77600
N  -2.71700 34.38100 30.33500
C  -3.42200 33.52900 31.21800
C  -3.27000 33.94300 32.63500
C  -2.64600 35.31200 32.61000
C  -2.09600 35.31900 31.14400
C  -3.59200 36.46300 32.84600
C  -2.58300 32.90700 33.50400
C  -3.41800 32.25000 34.54500
H  -3.13900 32.53800 36.00100
N  -0.89000 35.65300 28.28400
C  -0.45800 36.33100 29.47100
C  0.64800 37.18100 29.08000
C  0.68500 37.22900 27.64700
C  -0.25800 36.14100 27.18000
C  1.31100 38.05700 30.09100
C  1.52800 38.02000 26.73600
O  1.51000 37.98400 25.48700
C  2.46200 39.03800 27.33000
N  -2.19600 33.83000 26.08800
C  -1.36900 34.61700 25.39000
C  -1.38600 34.21600 23.92500
C  -2.12100 32.82300 23.93900
C  -2.63800 32.78500 25.35500
C  -1.96000 35.28000 22.86500
C  -1.07900 31.62900 23.66800
C  0.43200 31.93200 24.03500
N  -3.60200 32.49600 28.22800
C  -4.05500 31.72900 27.13900
C  -5.12300 30.82800 27.62300
C  -5.21400 31.11500 29.01800
C  -4.28500 32.17200 29.30900
C  -5.90100 29.91200 26.83700
C  -5.88000 30.77700 30.29600
O  -6.81200 30.08800 30.55600
C  -5.16700 31.56600 31.36100
C  -6.24700 32.34700 32.10200
O  -6.53800 33.53400 31.88100
O  -6.79600 31.60400 33.13200
C  -7.73500 32.36100 34.03100
H  -0.60800 36.77800 31.60500
H  0.15000 35.95100 25.06700
H  -3.94100 31.21300 24.98000
H  -4.29600 34.03900 32.99100
H  -1.78700 35.45300 33.26600
H  -3.49600 37.29000 32.14200
H  -3.50300 36.86900 33.85400
H  -4.60200 36.07100 32.72600
H  -1.63100 33.27800 33.88500
H  -2.19200 32.26300 32.71600
H  -3.56500 31.17200 34.48300
H  -4.47400 32.43100 34.34400
H  0.78100 38.09700 31.04300
H  1.35000 39.10300 29.79000
H  2.31000 37.63800 30.21700
H  3.16400 39.37600 26.56700
H  2.97900 38.36600 28.01500
H  1.98100 39.88100 27.82500
H  -0.35600 34.15300 23.57600
H  -2.91800 32.74400 23.20000
H  -2.72200 35.94800 23.26500
H  -2.32100 34.62400 22.07200
H  -1.11100 35.78500 22.40600
H  -1.20000 31.35000 22.62100
H  -1.36100 30.76100 24.26400
H  1.00700 31.03800 24.27600
H  0.36800 32.56400 24.92100
H  0.88300 32.41200 23.16700
H  -6.16900 29.02700 27.41500
H  -5.41700 29.54600 25.93200
H  -6.78300 30.43400 26.46600
H  -4.57000 30.96900 32.05000
H  -7.23900 33.15600 34.58600
H  -8.14100 31.61800 34.71800
H  -8.54500 32.83300 33.47500

