158

Mg 42.41300 3.67500 46.74500
C  40.62000 6.71500 46.51400
C  39.23500 2.12200 46.51700
C  43.95500 0.79300 46.37100
C  45.28800 5.47200 46.06000
N  40.19900 4.41100 46.54600
C  39.76400 5.60300 46.54000
C  38.23300 5.65000 46.64200
C  37.82800 4.14600 46.81800
C  39.17600 3.48200 46.72100
C  37.21200 3.80900 48.27100
C  37.62100 6.25100 45.29000
C  38.03300 5.44400 43.99800
H  38.65400 6.25400 42.91000
N  41.73800 1.66000 46.55200
C  40.37900 1.27900 46.51500
C  40.25900 -0.14000 46.34800
C  41.64300 -0.53800 46.25100
C  42.55000 0.62700 46.43400
C  38.93400 -0.97300 46.23700
C  42.09300 -1.94700 45.84600
O  41.26400 -2.83300 45.65100
C  43.49700 -2.37600 45.44700
N  44.36700 3.15600 46.32400
C  44.79600 1.87400 46.37400
C  46.29000 1.80400 46.05200
C  46.72100 3.33600 45.98400
C  45.36200 4.04500 46.08200
C  47.11100 0.92700 47.01800
C  47.67700 3.68700 44.88300
C  49.12700 3.98900 45.33400
N  42.91000 5.69900 46.42600
C  44.14000 6.29900 46.11900
C  44.06000 7.74300 46.21700
C  42.67500 7.89100 46.28200
C  42.02400 6.66100 46.38600
C  45.07800 8.80400 46.04400
C  41.67400 9.00600 46.30800
O  41.77400 10.21400 46.32300
C  40.32000 8.21200 46.44700
C  39.39900 8.62100 47.54200
O  39.47200 8.26900 48.67600
O  38.39600 9.32400 47.07600
C  37.48400 9.93600 48.00400
H  38.28400 1.59300 46.59900
H  44.55300 -0.12100 46.33700
H  46.18600 6.09100 45.99400
H  37.94700 6.17000 47.55700
H  37.28400 3.61500 46.03700
H  37.16700 4.66100 48.95000
H  37.83000 3.02300 48.70300
H  36.25600 3.29000 48.19500
H  37.80200 7.32400 45.23500
H  36.53100 6.24400 45.30700
H  37.18900 4.87200 43.61300
H  38.73600 4.63400 44.19500
H  38.14000 -0.58100 46.87300
H  39.16100 -1.94100 46.68400
H  38.64600 -1.14200 45.20000
H  44.18600 -2.41300 46.29000
H  43.89700 -1.86500 44.57100
H  43.53200 -3.38100 45.02600
H  46.40100 1.25700 45.11600
H  47.17500 3.57100 46.94700
H  46.45900 0.46100 47.75800
H  47.88900 1.48500 47.54000
H  47.49200 0.08300 46.44300
H  47.34500 4.48900 44.22400
H  47.60600 2.73700 44.35300
H  49.26000 4.35700 46.35200
H  49.58800 4.67800 44.62700
H  49.81700 3.14600 45.37500
H  44.57100 9.76900 46.06900
H  45.73600 8.67900 45.18400
H  45.72100 8.84900 46.92300
H  39.78000 8.35400 45.51100
H  37.73500 10.98400 48.16600
H  37.49000 9.43800 48.97400
H  36.43000 9.80400 47.75900
Mg 36.83500 49.54100 23.98800
C  36.92900 47.98500 27.24700
C  35.30100 52.23000 25.45100
C  35.75100 50.51500 20.95100
C  37.89100 46.52500 22.71300
N  36.17400 49.99600 26.12300
C  36.53500 49.33400 27.24500
C  36.21100 50.11900 28.49700
C  35.44300 51.42100 27.91000
C  35.65200 51.24100 26.40500
C  33.89700 51.65500 28.30800
C  37.39500 50.38800 29.32500
C  37.21400 49.97800 30.83300
H  35.79400 49.72800 31.43200
N  35.89500 51.25500 23.28100
C  35.31600 52.19200 24.03200
C  34.85100 53.27600 23.15100
C  34.93900 52.79900 21.85400
C  35.52200 51.44600 22.00900
C  34.15100 54.60600 23.64700
C  34.54400 53.34800 20.49100
O  34.75900 52.76100 19.46000
C  33.82700 54.64500 20.36700
N  36.65700 48.54900 22.21300
C  36.40800 49.27800 21.01600
C  36.68800 48.44800 19.79000
C  37.63500 47.38500 20.32900
C  37.38100 47.46500 21.82500
C  35.35900 47.78600 19.11700
C  39.15500 47.61400 20.06900
C  40.00600 46.31400 20.14100
N  37.29000 47.55600 24.81200
C  37.79900 46.51400 24.11600
C  38.06900 45.43000 25.03100
C  37.81200 45.97300 26.33000
C  37.27900 47.27200 26.09500
C  38.69800 44.03200 24.74600
C  37.74400 45.71900 27.73500
O  38.14300 44.72000 28.35100
C  37.07000 47.00400 28.42100
C  35.73100 46.53200 28.90900
O  34.61500 46.57600 28.40500
O  35.96100 45.84200 30.07500
C  34.83000 45.03600 30.54400
H  34.83000 53.10600 25.90100
H  35.53600 50.59200 19.88400
H  38.46600 45.61800 22.51500
H  35.51200 49.44700 28.99400
H  35.93400 52.33200 28.25200
H  33.58600 51.03500 29.14900
H  33.19000 51.55400 27.48500
H  33.84000 52.63700 28.77700
H  37.65000 51.44100 29.20400
H  38.20100 49.78000 28.91500
H  37.70700 50.71000 31.47200
H  37.84700 49.12200 31.06500
H  33.07200 54.53100 23.51500
H  34.37600 55.54800 23.14700
H  34.27000 54.70900 24.72500
H  33.24000 54.67800 19.44900
H  34.46100 55.52900 20.42900
H  33.14700 54.69900 21.21700
H  37.23000 49.11500 19.12000
H  37.32500 46.42400 19.91800
H  34.63400 47.42600 19.84700
H  35.66200 46.90200 18.55600
H  34.82200 48.47500 18.46500
H  39.34500 48.34400 20.85600
H  39.26400 48.09100 19.09500
H  39.38000 45.44100 20.32400
H  40.66300 46.45500 20.99900
H  40.63700 46.13800 19.27000
H  37.86000 43.43600 24.38200
H  39.21400 43.58800 25.59700
H  39.44600 44.19400 23.97000
H  37.58700 47.37000 29.30900
H  34.37400 44.50500 29.70800
H  34.16600 45.72400 31.06600
H  35.36300 44.27600 31.11600

