158

Mg 24.23600 1.89700 29.72900
C  26.59500 1.51600 32.20700
C  21.77800 2.24600 32.09900
C  22.02700 2.10400 27.22700
C  26.75300 1.01800 27.26500
N  24.22200 1.86200 31.81500
C  25.26000 1.74400 32.69800
C  24.83200 1.95800 34.06800
C  23.30400 2.02900 34.00900
C  23.08400 1.92100 32.54800
C  22.56900 1.03200 34.96600
C  25.52300 3.19100 34.73500
C  25.74900 3.12000 36.22000
H  25.07200 4.19900 37.13800
N  22.18300 2.02500 29.71100
C  21.29600 2.30400 30.80300
C  20.00400 2.57000 30.28400
C  19.99200 2.39100 28.82600
C  21.45000 2.19100 28.47000
C  18.87400 3.10500 31.08300
C  18.87000 2.30300 27.81100
O  19.01600 2.28600 26.61700
C  17.52900 2.46300 28.21900
N  24.34000 1.49500 27.52900
C  23.31100 1.84800 26.74500
C  23.66400 1.90500 25.26200
C  25.19500 1.63100 25.31200
C  25.47900 1.30100 26.82500
C  22.77600 1.03400 24.28600
C  26.07100 2.75300 24.71100
C  26.31800 4.06000 25.52200
N  26.25700 1.31800 29.70700
C  27.09800 0.96000 28.68400
C  28.40800 0.83200 29.21700
C  28.20700 0.90400 30.63700
C  26.91000 1.25000 30.85100
C  29.65800 0.68800 28.38400
C  28.83200 0.89700 31.90800
O  29.99000 0.56500 32.10800
C  27.85800 1.35900 32.99600
C  27.77000 0.22900 33.94900
O  27.46000 -0.89300 33.62000
O  28.14200 0.60900 35.21700
C  28.22200 -0.41900 36.24900
H  21.17600 2.53700 32.96200
H  21.32200 2.48600 26.48600
H  27.58700 0.98300 26.56100
H  25.07500 0.98700 34.49900
H  22.98200 3.01800 34.33400
H  22.19100 0.16500 34.42500
H  21.82200 1.56500 35.55500
H  23.37100 0.74400 35.64600
H  24.98200 4.08600 34.42700
H  26.46600 3.39900 34.23100
H  26.81000 3.08100 36.46800
H  25.33500 2.15300 36.50400
H  19.09500 2.97100 32.14200
H  17.95000 2.57800 30.84600
H  18.82800 4.17600 30.88300
H  17.37600 3.38800 28.77500
H  17.38500 1.57300 28.83200
H  16.87600 2.35600 27.35300
H  23.53000 2.94000 24.94800
H  25.50300 0.72400 24.79300
H  21.91500 0.58800 24.78500
H  23.30800 0.27900 23.70800
H  22.39500 1.80200 23.61200
H  25.61800 2.99200 23.74900
H  27.06100 2.34500 24.50500
H  26.16900 3.85600 26.58200
H  25.74500 4.91200 25.15600
H  27.37400 4.32600 25.48300
H  29.61500 -0.27000 27.86600
H  30.50500 0.79100 29.06200
H  29.70300 1.51100 27.67100
H  28.17600 2.23800 33.55500
H  28.42800 -1.40600 35.83300
H  27.37300 -0.38100 36.93200
H  29.13100 -0.26200 36.83000
Mg 55.96200 23.16600 43.32700
C  53.90700 26.11000 42.68100
C  53.15600 21.22100 42.73200
C  57.99500 20.65500 42.83400
C  58.69000 25.42300 43.33800
N  53.78600 23.63600 42.63100
C  53.16200 24.91600 42.50300
C  51.64300 24.63500 42.18300
C  51.37800 23.18400 42.68800
C  52.84600 22.59700 42.73100
C  50.74900 23.11600 44.09800
C  51.19100 24.92400 40.67100
C  52.26500 25.20200 39.56200
H  51.92500 24.83500 38.13200
N  55.65100 21.18600 42.85300
C  54.44000 20.57300 42.76200
C  54.69700 19.17600 42.62700
C  56.06200 18.90500 42.68200
C  56.68300 20.23800 42.87000
C  53.54400 18.13000 42.38800
C  56.78000 17.59400 42.55200
O  56.17300 16.54800 42.34900
C  58.21500 17.43100 42.79700
N  58.02300 23.11400 43.06700
C  58.60700 21.90800 42.85000
C  60.14800 22.08600 42.77200
C  60.39600 23.66000 42.89900
C  58.96100 24.08600 43.13400
C  60.89900 21.09400 43.68400
C  61.19700 24.39700 41.69600
C  60.37600 24.80100 40.53800
N  56.23400 25.23200 43.31700
C  57.38200 26.00400 43.33000
C  57.06700 27.41800 43.46900
C  55.67000 27.51000 43.40400
C  55.24900 26.12600 43.14800
C  58.07200 28.50100 43.75600
C  54.51800 28.33800 43.40900
O  54.40900 29.52600 43.65600
C  53.33500 27.48500 43.02800
C  52.47800 28.21200 42.07300
O  52.79100 28.52600 40.93000
O  51.30900 28.49600 42.67000
C  50.19700 29.04200 41.86900
H  52.30900 20.54900 42.88600
H  58.64200 19.79000 42.67300
H  59.57900 26.01100 43.57700
H  50.97300 25.30200 42.72500
H  50.77700 22.53000 42.05600
H  51.42700 22.61700 44.79000
H  49.72400 22.74900 44.16800
H  50.76000 24.10700 44.55100
H  50.58200 25.82700 40.68400
H  50.72000 24.04400 40.23200
H  53.24200 24.80500 39.83800
H  52.48000 26.27000 39.55100
H  52.56700 18.58200 42.55400
H  53.65400 17.22900 42.99200
H  53.48700 17.71800 41.38100
H  58.51700 16.38800 42.70900
H  58.46800 17.89300 43.75100
H  58.84300 17.82400 41.99800
H  60.48000 21.85900 41.75900
H  60.90000 23.89500 43.83700
H  60.28600 20.70700 44.49800
H  61.75800 21.64600 44.06500
H  61.29100 20.25600 43.10800
H  62.06100 23.81900 41.36900
H  61.47000 25.35300 42.14200
H  60.24800 25.88300 40.51200
H  59.35700 24.47700 40.74700
H  60.77900 24.39800 39.60800
H  58.39000 28.81400 42.76200
H  58.87700 28.03900 44.32800
H  57.54700 29.22300 44.38200
H  52.73300 27.46600 43.93600
H  49.25700 28.76400 42.34600
H  50.34000 28.65100 40.86200
H  50.31900 30.12200 41.79300

