158

Mg 24.53200 -5.53000 45.08900
C  26.55100 -3.05500 43.71500
C  22.09300 -4.64000 42.76600
C  22.88700 -8.45000 45.64100
C  27.32300 -6.85500 46.71800
N  24.37800 -3.97800 43.48700
C  25.29200 -3.07500 43.05700
C  24.77900 -2.20100 41.99300
C  23.27300 -2.54000 42.01100
C  23.25600 -3.84400 42.75800
C  22.34400 -1.41600 42.57100
C  25.42800 -2.52100 40.61900
C  25.85300 -1.29300 39.82800
H  26.10600 -1.47600 38.28800
N  22.72400 -6.34000 44.38000
C  21.84400 -5.79100 43.50000
C  20.65600 -6.61100 43.44000
C  20.92100 -7.82600 44.20400
C  22.23400 -7.57900 44.77500
C  19.48700 -6.24900 42.47100
C  20.06200 -8.97100 44.26800
O  18.92300 -8.88000 43.77600
C  20.38800 -10.24100 45.01400
N  25.04200 -7.37900 46.06500
C  24.12400 -8.39500 46.19200
C  24.74700 -9.57800 46.89400
C  26.18300 -9.17900 47.20900
C  26.21600 -7.72900 46.60900
C  23.88100 -10.26100 47.93200
C  27.29400 -10.06000 46.76000
C  28.09600 -10.77400 47.84500
N  26.58400 -4.99100 45.28500
C  27.55200 -5.62100 46.05800
C  28.74800 -4.75900 45.95300
C  28.40600 -3.78500 44.99700
C  27.04800 -3.96700 44.64400
C  30.04900 -5.06100 46.52900
C  28.95700 -2.70900 44.15000
O  30.09200 -2.28000 44.13900
C  27.75900 -2.12700 43.33200
C  27.49100 -0.70500 43.79100
O  27.46900 -0.24300 44.95600
O  27.47300 0.17400 42.69300
C  27.25000 1.56200 42.92900
H  21.28700 -4.22600 42.15600
H  22.41100 -9.38300 45.95100
H  28.05900 -7.26900 47.41000
H  25.01600 -1.15600 42.19200
H  22.95500 -2.83700 41.01200
H  22.90900 -0.56000 42.94000
H  21.70200 -1.68900 43.40900
H  21.67500 -0.94700 41.85000
H  24.83600 -3.19000 39.99500
H  26.33800 -3.02200 40.95000
H  26.74300 -0.89800 40.31800
H  25.02100 -0.58800 39.83100
H  19.66200 -6.55800 41.44100
H  19.46500 -5.16100 42.40800
H  18.56100 -6.72500 42.79300
H  21.32500 -10.69500 44.69100
H  19.59200 -10.95400 44.79800
H  20.35900 -10.08900 46.09300
H  24.85400 -10.33600 46.11900
H  26.23200 -9.13200 48.29700
H  23.44800 -11.19500 47.57300
H  23.24100 -9.48300 48.34800
H  24.51900 -10.56700 48.76100
H  27.99000 -9.57500 46.07600
H  26.91500 -10.83500 46.09400
H  27.61900 -11.74000 48.01100
H  28.21800 -10.32300 48.82900
H  29.07000 -10.95700 47.39000
H  30.63600 -5.75500 45.92800
H  29.87300 -5.46300 47.52700
H  30.61800 -4.13300 46.47300
H  28.08800 -2.25600 42.30100
H  27.99700 1.95700 43.61800
H  26.23200 1.59500 43.31700
H  27.38200 2.16600 42.03200
Mg -5.19800 25.14200 26.66300
C  -3.99300 26.43700 29.63100
C  -6.91400 22.77500 28.55300
C  -6.05800 23.72500 23.73300
C  -2.92000 27.25000 24.85700
N  -5.34000 24.65000 28.82900
C  -4.82800 25.35300 29.82500
C  -5.27100 24.84300 31.23300
C  -6.01300 23.46400 30.85000
C  -6.13700 23.64000 29.29900
C  -5.19800 22.18600 31.26500
C  -6.16500 26.02400 31.87400
C  -5.98500 26.19100 33.41500
H  -5.39400 24.98000 34.19500
N  -6.19200 23.51300 26.21600
C  -6.99900 22.74200 27.12900
C  -7.81500 21.80900 26.38600
C  -7.63100 22.13400 25.02300
C  -6.58400 23.17800 24.93500
C  -8.66300 20.75300 27.08200
C  -8.33500 21.44600 23.92400
O  -8.08200 21.77600 22.77200
C  -9.38900 20.33000 24.12800
N  -4.57400 25.45200 24.53900
C  -5.07000 24.71700 23.56900
C  -4.43000 25.07700 22.20600
C  -3.45900 26.21100 22.59400
C  -3.59900 26.32400 24.12300
C  -3.77900 23.89800 21.47600
C  -3.62500 27.51800 21.78200
C  -2.43000 28.00300 20.92400
N  -3.93100 26.63000 27.10000
C  -3.06000 27.40000 26.26200
C  -2.23600 28.22900 27.02900
C  -2.54700 28.02300 28.33500
C  -3.52400 26.91100 28.39800
C  -1.31600 29.26900 26.45600
C  -2.35100 28.41800 29.75300
O  -1.71300 29.36300 30.31900
C  -3.25800 27.33200 30.56400
C  -2.38800 26.50600 31.53300
O  -1.80700 25.47500 31.20600
O  -2.20600 27.03100 32.82200
C  -1.17400 26.27100 33.56300
H  -7.49900 22.05400 29.12800
H  -6.23900 23.20100 22.79100
H  -2.15500 27.77500 24.28000
H  -4.37300 24.63700 31.81500
H  -6.95500 23.48800 31.39900
H  -4.27500 22.53300 31.72900
H  -4.87900 21.60800 30.39700
H  -5.74800 21.56600 31.97400
H  -7.19700 25.73200 31.68100
H  -6.00300 26.95800 31.33700
H  -7.02400 26.33800 33.71200
H  -5.45700 27.12700 33.59800
H  -9.74000 20.86000 26.95500
H  -8.27400 20.56600 28.08300
H  -8.43500 19.83200 26.54600
H  -9.76500 19.99900 23.16000
H  -10.14700 20.75000 24.78800
H  -9.00400 19.44000 24.62600
H  -5.32500 25.30700 21.62800
H  -2.46100 25.79800 22.44400
H  -3.00500 24.24000 20.78900
H  -4.58300 23.39900 20.93600
H  -3.25700 23.23900 22.17000
H  -3.94700 28.35200 22.40500
H  -4.56800 27.40700 21.24700
H  -2.05900 28.91900 21.38500
H  -2.84100 28.12200 19.92100
H  -1.72100 27.17900 21.00600
H  -1.95500 30.11400 26.20200
H  -0.77100 28.94700 25.56900
H  -0.58100 29.54600 27.21200
H  -4.02000 27.89600 31.10200
H  -0.72100 26.96800 34.26800
H  -0.32700 26.02200 32.92400
H  -1.52900 25.37800 34.07800

