158

Mg 41.01900 7.80200 29.33700
C  42.79600 9.22600 31.94200
C  38.76400 6.48600 31.73000
C  39.58300 5.96000 26.86800
C  43.69700 8.53900 27.16900
N  40.81900 7.79400 31.57100
C  41.60600 8.61600 32.39100
C  41.09400 8.56400 33.92100
C  39.82000 7.61500 33.81900
C  39.77900 7.25500 32.26200
C  40.01000 6.36400 34.72600
C  40.80300 10.02000 34.47100
C  40.10600 10.05600 35.86500
H  40.42900 11.24300 36.80400
N  39.34000 6.54600 29.27300
C  38.52500 6.14800 30.36900
C  37.38900 5.42000 29.83000
C  37.62200 5.24200 28.40700
C  38.89300 5.93200 28.10300
C  36.17000 5.09800 30.63800
C  36.63700 4.64400 27.38200
O  36.78000 4.56500 26.16300
C  35.31500 4.12700 27.86700
N  41.63200 7.21200 27.24500
C  40.73900 6.59200 26.44100
C  41.28500 6.43400 25.04900
C  42.61600 7.28200 25.07100
C  42.68100 7.73500 26.52300
C  41.34600 5.02900 24.51800
C  42.61200 8.42600 24.05600
C  41.59200 9.59700 24.28500
N  42.89700 8.58300 29.48600
C  43.80100 8.92000 28.51000
C  44.89300 9.65200 29.14700
C  44.56200 9.78900 30.44900
C  43.31600 9.13800 30.60800
C  46.19100 10.29300 28.40900
C  44.91700 10.36100 31.69000
O  45.90300 11.10100 31.90300
C  43.85300 9.95400 32.76700
C  44.34800 9.10300 33.81400
O  44.59700 7.93400 33.76600
O  44.34600 9.79100 35.03100
C  44.91400 9.05300 36.20700
H  38.10600 6.05000 32.48400
H  39.13700 5.39300 26.04800
H  44.52500 8.82800 26.51800
H  41.86400 8.23700 34.62000
H  38.93900 8.11400 34.22200
H  40.99100 6.39500 35.20000
H  39.92700 5.40400 34.21700
H  39.19400 6.30400 35.44700
H  40.16800 10.49200 33.72200
H  41.68700 10.65100 34.56500
H  40.27000 9.13400 36.42300
H  39.03700 10.08600 35.65100
H  36.11300 4.05100 30.93700
H  35.18900 5.28500 30.20100
H  36.19400 5.61100 31.59900
H  35.36400 3.36500 28.64500
H  34.83400 3.57200 27.06200
H  34.66700 4.99300 28.00400
H  40.50100 6.91800 24.46700
H  43.47700 6.65200 24.84700
H  41.80900 5.13800 23.53800
H  40.38800 4.58600 24.24700
H  41.94500 4.24400 24.98000
H  42.40600 7.93600 23.10400
H  43.61500 8.76500 23.79500
H  41.29800 9.71800 25.32800
H  40.73600 9.54100 23.61200
H  42.01600 10.58000 24.08400
H  46.88100 9.46300 28.25300
H  46.58500 11.08500 29.04500
H  45.84400 10.72500 27.47000
H  43.54800 10.92700 33.15100
H  44.47200 8.06400 36.32200
H  44.60500 9.47800 37.16200
H  46.00300 8.99900 36.23000
Mg 29.84000 59.06300 39.85100
C  27.19200 57.42600 38.45200
C  31.92400 56.45700 38.95200
C  32.60100 61.06800 40.12200
C  27.82000 62.05700 39.94400
N  29.55000 57.14100 38.75900
C  28.38800 56.62800 38.34600
C  28.48700 55.17900 37.85100
C  29.96300 54.86800 38.41600
C  30.55200 56.22500 38.67300
C  29.90300 54.03900 39.71200
C  28.30800 55.18200 36.27300
C  27.23000 54.31100 35.72000
H  26.32500 54.96200 34.66600
N  31.96200 58.71000 39.74200
C  32.63300 57.62600 39.34400
C  34.02900 57.73800 39.57800
C  34.31100 59.03200 40.00900
C  32.91100 59.65400 39.99500
C  35.01700 56.66400 39.21000
C  35.73000 59.60200 40.32800
O  36.70900 58.88100 40.13500
C  35.91500 60.94800 40.88700
N  30.06000 61.22600 40.14000
C  31.37600 61.71300 40.16900
C  31.29100 63.25900 40.21900
C  29.78300 63.55600 40.38200
C  29.16500 62.21100 40.05800
C  32.09200 63.89600 41.41900
C  29.18500 64.79000 39.57600
C  28.95800 66.07300 40.37600
N  27.85100 59.55600 39.54800
C  27.11400 60.80000 39.67700
C  25.71300 60.49400 39.35300
C  25.70400 59.16900 38.94400
C  27.06200 58.68500 38.97900
C  24.59900 61.58700 39.21900
C  24.81700 58.13000 38.37700
O  23.57300 58.10900 38.18300
C  25.71200 56.89600 38.14000
C  25.43500 55.72200 39.10700
O  25.91700 55.59500 40.25300
O  24.62300 54.82900 38.46500
C  24.36600 53.62600 39.32400
H  32.45900 55.50900 38.86600
H  33.47600 61.72100 40.14300
H  27.22200 62.95800 40.09200
H  27.68400 54.60500 38.31500
H  30.53700 54.27100 37.70600
H  29.19700 54.48900 40.41000
H  30.90500 54.09500 40.13800
H  29.66500 52.97900 39.62400
H  29.27100 55.02800 35.78700
H  28.06400 56.19300 35.94700
H  26.59700 53.94100 36.52700
H  27.75700 53.51100 35.19900
H  35.74800 56.64500 40.01900
H  35.45600 56.67600 38.21300
H  34.47600 55.71800 39.22700
H  36.93800 61.05000 41.25000
H  35.26600 61.21200 41.72200
H  35.76700 61.62000 40.04100
H  31.59800 63.65200 39.25000
H  29.53700 63.74900 41.42600
H  31.55200 64.53800 42.11500
H  33.00000 64.35300 41.02300
H  32.45500 63.06600 42.02500
H  28.30000 64.48600 39.01700
H  29.88200 65.10100 38.79800
H  29.60300 66.86700 39.99800
H  29.26600 65.98500 41.41800
H  27.88000 66.20700 40.46200
H  25.07400 62.56400 39.12900
H  24.00800 61.52500 40.13300
H  23.91900 61.47200 38.37500
H  25.46400 56.58000 37.12700
H  23.82600 52.89100 38.72700
H  23.75800 53.98600 40.15400
H  25.26600 53.17700 39.74300

