158

Mg 47.75300 24.22200 28.06500
C  48.23100 26.48400 30.81500
C  46.79100 21.88500 30.32900
C  47.42800 22.08600 25.47100
C  48.92500 26.74500 25.97700
N  47.52600 24.23800 30.30500
C  47.72200 25.22700 31.18700
C  47.21000 24.78700 32.58700
C  46.77700 23.27700 32.40700
C  47.07400 23.11700 30.87800
C  47.60800 22.23700 33.28600
C  46.13700 25.79200 33.12700
C  46.42300 26.26700 34.60700
H  46.28300 25.15200 35.62200
N  47.27700 22.12600 27.93900
C  46.86500 21.40200 28.99300
C  46.42200 20.09400 28.50800
C  46.52200 20.22200 27.10700
C  47.10400 21.47600 26.76000
C  46.01800 18.97400 29.31800
C  46.07400 19.15400 26.02200
O  46.38100 19.30000 24.83500
C  45.20100 18.04200 26.40100
N  48.33600 24.31000 26.02000
C  48.06300 23.27400 25.15800
C  48.30800 23.77900 23.69900
C  48.54800 25.29800 23.83300
C  48.65400 25.45100 25.36600
C  49.44600 23.02000 22.95200
C  47.39100 26.13700 23.23700
C  45.92600 25.74700 23.53700
N  48.38500 26.22400 28.29000
C  48.89900 27.09000 27.38100
C  49.24000 28.32400 27.97400
C  48.99900 28.13300 29.31200
C  48.50800 26.89200 29.47100
C  49.89400 29.51800 27.33800
C  49.05700 28.73700 30.57200
O  49.49300 29.84100 30.88600
C  48.44100 27.67400 31.63000
C  49.39900 27.43200 32.81700
O  50.21600 26.59500 33.06100
O  49.16400 28.53200 33.71000
C  49.75100 28.48900 35.04900
H  46.51700 21.09600 31.03300
H  47.36400 21.54400 24.52600
H  49.17800 27.52400 25.25600
H  48.11000 24.86600 33.19800
H  45.72600 23.11200 32.64600
H  46.92000 21.59100 33.83200
H  48.22800 22.70700 34.05000
H  48.32300 21.63300 32.72700
H  45.15400 25.32400 33.19300
H  46.06300 26.68300 32.50300
H  45.69400 27.07100 34.70700
H  47.43500 26.66800 34.66400
H  46.41700 18.92400 30.33100
H  46.45400 18.06000 28.91500
H  44.95800 18.90300 29.56300
H  44.50300 18.41000 27.15200
H  45.69900 17.18400 26.85300
H  44.70100 17.80800 25.46100
H  47.34800 23.60500 23.21400
H  49.45300 25.69400 23.37200
H  49.97400 22.43400 23.70400
H  50.22400 23.74700 22.71700
H  49.30200 22.32900 22.12100
H  47.59300 25.86500 22.20100
H  47.67200 27.16900 23.44900
H  46.01800 25.05200 24.37100
H  45.49800 25.35600 22.61400
H  45.46800 26.66700 23.90000
H  50.67600 29.16000 26.66800
H  50.33000 30.06800 28.17200
H  49.15100 29.95700 26.67300
H  47.52200 28.14200 31.98500
H  50.82800 28.33900 34.97300
H  49.27300 27.75500 35.69800
H  49.55800 29.43400 35.55600
Mg 6.75300 53.70000 41.61300
C  6.25600 50.35200 41.25200
C  10.05000 53.38900 40.41300
C  6.93700 57.11400 41.42400
C  3.25700 54.05000 42.12600
N  7.88700 52.06700 40.78500
C  7.53000 50.72600 40.84400
C  8.66500 49.87800 40.25400
C  9.89100 50.87000 40.48300
C  9.23300 52.20900 40.47700
C  10.62600 50.72900 41.85300
C  8.42900 49.38900 38.77600
C  8.15000 50.52700 37.69800
H  6.94600 50.24500 36.78800
N  8.27300 55.06300 41.07200
C  9.56100 54.75800 40.62700
C  10.36100 56.00500 40.59500
C  9.48900 57.05800 41.04900
C  8.13500 56.43800 41.17200
C  11.86000 55.92900 40.47100
C  10.01000 58.53800 41.26500
O  11.19000 58.88300 41.03100
C  9.16400 59.58700 41.71400
N  5.26800 55.37500 41.84700
C  5.65300 56.69600 41.70000
C  4.45300 57.62500 41.92900
C  3.25600 56.59600 42.07700
C  3.93000 55.25200 41.97700
C  4.58400 58.64900 43.08600
C  2.22000 56.71300 40.85200
C  0.77800 56.40200 41.15400
N  5.06700 52.48600 41.80800
C  3.71300 52.75300 42.11600
C  2.97100 51.55200 42.19100
C  3.99700 50.54200 41.94200
C  5.16300 51.20100 41.62700
C  1.49100 51.25900 42.33800
C  4.21000 49.12700 41.86200
O  3.37900 48.24000 41.97700
C  5.66400 48.96800 41.36700
C  5.39700 48.18100 40.13100
O  4.94600 48.66600 39.11900
O  6.04100 47.04600 40.13900
C  5.92900 46.17000 39.03700
H  11.11700 53.36500 40.18600
H  7.04900 58.20000 41.38800
H  2.22300 54.25400 42.41300
H  8.84600 48.97400 40.83600
H  10.61200 50.72800 39.67800
H  11.68800 50.80100 41.62000
H  10.28300 49.74500 42.17300
H  10.30600 51.52400 42.52800
H  7.66200 48.61500 38.77100
H  9.36500 48.88000 38.54600
H  8.94600 50.59300 36.95600
H  8.01800 51.44200 38.27600
H  12.05700 55.27300 39.62300
H  12.33300 55.51700 41.36300
H  12.31200 56.90900 40.31200
H  8.48600 59.69900 40.86700
H  9.65300 60.51000 42.02500
H  8.57300 59.30000 42.58400
H  4.39700 58.16100 40.98200
H  2.78500 56.71000 43.05300
H  3.74200 58.65600 43.77800
H  4.62900 59.66300 42.68800
H  5.46400 58.41600 43.68600
H  2.59500 56.04600 40.07500
H  2.13800 57.73200 40.47500
H  0.22400 57.33800 41.22900
H  0.63800 55.93900 42.13100
H  0.32200 55.72200 40.43500
H  1.13200 50.65900 41.50100
H  1.04900 52.25500 42.32800
H  1.26900 50.76300 43.28200
H  6.09000 48.34800 42.15600
H  4.96100 45.70100 39.21300
H  6.71000 45.41300 39.10200
H  6.04500 46.57600 38.03300

