158

Mg 16.88000 -1.76000 27.19800
C  16.26800 0.39500 29.94100
C  18.88500 -3.67000 29.22800
C  17.66400 -3.55200 24.60400
C  15.10000 0.52900 25.14500
N  17.55000 -1.63800 29.29100
C  17.06500 -0.75400 30.21300
C  17.60600 -1.03300 31.63200
C  18.54300 -2.28100 31.33600
C  18.35800 -2.57600 29.87700
C  19.98300 -1.95200 31.75400
C  16.50200 -1.34700 32.71900
C  16.64700 -0.61600 34.00200
H  18.07000 -0.04200 34.47400
N  18.01100 -3.40600 26.94400
C  18.73500 -4.12500 27.93100
C  19.28700 -5.43000 27.34500
C  18.90300 -5.32400 25.96200
C  18.10900 -4.07600 25.77800
C  20.08500 -6.52900 28.03900
C  19.09800 -6.40100 24.87000
O  18.68500 -6.24200 23.73700
C  19.88600 -7.52200 25.05700
N  16.29300 -1.63700 25.17900
C  16.98100 -2.36500 24.31100
C  16.80900 -1.85100 22.86300
C  15.77100 -0.73500 23.04200
C  15.67200 -0.62300 24.49600
C  18.16900 -1.44600 22.10600
C  14.27500 -1.07300 22.49000
C  13.82400 -0.12500 21.41700
N  15.89100 0.10500 27.44300
C  15.16300 0.87800 26.51400
C  14.52400 1.93900 27.19600
C  14.93300 1.82600 28.61400
C  15.79900 0.71000 28.59900
C  13.56200 2.79100 26.54100
C  14.81200 2.38700 29.90600
O  14.13100 3.31100 30.35200
C  15.68200 1.47200 30.81000
C  16.71700 2.33400 31.55800
O  17.84900 2.50900 31.19300
O  16.04700 2.94600 32.60400
C  16.84400 3.99500 33.35300
H  19.37800 -4.43300 29.83300
H  17.98200 -4.09600 23.71200
H  14.74100 1.28600 24.44400
H  18.17500 -0.17400 31.98700
H  18.34500 -3.11900 32.00500
H  20.04900 -1.37400 32.67600
H  20.48500 -1.42600 30.94100
H  20.43500 -2.91900 31.97600
H  16.43700 -2.41200 32.94300
H  15.58600 -1.00500 32.23900
H  16.29800 -1.27600 34.79600
H  15.90600 0.18200 33.95900
H  20.56200 -6.05300 28.89600
H  20.85500 -6.88300 27.35400
H  19.41400 -7.34300 28.31400
H  19.51200 -8.18500 25.83700
H  20.90700 -7.15200 25.15900
H  19.70200 -8.10800 24.15700
H  16.45900 -2.69000 22.26100
H  16.20000 0.18000 22.63200
H  18.16100 -0.43200 21.70600
H  18.41100 -1.95400 21.17300
H  18.97700 -1.59300 22.82300
H  13.54800 -0.98400 23.29700
H  14.31200 -2.05200 22.01100
H  13.25700 0.69000 21.86700
H  13.25200 -0.68200 20.67500
H  14.62800 0.37900 20.88000
H  12.70900 2.20500 26.19900
H  14.07200 3.37600 25.77600
H  13.11900 3.51200 27.22800
H  15.07100 1.10000 31.63300
H  17.61000 4.48900 32.75500
H  17.34400 3.67200 34.26700
H  16.20000 4.81400 33.67000
Mg -5.97600 25.71900 25.57900
C  -4.22700 27.01400 28.44200
C  -6.98300 23.14400 27.67800
C  -7.36400 24.21700 22.97300
C  -4.24700 27.91500 23.61900
N  -5.73600 25.26900 27.84300
C  -5.13700 26.01200 28.83400
C  -5.52000 25.50800 30.23800
C  -6.02800 24.11000 29.93500
C  -6.33200 24.16300 28.37900
C  -5.08300 22.90900 30.50400
C  -6.66400 26.48200 30.76100
C  -6.57900 26.73700 32.29900
H  -6.45700 25.45900 33.21900
N  -7.03000 23.91200 25.33100
C  -7.38300 23.01300 26.30200
C  -8.04000 21.89700 25.70800
C  -8.29700 22.20000 24.30800
C  -7.54400 23.50300 24.16000
C  -8.41600 20.70900 26.57300
C  -9.16600 21.46200 23.28900
O  -9.44900 22.02600 22.19000
C  -9.82600 20.11300 23.57900
N  -5.93000 26.05000 23.63100
C  -6.59200 25.30700 22.66300
C  -6.25700 25.75400 21.25500
C  -5.55900 27.12800 21.58800
C  -5.18500 26.97700 23.07500
C  -5.38600 24.83500 20.38200
C  -6.39900 28.38100 21.47000
C  -6.44600 29.01400 20.13100
N  -4.54900 27.17600 25.95900
C  -3.90900 27.99400 25.02800
C  -2.95400 28.81900 25.64900
C  -3.01700 28.40700 27.02600
C  -4.00500 27.45400 27.12200
C  -1.94900 29.76600 25.05700
C  -2.36400 28.69700 28.33200
O  -1.55800 29.53600 28.66000
C  -3.25300 27.83300 29.26500
C  -2.38400 27.04000 30.24100
O  -1.54800 26.20300 29.97200
O  -2.66500 27.31800 31.57500
C  -1.91400 26.61500 32.66200
H  -7.31600 22.35600 28.35700
H  -7.92800 23.85900 22.10900
H  -3.72400 28.61100 22.95900
H  -4.63000 25.51200 30.86800
H  -7.02700 23.94100 30.33700
H  -4.40600 22.69600 29.67700
H  -5.59300 22.01500 30.86400
H  -4.50700 23.35200 31.31700
H  -7.65700 26.06200 30.59900
H  -6.72600 27.48800 30.34600
H  -7.39000 27.42300 32.54400
H  -5.74800 27.40600 32.52100
H  -9.20100 20.11800 26.10200
H  -8.58300 20.93900 27.62500
H  -7.59200 19.99700 26.62300
H  -9.00200 19.42700 23.77600
H  -10.44500 19.83700 22.72600
H  -10.51800 20.24600 24.41100
H  -7.19800 25.96000 20.74600
H  -4.68000 27.25300 20.95500
H  -4.41800 25.31900 20.24900
H  -5.79700 24.58800 19.40300
H  -5.37700 23.94600 21.01300
H  -6.24400 29.09300 22.28100
H  -7.44400 28.07200 21.47600
H  -7.17200 28.38600 19.61300
H  -5.54500 28.87500 19.53400
H  -6.55100 30.09900 20.14500
H  -1.90500 30.58400 25.77600
H  -2.16800 30.11700 24.04800
H  -1.00000 29.23500 24.97600
H  -3.87400 28.53100 29.82600
H  -2.73100 26.57100 33.38200
H  -1.04700 27.05300 33.15600
H  -1.80100 25.56900 32.37600

