158

Mg 53.96100 24.37100 45.18200
C  51.28400 26.50200 44.30500
C  52.08900 21.77200 44.09700
C  56.67600 22.53100 45.46600
C  55.90400 27.22800 45.79400
N  52.01900 24.25900 44.12700
C  51.02900 25.17600 43.93900
C  49.73500 24.51800 43.54300
C  49.95500 23.01900 43.85400
C  51.43000 22.99700 44.11500
C  49.08300 22.38700 45.05900
C  49.41500 24.79700 42.05100
C  47.93500 24.72300 41.56900
H  47.79800 24.76600 40.05000
N  54.24300 22.41700 44.97700
C  53.39500 21.49800 44.50400
C  53.95100 20.13400 44.54200
C  55.29100 20.26300 45.01500
C  55.47900 21.79000 45.14200
C  53.19200 18.86300 44.24200
C  56.34600 19.16700 45.27100
O  56.11000 17.98800 44.99500
C  57.65200 19.47300 45.79400
N  56.03000 24.85600 45.43800
C  56.94600 23.86500 45.70800
C  58.35700 24.37100 45.80800
C  58.08200 25.91800 45.74300
C  56.53000 26.02200 45.71000
C  59.17300 23.94700 47.08100
C  58.85600 26.66500 44.61200
C  58.22600 26.69800 43.24700
N  53.72500 26.41300 45.08900
C  54.54500 27.45000 45.44300
C  53.79600 28.67100 45.34000
C  52.50200 28.29900 45.00200
C  52.55400 26.95200 44.72500
C  54.35800 30.05100 45.68900
C  51.17400 28.89600 44.78500
O  50.70700 30.06000 44.88500
C  50.37000 27.79000 44.16900
C  49.98200 28.20500 42.85500
O  50.77200 28.39400 41.93000
O  48.62800 28.38700 42.83500
C  48.06200 28.66900 41.55000
H  51.48500 20.92300 43.77000
H  57.58100 21.92300 45.53200
H  56.45900 28.16200 45.90600
H  48.97400 24.92100 44.21100
H  49.81100 22.33500 43.01700
H  49.67600 22.15200 45.94300
H  48.68700 21.41000 44.78300
H  48.24000 23.05000 45.25100
H  50.18600 24.17100 41.60200
H  49.75500 25.81700 41.86700
H  47.41200 25.59500 41.96000
H  47.34300 23.87300 41.90800
H  53.74100 17.92700 44.13800
H  52.58800 19.00200 43.34600
H  52.41000 18.78200 44.99800
H  57.99200 18.53100 46.22300
H  57.34100 20.09600 46.63300
H  58.22300 19.96300 45.00600
H  58.78300 24.02400 44.86700
H  58.45200 26.35800 46.66900
H  58.81800 22.96000 47.37700
H  59.06800 24.63200 47.92200
H  60.21800 23.73200 46.86100
H  59.73500 26.05000 44.41800
H  59.26500 27.61000 44.96800
H  58.82500 26.08100 42.57800
H  58.06200 27.69000 42.82500
H  57.21500 26.29900 43.33700
H  54.95000 30.37700 44.83400
H  54.93600 30.01900 46.61300
H  53.49000 30.70100 45.80100
H  49.52500 27.68400 44.85000
H  48.06800 29.71100 41.22900
H  47.00000 28.42600 41.53700
H  48.54800 28.05100 40.79500
Mg 49.95900 45.29000 42.66100
C  46.79800 45.95200 41.58600
C  49.86000 42.29300 41.03200
C  53.17600 45.08700 43.04700
C  50.29900 48.95200 43.15600
N  48.45600 44.24300 41.48400
C  47.22700 44.69600 41.21900
C  46.37200 43.66700 40.41900
C  47.32100 42.39800 40.53400
C  48.66700 42.95000 41.04700
C  46.85900 41.17900 41.39000
C  46.09200 44.14500 39.00700
C  44.56700 44.04700 38.51100
H  44.25600 43.62800 37.01200
N  51.24100 43.80200 42.31000
C  51.09100 42.63900 41.61500
C  52.27700 41.89700 41.68500
C  53.27700 42.64400 42.38000
C  52.59900 43.91000 42.61000
C  52.38900 40.47800 41.10500
C  54.72500 42.21800 42.66800
O  55.03600 41.01200 42.42700
C  55.79500 43.19100 43.13300
N  51.56400 46.87800 43.02700
C  52.78900 46.38300 43.26900
C  53.75700 47.59500 43.37600
C  52.81200 48.81100 43.73700
C  51.50200 48.21000 43.28300
C  55.05600 47.45500 44.18400
C  53.10400 50.23600 43.08000
C  52.93400 51.43500 43.92600
N  48.72300 47.12700 42.58000
C  49.01900 48.50800 42.72600
C  47.76200 49.22300 42.64800
C  46.80700 48.26400 42.18800
C  47.51200 47.02700 42.17300
C  47.69100 50.63000 43.15300
C  45.43000 48.17200 41.92100
O  44.47700 48.94800 41.92100
C  45.38300 46.61600 41.51000
C  44.35000 45.86600 42.30300
O  44.49800 45.60200 43.46100
O  43.28900 45.50800 41.49800
C  42.21600 44.85200 42.24800
H  49.84600 41.27500 40.63600
H  54.25000 45.03200 43.23600
H  50.32500 49.99100 43.49100
H  45.49400 43.52400 41.04800
H  47.49900 42.06700 39.51100
H  45.77700 41.18200 41.52100
H  47.30900 41.46800 42.34000
H  47.34700 40.22600 41.18200
H  46.63500 43.59700 38.23800
H  46.42900 45.18200 39.00800
H  44.19600 45.07100 38.55300
H  44.05600 43.48900 39.29600
H  53.01800 40.44300 40.21600
H  51.44900 39.98200 40.86100
H  52.82400 39.88800 41.91200
H  55.68300 44.05700 42.48200
H  56.68200 42.56900 43.01000
H  55.81600 43.48100 44.18300
H  54.11900 47.58400 42.34800
H  52.85300 48.86200 44.82500
H  55.84300 47.16100 43.49000
H  54.81400 46.81200 45.03000
H  55.32700 48.44100 44.56200
H  52.39900 50.32900 42.25300
H  54.11400 50.26700 42.67100
H  52.44100 52.24200 43.38300
H  53.93300 51.77400 44.19900
H  52.30800 51.19400 44.78500
H  48.08700 50.60700 44.16800
H  46.64200 50.90900 43.24300
H  48.30600 51.35300 42.61700
H  44.97600 46.76800 40.51000
H  41.25400 44.83900 41.73600
H  42.06700 45.34200 43.20900
H  42.58400 43.82600 42.27400

