158

Mg -2.08500 16.62400 25.63100
C  -2.48700 14.41100 28.51000
C  -2.86800 19.24500 27.73300
C  -1.83100 18.53200 23.00200
C  -1.58500 13.71900 23.76800
N  -2.60100 16.74000 27.86600
C  -2.58100 15.78000 28.83600
C  -2.86200 16.34000 30.25400
C  -3.04800 17.87000 29.93700
C  -2.93000 18.00200 28.42600
C  -4.33900 18.52900 30.58100
C  -1.70400 16.06100 31.30600
C  -1.77600 16.98500 32.58800
H  -1.73700 16.22700 33.91300
N  -2.17500 18.57600 25.42600
C  -2.52400 19.49500 26.37800
C  -2.52400 20.84600 25.71700
C  -2.18800 20.62300 24.39000
C  -2.07900 19.17900 24.20200
C  -2.73000 22.19500 26.54100
C  -2.03600 21.73500 23.29400
O  -1.90600 21.42500 22.12700
C  -2.10500 23.11300 23.60500
N  -2.09900 16.15900 23.61500
C  -1.87800 17.16200 22.71800
C  -1.75500 16.63000 21.26000
C  -1.39000 15.08100 21.57400
C  -1.69100 14.94700 23.08800
C  -2.93800 16.83700 20.33300
C  0.10500 14.67600 21.28900
C  0.66100 14.72200 19.76500
N  -2.14300 14.51700 26.02200
C  -1.85100 13.50900 25.11400
C  -2.02100 12.19700 25.77700
C  -2.26700 12.57600 27.09700
C  -2.29200 14.00200 27.17100
C  -2.15400 10.77200 25.13500
C  -2.27900 12.00900 28.43800
O  -2.00800 10.85700 28.78800
C  -2.46200 13.19600 29.46600
C  -1.24500 13.16200 30.34500
O  -0.08100 13.52900 30.05800
O  -1.58100 12.53800 31.58100
C  -0.47300 12.48900 32.55300
H  -2.90900 20.08300 28.43200
H  -1.90100 19.12000 22.08500
H  -1.18200 12.85000 23.24500
H  -3.75500 15.90000 30.69900
H  -2.20000 18.36400 30.41200
H  -4.86000 17.79600 31.19700
H  -4.94000 18.79200 29.71100
H  -4.07300 19.42500 31.14300
H  -0.71100 16.15600 30.86600
H  -1.96800 15.07000 31.67400
H  -2.64400 17.62900 32.73200
H  -0.91800 17.65400 32.52500
H  -1.82600 22.79600 26.64000
H  -2.90700 21.98000 27.59500
H  -3.50900 22.83700 26.13100
H  -1.25800 23.47900 24.18500
H  -3.02400 23.32600 24.15000
H  -2.32400 23.64000 22.67600
H  -0.85100 17.14100 20.92800
H  -2.06700 14.35800 21.11900
H  -3.66100 17.48000 20.83600
H  -3.38800 15.90100 20.00400
H  -2.50600 17.37700 19.49000
H  0.27100 13.66600 21.66400
H  0.81900 15.32100 21.80100
H  0.19200 15.53500 19.21100
H  0.39800 13.83400 19.19000
H  1.73600 14.90000 19.76000
H  -2.25300 10.95300 24.06400
H  -3.05000 10.29100 25.52600
H  -1.25200 10.24000 25.43600
H  -3.26900 13.15300 30.19800
H  0.03800 13.45200 32.56500
H  0.20500 11.64200 32.44700
H  -0.94700 12.32500 33.52100
Mg 35.65800 1.20800 30.25700
C  33.44900 2.42700 32.71100
C  38.07200 1.31300 32.72800
C  37.78700 0.12200 27.98300
C  33.15600 1.59000 27.79000
N  35.68500 1.77500 32.43500
C  34.71200 2.20800 33.21500
C  35.11000 2.28000 34.68500
C  36.63300 1.98400 34.63200
C  36.84000 1.70900 33.15100
C  37.55700 3.16600 35.21300
C  34.39500 1.18000 35.51100
C  34.02700 1.48600 36.96900
H  34.80600 2.60300 37.62900
N  37.55200 0.68500 30.37400
C  38.39300 0.79000 31.47400
C  39.73200 0.41300 31.11900
C  39.68200 0.10000 29.68500
C  38.28200 0.24800 29.26400
C  40.89600 0.35200 32.09200
C  40.89500 -0.22000 28.76100
O  40.80800 -0.56500 27.60700
C  42.34600 -0.07700 29.27500
N  35.58100 1.05500 28.09100
C  36.55000 0.47700 27.42000
C  36.17900 0.34400 25.88900
C  34.71000 0.83400 25.86800
C  34.40100 1.24100 27.26700
C  37.09700 1.18000 24.96700
C  33.64200 -0.21500 25.23600
C  33.10800 0.24700 23.86800
N  33.69900 1.92800 30.13100
C  32.77600 1.98600 29.10600
C  31.46300 2.48500 29.61500
C  31.79100 2.71300 31.01100
C  33.09000 2.31500 31.29600
C  30.23000 2.71700 28.92600
C  31.18100 3.20300 32.21300
O  30.12300 3.74100 32.38300
C  32.14100 2.94700 33.39000
C  32.22900 4.24400 34.10500
O  32.52600 5.32000 33.66400
O  31.66800 4.01600 35.35300
C  31.26000 5.19000 36.11200
H  38.75000 1.24500 33.58100
H  38.51400 -0.08900 27.19500
H  32.30100 1.48900 27.11800
H  35.02700 3.24900 35.17600
H  36.89800 1.04000 35.10800
H  36.99500 3.79700 35.90300
H  37.87200 3.94000 34.51300
H  38.51700 2.88500 35.64500
H  34.92000 0.22600 35.47700
H  33.41700 0.96300 35.08200
H  34.26700 0.65200 37.62900
H  32.94800 1.62200 37.03500
H  41.37200 1.32300 31.95100
H  41.57500 -0.45400 31.81400
H  40.60700 0.26300 33.13900
H  43.04200 -0.01500 28.43800
H  42.60300 -0.89800 29.94500
H  42.45100 0.79400 29.92200
H  36.24800 -0.71900 25.65600
H  34.72600 1.74100 25.26400
H  37.77500 0.58100 24.36000
H  37.63100 1.89100 25.59900
H  36.60200 1.68100 24.13500
H  32.74100 -0.29700 25.84500
H  34.09400 -1.20600 25.18800
H  33.65600 1.09700 23.46100
H  32.06200 0.53900 23.96900
H  33.04800 -0.51900 23.09500
H  30.39000 3.13300 27.93100
H  29.65600 3.48200 29.44800
H  29.69800 1.79300 28.69800
H  31.70400 2.19500 34.04700
H  32.08100 5.48800 36.76400
H  30.44500 4.74800 36.68400
H  30.95300 6.05500 35.52400

