158

Mg 54.65100 24.22800 44.89900
C  52.00800 26.46500 43.87000
C  52.50200 21.58500 44.16600
C  57.37000 22.24500 44.61700
C  56.76400 27.03100 45.30700
N  52.51500 24.10100 43.98500
C  51.65300 25.13600 43.63200
C  50.31800 24.49000 43.07000
C  50.34600 23.03200 43.71500
C  51.84500 22.87500 44.02000
C  49.46900 22.86700 45.00000
C  50.19800 24.63100 41.57400
C  48.76900 24.59100 41.02400
H  48.64000 23.87400 39.63200
N  54.91700 22.21500 44.50600
C  53.92700 21.25500 44.35600
C  54.48600 19.95900 44.31700
C  55.86300 20.14200 44.29700
C  56.09800 21.55800 44.43400
C  53.75100 18.72500 43.90700
C  56.92500 19.04300 44.02800
O  56.58100 17.86300 44.02800
C  58.37900 19.30300 43.61700
N  56.78100 24.63000 44.77200
C  57.60700 23.61000 44.79400
C  59.07100 24.01700 45.18500
C  58.84400 25.56800 45.37600
C  57.39000 25.79400 45.13000
C  59.67800 23.28000 46.38800
C  59.72200 26.47100 44.30100
C  60.59200 27.63800 44.87400
N  54.42700 26.31300 44.84400
C  55.39900 27.30400 45.07100
C  54.72400 28.52500 45.04800
C  53.41400 28.28500 44.57700
C  53.27800 26.90800 44.46200
C  55.30000 29.82000 45.41400
C  52.14600 28.86800 44.18400
O  51.83900 30.03500 44.10300
C  51.19900 27.74400 43.58000
C  51.02700 28.04600 42.17300
O  51.91800 28.01700 41.33200
O  49.68200 28.25200 41.92500
C  49.37500 28.49000 40.50600
H  51.81800 20.77900 43.89400
H  58.35400 21.77500 44.67800
H  57.45400 27.83500 45.57000
H  49.53800 25.09100 43.53700
H  50.07400 22.33900 42.92000
H  50.01800 22.54500 45.88500
H  48.72700 22.10800 44.75200
H  48.90000 23.77700 45.18900
H  50.79800 23.81400 41.17500
H  50.59400 25.59800 41.26300
H  48.50300 25.64600 40.96200
H  48.15300 24.09700 41.77600
H  53.88800 18.68800 42.82700
H  52.66900 18.78000 44.01900
H  54.19000 17.85700 44.39900
H  58.59600 18.57100 42.84000
H  58.97800 19.35900 44.52600
H  58.36600 20.20300 43.00200
H  59.64600 23.79300 44.28700
H  58.98800 25.86600 46.41500
H  59.01200 22.57700 46.88800
H  60.11600 23.96300 47.11600
H  60.55700 22.74200 46.03400
H  59.03100 26.89000 43.56900
H  60.37800 25.79400 43.75400
H  60.12200 28.61900 44.80200
H  61.55900 27.72600 44.37900
H  60.86200 27.59300 45.92900
H  55.68600 29.81600 46.43300
H  54.46000 30.51300 45.44600
H  56.07800 30.15400 44.72800
H  50.33400 27.77300 44.24200
H  49.14700 29.52200 40.23900
H  48.37900 28.07100 40.36600
H  50.12700 28.19300 39.77500
Mg 27.37800 49.89900 26.33800
C  25.56700 51.23700 29.04000
C  29.50600 48.53200 28.62100
C  29.37300 49.25700 23.71000
C  25.18200 51.55300 24.16000
N  27.52400 49.94800 28.62200
C  26.66500 50.58500 29.49300
C  26.98600 50.25800 31.03600
C  28.42500 49.65500 30.81300
C  28.50900 49.27000 29.22900
C  29.66500 50.62700 31.26400
C  25.96300 49.24700 31.69000
C  25.23600 49.72700 32.94600
H  26.09000 50.25300 34.12200
N  29.15600 48.91400 26.17200
C  29.92600 48.39000 27.25300
C  31.02400 47.65400 26.71700
C  31.00100 47.82900 25.32600
C  29.84800 48.72400 25.00100
C  31.85300 46.72700 27.58600
C  31.90300 47.30200 24.17800
O  31.75300 47.62200 23.01600
C  32.96300 46.33400 24.59300
N  27.31600 50.33800 24.23000
C  28.26900 50.02900 23.34500
C  27.87600 50.39600 21.86900
C  26.44500 51.01100 22.08100
C  26.31300 50.99600 23.61400
C  28.86500 51.30100 21.02700
C  25.24100 50.28200 21.44300
C  24.24300 51.24700 20.81100
N  25.78400 51.11400 26.53700
C  24.91800 51.68300 25.53500
C  23.81000 52.42800 26.19700
C  24.10800 52.17900 27.51400
C  25.21900 51.37500 27.69800
C  22.76600 53.01700 25.51800
C  23.55900 52.49900 28.81900
O  22.59900 53.14600 29.05800
C  24.52100 51.85100 29.90300
C  25.01200 52.94300 30.80500
O  25.78800 53.80900 30.48100
O  24.34900 53.03000 32.01500
C  24.78200 54.12700 32.86600
H  30.30900 48.18700 29.27600
H  30.01100 49.12000 22.83400
H  24.39700 51.95200 23.51500
H  26.97700 51.19900 31.58600
H  28.46800 48.66000 31.25800
H  30.31500 50.72900 30.39500
H  30.11300 50.21200 32.16700
H  29.35300 51.60500 31.63200
H  26.45600 48.31400 31.96300
H  25.16000 49.13400 30.96200
H  24.61200 48.92400 33.33900
H  24.57000 50.50600 32.57600
H  31.65500 46.79200 28.65600
H  32.91400 46.92700 27.43300
H  31.52100 45.73100 27.29500
H  33.80200 46.80900 25.10100
H  33.38300 45.85500 23.70800
H  32.57300 45.42200 25.04500
H  27.84400 49.50600 21.24200
H  26.52800 52.05800 21.78800
H  29.80000 51.45100 21.56700
H  28.54000 52.26200 20.62700
H  28.98000 50.75800 20.08900
H  24.81100 49.56800 22.14500
H  25.71600 49.61800 20.72000
H  23.53500 51.58600 21.56700
H  23.74800 50.74500 19.98000
H  24.64600 52.17100 20.39700
H  22.34500 52.38000 24.74000
H  23.12900 53.92300 25.03200
H  21.92300 53.40400 26.09000
H  23.91600 51.12000 30.43900
H  24.74400 55.05200 32.29000
H  25.73800 53.90300 33.33900
H  24.03000 54.19900 33.65200

