158

Mg 44.05700 5.32400 47.06500
C  42.23800 8.34400 46.80000
C  41.14500 3.66900 46.28000
C  45.96100 2.61200 46.67200
C  46.99600 7.35500 46.87700
N  41.98800 5.99500 46.43200
C  41.51000 7.24000 46.57700
C  39.93000 7.21100 46.50100
C  39.52900 5.70600 46.54400
C  41.01300 5.09100 46.43400
C  38.89700 5.28100 47.89700
C  39.37100 7.99500 45.29100
C  40.08700 8.00200 43.91000
H  39.25700 7.38300 42.75400
N  43.58400 3.43100 46.62800
C  42.35300 2.93800 46.35000
C  42.46400 1.56600 46.03000
C  43.79000 1.19500 46.23800
C  44.50600 2.44000 46.61200
C  41.28400 0.75900 45.39200
C  44.32000 -0.20600 45.90000
O  43.63000 -1.05600 45.35700
C  45.67000 -0.55800 46.16200
N  46.21300 4.98000 46.77100
C  46.69000 3.78100 46.81600
C  48.21200 3.77500 46.90800
C  48.50900 5.33300 47.09800
C  47.17600 5.92200 46.85900
C  48.82100 2.86200 48.10200
C  49.70300 6.00200 46.19600
C  50.97100 5.32200 46.23600
N  44.61200 7.36500 46.84900
C  45.78800 8.03200 46.93400
C  45.55000 9.44900 47.02900
C  44.23800 9.61400 47.00000
C  43.65100 8.36500 46.88500
C  46.62300 10.47300 47.09600
C  43.20100 10.55500 47.01900
O  43.27800 11.76900 46.98700
C  41.81700 9.82700 46.88500
C  40.96000 9.99800 47.99300
O  40.95400 9.33500 49.02300
O  40.10000 10.99700 47.65300
C  38.96200 11.11500 48.63900
H  40.13200 3.28000 46.15600
H  46.49600 1.69800 46.40700
H  47.95500 7.87500 46.82300
H  39.51700 7.71600 47.37500
H  39.05300 5.45500 45.59600
H  38.83200 5.99200 48.72100
H  39.34200 4.36700 48.29000
H  37.85300 5.13200 47.62200
H  39.13500 9.03900 45.49300
H  38.40300 7.52300 45.12000
H  40.87800 7.25400 43.96100
H  40.46400 8.96500 43.56400
H  41.33100 0.44200 44.35100
H  40.33500 1.22000 45.66800
H  41.36500 -0.18100 45.93700
H  45.69600 -1.63700 46.00800
H  45.89000 -0.38000 47.21500
H  46.22000 0.00200 45.40500
H  48.61400 3.46100 45.94500
H  48.70300 5.56700 48.14400
H  48.07800 2.29600 48.66500
H  49.49700 3.44500 48.72800
H  49.39700 2.10000 47.57600
H  49.93300 7.04600 46.40500
H  49.41600 5.86600 45.15300
H  51.84800 5.77300 46.70100
H  51.24800 5.08000 45.21000
H  50.85800 4.30200 46.60400
H  47.30100 10.18700 47.90000
H  46.24200 11.44900 47.39400
H  47.21100 10.50900 46.17900
H  41.28100 10.28700 46.05500
H  38.43400 12.05000 48.44500
H  39.38400 11.17300 49.64300
H  38.34200 10.22700 48.52100
Mg -5.84800 24.63300 25.67300
C  -4.55800 25.78600 28.81300
C  -8.08200 22.70500 27.23700
C  -6.62300 23.26000 22.67900
C  -3.27800 26.60200 24.14600
N  -6.09600 24.21400 27.82000
C  -5.55400 24.81600 28.93400
C  -6.14400 24.18300 30.18900
C  -7.31300 23.31300 29.69100
C  -7.17400 23.38900 28.14000
C  -7.24300 21.86000 30.33200
C  -6.61100 25.26000 31.15500
C  -6.24700 25.23100 32.66000
H  -5.51600 24.01800 33.20700
N  -7.28800 23.24200 25.04400
C  -8.15400 22.62800 25.85800
C  -9.06900 21.81300 25.07100
C  -8.57100 21.86900 23.69200
C  -7.44800 22.79300 23.76700
C  -10.09600 20.92900 25.75200
C  -8.96100 21.14000 22.42300
O  -8.35300 21.16800 21.35000
C  -10.07900 20.18300 22.41600
N  -5.05900 24.84800 23.69700
C  -5.57600 24.19000 22.63300
C  -4.80200 24.55600 21.30400
C  -3.69700 25.51900 21.85900
C  -4.01000 25.66700 23.34200
C  -4.38600 23.25800 20.66600
C  -3.61800 26.88700 21.06500
C  -2.24800 27.11900 20.30100
N  -4.23700 25.96000 26.26000
C  -3.39000 26.75200 25.52000
C  -2.65700 27.56200 26.39400
C  -3.14400 27.26100 27.67700
C  -4.06200 26.24500 27.56400
C  -1.55000 28.44800 25.97900
C  -3.02700 27.66300 29.06200
O  -2.36200 28.55500 29.58800
C  -3.86400 26.67600 29.87000
C  -2.88000 25.90800 30.68400
O  -2.27200 24.90500 30.25500
O  -2.74300 26.33400 31.96400
C  -1.65900 25.83400 32.76100
H  -8.87400 22.13000 27.72200
H  -7.02600 22.92000 21.72200
H  -2.49600 27.22700 23.71000
H  -5.43100 23.57300 30.74300
H  -8.30800 23.72300 29.86200
H  -8.23400 21.53100 30.64400
H  -6.49000 21.79500 31.11700
H  -6.87100 21.19000 29.55700
H  -7.69800 25.28000 31.07000
H  -6.31900 26.20200 30.69100
H  -7.19800 25.42200 33.15600
H  -5.68000 26.12700 32.91500
H  -10.82500 20.62100 25.00200
H  -10.71200 21.34800 26.54800
H  -9.56800 20.06800 26.16000
H  -9.85800 19.44500 23.18700
H  -10.01800 19.63500 21.47500
H  -11.07000 20.62600 22.51600
H  -5.48200 25.15400 20.69600
H  -2.73200 25.01200 21.86600
H  -4.83600 22.32000 20.99100
H  -3.30400 23.22300 20.79300
H  -4.57400 23.33000 19.59500
H  -3.76900 27.73300 21.73400
H  -4.46200 26.90600 20.37500
H  -1.69600 26.19900 20.49200
H  -1.72000 28.02500 20.59900
H  -2.41300 27.19800 19.22600
H  -0.75100 27.85000 25.54200
H  -1.06500 28.86500 26.86200
H  -1.95700 29.20900 25.31400
H  -4.58100 27.31500 30.38400
H  -1.81700 24.81000 33.10100
H  -1.63700 26.52100 33.60700
H  -0.73600 25.77900 32.18500

