158

Mg -1.67000 34.45700 26.88600
C  -3.18100 32.72300 29.53000
C  -0.18200 36.48500 28.85500
C  -1.29600 36.60700 24.22100
C  -4.03200 32.60200 24.62000
N  -1.97800 34.77900 28.91900
C  -2.34700 33.83200 29.87700
C  -1.84800 34.13600 31.25300
C  -0.96200 35.37000 30.96100
C  -1.05200 35.60100 29.45800
C  -1.19800 36.59300 31.87000
C  -1.20400 32.94200 32.07600
C  -1.51400 32.99100 33.62700
H  -0.43300 32.69800 34.65500
N  -0.65300 36.20700 26.49800
C  0.00700 36.84800 27.50200
C  0.68900 37.95300 26.95100
C  0.37600 37.97200 25.53500
C  -0.54100 36.92300 25.35300
C  1.43800 39.04200 27.73100
C  0.90200 38.89600 24.46800
O  0.44600 38.90100 23.36100
C  1.87800 39.89000 24.76600
N  -2.58300 34.58600 24.75800
C  -2.31900 35.61700 23.97200
C  -3.02000 35.59800 22.52400
C  -3.81100 34.23500 22.61200
C  -3.43200 33.75600 24.05800
C  -4.01600 36.79200 22.41000
C  -3.27900 33.21200 21.49000
C  -1.68900 32.97300 21.42900
N  -3.13800 32.94100 26.97500
C  -3.93800 32.28200 26.03300
C  -4.72300 31.25000 26.66100
C  -4.39300 31.35100 28.05500
C  -3.54000 32.44600 28.16700
C  -5.64900 30.27300 25.99900
C  -4.73000 30.80800 29.38900
O  -5.48200 29.92400 29.74100
C  -3.86500 31.64700 30.42100
C  -4.73100 32.28300 31.37400
O  -5.60700 33.06900 31.06300
O  -4.55600 31.82300 32.63800
C  -5.45700 32.42600 33.62500
H  0.38500 37.05800 29.59100
H  -1.17900 37.21200 23.31900
H  -4.66300 32.03000 23.93700
H  -2.71400 34.49800 31.80700
H  0.01500 34.92400 31.15100
H  -1.99100 36.37500 32.58500
H  -1.48200 37.42500 31.22500
H  -0.28500 36.76800 32.43800
H  -0.11500 32.96400 32.11500
H  -1.47900 31.95300 31.70700
H  -2.25000 32.20400 33.78900
H  -1.83700 34.01000 33.83700
H  1.68100 38.73900 28.75000
H  0.93700 40.00600 27.64100
H  2.42600 39.12000 27.27800
H  2.37500 40.16700 23.83600
H  2.69800 39.42700 25.31400
H  1.47500 40.75900 25.28600
H  -2.31000 35.66300 21.70000
H  -4.89600 34.31700 22.67900
H  -5.04500 36.51900 22.17800
H  -3.60100 37.34800 21.56900
H  -3.98300 37.44700 23.28100
H  -3.75100 33.42400 20.53000
H  -3.59800 32.18600 21.67600
H  -1.46500 33.16900 20.38100
H  -1.22400 32.02700 21.70400
H  -1.18200 33.75300 21.99800
H  -5.46600 29.27700 26.40200
H  -5.61500 30.24200 24.91000
H  -6.64000 30.58100 26.33300
H  -3.29700 30.89900 30.97400
H  -5.96200 33.34400 33.32800
H  -4.75100 32.71600 34.40400
H  -6.15400 31.78600 34.16700
Mg -5.45300 25.17900 27.23600
C  -3.39300 27.12800 29.50700
C  -6.08400 23.04500 29.87700
C  -6.80100 23.07800 25.03600
C  -4.10600 27.16500 24.75000
N  -4.84800 25.19300 29.42100
C  -4.07500 26.08100 30.11500
C  -4.14000 25.72300 31.63800
C  -4.77700 24.29500 31.69700
C  -5.24700 24.15600 30.20200
C  -3.74500 23.19900 32.18500
C  -4.98100 26.83600 32.32500
C  -6.00800 26.53600 33.43500
H  -5.61600 25.91300 34.77200
N  -6.43500 23.36600 27.43900
C  -6.52000 22.60800 28.58200
C  -7.31400 21.39500 28.35700
C  -7.60100 21.45300 26.96300
C  -6.95800 22.69500 26.39700
C  -7.45100 20.30600 29.42700
C  -8.14400 20.39300 26.09000
O  -8.30600 20.50700 24.90400
C  -8.80400 19.12000 26.66100
N  -5.43100 25.12800 25.13000
C  -6.19100 24.22000 24.43600
C  -6.27100 24.56500 22.97400
C  -5.33300 25.80600 22.82400
C  -4.88200 26.04500 24.33500
C  -5.73300 23.36700 22.07100
C  -5.92700 27.05000 22.09000
C  -5.26800 27.63200 20.84900
N  -3.92800 26.76100 27.03200
C  -3.60900 27.55000 25.99600
C  -2.67400 28.52400 26.41800
C  -2.59200 28.46100 27.79400
C  -3.39700 27.34200 28.11600
C  -1.76000 29.42700 25.59300
C  -1.92100 28.93400 28.93900
O  -1.08900 29.82400 29.06300
C  -2.49100 28.11600 30.17100
C  -1.42600 27.54700 31.02700
O  -0.58300 26.78100 30.63800
O  -1.49700 28.03300 32.27400
C  -0.80500 27.31700 33.38200
H  -6.34600 22.42700 30.73900
H  -7.37100 22.45600 24.34200
H  -3.73400 27.85300 23.98800
H  -3.13100 25.75200 32.05100
H  -5.63900 24.30800 32.36400
H  -3.59700 22.47700 31.38200
H  -4.14400 22.78000 33.10900
H  -2.73300 23.55800 32.37500
H  -5.52400 27.37200 31.54700
H  -4.22000 27.48600 32.75600
H  -6.82700 25.99000 32.96700
H  -6.32800 27.52700 33.75500
H  -8.28300 19.62900 29.23000
H  -7.71900 20.69000 30.41200
H  -6.50700 19.78000 29.57200
H  -8.14900 18.41900 27.17900
H  -9.14000 18.53300 25.80600
H  -9.52900 19.38200 27.43100
H  -7.33400 24.74300 22.80900
H  -4.41400 25.50800 22.31700
H  -5.17900 23.67800 21.18500
H  -6.58200 22.86100 21.61100
H  -5.12500 22.66300 22.64000
H  -6.04300 27.97600 22.65400
H  -6.94600 26.78700 21.80600
H  -6.06000 27.60300 20.10000
H  -4.44000 27.01800 20.49500
H  -4.94100 28.66700 20.95500
H  -2.32200 29.77400 24.72600
H  -0.91000 28.82800 25.26500
H  -1.42000 30.30700 26.13800
H  -3.19200 28.66900 30.79800
H  0.26100 27.53700 33.32300
H  -0.88600 26.23300 33.30600
H  -1.16900 27.57900 34.37600

