158

Mg 0.21500 43.63100 26.08700
C  2.45500 43.42900 28.87200
C  -2.33300 43.21900 28.24200
C  -1.79800 43.06400 23.48900
C  3.04300 43.61900 24.03900
N  0.08900 43.33200 28.30900
C  1.07200 43.45100 29.23200
C  0.50800 43.52900 30.64600
C  -1.01200 43.31200 30.43100
C  -1.14200 43.40800 28.87500
C  -1.65700 41.84100 30.81700
C  0.86100 44.88100 31.24800
C  0.89200 44.84700 32.80200
H  0.49500 43.63100 33.55000
N  -1.85800 43.35300 25.88800
C  -2.72800 43.13900 26.92200
C  -3.99000 43.02200 26.41800
C  -3.92200 42.92300 24.97500
C  -2.50700 43.13600 24.68000
C  -5.29600 43.23400 27.38000
C  -4.90600 42.67100 23.99600
O  -4.76000 42.80700 22.80800
C  -6.27900 42.23200 24.44600
N  0.63000 43.47500 24.09400
C  -0.43000 43.26400 23.21000
C  0.15100 43.22600 21.77200
C  1.69600 43.53900 21.91000
C  1.80800 43.58200 23.44000
C  -0.23500 41.95300 20.99400
C  2.07500 44.84500 21.18100
C  1.41500 46.17800 21.67200
N  2.40200 43.49800 26.31300
C  3.39800 43.62900 25.40300
C  4.69600 43.56700 26.05100
C  4.40000 43.42800 27.44000
C  2.98200 43.53200 27.52500
C  6.01100 43.58800 25.31100
C  4.91000 43.34400 28.78200
O  6.08300 43.35000 29.11700
C  3.67800 43.40900 29.78600
C  3.71500 42.31600 30.75700
O  3.63400 41.10000 30.51100
O  3.93500 42.92800 31.95300
C  4.15800 42.01600 33.10100
H  -3.09200 42.93500 28.97400
H  -2.43800 42.88000 22.62300
H  3.86600 43.61000 23.32200
H  0.84700 42.70600 31.27600
H  -1.61300 44.12400 30.84000
H  -2.27300 41.34900 30.06500
H  -2.39000 41.95000 31.61700
H  -0.82600 41.17600 31.05100
H  0.09800 45.61100 30.97600
H  1.81500 45.14300 30.79100
H  0.21400 45.66400 33.04800
H  1.94500 45.09100 32.94600
H  -6.15800 42.61800 27.12100
H  -5.62000 44.27400 27.35700
H  -5.13900 42.94000 28.41800
H  -6.18500 41.54700 25.28800
H  -6.91000 41.86200 23.63800
H  -6.65600 43.12900 24.93500
H  -0.39900 44.01100 21.25100
H  2.28400 42.68200 21.58400
H  -0.63800 41.19100 21.66000
H  0.66100 41.42700 20.66300
H  -0.96900 42.16700 20.21700
H  1.76900 44.66000 20.15200
H  3.16300 44.84100 21.25300
H  0.54000 46.20600 22.32100
H  1.07700 46.75300 20.81000
H  2.10900 46.84400 22.18400
H  6.39500 44.60600 25.24600
H  5.88400 43.27500 24.27400
H  6.73800 42.91400 25.76400
H  3.77100 44.38800 30.25700
H  3.80600 42.59500 33.95500
H  5.23000 41.85200 33.21200
H  3.66400 41.05700 33.26100
Mg -11.93900 16.48200 41.91900
C  -8.88900 14.89400 41.16700
C  -10.89400 19.39500 40.32000
C  -15.06200 17.54900 41.94200
C  -13.08700 13.14400 42.93100
N  -10.19400 17.03300 40.84900
C  -9.07800 16.25200 40.65000
C  -7.95700 17.13300 39.98100
C  -8.55500 18.54800 39.96100
C  -10.00300 18.31200 40.39500
C  -7.83300 19.57000 40.88700
C  -7.43100 16.52100 38.66000
C  -5.92600 16.71000 38.36400
H  -5.53800 17.10000 36.89300
N  -12.83200 18.23200 41.28000
C  -12.22600 19.34500 40.71200
C  -13.20200 20.43200 40.63600
C  -14.43400 19.93000 41.20800
C  -14.14900 18.49900 41.46200
C  -12.92900 21.80800 40.21000
C  -15.76000 20.68300 41.25300
O  -15.92400 21.81500 40.82500
C  -16.99800 20.07500 41.99500
N  -13.80500 15.40000 42.13700
C  -14.94900 16.16300 42.23000
C  -16.16700 15.35200 42.92600
C  -15.44800 13.96300 43.25900
C  -14.03800 14.12200 42.72700
C  -16.78100 16.06500 44.27700
C  -16.17500 12.84800 42.40300
C  -15.79500 11.40800 42.61000
N  -11.14400 14.45700 42.20000
C  -11.74600 13.27000 42.73600
C  -10.71500 12.28000 42.77400
C  -9.55700 12.86800 42.18300
C  -9.89400 14.16600 41.83900
C  -10.91200 10.88200 43.21500
C  -8.10400 12.74100 41.81100
O  -7.26700 11.81400 41.93200
C  -7.65400 14.02700 41.19800
C  -6.56400 14.67400 41.96000
O  -6.74400 15.18100 43.07300
O  -5.37100 14.60200 41.31200
C  -4.15000 14.94400 42.10100
H  -10.50000 20.33800 39.93700
H  -16.05900 17.86700 42.25400
H  -13.42300 12.25600 43.47000
H  -7.12300 17.08700 40.68300
H  -8.61700 18.92600 38.94000
H  -7.44200 20.39100 40.28600
H  -7.02000 19.14200 41.47400
H  -8.62500 19.94500 41.53500
H  -8.02200 16.97700 37.86600
H  -7.60800 15.44600 38.62100
H  -5.35600 15.80200 38.56200
H  -5.68500 17.52400 39.04700
H  -13.08100 22.39000 41.11900
H  -13.66400 22.05700 39.44500
H  -11.91200 21.86600 39.82200
H  -17.69900 20.88200 42.20600
H  -16.70300 19.68400 42.96800
H  -17.40600 19.24300 41.42100
H  -16.95400 15.24800 42.17900
H  -15.60000 13.69400 44.30500
H  -16.57700 17.12600 44.42200
H  -16.36600 15.59300 45.16700
H  -17.86700 16.05600 44.17700
H  -16.01600 13.03100 41.34000
H  -17.25000 13.02200 42.45000
H  -16.68100 10.81200 42.83100
H  -15.26400 11.39400 43.56200
H  -15.17500 10.98600 41.81800
H  -10.14000 10.24900 42.77700
H  -11.83900 10.55200 42.74600
H  -10.91600 10.75000 44.29700
H  -7.22600 13.85200 40.21100
H  -4.24000 15.97400 42.44400
H  -3.22700 14.67600 41.58500
H  -4.04700 14.42200 43.05300

