158

Mg 43.52900 4.42200 46.54100
C  41.42200 7.19500 46.32300
C  40.84100 2.39300 46.04200
C  45.50500 1.82600 45.65600
C  46.27300 6.58700 46.49200
N  41.38200 4.88100 46.14600
C  40.71600 6.00000 46.23100
C  39.22900 5.82600 46.47900
C  39.10600 4.22500 46.59200
C  40.57500 3.77900 46.28100
C  38.54500 3.70100 47.97100
C  38.28300 6.60400 45.43900
C  38.24800 6.23500 43.91900
H  38.99000 7.06100 42.98600
N  43.21700 2.29700 45.89100
C  41.97700 1.70600 45.82900
C  42.10900 0.34800 45.47600
C  43.50400 0.18500 45.16400
C  44.19900 1.46700 45.52900
C  41.02600 -0.59200 45.29900
C  44.11400 -1.10000 44.74200
O  43.44700 -2.10000 44.61600
C  45.58700 -1.20400 44.47900
N  45.59800 4.20800 46.01200
C  46.22100 3.05300 45.93000
C  47.79100 3.17400 45.98000
C  47.91200 4.59400 46.59300
C  46.52200 5.19500 46.31600
C  48.44400 2.03000 46.94100
C  49.14200 5.37200 46.07600
C  50.56100 4.98800 46.58200
N  43.85100 6.47900 46.47700
C  45.03900 7.19400 46.56900
C  44.68800 8.61300 46.58000
C  43.27300 8.63900 46.52100
C  42.85800 7.28500 46.49900
C  45.62800 9.79500 46.45100
C  42.13100 9.50900 46.62700
O  42.16000 10.72500 46.71500
C  40.94400 8.64300 46.61200
C  40.17100 8.82700 47.87700
O  40.45800 8.30500 48.94000
O  39.09800 9.64500 47.71300
C  38.24500 10.13400 48.82000
H  39.94400 1.77100 46.03200
H  46.29200 1.10500 45.42600
H  47.10500 7.26900 46.67900
H  38.88800 6.29100 47.40400
H  38.60200 3.82100 45.71400
H  39.27800 2.99300 48.35900
H  37.59100 3.21800 47.75600
H  38.45700 4.59600 48.58700
H  38.57700 7.64900 45.33800
H  37.25600 6.55400 45.80100
H  37.18700 6.10200 43.71100
H  38.74400 5.26500 43.95100
H  41.20000 -1.38500 44.57200
H  40.08000 -0.12400 45.02600
H  40.75800 -1.04700 46.25300
H  46.09600 -1.04500 45.43000
H  45.87500 -0.43400 43.76400
H  45.67600 -2.22700 44.11200
H  48.28000 3.01100 45.01900
H  48.04000 4.55100 47.67500
H  47.75600 1.20800 47.13700
H  48.75900 2.52400 47.86000
H  49.37300 1.59500 46.57200
H  48.99700 6.38600 46.45100
H  49.11000 5.32800 44.98700
H  50.89300 5.76600 47.26900
H  51.19600 5.15800 45.71300
H  50.62800 3.96100 46.94300
H  45.15200 10.77500 46.46800
H  46.23900 9.73800 45.54900
H  46.26000 9.82500 47.33800
H  40.21700 8.87100 45.83200
H  38.05700 11.20500 48.75200
H  38.64500 9.90800 49.80800
H  37.27100 9.65100 48.74900
Mg 40.88400 9.13300 29.41800
C  42.49600 10.42700 32.17100
C  38.52200 7.80900 31.50800
C  39.30000 7.86700 26.63600
C  43.48000 10.24000 27.49900
N  40.60300 9.04200 31.56100
C  41.27600 9.80500 32.54500
C  40.50400 9.90700 33.92100
C  39.33300 8.87300 33.69200
C  39.43000 8.51500 32.23800
C  39.21200 7.50900 34.53800
C  40.13700 11.35100 34.30600
C  39.29800 11.39700 35.61700
H  39.82100 12.06500 36.80900
N  39.15700 7.92100 29.12900
C  38.34500 7.50000 30.11400
C  37.21500 6.85600 29.50000
C  37.23200 7.11300 28.10600
C  38.61200 7.66900 27.89900
C  36.12300 6.27300 30.30600
C  36.23800 7.01100 27.03700
O  36.44600 7.32000 25.89500
C  34.82500 6.44900 27.39600
N  41.28700 9.08400 27.48100
C  40.54400 8.48100 26.52600
C  41.10800 8.59400 25.08800
C  42.29100 9.59900 25.31700
C  42.37400 9.63400 26.84300
C  41.41900 7.33300 24.41300
C  42.25000 11.01700 24.77800
C  40.94900 11.85100 24.93700
N  42.68900 10.08700 29.66600
C  43.66100 10.49800 28.84300
C  44.67400 11.28600 29.49600
C  44.26100 11.26000 30.81000
C  43.08800 10.49900 30.88000
C  45.88900 11.80000 28.88000
C  44.62500 11.65000 32.14600
O  45.53000 12.37800 32.55800
C  43.52000 11.12300 33.10900
C  44.08900 10.25700 34.15000
O  44.87500 9.35900 33.92200
O  43.90700 10.86500 35.38400
C  44.30600 10.11700 36.55200
H  37.69400 7.48200 32.14000
H  38.87100 7.36300 25.76800
H  44.27300 10.62400 26.85400
H  41.11800 9.39800 34.66300
H  38.33600 9.28000 33.86000
H  39.31900 6.52000 34.09200
H  38.17900 7.50300 34.88800
H  39.90000 7.57500 35.38100
H  39.69200 11.91200 33.48400
H  41.08000 11.85400 34.52100
H  39.22300 10.36100 35.94600
H  38.25500 11.58500 35.36000
H  36.00600 5.21900 30.05600
H  35.14500 6.74200 30.20300
H  36.37900 6.22800 31.36500
H  34.78400 5.47600 27.88400
H  34.31300 6.32800 26.44100
H  34.39200 7.21700 28.03700
H  40.31800 9.02500 24.47300
H  43.17900 9.17400 24.85000
H  41.18400 6.48700 25.05900
H  42.44600 7.04200 24.19200
H  40.78300 7.14900 23.54700
H  42.43600 10.94600 23.70600
H  43.08500 11.59300 25.17800
H  40.27000 11.67600 24.10200
H  41.21800 12.90100 25.04900
H  40.40300 11.67700 25.86400
H  45.98000 11.70800 27.79800
H  46.71600 11.25200 29.33200
H  46.04700 12.86000 29.07900
H  43.09000 12.00200 33.59000
H  45.23100 10.43300 37.03500
H  44.27700 9.05800 36.29500
H  43.50000 10.43500 37.21400

