158

Mg 17.44600 -0.81700 28.09100
C  16.44600 1.29000 30.83900
C  19.09800 -2.76600 30.10700
C  18.91100 -2.15400 25.24500
C  15.64700 1.48300 25.96700
N  17.85000 -0.63500 30.20600
C  17.29700 0.24300 31.19200
C  17.79600 -0.13900 32.55700
C  18.79400 -1.38600 32.26600
C  18.53800 -1.63700 30.77300
C  20.32000 -1.10200 32.49000
C  16.56700 -0.62700 33.51900
C  16.65700 -0.15800 35.01100
H  17.92600 0.52300 35.58700
N  18.70500 -2.34000 27.75000
C  19.20800 -3.08900 28.71300
C  19.96100 -4.20600 28.19400
C  19.87500 -4.03700 26.76400
C  19.12900 -2.80500 26.50300
C  20.60800 -5.29200 29.00000
C  20.38200 -4.92900 25.63700
O  20.13700 -4.72300 24.48400
C  21.08700 -6.22600 25.82300
N  17.21300 -0.52800 25.93500
C  18.05800 -1.05300 25.02600
C  17.81400 -0.42800 23.60000
C  16.75200 0.59100 23.88300
C  16.45200 0.47600 25.40100
C  19.19300 0.10600 22.90500
C  15.45100 0.47500 23.03900
C  15.18100 1.47200 21.89100
N  16.21600 1.00700 28.27400
C  15.53000 1.78500 27.33700
C  14.86600 2.89400 27.97600
C  15.14800 2.68500 29.42100
C  16.01900 1.58100 29.50900
C  14.16900 4.03300 27.45700
C  14.94400 3.21800 30.74000
O  14.32600 4.19400 31.22800
C  15.75100 2.32000 31.71600
C  16.72800 3.14000 32.48800
O  17.72100 3.61500 32.03700
O  16.17000 3.41600 33.75100
C  16.73900 4.44900 34.61100
H  19.60500 -3.40500 30.83200
H  19.49000 -2.48900 24.38200
H  15.13200 2.09700 25.22600
H  18.36300 0.66300 33.02900
H  18.57900 -2.25400 32.89000
H  20.92900 -1.13000 31.58700
H  20.72500 -1.69700 33.31000
H  20.47800 -0.08900 32.85900
H  16.66000 -1.71100 33.57000
H  15.62100 -0.30800 33.08100
H  16.41000 -1.00500 35.65100
H  15.84700 0.56000 35.14600
H  20.20500 -6.22400 28.60300
H  20.33300 -5.31400 30.05500
H  21.66600 -5.30600 28.74000
H  21.47800 -6.61600 24.88300
H  20.41300 -6.95700 26.27000
H  21.90700 -6.13800 26.53600
H  17.48300 -1.26100 22.97900
H  17.22800 1.55500 23.70300
H  20.08400 -0.03800 23.51700
H  19.04900 1.17900 22.77800
H  19.30600 -0.37600 21.93400
H  14.61100 0.62500 23.71800
H  15.35400 -0.55500 22.69600
H  16.11400 2.03000 21.81900
H  14.36700 2.18200 22.04200
H  15.17200 0.99700 20.91000
H  14.74500 4.48900 26.65200
H  14.08800 4.90500 28.10600
H  13.18300 3.71900 27.11600
H  15.17900 1.75800 32.45500
H  16.12900 4.45400 35.51500
H  16.85900 5.39100 34.07600
H  17.74900 4.14000 34.87700
Mg 35.60500 49.28700 25.65200
C  36.05000 47.23000 28.48400
C  34.24300 51.56600 27.79500
C  34.47200 50.76000 22.84900
C  36.42200 46.41100 23.69700
N  35.28400 49.39000 27.86900
C  35.62200 48.47600 28.79500
C  35.58300 49.05400 30.27600
C  34.68000 50.32600 29.95100
C  34.80700 50.46700 28.44200
C  33.17900 50.24600 30.33700
C  37.01600 49.42300 30.84600
C  37.31400 49.26000 32.37700
H  36.09700 49.24000 33.31000
N  34.57200 51.01100 25.40600
C  34.12700 51.84200 26.40500
C  33.66600 53.07100 25.76500
C  33.59600 52.84100 24.34800
C  34.27300 51.53500 24.13100
C  33.50800 54.41200 26.53500
C  33.06700 53.65700 23.21900
O  33.31800 53.35800 22.07500
C  32.47400 55.02800 23.57400
N  35.46100 48.66700 23.59700
C  35.06800 49.51100 22.65300
C  35.24100 48.93900 21.24700
C  35.98500 47.52200 21.55300
C  36.00400 47.54300 23.04300
C  33.95200 48.85000 20.40000
C  37.34500 47.39300 20.87300
C  37.55900 46.38900 19.84300
N  36.19400 47.28200 25.93700
C  36.47600 46.25300 25.10200
C  36.96100 45.09000 25.80400
C  36.80300 45.45100 27.14000
C  36.32100 46.78900 27.13900
C  37.35900 43.80400 25.24500
C  36.90800 44.97900 28.52200
O  37.31100 43.93100 28.92300
C  36.46500 46.10800 29.41900
C  35.36500 45.55800 30.24500
O  34.24500 45.33700 29.88200
O  35.84800 45.32200 31.53000
C  34.92400 45.08000 32.61900
H  33.78600 52.27100 28.49300
H  34.18000 51.33600 21.96800
H  36.67800 45.61400 22.99600
H  34.96800 48.38600 30.87900
H  35.02800 51.20300 30.49800
H  32.96100 51.14500 30.91300
H  32.94200 49.38000 30.95600
H  32.40500 50.47500 29.60400
H  37.25200 50.43100 30.50500
H  37.71500 48.71700 30.39600
H  37.78000 50.23500 32.52200
H  37.96300 48.39100 32.47900
H  33.87600 54.37900 27.56000
H  32.50300 54.83000 26.59100
H  33.86600 55.26900 25.96400
H  33.21300 55.70700 23.99800
H  31.59100 54.95500 24.20900
H  32.14100 55.46100 22.63100
H  35.83000 49.62300 20.63700
H  35.26700 46.77300 21.22100
H  33.99800 49.66900 19.68200
H  33.08500 48.94000 21.05500
H  33.88300 47.91600 19.84300
H  38.09700 47.20400 21.64000
H  37.34000 48.34700 20.34700
H  38.21300 46.71600 19.03500
H  36.63600 46.09800 19.34000
H  38.04900 45.55500 20.34600
H  37.50600 43.82700 24.16500
H  36.62400 43.06100 25.55500
H  38.34700 43.54200 25.62300
H  37.15200 46.49500 30.17200
H  35.56000 44.82600 33.46700
H  34.20900 44.31000 32.32700
H  34.33600 45.97200 32.83500

