158

Mg 9.09200 3.66300 28.13700
C  10.41200 2.16100 30.92300
C  7.35000 5.85200 30.32600
C  8.43300 5.75700 25.57500
C  10.67800 1.48700 25.98500
N  8.81100 3.86500 30.40300
C  9.54800 3.20700 31.35100
C  9.19700 3.68300 32.84300
C  8.13600 4.80400 32.61100
C  8.02100 4.83100 30.99500
C  6.67500 4.56100 33.23000
C  10.42700 4.20100 33.69900
C  10.88100 3.23100 34.82700
H  11.48600 3.90000 36.01400
N  7.92500 5.52500 27.94600
C  7.27100 6.17900 28.94700
C  6.65900 7.40900 28.43700
C  7.00900 7.44200 27.06000
C  7.82000 6.22500 26.78500
C  5.81800 8.34200 29.18500
C  6.83200 8.57000 25.94300
O  7.27300 8.44500 24.78400
C  6.23900 9.89500 26.34000
N  9.22000 3.43700 26.03700
C  9.01300 4.53200 25.20000
C  9.24600 4.14100 23.77300
C  10.05900 2.81800 23.89900
C  9.96100 2.55100 25.36700
C  7.89000 3.96800 22.99200
C  11.52100 3.04000 23.39600
C  12.22000 1.85100 22.82900
N  10.14400 2.08600 28.37800
C  10.75700 1.26900 27.38600
C  11.52300 0.29500 28.10500
C  11.37900 0.59300 29.46900
C  10.59400 1.69000 29.56900
C  12.44900 -0.75100 27.57900
C  11.81500 0.11900 30.82300
O  12.61300 -0.76900 31.20500
C  11.15700 1.22200 31.79600
C  10.32700 0.65000 32.85600
O  9.14100 0.30800 32.68600
O  11.04200 0.34800 33.97400
C  10.38500 -0.43800 34.96500
H  6.91300 6.49800 31.09000
H  8.38900 6.49000 24.76600
H  11.33000 0.83700 25.39900
H  8.66500 2.84200 33.28800
H  8.49700 5.76100 32.98700
H  6.06200 4.12900 32.43900
H  6.39800 5.56500 33.55100
H  6.75300 3.76800 33.97300
H  10.11300 5.13500 34.16600
H  11.25300 4.37400 33.00900
H  11.76400 2.78100 34.37400
H  10.12300 2.49900 35.10700
H  4.81800 8.45500 28.76900
H  6.28700 9.30700 28.99400
H  5.82500 8.17000 30.26200
H  6.90300 10.29400 27.10700
H  5.23900 9.71500 26.73300
H  6.18300 10.68000 25.58500
H  9.81000 5.00300 23.41700
H  9.60900 2.02500 23.30200
H  7.76600 4.82000 22.32400
H  7.03500 3.96300 23.66700
H  7.67500 3.06300 22.42500
H  12.07800 3.39500 24.26300
H  11.64700 3.83100 22.65600
H  12.15200 1.80400 21.74200
H  11.78600 0.86400 22.98900
H  13.26600 1.88200 23.13500
H  12.02500 -1.71500 27.85800
H  13.39200 -0.55700 28.09100
H  12.64800 -0.68000 26.50900
H  11.99000 1.67000 32.33700
H  10.04200 0.27000 35.71800
H  11.12500 -1.10900 35.40300
H  9.53500 -1.05200 34.66800
Mg 16.57800 52.85600 26.53100
C  18.46400 51.12300 28.83100
C  14.28600 53.54400 28.92500
C  14.88000 54.46800 24.14700
C  18.93300 51.83000 24.06900
N  16.33400 52.34300 28.65400
C  17.31500 51.71000 29.36600
C  17.07200 51.87400 30.84000
C  15.55600 52.34900 30.90000
C  15.28400 52.70600 29.42200
C  14.61300 51.24600 31.44300
C  18.14900 52.85000 31.38000
C  18.49900 52.56400 32.86600
H  17.40300 51.97000 33.76800
N  14.88300 53.90900 26.51800
C  14.08600 54.04600 27.62600
C  13.03400 54.94100 27.25800
C  13.13500 55.24400 25.91500
C  14.36900 54.55700 25.46400
C  11.89000 55.43800 28.23900
C  12.25500 56.04900 24.98900
O  12.52000 56.17700 23.82900
C  10.91700 56.70700 25.46800
N  16.94600 53.23700 24.41400
C  16.06100 53.93000 23.69200
C  16.51600 54.02800 22.27800
C  17.86400 53.29300 22.20700
C  17.94900 52.73400 23.64400
C  15.45300 53.50300 21.20800
C  19.18600 54.13100 21.77700
C  19.03600 55.66800 21.46100
N  18.32900 51.73400 26.38700
C  19.17800 51.41100 25.32300
C  20.28500 50.60900 25.79800
C  19.96300 50.41400 27.22100
C  18.81800 51.14300 27.50300
C  21.32800 49.92600 24.98700
C  20.46600 49.76700 28.41000
O  21.43800 49.10400 28.58400
C  19.57600 50.39000 29.59300
C  19.11300 49.15500 30.31600
O  18.60300 48.20800 29.80300
O  19.41100 49.35200 31.64300
C  19.01500 48.23800 32.53600
H  13.49600 53.84600 29.61600
H  14.42300 54.99300 23.30600
H  19.61200 51.49100 23.28400
H  17.10200 50.84000 31.18400
H  15.40500 53.29400 31.42100
H  13.78800 51.76300 31.93400
H  15.13500 50.60300 32.15200
H  14.13000 50.61800 30.69400
H  17.56700 53.76800 31.46400
H  19.00700 52.95600 30.71600
H  18.75900 53.54400 33.26500
H  19.45800 52.04500 32.86100
H  12.01600 56.52000 28.27100
H  11.82200 55.05500 29.25700
H  10.87100 55.21200 27.92400
H  11.05100 57.32900 26.35400
H  10.18100 55.91200 25.58800
H  10.59900 57.33500 24.63600
H  16.62900 55.07300 21.98800
H  17.76300 52.38700 21.61000
H  15.63100 54.23000 20.41500
H  14.43500 53.60200 21.58500
H  15.72800 52.49200 20.90800
H  19.56400 53.63900 20.88000
H  19.85800 54.09000 22.63400
H  19.96800 55.97400 20.98500
H  18.98900 56.19300 22.41500
H  18.19400 55.89700 20.80700
H  21.20200 48.84400 25.01700
H  22.25600 50.13300 25.52000
H  21.47600 50.31900 23.98100
H  20.21300 50.97100 30.26100
H  17.93500 48.16100 32.41400
H  19.13700 48.58700 33.56200
H  19.58300 47.39000 32.15400

