158

Mg -1.83200 17.33400 26.12500
C  -2.44800 15.18400 28.88100
C  -3.12700 19.84700 27.99800
C  -1.61100 19.28700 23.56000
C  -1.31300 14.48200 24.12500
N  -2.71900 17.46600 28.22900
C  -2.80900 16.52300 29.17400
C  -3.33500 17.05200 30.53400
C  -3.99300 18.35300 30.03800
C  -3.26600 18.58800 28.66200
C  -5.54400 18.27600 29.93500
C  -2.18200 17.27600 31.52100
C  -2.49900 16.89400 33.00100
H  -1.22900 16.48400 33.87100
N  -1.99900 19.36200 25.95700
C  -2.56700 20.24500 26.80900
C  -2.40600 21.57200 26.29600
C  -1.88800 21.43300 25.00400
C  -1.86300 20.05400 24.74000
C  -2.74700 22.78100 27.13500
C  -1.41500 22.52600 24.10600
O  -0.80600 22.24800 23.07700
C  -1.47700 23.88300 24.55500
N  -1.71900 16.90300 24.18300
C  -1.55400 17.90600 23.26400
C  -1.53100 17.42900 21.85000
C  -1.11900 15.91800 22.03300
C  -1.39100 15.75700 23.54300
C  -2.93000 17.70400 21.26400
C  0.41500 15.58900 21.79900
C  1.46300 16.01500 22.79900
N  -1.86200 15.21600 26.41800
C  -1.60700 14.19300 25.54600
C  -1.67600 12.88600 26.20300
C  -2.01100 13.22300 27.56300
C  -2.11500 14.62800 27.62800
C  -1.52100 11.51200 25.62100
C  -2.23700 12.64300 28.86000
O  -2.24700 11.48800 29.28700
C  -2.55100 13.91500 29.76600
C  -1.57900 13.91600 30.95900
O  -0.37000 13.97200 30.92200
O  -2.31000 13.57000 32.04400
C  -1.53600 13.14900 33.18300
H  -3.55600 20.54400 28.72200
H  -1.57700 19.97000 22.70900
H  -1.02400 13.72700 23.39100
H  -4.02600 16.29300 30.89900
H  -3.74400 19.16100 30.72600
H  -6.08700 19.09100 30.41500
H  -5.84900 17.28800 30.27900
H  -5.81300 18.27000 28.87900
H  -1.85000 18.31300 31.56700
H  -1.42600 16.56000 31.19700
H  -3.25500 16.12400 33.14800
H  -2.86600 17.82400 33.43700
H  -3.12200 22.59600 28.14200
H  -3.48700 23.41000 26.64000
H  -1.81500 23.34700 27.15500
H  -2.47100 24.15000 24.91400
H  -1.23600 24.53600 23.71700
H  -0.68500 24.06100 25.28200
H  -0.74100 17.93400 21.29200
H  -1.75900 15.34200 21.36400
H  -3.40700 16.72500 21.23000
H  -2.82400 18.00300 20.22100
H  -3.54100 18.26900 21.96700
H  0.82500 16.06600 20.90900
H  0.48900 14.54200 21.50600
H  1.90100 15.12100 23.24300
H  1.02200 16.71200 23.51100
H  2.36700 16.40800 22.33400
H  -1.47700 11.49300 24.53300
H  -2.44900 10.99200 25.86100
H  -0.68000 11.00400 26.09200
H  -3.55900 13.73900 30.14200
H  -2.02700 13.66100 34.01100
H  -0.51100 13.51400 33.23700
H  -1.54400 12.06000 33.21900
Mg 9.51100 47.16400 27.49300
C  7.28400 47.24000 30.24400
C  12.13200 47.95000 29.45300
C  11.39900 47.74700 24.66700
C  6.55700 47.16000 25.36800
N  9.72600 47.38900 29.57700
C  8.70100 47.46000 30.52200
C  9.30500 47.60900 31.89800
C  10.87600 47.87900 31.58900
C  10.93200 47.74400 30.08100
C  11.40100 49.20700 31.98300
C  8.90000 46.50300 32.90700
C  9.90400 46.20900 34.01200
H  9.38700 45.89700 35.46000
N  11.48400 47.61900 27.15900
C  12.38200 47.94300 28.10300
C  13.71100 48.14800 27.45400
C  13.54800 47.98000 26.06600
C  12.12800 47.79200 25.93100
C  14.97300 48.37800 28.22100
C  14.60900 47.96100 24.97100
O  14.35500 47.77300 23.81500
C  16.05100 48.10100 25.30300
N  9.02400 47.59600 25.35000
C  10.00400 47.72100 24.43100
C  9.47500 47.70700 23.01700
C  7.91300 47.32200 23.18100
C  7.80700 47.33900 24.73100
C  9.79900 49.09500 22.39500
C  7.35900 46.10200 22.51800
C  7.09200 46.20900 21.02300
N  7.36500 47.09100 27.67800
C  6.29700 47.05900 26.78000
C  4.98800 47.01100 27.43200
C  5.35300 47.00400 28.75900
C  6.78900 47.06900 28.88500
C  3.67700 47.03000 26.73600
C  4.82000 46.95100 30.15200
O  3.67900 46.84100 30.53300
C  6.02800 47.02800 31.09700
C  5.95800 45.68800 31.79900
O  6.41600 44.65100 31.34000
O  5.43900 45.83500 33.04700
C  5.60400 44.73300 33.98500
H  12.95100 48.09900 30.15900
H  12.04600 47.80100 23.78800
H  5.65300 47.02500 24.77000
H  8.94800 48.57200 32.26500
H  11.51100 47.18100 32.13400
H  10.74000 49.53300 32.78700
H  11.47000 49.89900 31.14400
H  12.34100 49.10700 32.52500
H  8.67100 45.63200 32.29300
H  7.94300 46.81000 33.32800
H  10.58600 47.05900 34.04800
H  10.57000 45.39400 33.73100
H  15.52700 47.47100 27.97900
H  14.82200 48.44200 29.29900
H  15.52800 49.23800 27.84800
H  16.43000 47.27200 25.90100
H  16.16000 49.08600 25.75700
H  16.50200 47.97300 24.31800
H  9.96300 46.89600 22.47700
H  7.26400 48.11400 22.80800
H  10.38400 49.71600 23.07400
H  8.82600 49.52500 22.15900
H  10.45900 49.00700 21.53200
H  6.35200 45.95200 22.90900
H  8.01100 45.29400 22.85000
H  7.67100 45.55800 20.36900
H  7.25000 47.19700 20.59000
H  6.04900 46.06000 20.74300
H  3.48600 46.03100 26.34300
H  3.63300 47.66900 25.85400
H  2.84400 47.25800 27.40100
H  5.83100 47.95000 31.64400
H  6.61300 44.33000 33.90600
H  4.90600 43.91400 33.81000
H  5.54700 45.10200 35.00900

