158

Mg 2.30500 -1.99100 44.43700
C  5.51600 -1.14100 43.62200
C  1.03600 0.60500 42.72400
C  -0.77000 -3.29100 44.82400
C  3.61800 -5.17100 45.64700
N  3.21900 -0.50400 43.20900
C  4.52400 -0.31300 43.06600
C  4.83000 0.94200 42.24000
C  3.31600 1.63000 42.06500
C  2.45200 0.49700 42.69300
C  3.11900 3.09200 42.71800
C  5.56900 0.80800 40.91100
C  6.51600 1.97900 40.55900
H  6.82800 2.30300 39.08600
N  0.35800 -1.49300 43.70300
C  0.06900 -0.26900 43.15400
C  -1.39200 -0.14000 42.98300
C  -1.89000 -1.23000 43.73100
C  -0.73200 -2.10900 44.09900
C  -2.08500 1.03400 42.22700
C  -3.31000 -1.49300 44.10900
O  -4.08700 -0.70300 43.63700
C  -3.77300 -2.57800 45.02900
N  1.49700 -3.99300 45.10700
C  0.18000 -4.18400 45.25600
C  -0.15400 -5.55900 45.89800
C  1.30100 -6.22200 45.89800
C  2.21200 -5.02800 45.60500
C  -0.97400 -5.50300 47.21300
C  1.68300 -7.45000 44.98000
C  2.60800 -8.53000 45.54700
N  4.12000 -2.94800 44.68900
C  4.56400 -4.18600 45.19500
C  5.99500 -4.23800 45.34200
C  6.44400 -3.08500 44.71300
C  5.25400 -2.29000 44.31200
C  6.75800 -5.39100 45.91100
C  7.55900 -2.27300 44.37000
O  8.75800 -2.37200 44.58100
C  7.03900 -1.06500 43.56300
C  7.60000 0.13200 44.27200
O  7.22300 0.54000 45.35200
O  8.65600 0.57100 43.48300
C  9.10100 1.89700 43.91300
H  0.54400 1.39000 42.14700
H  -1.74300 -3.78500 44.85900
H  4.03800 -6.11400 46.00200
H  5.45900 1.62100 42.81600
H  2.95500 1.71900 41.04000
H  2.42500 3.19700 43.55200
H  2.78300 3.81700 41.97600
H  4.05000 3.56700 43.02900
H  4.88600 0.61900 40.08200
H  6.17600 -0.09100 41.01600
H  7.40600 1.68600 41.11500
H  6.14500 2.86000 41.08200
H  -2.97600 0.66500 41.72000
H  -1.39500 1.43000 41.48200
H  -2.32600 1.86400 42.89100
H  -4.82500 -2.44600 45.28200
H  -2.94700 -2.75700 45.71800
H  -3.90500 -3.48400 44.43800
H  -0.77200 -6.12400 45.20000
H  1.53900 -6.43100 46.94100
H  -1.17900 -4.43400 47.25400
H  -0.54300 -5.70600 48.19300
H  -1.90100 -6.07500 47.17800
H  2.32500 -6.92700 44.27100
H  0.84300 -7.95300 44.50100
H  3.65500 -8.54200 45.24600
H  2.04000 -9.42900 45.30700
H  2.46500 -8.59500 46.62600
H  6.72700 -6.26000 45.25300
H  6.30000 -5.81100 46.80700
H  7.76200 -5.01400 46.10300
H  7.36800 -0.98800 42.52700
H  9.86500 2.30400 43.25100
H  9.30800 2.01300 44.97700
H  8.22500 2.53000 43.77100
Mg 41.57200 8.15800 30.21400
C  43.26200 9.54500 32.83400
C  39.34200 6.74300 32.61400
C  39.89600 6.76000 27.68800
C  43.99800 9.10800 28.05500
N  41.41500 8.10300 32.39700
C  42.11100 8.87000 33.24400
C  41.70600 8.79600 34.66800
C  40.45000 7.89700 34.56100
C  40.41800 7.46100 33.13800
C  40.37800 6.72500 35.55700
C  41.37100 10.14500 35.44100
C  42.09100 10.32800 36.72500
H  41.36100 10.93700 37.85900
N  39.93500 6.97600 30.16800
C  39.08400 6.60400 31.19700
C  37.93300 5.95400 30.63000
C  38.01700 6.03200 29.19700
C  39.37200 6.57400 28.96100
C  36.89300 5.30200 31.44200
C  36.99100 5.57700 28.14600
O  37.24500 5.66800 26.94700
C  35.57300 5.30800 28.53800
N  41.93000 7.86800 28.18600
C  41.01500 7.41200 27.29100
C  41.45600 7.46100 25.86500
C  42.81100 8.26500 25.99800
C  42.91900 8.49100 27.46000
C  41.69900 6.00000 25.28600
C  42.85900 9.55500 25.11200
C  42.13400 10.80200 25.57800
N  43.42300 9.04900 30.35700
C  44.27700 9.42200 29.39200
C  45.36100 10.23300 30.00300
C  44.98500 10.31500 31.38500
C  43.79200 9.58800 31.53500
C  46.65400 10.75300 29.34100
C  45.36300 10.82700 32.64900
O  46.39300 11.36800 32.98700
C  44.22200 10.40800 33.67700
C  44.94000 9.53000 34.65000
O  45.36000 8.41100 34.49200
O  45.18200 10.22200 35.84700
C  45.68200 9.38200 36.94000
H  38.44100 6.61100 33.21600
H  39.40300 6.25800 26.85300
H  44.66700 9.65100 27.38400
H  42.42700 8.19700 35.22400
H  39.61000 8.49500 34.91500
H  41.11300 6.86800 36.34900
H  40.59800 5.74400 35.13700
H  39.44300 6.74900 36.11700
H  40.29000 10.28600 35.42100
H  41.77900 10.95200 34.83300
H  42.95900 10.98400 36.66200
H  42.53200 9.40100 37.09000
H  37.27100 5.14400 32.45200
H  36.64800 4.30200 31.08300
H  36.04400 5.98500 31.44600
H  35.51900 4.60200 29.36700
H  35.04200 4.96000 27.65200
H  35.11700 6.25700 28.82200
H  40.68100 7.93300 25.26100
H  43.68000 7.61900 25.86800
H  42.74000 5.86500 24.99100
H  41.03600 5.83900 24.43700
H  41.44200 5.26400 26.04800
H  42.44200 9.39500 24.11700
H  43.91300 9.79200 24.96500
H  42.71200 11.72700 25.59600
H  41.48400 10.57100 26.42200
H  41.47200 10.91400 24.72000
H  46.51400 10.70900 28.26100
H  47.54700 10.24500 29.70300
H  46.87500 11.77100 29.66100
H  43.79100 11.35200 34.01200
H  45.42300 9.89600 37.86600
H  46.73900 9.16300 36.78800
H  45.05100 8.49400 36.96900

