158

Mg 5.49900 53.65200 41.95500
C  4.79100 50.24900 41.07900
C  8.55100 53.28600 40.62800
C  5.77800 56.92600 42.10700
C  2.12100 53.93100 42.82600
N  6.53100 51.94900 40.87800
C  6.11400 50.65700 40.69800
C  7.23700 49.84700 40.08100
C  8.49100 50.84600 40.15000
C  7.80200 52.14900 40.49700
C  9.53900 50.38800 41.26700
C  6.91300 49.36400 38.69500
C  6.40400 50.45400 37.74300
H  7.35700 50.75200 36.57100
N  6.96300 54.91900 41.51200
C  8.22800 54.58200 41.05900
C  9.11600 55.75300 41.14700
C  8.30600 56.78800 41.68900
C  6.94300 56.20900 41.80300
C  10.59900 55.70300 40.90300
C  8.82200 58.20100 42.10900
O  10.01700 58.53700 42.00900
C  7.87000 59.19300 42.76200
N  4.03700 55.22200 42.39700
C  4.45600 56.51100 42.36300
C  3.27900 57.46100 42.38000
C  2.02300 56.55200 42.61400
C  2.75700 55.14100 42.65800
C  3.33000 58.80000 43.26500
C  1.03600 56.68700 41.54000
C  -0.43100 56.82000 42.06100
N  3.84000 52.32000 42.24100
C  2.55500 52.61400 42.63100
C  1.79600 51.38800 42.59000
C  2.65100 50.43600 42.10200
C  3.87400 51.05200 41.76200
C  0.39700 51.06500 43.07200
C  2.74700 49.02000 41.72300
O  1.95500 48.16600 41.74100
C  4.20900 48.84500 41.19100
C  4.04300 48.05500 39.94100
O  3.48800 48.54000 38.96000
O  4.78500 46.92900 39.96100
C  4.84100 46.17400 38.69900
H  9.60400 53.03900 40.47900
H  5.89500 58.01200 42.09200
H  1.08200 54.07100 43.13100
H  7.35300 49.00300 40.76000
H  8.90500 51.12000 39.18000
H  9.82700 51.19300 41.94300
H  10.42000 49.95600 40.79400
H  9.29100 49.56900 41.94300
H  6.36500 48.42200 38.72000
H  7.84700 49.07100 38.21500
H  6.23200 51.40400 38.24800
H  5.45900 50.14300 37.29800
H  10.76200 56.09700 39.90000
H  11.00800 54.69500 40.97400
H  11.20300 56.22000 41.65000
H  8.36500 60.03200 43.25100
H  7.44400 58.56500 43.54400
H  7.16700 59.57900 42.02300
H  3.31200 57.81100 41.34800
H  1.80300 56.65100 43.67800
H  4.14000 58.55500 43.95200
H  2.37700 59.03700 43.73800
H  3.60700 59.70200 42.71900
H  1.12800 55.81100 40.89900
H  1.18200 57.55000 40.89100
H  -0.95700 57.75600 41.87300
H  -0.41400 56.58900 43.12600
H  -1.14300 56.12100 41.62300
H  -0.12100 50.61800 42.22400
H  -0.07400 52.02700 43.27700
H  0.38300 50.34700 43.89200
H  4.65900 48.11500 41.86400
H  4.81000 46.77000 37.78700
H  4.04800 45.42900 38.76900
H  5.73600 45.55400 38.65100
Mg -13.02500 16.56300 41.26700
C  -10.22700 14.45800 40.75300
C  -11.13200 19.10900 40.03400
C  -15.82200 18.21500 41.12500
C  -14.92600 13.59800 42.00500
N  -10.82000 16.74800 40.40600
C  -9.88700 15.77500 40.38400
C  -8.56900 16.27400 39.81400
C  -8.88800 17.83800 39.58600
C  -10.33900 17.93200 40.05100
C  -8.00300 18.92300 40.38200
C  -8.18600 15.52800 38.56900
C  -6.72300 15.13100 38.45900
H  -6.02900 15.59300 37.16100
N  -13.39600 18.46200 40.71300
C  -12.52900 19.41400 40.31100
C  -13.19200 20.71700 40.29000
C  -14.55800 20.43300 40.35200
C  -14.70800 18.92900 40.69700
C  -12.41600 22.01500 40.14100
C  -15.54200 21.50100 40.25900
O  -15.25200 22.69700 40.19300
C  -16.98300 21.16100 39.96500
N  -15.14000 15.93200 41.40700
C  -16.06700 16.88400 41.44600
C  -17.47000 16.25600 41.60400
C  -17.17500 14.84900 42.01200
C  -15.72300 14.80500 41.82800
C  -18.38500 16.94500 42.60900
C  -17.94300 13.72000 41.20900
C  -19.07900 13.08500 41.96800
N  -12.66000 14.53000 41.51800
C  -13.52200 13.46400 41.80400
C  -12.73700 12.22700 42.06700
C  -11.47900 12.53700 41.55600
C  -11.48400 13.93400 41.25400
C  -13.20600 10.86000 42.51300
C  -10.14000 12.03400 41.25100
O  -9.67200 10.92100 41.31100
C  -9.27300 13.31000 40.78700
C  -8.12300 13.55700 41.65100
O  -8.10400 14.26100 42.63800
O  -6.97600 12.92200 41.15300
C  -5.73100 13.09800 41.88500
H  -10.48900 19.96800 39.83200
H  -16.76800 18.74900 41.00800
H  -15.41700 12.67300 42.31600
H  -7.84800 16.24100 40.63000
H  -8.83100 18.09700 38.52900
H  -7.35500 18.45500 41.12400
H  -8.63600 19.50100 41.05600
H  -7.43600 19.52700 39.67400
H  -8.41300 16.10700 37.67400
H  -8.76800 14.63600 38.33900
H  -6.58400 14.05200 38.53400
H  -6.21000 15.52200 39.33800
H  -12.21200 22.48400 41.10300
H  -12.80500 22.70800 39.39400
H  -11.42700 21.75600 39.76500
H  -17.43400 20.80000 40.88900
H  -17.08600 20.41900 39.17300
H  -17.31300 22.13200 39.59700
H  -17.88300 16.32800 40.59800
H  -17.40200 14.77500 43.07600
H  -19.20500 17.49700 42.15100
H  -17.77400 17.67100 43.14500
H  -18.85700 16.42600 43.44400
H  -17.21200 12.92000 41.09000
H  -18.16000 14.05400 40.19400
H  -19.27700 13.66300 42.87100
H  -18.76400 12.07100 42.21500
H  -19.97200 13.07700 41.34400
H  -12.69400 10.27200 41.75100
H  -14.27400 10.64500 42.47400
H  -12.82000 10.56700 43.48900
H  -8.79400 13.12700 39.82500
H  -5.05200 12.66000 41.15300
H  -5.70600 12.39800 42.72000
H  -5.48300 14.13300 42.12000

