158

Mg 17.07300 -1.55900 28.11900
C  15.75800 0.48900 30.62800
C  19.06100 -3.01900 30.48400
C  18.34300 -3.27800 25.48000
C  15.30300 0.35600 25.74000
N  17.41700 -1.25500 30.33400
C  16.73700 -0.39200 31.17600
C  17.17000 -0.65500 32.63800
C  18.39600 -1.53400 32.51600
C  18.34000 -1.95000 31.04700
C  19.70000 -0.72100 32.91400
C  16.14300 -1.39200 33.57300
C  16.00100 -0.80800 34.96200
H  17.28100 -0.18600 35.60900
N  18.43100 -3.01600 28.01300
C  19.14900 -3.52100 29.10200
C  19.93600 -4.58200 28.49600
C  19.67000 -4.73700 27.10000
C  18.78500 -3.59700 26.79700
C  20.79400 -5.57700 29.39600
C  20.18400 -5.76900 26.09100
O  20.01900 -5.74700 24.89700
C  21.05800 -6.85600 26.58200
N  16.74800 -1.60200 25.89000
C  17.49200 -2.29200 25.02900
C  17.42300 -1.90700 23.63500
C  16.30400 -0.83000 23.78700
C  16.13500 -0.61900 25.20200
C  18.82000 -1.36100 23.05300
C  14.89300 -1.22900 23.08800
C  13.67900 -1.73300 23.93500
N  15.95400 0.10600 28.11900
C  15.24900 0.73100 27.08600
C  14.39800 1.79600 27.60400
C  14.60300 1.76000 29.01800
C  15.54400 0.74500 29.23900
C  13.52800 2.67600 26.70700
C  14.25200 2.32900 30.32100
O  13.43700 3.18800 30.56400
C  14.98100 1.48700 31.43200
C  15.68300 2.63400 32.21300
O  16.72400 3.24200 31.90200
O  15.02200 2.83500 33.38500
C  15.72500 3.77600 34.32300
H  19.55900 -3.58600 31.27400
H  18.74400 -3.84600 24.63700
H  14.70800 0.86800 24.98100
H  17.43500 0.31200 33.06600
H  18.25500 -2.44200 33.10100
H  19.98000 -1.29200 33.79900
H  19.67000 0.33300 33.19100
H  20.47700 -0.93600 32.18100
H  16.04900 -2.47400 33.48300
H  15.16400 -1.12400 33.17400
H  15.67800 -1.62500 35.60800
H  15.20200 -0.08200 34.81400
H  21.22800 -4.96400 30.18600
H  21.68400 -5.94600 28.88600
H  20.24900 -6.37900 29.89500
H  22.01600 -6.51000 26.97000
H  21.19600 -7.44900 25.67900
H  20.45000 -7.40400 27.30200
H  17.15500 -2.80300 23.07500
H  16.73100 0.09400 23.39800
H  19.52900 -1.18100 23.86000
H  18.71800 -0.50000 22.39200
H  19.32500 -2.15500 22.50300
H  15.10500 -1.95600 22.30400
H  14.52200 -0.38600 22.50500
H  12.85400 -1.05700 23.70900
H  13.82800 -1.85000 25.00900
H  13.21200 -2.68000 23.66500
H  13.04500 3.44500 27.31100
H  12.81700 2.17900 26.04800
H  14.25900 3.07500 26.00400
H  14.16700 1.05300 32.01200
H  16.78100 3.86400 34.06500
H  15.64200 3.53500 35.38300
H  15.32400 4.78800 34.27200
Mg 42.70700 42.28300 26.19200
C  41.73100 44.45600 28.75200
C  43.89600 40.21200 28.71800
C  43.83900 40.15600 23.78400
C  42.13000 44.76900 23.86600
N  42.60900 42.22300 28.47800
C  42.19400 43.26200 29.25900
C  42.22600 42.84400 30.75000
C  42.92100 41.46400 30.69800
C  43.12200 41.25400 29.17000
C  44.07900 41.08200 31.75600
C  40.84900 42.87800 31.46900
C  40.89600 43.66800 32.80900
H  40.08600 43.08900 33.92300
N  43.59400 40.43300 26.20800
C  44.13000 39.82600 27.33400
C  44.78600 38.60300 26.87600
C  44.78100 38.53800 25.46100
C  44.05200 39.78200 25.05600
C  45.26300 37.54000 27.90300
C  45.34000 37.47500 24.55600
O  45.24800 37.53400 23.36000
C  46.06700 36.25500 25.18400
N  42.90600 42.41600 24.11400
C  43.27100 41.40700 23.31200
C  43.23000 41.76000 21.85000
C  42.50300 43.18100 21.91600
C  42.49700 43.49300 23.41400
C  44.58100 41.75300 21.13900
C  41.12600 43.11700 21.39100
C  40.23700 41.97100 21.98100
N  42.13100 44.23700 26.26000
C  41.87900 45.07500 25.22200
C  41.45200 46.34100 25.68300
C  41.32200 46.21500 27.12100
C  41.73900 44.86100 27.40300
C  41.33600 47.53300 24.82700
C  41.00900 46.89800 28.42200
O  40.65300 48.05200 28.70300
C  41.38400 45.76500 29.52200
C  42.49900 46.29400 30.31400
O  43.71400 46.10200 30.19600
O  41.95200 47.03600 31.31700
C  42.78100 47.61100 32.30100
H  44.38000 39.63900 29.51100
H  44.14400 39.48000 22.98300
H  41.98800 45.50900 23.07600
H  42.84600 43.64700 31.14700
H  42.17400 40.69500 30.89200
H  43.85100 41.77700 32.56400
H  45.07600 41.14500 31.31800
H  43.97000 40.04700 32.07900
H  40.58000 41.86600 31.77400
H  40.04000 43.25700 30.84400
H  40.52400 44.67400 32.61400
H  41.90600 43.81900 33.19100
H  44.74900 36.63400 27.58100
H  44.94000 37.77600 28.91700
H  46.34600 37.42800 27.96100
H  45.26100 35.77600 25.73900
H  46.79000 36.68600 25.87800
H  46.42900 35.63700 24.36300
H  42.64300 40.95500 21.40800
H  43.05400 43.85800 21.26300
H  45.33900 41.89500 21.90900
H  44.57100 42.54900 20.39500
H  44.77800 40.83400 20.58700
H  41.19800 42.84400 20.33900
H  40.60800 44.07500 21.43100
H  39.96200 41.28600 21.17900
H  39.28000 42.32400 22.36500
H  40.78900 41.37000 22.70300
H  40.43700 47.59500 24.21300
H  42.30100 47.58700 24.32400
H  41.23100 48.40300 25.47500
H  40.50100 45.69000 30.15600
H  43.09400 48.60500 31.98400
H  43.62200 46.97700 32.58000
H  42.19900 47.76200 33.21000

