158

Mg 49.92200 44.40500 41.55400
C  46.68100 44.97500 40.39500
C  49.43200 41.07800 40.76000
C  53.09700 44.02100 42.10500
C  50.10400 47.81200 42.41200
N  48.22600 43.18400 40.78900
C  46.97400 43.64600 40.43700
C  46.16400 42.53800 39.79700
C  46.89900 41.25300 40.33000
C  48.29900 41.86500 40.61800
C  46.24700 40.62600 41.63000
C  46.22000 42.60500 38.29400
C  44.82800 42.64400 37.57200
H  44.74500 43.57800 36.31300
N  51.20200 42.75500 41.36800
C  50.78500 41.46300 41.04100
C  51.99600 40.64100 41.02600
C  53.07900 41.43200 41.49100
C  52.50900 42.77600 41.69400
C  52.07900 39.31500 40.59500
C  54.57500 41.04900 41.63100
O  55.00500 39.95600 41.38100
C  55.68300 42.06800 41.90500
N  51.40400 45.73300 42.17000
C  52.69900 45.29900 42.36200
C  53.60600 46.43400 42.87200
C  52.63700 47.67800 42.95700
C  51.28600 47.04800 42.53200
C  54.33000 46.08700 44.23100
C  53.12200 48.98400 42.32700
C  54.43500 49.54800 42.72400
N  48.63700 46.11200 41.47400
C  48.86800 47.46100 41.78500
C  47.73000 48.26900 41.39200
C  46.86000 47.28900 40.81700
C  47.46700 46.01700 40.88600
C  47.68300 49.77400 41.41100
C  45.60900 47.16800 40.10800
O  44.75800 47.99200 39.82500
C  45.47300 45.63200 39.82500
C  44.22000 45.13500 40.44700
O  43.32500 44.58300 39.80800
O  44.18500 45.47900 41.78000
C  42.81500 45.62100 42.26900
H  49.31600 40.02700 40.48800
H  54.11000 44.01800 42.51300
H  50.23900 48.80600 42.84300
H  45.14000 42.55000 40.17000
H  46.76600 40.41900 39.64100
H  45.49700 41.17900 42.19500
H  47.09900 40.67800 42.30700
H  45.98300 39.58300 41.45500
H  46.92500 41.88500 37.87800
H  46.58500 43.59200 38.01000
H  43.98900 42.97900 38.18200
H  44.59000 41.62300 37.27500
H  52.32000 39.25300 39.53300
H  51.12600 38.82800 40.80200
H  52.87400 38.79900 41.13200
H  55.73900 42.42200 42.93400
H  55.49200 42.90100 41.22900
H  56.63100 41.71300 41.49900
H  54.41500 46.51500 42.14600
H  52.47600 47.96600 43.99600
H  54.33100 45.02400 44.47500
H  53.90800 46.67600 45.04500
H  55.34400 46.48600 44.20800
H  52.37600 49.75000 42.54000
H  53.29800 48.92300 41.25300
H  54.98400 49.87300 41.83900
H  55.07900 48.89800 43.31700
H  54.12600 50.43900 43.27000
H  47.01000 50.23600 42.13200
H  47.44400 50.12200 40.40600
H  48.71900 50.10800 41.46400
H  45.40400 45.27800 38.79600
H  42.90000 46.16000 43.21200
H  42.64300 44.58700 42.56600
H  42.02200 45.92000 41.58300
Mg 26.74900 50.43900 26.73000
C  25.07500 51.73700 29.51700
C  29.37800 49.69800 28.97000
C  28.42100 49.26100 24.16200
C  24.25000 51.60000 24.64200
N  27.17000 50.82500 28.94600
C  26.29900 51.26900 29.83700
C  26.79600 50.88500 31.21500
C  28.33300 50.63900 31.04400
C  28.30300 50.42600 29.53100
C  29.10000 51.81600 31.63100
C  25.95900 49.70800 31.81200
C  25.09300 50.03100 33.04200
H  25.88400 50.04700 34.34400
N  28.57500 49.55200 26.54800
C  29.42300 49.23400 27.60900
C  30.54700 48.57300 27.07400
C  30.43900 48.54400 25.64100
C  29.13800 49.12500 25.36500
C  31.69300 48.00400 27.92100
C  31.36900 47.89000 24.59500
O  31.10300 47.85100 23.41100
C  32.62600 47.21800 24.97700
N  26.44900 50.58600 24.60000
C  27.20800 49.77200 23.81200
C  26.60600 49.57700 22.43200
C  25.19300 50.28700 22.62000
C  25.24900 50.79200 24.07100
C  27.48700 50.19200 21.23600
C  23.98900 49.37200 22.40100
C  22.95600 49.78200 21.34300
N  25.14500 51.61600 26.93100
C  24.15600 51.87300 26.04200
C  22.96100 52.51700 26.69000
C  23.30400 52.44800 28.03400
C  24.67100 51.87500 28.15100
C  21.68200 52.97600 26.01000
C  22.76200 52.68600 29.34000
O  21.67000 53.11700 29.71500
C  23.96300 52.23700 30.37400
C  24.45000 53.32800 31.26300
O  25.22800 54.20500 30.92900
O  23.86400 53.24500 32.45500
C  23.94300 54.36100 33.36800
H  30.11300 49.31800 29.68300
H  28.93000 48.75300 23.34000
H  23.35900 51.87400 24.07200
H  26.70100 51.73600 31.88800
H  28.57700 49.74500 31.61700
H  28.63900 51.96800 32.60700
H  28.82800 52.69600 31.04900
H  30.18800 51.76300 31.60200
H  26.56500 48.84900 32.10100
H  25.35000 49.27200 31.01900
H  24.43000 49.20900 33.31000
H  24.41100 50.87800 32.96800
H  32.59900 48.57800 27.72600
H  31.91000 46.95000 27.75100
H  31.47300 47.95700 28.98700
H  33.28800 47.82000 25.59900
H  33.16000 47.01300 24.04900
H  32.35400 46.28000 25.46200
H  26.54000 48.50600 22.24000
H  25.14000 51.17500 21.99000
H  27.18500 51.19000 20.91700
H  27.42700 49.51300 20.38600
H  28.50200 50.38400 21.58500
H  23.42700 49.37600 23.33500
H  24.28000 48.33200 22.25900
H  23.38200 50.61200 20.77800
H  21.94900 50.04800 21.66400
H  22.96100 48.89800 20.70500
H  21.86300 53.92400 25.50300
H  20.82100 53.05600 26.67300
H  21.36400 52.27400 25.23900
H  23.70000 51.36300 30.97000
H  23.98400 53.99200 34.39300
H  23.07300 55.00300 33.22400
H  24.76800 54.99900 33.05100

