158

Mg 44.05800 3.50300 47.95200
C  42.07700 6.26800 47.27900
C  41.23500 1.48200 47.63700
C  46.06600 0.64800 47.87800
C  46.88100 5.42200 47.58900
N  42.00400 3.85800 47.55800
C  41.37000 5.08800 47.38000
C  39.86300 4.93600 47.31200
C  39.57800 3.44600 47.54500
C  41.05300 2.87400 47.54600
C  38.89100 3.10600 48.87100
C  39.18600 5.52900 46.04800
C  39.62400 4.93000 44.68800
H  39.57900 5.87600 43.51100
N  43.74000 1.35000 47.79700
C  42.48600 0.77600 47.79100
C  42.65600 -0.63300 47.61000
C  44.04800 -0.88300 47.45000
C  44.70100 0.40300 47.67300
C  41.52900 -1.59000 47.59100
C  44.76300 -2.19700 47.17700
O  44.16300 -3.28300 47.17800
C  46.18500 -2.20900 46.82100
N  46.18700 3.16800 47.51500
C  46.72300 1.89200 47.84500
C  48.19500 1.96500 48.23600
C  48.51700 3.53000 48.05400
C  47.08600 4.10700 47.73600
C  48.42400 1.47100 49.75200
C  49.54400 3.85000 46.97200
C  50.96900 4.07700 47.45400
N  44.49200 5.46700 47.50100
C  45.69600 6.15900 47.46200
C  45.37000 7.58700 47.50600
C  44.00300 7.67100 47.34300
C  43.48900 6.37300 47.38700
C  46.44700 8.63400 47.64100
C  42.95900 8.56400 47.15400
O  42.97300 9.75200 47.05600
C  41.63100 7.69100 47.17400
C  40.95300 8.14900 48.32500
O  41.38000 8.05400 49.47400
O  39.70800 8.59200 47.95800
C  38.80800 9.08000 49.02100
H  40.28900 0.93600 47.64700
H  46.79100 -0.12900 48.12800
H  47.72600 6.09300 47.75300
H  39.58400 5.58800 48.13900
H  39.06800 3.00700 46.68800
H  37.96600 2.58400 48.62400
H  38.67000 3.99800 49.45800
H  39.44100 2.46100 49.55600
H  39.33000 6.60900 46.07500
H  38.14000 5.28300 46.22900
H  39.03000 4.04600 44.45600
H  40.67500 4.64400 44.73500
H  41.32600 -1.87800 46.56000
H  40.63700 -1.06900 47.94000
H  41.87800 -2.39700 48.23500
H  46.88100 -2.54500 47.58900
H  46.36900 -1.24200 46.35200
H  46.32300 -2.84000 45.94200
H  48.80300 1.32900 47.59100
H  48.80000 4.08100 48.95100
H  48.60000 0.39600 49.69800
H  47.59200 1.78000 50.38400
H  49.33900 1.98100 50.05200
H  49.08400 4.66600 46.41400
H  49.69000 2.93000 46.40600
H  51.65100 3.26700 47.19400
H  50.95200 4.26200 48.52800
H  51.30200 5.01100 47.00200
H  47.14000 8.47200 48.46700
H  46.12800 9.67600 47.68100
H  46.98800 8.63700 46.69400
H  41.09700 7.99600 46.27400
H  38.02000 8.32700 49.03600
H  38.42700 10.02000 48.62100
H  39.28600 9.24000 49.98800
Mg 42.22500 7.88000 29.51600
C  43.81700 9.58800 32.15000
C  40.20500 6.37000 31.77300
C  40.81400 6.37900 26.80900
C  44.69500 9.13900 27.32500
N  42.07500 7.98300 31.70500
C  42.76800 8.80900 32.63700
C  42.05100 8.92500 33.96300
C  41.13500 7.54500 33.86000
C  41.04700 7.36400 32.30600
C  41.81000 6.23700 34.54700
C  41.38500 10.32000 34.33300
C  40.69400 10.31300 35.69100
H  41.25600 11.21300 36.78400
N  40.69400 6.58100 29.26000
C  39.97900 6.02800 30.38600
C  39.01100 5.03800 29.84400
C  39.05100 5.26400 28.43200
C  40.18900 6.15500 28.06000
C  38.18800 4.25200 30.75000
C  38.15800 4.62600 27.31200
O  38.35200 4.91900 26.09500
C  36.93400 3.76000 27.58300
N  42.67300 7.75000 27.38100
C  41.98100 7.01800 26.49200
C  42.58800 7.20000 25.07600
C  43.52700 8.33300 25.25900
C  43.68700 8.41900 26.78000
C  43.34600 5.87400 24.73900
C  42.96300 9.75700 24.75200
C  41.68400 10.41100 25.36300
N  43.92500 9.08700 29.62100
C  44.84800 9.49800 28.67400
C  45.80200 10.42100 29.24100
C  45.43100 10.47900 30.59600
C  44.27700 9.73300 30.79900
C  46.96500 11.17500 28.61600
C  45.71200 11.07200 31.90800
O  46.48800 11.97600 32.16600
C  44.68300 10.53000 32.95900
C  45.30200 9.98200 34.19500
O  46.08900 9.03200 34.26200
O  44.57000 10.42100 35.26100
C  44.61300 9.72500 36.56700
H  39.66400 5.76300 32.50300
H  40.39500 5.73800 26.03100
H  45.40100 9.60400 26.63400
H  42.81500 8.61500 34.67600
H  40.15500 7.76400 34.28300
H  41.96600 5.30800 33.99700
H  41.03500 5.99400 35.27500
H  42.72300 6.42400 35.11200
H  40.58900 10.53800 33.62200
H  42.21000 11.02600 34.23800
H  40.65400 9.28600 36.05300
H  39.66700 10.66100 35.57100
H  37.16600 4.50900 30.47300
H  38.44800 4.30700 31.80800
H  38.38700 3.19200 30.59000
H  36.41800 3.45900 26.67100
H  36.35000 4.47500 28.16300
H  37.32600 2.91300 28.14500
H  41.79900 7.58400 24.43000
H  44.52300 8.27700 24.81900
H  43.11800 5.01700 25.37300
H  44.41500 6.07200 24.65900
H  43.09700 5.64500 23.70300
H  42.75700 9.81700 23.68300
H  43.76700 10.49100 24.80000
H  41.37800 9.82900 26.23300
H  40.86500 10.27300 24.65800
H  41.78700 11.45800 25.64700
H  46.91700 12.22100 28.92100
H  47.06000 10.92700 27.55900
H  47.80400 10.68800 29.11200
H  44.22600 11.47300 33.25800
H  45.01500 8.72400 36.41200
H  43.63500 9.65700 37.04400
H  45.35000 10.26000 37.16500

