158

Mg 24.90800 1.16200 29.94800
C  26.97800 0.68700 32.62400
C  22.30400 1.04500 32.28000
C  22.64200 1.22700 27.39200
C  27.43700 0.63900 27.72000
N  24.71200 0.84500 32.24300
C  25.73300 0.98300 33.06100
C  25.22200 1.15600 34.51100
C  23.72100 0.89800 34.42500
C  23.56700 0.92700 32.86500
C  23.19800 -0.44300 35.02000
C  25.60900 2.42900 35.18600
C  26.20900 2.21400 36.57300
H  26.08600 3.28100 37.69300
N  22.85700 1.10300 29.85600
C  21.94000 1.03300 30.89900
C  20.57100 1.11000 30.37200
C  20.74200 1.15300 28.97500
C  22.14500 1.24400 28.68900
C  19.34500 1.23100 31.26800
C  19.65500 1.06900 27.89300
O  19.81800 0.96500 26.64600
C  18.15700 1.10300 28.30600
N  25.04600 0.94400 27.82500
C  23.99200 1.02500 26.93400
C  24.45000 1.07700 25.43100
C  25.99000 0.91200 25.58100
C  26.19800 0.81600 27.10900
C  23.70400 0.00900 24.57300
C  26.85300 1.97200 24.86700
C  26.60900 3.43200 25.27600
N  26.87200 0.76800 30.14400
C  27.80700 0.62000 29.11400
C  29.15500 0.39500 29.78100
C  28.82700 0.50400 31.14100
C  27.46500 0.66900 31.37800
C  30.51300 0.25300 29.13100
C  29.45800 0.44700 32.50300
O  30.60400 0.35900 32.96000
C  28.28100 0.72100 33.55900
C  28.24300 -0.31300 34.71100
O  27.69800 -1.37400 34.68600
O  29.13900 -0.02500 35.70000
C  29.05800 -0.90600 36.86800
H  21.35200 1.11600 32.81000
H  22.01000 1.50400 26.54600
H  28.24800 0.43500 27.01800
H  25.63200 0.28700 35.02500
H  23.13300 1.71700 34.84100
H  23.84200 -0.91200 35.76400
H  23.10400 -1.12600 34.17600
H  22.22200 -0.35300 35.49800
H  24.73900 3.07600 35.30000
H  26.30100 3.03800 34.60500
H  27.29100 2.10000 36.51100
H  25.77900 1.30000 36.98400
H  18.70000 2.00800 30.85800
H  19.50900 1.64800 32.26100
H  18.77900 0.30000 31.31800
H  17.97900 0.26800 28.98300
H  17.55100 0.97400 27.40900
H  17.84700 2.02600 28.79500
H  24.28900 2.10100 25.09300
H  26.32900 -0.07300 25.26100
H  24.35300 -0.74800 24.13300
H  23.44100 0.47300 23.62200
H  22.94100 -0.50000 25.16100
H  26.68400 1.83500 23.79900
H  27.90800 1.74200 25.01300
H  26.06400 3.39200 26.21900
H  26.06300 3.94100 24.48200
H  27.56400 3.92600 25.45700
H  30.68900 -0.81100 28.97500
H  31.14000 0.68200 29.91200
H  30.56900 0.79500 28.18600
H  28.48900 1.74400 33.87300
H  28.16300 -0.80100 37.48200
H  29.94000 -0.63600 37.44900
H  29.28400 -1.91200 36.51600
Mg 17.16000 52.75000 26.65300
C  19.07400 51.33700 29.16200
C  14.80400 53.63000 29.07200
C  15.41000 54.11500 24.08500
C  19.53900 51.53900 24.26700
N  16.93300 52.30400 28.84200
C  17.93500 51.94600 29.63300
C  17.65300 52.09800 31.10300
C  16.11500 52.56800 31.08900
C  15.90900 52.87900 29.56800
C  15.00500 51.51400 31.66700
C  18.60600 53.02500 31.81800
C  19.07800 52.63700 33.22100
H  18.01400 51.89600 34.02900
N  15.27600 53.65500 26.57300
C  14.53500 53.97300 27.70100
C  13.41000 54.82900 27.19600
C  13.46200 54.79800 25.72200
C  14.76100 54.18600 25.40100
C  12.32900 55.51100 28.09900
C  12.49000 55.24800 24.68700
O  12.73300 55.03800 23.48100
C  11.26800 55.89900 25.08000
N  17.38300 52.71500 24.53800
C  16.56100 53.45100 23.66400
C  17.03300 53.45700 22.17400
C  18.49900 52.87000 22.40200
C  18.41500 52.23700 23.79800
C  16.08200 52.49700 21.39000
C  19.59600 53.97800 22.23500
C  19.98900 54.72700 23.53200
N  18.88900 51.65700 26.65400
C  19.81100 51.28600 25.59600
C  20.93500 50.61300 26.22800
C  20.61400 50.49800 27.55400
C  19.35200 51.18500 27.79900
C  22.10900 50.02200 25.47800
C  21.15200 50.03700 28.85700
O  22.18100 49.45300 29.11800
C  20.22400 50.57800 29.91000
C  19.58100 49.44400 30.63900
O  18.92900 48.61000 30.14800
O  19.98800 49.41300 31.90300
C  19.51300 48.29400 32.82000
H  14.17000 54.02400 29.86900
H  14.95900 54.68100 23.26700
H  20.32100 51.10800 23.63800
H  17.62300 51.14000 31.62200
H  15.98200 53.52800 31.58700
H  14.40800 51.14400 30.83300
H  14.29700 52.03500 32.31100
H  15.48200 50.83100 32.37000
H  18.21800 54.04000 31.74000
H  19.54100 53.10800 31.26400
H  19.19200 53.54300 33.81500
H  19.97000 52.02700 33.07200
H  12.30800 55.06800 29.09400
H  11.33500 55.37800 27.67200
H  12.36000 56.60100 28.09600
H  10.66500 55.15600 25.60200
H  10.83300 56.24900 24.14300
H  11.49000 56.76700 25.70000
H  17.12000 54.50200 21.87700
H  18.76700 52.07100 21.71100
H  15.26200 52.18600 22.03800
H  16.67800 51.65800 21.03000
H  15.76500 53.10400 20.54300
H  19.29200 54.75700 21.53600
H  20.57700 53.61800 21.92400
H  19.51800 55.70800 23.47400
H  21.07000 54.86500 23.55100
H  19.81500 54.24100 24.49200
H  22.48400 50.73600 24.74400
H  21.93200 49.06400 24.99000
H  22.82900 49.87500 26.28300
H  20.70700 51.34000 30.52200
H  19.98600 47.35000 32.54900
H  18.45200 48.23500 32.57900
H  19.69700 48.62600 33.84200

