158

Mg 41.99200 41.52800 27.48300
C  41.15000 43.91500 29.89900
C  42.86600 39.32200 29.93900
C  42.87500 39.28500 25.14600
C  41.49600 43.98500 25.11800
N  42.01800 41.67400 29.78600
C  41.57300 42.70200 30.55500
C  41.69100 42.33600 32.07900
C  42.41100 40.91200 32.01900
C  42.49900 40.61200 30.53300
C  43.84600 40.72700 32.74300
C  40.39500 42.39800 32.79300
C  40.19800 43.22000 34.12600
H  39.51100 42.38000 35.21400
N  42.73900 39.59200 27.53900
C  43.00800 38.85300 28.64300
C  43.48500 37.52600 28.27100
C  43.42100 37.47600 26.84900
C  43.02300 38.84200 26.44500
C  44.05700 36.44500 29.27300
C  43.88100 36.37400 25.93700
O  43.91900 36.46900 24.71000
C  44.42900 35.03100 26.60000
N  42.13500 41.57400 25.50000
C  42.46200 40.54700 24.70000
C  42.41000 40.85900 23.20100
C  41.61100 42.22400 23.26100
C  41.78700 42.66400 24.68400
C  43.73400 40.99700 22.57300
C  40.11900 42.07200 22.76400
C  38.98600 41.79400 23.79700
N  41.60800 43.51900 27.46500
C  41.30700 44.35100 26.36800
C  40.72300 45.60800 26.82800
C  40.72000 45.51000 28.19100
C  41.20000 44.20400 28.52800
C  40.54000 46.87800 25.95300
C  40.56900 46.28800 29.45300
O  40.16300 47.45400 29.59800
C  40.86200 45.25500 30.63500
C  41.92900 45.80900 31.51500
O  43.09200 46.01200 31.18000
O  41.35700 46.02600 32.79400
C  42.21600 46.69700 33.84600
H  43.14300 38.53100 30.63800
H  43.11300 38.51100 24.41400
H  41.29000 44.67000 24.29300
H  42.28900 43.11300 32.55500
H  41.73800 40.18100 32.46800
H  44.59200 40.33900 32.05000
H  43.68700 39.90800 33.44400
H  44.24300 41.63600 33.19400
H  40.05400 41.37300 32.93400
H  39.67400 42.77400 32.06600
H  39.47900 44.02800 33.99200
H  41.16000 43.61800 34.44900
H  44.97700 36.02400 28.86700
H  43.37300 35.62300 29.48300
H  44.25200 36.96300 30.21200
H  45.40900 35.12000 27.06800
H  44.53300 34.37800 25.73300
H  43.67500 34.60600 27.26200
H  41.82000 40.11400 22.66800
H  42.08100 42.97500 22.62500
H  44.02600 42.01700 22.32300
H  43.79900 40.61800 21.55300
H  44.53100 40.48300 23.11100
H  40.14700 41.25000 22.05000
H  39.90600 43.07200 22.38600
H  38.06200 42.27900 23.48100
H  39.25100 42.09100 24.81200
H  38.69600 40.74500 23.85300
H  39.49600 47.13600 25.77800
H  41.00100 46.75200 24.97300
H  41.10600 47.69800 26.39500
H  40.03900 45.16100 31.34500
H  43.22200 46.92800 33.49700
H  42.33000 45.97500 34.65500
H  41.75800 47.64100 34.14100
Mg 30.63100 59.09400 40.90800
C  28.19500 57.13700 39.45700
C  33.02000 56.85000 39.64200
C  33.13500 61.39200 41.47900
C  28.28700 61.56800 41.35600
N  30.62200 57.18800 39.68500
C  29.48100 56.63600 39.27300
C  29.82200 55.46500 38.38000
C  31.34900 55.15900 38.67400
C  31.72900 56.42000 39.43000
C  31.71200 53.97900 39.64500
C  29.56700 55.72900 36.90800
C  28.67200 54.67600 36.11700
H  27.69500 55.38600 35.11400
N  32.68500 59.05900 40.71400
C  33.48900 58.00700 40.23100
C  34.93200 58.29000 40.46100
C  34.97700 59.58600 41.08000
C  33.56000 60.05400 41.14600
C  35.95900 57.26600 40.02000
C  36.27700 60.29700 41.56600
O  37.38800 59.72500 41.48700
C  36.21500 61.54100 42.33800
N  30.74100 61.34400 41.13300
C  31.85900 61.98200 41.64400
C  31.48900 63.35400 42.31800
C  29.95400 63.37600 42.15700
C  29.62800 61.99500 41.51600
C  32.06800 63.39300 43.70700
C  29.24700 64.57200 41.35500
C  29.31900 64.62700 39.83800
N  28.59300 59.31800 40.64800
C  27.73600 60.35000 40.92500
C  26.36500 59.92300 40.57800
C  26.50300 58.65000 39.93900
C  27.90800 58.35200 40.05800
C  25.21700 60.80800 40.71700
C  25.78500 57.59400 39.29500
O  24.57200 57.44200 38.98900
C  26.93400 56.47500 39.02100
C  26.51000 55.22700 39.72200
O  26.97700 54.92500 40.81900
O  25.45900 54.64100 39.07800
C  25.02800 53.30100 39.64400
H  33.75000 56.10300 39.32300
H  33.96100 62.09000 41.63200
H  27.48100 62.29400 41.48100
H  29.18400 54.61900 38.63600
H  32.02600 55.23600 37.82400
H  32.19700 53.15600 39.12000
H  30.76000 53.68500 40.08800
H  32.44600 54.32300 40.37300
H  30.51900 55.81200 36.38400
H  29.34400 56.77800 36.71200
H  28.01700 54.02100 36.69100
H  29.35400 54.02600 35.56800
H  36.97500 57.56400 40.27700
H  35.94300 57.21400 38.93200
H  35.64900 56.27400 40.35100
H  37.22300 61.83900 42.62700
H  35.47000 61.61100 43.13100
H  35.91800 62.34700 41.66700
H  31.92800 64.24600 41.87100
H  29.52900 63.33600 43.16000
H  31.59700 62.66700 44.36900
H  31.68200 64.29000 44.19100
H  33.15700 63.38900 43.74900
H  29.70700 65.45200 41.80600
H  28.19500 64.54500 41.63900
H  29.50300 65.67300 39.59300
H  28.38300 64.20600 39.47100
H  30.16500 64.08100 39.42200
H  24.39600 60.22300 40.30200
H  25.20400 61.70700 40.10100
H  25.08400 61.21100 41.72100
H  26.94200 56.28900 37.94700
H  24.19400 52.93400 39.04400
H  24.76100 53.43400 40.69200
H  25.74300 52.48100 39.70600

