158

Mg 1.69500 8.62000 26.34100
C  1.90300 10.77500 29.07100
C  2.15600 6.02300 28.23400
C  2.33600 6.79900 23.44800
C  1.78700 11.53900 24.28000
N  2.11300 8.47300 28.47600
C  1.89900 9.41200 29.43300
C  1.91400 8.73700 30.86900
C  2.16800 7.32300 30.56500
C  2.22100 7.22700 28.98100
C  3.41500 6.63300 31.29200
C  0.60000 9.11500 31.68400
C  0.47800 9.21500 33.17700
H  1.61100 8.70700 34.08800
N  2.09200 6.65800 25.92700
C  2.13300 5.72000 26.88400
C  2.22200 4.41400 26.25300
C  2.41300 4.65100 24.83700
C  2.27800 6.11100 24.68100
C  2.26900 3.08700 27.05500
C  2.57900 3.61000 23.74400
O  2.49700 3.87000 22.54100
C  2.76300 2.25600 24.08700
N  1.98200 9.09800 24.22300
C  2.05600 8.13400 23.23700
C  2.00000 8.67800 21.78100
C  1.68200 10.19400 22.10600
C  1.80900 10.29700 23.61700
C  3.25600 8.23700 21.01300
C  0.30700 10.74700 21.61900
C  0.21500 11.94700 20.64200
N  1.82300 10.73800 26.57000
C  1.85300 11.74800 25.66200
C  1.83800 13.02500 26.35500
C  1.95200 12.67400 27.74600
C  1.94000 11.29200 27.79000
C  1.98200 14.41900 25.74500
C  2.12600 13.24500 29.10500
O  2.35500 14.33700 29.57900
C  2.23800 11.94700 30.00000
C  3.52900 11.92200 30.69200
O  4.62500 11.83900 30.12800
O  3.46200 12.06100 32.08200
C  4.58700 11.70400 32.82800
H  2.15800 5.14300 28.88100
H  2.32800 6.18200 22.54700
H  1.63200 12.43000 23.66700
H  2.83100 9.15800 31.28000
H  1.25600 6.80200 30.85700
H  2.95900 5.95400 32.01200
H  4.11600 7.28400 31.81400
H  4.07000 6.03600 30.65800
H  -0.24000 8.53800 31.29900
H  0.34100 10.11200 31.32800
H  -0.49200 8.80800 33.46200
H  0.57300 10.27000 33.43300
H  1.85000 3.35500 28.02400
H  3.24900 2.61000 27.03000
H  1.62100 2.36800 26.55300
H  2.99600 1.56600 23.27600
H  1.87700 1.91000 24.62000
H  3.60900 2.22000 24.77400
H  1.13500 8.10400 21.44900
H  2.54900 10.60700 21.58900
H  3.98000 7.62600 21.55100
H  3.80000 9.05100 20.53400
H  2.83200 7.59200 20.24400
H  -0.12200 11.23800 22.49200
H  -0.40900 9.97600 21.33500
H  1.18400 12.02100 20.14900
H  0.19900 12.93800 21.09500
H  -0.51600 11.93400 19.83400
H  1.66700 14.52800 24.70700
H  3.05300 14.62000 25.78600
H  1.45400 15.07000 26.44000
H  1.32400 12.12100 30.56900
H  5.50000 12.29700 32.77600
H  4.92000 10.69700 32.57700
H  4.29900 11.74700 33.87800
Mg 47.14600 35.19100 28.51700
C  45.40100 33.37400 31.19600
C  47.46200 37.82300 30.68000
C  48.17800 36.92300 25.92300
C  46.82800 32.31700 26.51800
N  46.57100 35.47500 30.69200
C  45.97800 34.64000 31.55100
C  46.04100 35.20800 32.97700
C  46.17700 36.73600 32.69400
C  46.79000 36.71300 31.23600
C  44.94100 37.55500 32.96000
C  47.25300 34.62300 33.76900
C  47.06800 34.34700 35.35000
H  46.23800 35.35600 36.19000
N  47.83900 37.06800 28.28600
C  47.97500 38.01700 29.34900
C  48.57300 39.22300 28.81400
C  48.82400 39.03500 27.44800
C  48.33100 37.57800 27.13500
C  48.48400 40.50800 29.58000
C  49.35400 40.02200 26.47200
O  49.38200 39.74900 25.27100
C  49.83900 41.37400 26.85600
N  47.34300 34.71700 26.46100
C  47.85800 35.61600 25.65400
C  48.14900 34.99200 24.28000
C  47.73300 33.49200 24.39600
C  47.40100 33.41900 25.94700
C  47.48700 35.62100 23.02000
C  48.85000 32.46200 24.00400
C  48.27000 31.21800 23.20700
N  46.32200 33.21500 28.77800
C  46.25400 32.16600 27.83700
C  45.49000 31.06500 28.41700
C  45.08900 31.53700 29.64100
C  45.64400 32.79200 29.87800
C  45.07700 29.78000 27.83200
C  44.37200 31.14600 30.83700
O  43.81700 30.06900 31.01100
C  44.40700 32.40700 31.84800
C  44.93200 31.84800 33.07500
O  46.11600 31.71000 33.46100
O  43.82100 31.53700 33.79800
C  44.11900 30.81500 35.08200
H  47.42100 38.75100 31.25500
H  48.55700 37.50500 25.08000
H  46.61500 31.49000 25.83700
H  45.10700 34.81900 33.38500
H  46.94200 37.09000 33.38500
H  44.75300 38.14500 32.06300
H  44.96600 38.18800 33.84700
H  44.06300 36.91300 33.02100
H  48.06900 35.34300 33.71200
H  47.66000 33.76400 33.23600
H  47.97900 34.14300 35.91200
H  46.57600 33.39500 35.54900
H  47.84400 41.22300 29.06300
H  49.49500 40.91400 29.53000
H  48.21500 40.60600 30.63100
H  49.05300 42.12400 26.76700
H  50.51600 41.47900 26.00800
H  50.46600 41.40800 27.74800
H  49.22100 35.01800 24.08900
H  46.73700 33.27600 24.00800
H  46.76000 34.93400 22.58600
H  48.28200 35.88500 22.32200
H  46.88200 36.49200 23.27200
H  49.41600 32.09700 24.86100
H  49.54100 32.94800 23.31500
H  47.21300 31.18300 23.47300
H  48.76900 30.30500 23.53100
H  48.26800 31.43200 22.13800
H  45.96700 29.17000 27.67500
H  44.57000 29.94100 26.88100
H  44.47600 29.19100 28.52500
H  43.44000 32.89100 31.98000
H  44.87300 30.02900 35.07500
H  43.22300 30.24600 35.33100
H  44.48300 31.48800 35.85900

