158

Mg 36.05600 1.77800 29.56700
C  33.84800 2.92500 32.05000
C  38.48400 1.62600 32.00600
C  38.19500 1.20600 27.17800
C  33.49300 2.46200 27.23400
N  36.12300 2.42900 31.71500
C  35.14100 2.69900 32.55100
C  35.52200 2.75000 34.02000
C  37.10200 2.73700 33.92900
C  37.24400 2.15300 32.49300
C  37.76600 4.16700 34.05600
C  34.75400 1.58000 34.73600
C  34.21200 1.83000 36.03800
H  34.79500 2.98100 36.82200
N  37.98300 1.27400 29.59700
C  38.74100 1.19800 30.68900
C  39.94900 0.57000 30.38000
C  39.94000 0.42000 28.91500
C  38.68800 1.03700 28.49400
C  40.92700 -0.01900 31.41600
C  40.82900 -0.30400 27.96500
O  40.64700 -0.57500 26.77200
C  42.10700 -0.80800 28.41500
N  35.87200 2.02700 27.52800
C  36.90400 1.57500 26.66100
C  36.50800 1.69400 25.16000
C  34.92400 1.73900 25.27400
C  34.74400 2.11800 26.74700
C  37.12400 2.97500 24.53500
C  34.32900 0.34200 24.99800
C  33.37700 0.18100 23.86200
N  34.02900 2.46400 29.57600
C  33.12900 2.68600 28.53500
C  31.88700 3.19900 29.11000
C  32.15700 3.28900 30.49600
C  33.48300 2.83300 30.69100
C  30.53400 3.38200 28.43300
C  31.51700 3.65200 31.67100
O  30.37000 4.02300 31.88400
C  32.61900 3.49500 32.82600
C  32.84900 4.73900 33.52100
O  33.67600 5.54700 33.20200
O  31.96500 4.80100 34.61300
C  32.14300 5.87800 35.62200
H  39.30700 1.53900 32.71800
H  38.97200 0.90300 26.47300
H  32.63400 2.59900 26.57400
H  35.37100 3.74600 34.43700
H  37.57200 2.14000 34.71100
H  38.71800 3.96100 33.56700
H  37.81100 4.55300 35.07500
H  37.21900 4.98200 33.58200
H  35.25300 0.63600 34.95300
H  33.94500 1.17700 34.12700
H  34.34300 0.97800 36.70400
H  33.13700 2.00500 36.00100
H  40.87500 -1.10600 31.48500
H  40.80800 0.40400 32.41300
H  41.93000 0.32600 31.16600
H  42.62000 -1.39100 27.65000
H  41.93800 -1.46900 29.26500
H  42.75300 0.00700 28.74200
H  36.78200 0.77100 24.64900
H  34.41500 2.50300 24.68600
H  36.26900 3.54400 24.16800
H  37.73700 2.57900 23.72500
H  37.81400 3.51000 25.18700
H  33.72300 0.07600 25.86300
H  35.15700 -0.33500 24.78800
H  32.40500 -0.23400 24.12800
H  33.86800 -0.50000 23.16700
H  33.19600 1.18000 23.46500
H  30.36800 4.46000 28.43600
H  29.79200 2.85200 29.03000
H  30.52000 2.99500 27.41400
H  32.08100 2.86400 33.53300
H  31.36600 6.63800 35.53500
H  33.05800 6.46700 35.68600
H  32.03400 5.47800 36.63000
Mg 0.13800 43.68700 25.52500
C  2.21900 43.44500 28.32500
C  -2.49200 43.13700 27.72300
C  -1.76000 43.17900 22.80300
C  3.09900 43.91200 23.50700
N  -0.15300 43.51300 27.74100
C  0.87700 43.36200 28.63900
C  0.30700 43.48000 30.09700
C  -1.26600 43.31400 29.90000
C  -1.28800 43.19800 28.34300
C  -1.86500 42.03000 30.63600
C  0.73900 44.81100 30.75700
C  0.88400 44.70500 32.27000
H  0.44000 43.45800 33.11500
N  -1.87300 43.29500 25.32200
C  -2.81500 43.17900 26.31700
C  -4.18600 43.10200 25.69900
C  -3.92400 42.83900 24.33300
C  -2.50400 43.18000 24.05800
C  -5.45900 43.07900 26.61000
C  -4.97200 42.56600 23.22600
O  -4.63600 42.20700 22.06000
C  -6.43800 42.63400 23.59100
N  0.60100 43.31500 23.38400
C  -0.37600 43.24100 22.46000
C  0.24300 43.39300 21.06900
C  1.57500 44.19100 21.39500
C  1.81200 43.77700 22.88500
C  0.44700 41.98600 20.33300
C  1.72000 45.73000 21.20400
C  2.54500 46.20500 19.90700
N  2.24700 43.73100 25.86500
C  3.32300 43.84200 24.93300
C  4.55200 43.90500 25.61600
C  4.20100 43.73000 26.96600
C  2.82200 43.62400 27.02000
C  5.86800 44.12600 24.99700
C  4.75600 43.55900 28.28300
O  5.88800 43.47000 28.71000
C  3.49600 43.58000 29.20700
C  3.66100 42.52800 30.22600
O  3.51800 41.30800 30.16400
O  4.13000 43.12200 31.36200
C  4.49900 42.27800 32.43800
H  -3.40100 42.98400 28.31000
H  -2.44200 43.24200 21.95300
H  3.96500 44.12200 22.87600
H  0.66400 42.62900 30.67600
H  -1.85000 44.19900 30.15000
H  -2.56000 41.57200 29.93300
H  -2.45700 42.55000 31.38900
H  -1.10100 41.33200 30.98000
H  0.01700 45.61500 30.61300
H  1.68300 45.11300 30.30400
H  0.37100 45.55800 32.71300
H  1.91900 44.89600 32.55400
H  -6.27100 43.49100 26.01000
H  -5.40400 43.63400 27.54700
H  -5.66800 42.02700 26.80400
H  -7.05800 42.37000 22.73400
H  -6.59100 43.68900 23.81400
H  -6.52300 41.87800 24.37200
H  -0.28200 44.14400 20.47900
H  2.37100 43.72000 20.81700
H  1.46000 41.61200 20.18400
H  -0.01100 42.08200 19.34900
H  -0.18100 41.19600 20.74600
H  2.13100 46.20700 22.09300
H  0.77100 46.26400 21.15200
H  3.33000 46.87900 20.24800
H  1.92100 46.69300 19.15700
H  3.07900 45.44200 19.34200
H  5.79400 43.97900 23.91900
H  6.50400 43.38200 25.47700
H  6.13300 45.16500 25.19200
H  3.62000 44.54200 29.70400
H  4.37900 42.92200 33.30900
H  5.55600 42.01500 32.39600
H  3.83300 41.44200 32.65100

