158

Mg -3.23300 17.26500 25.56500
C  -3.24600 14.82100 28.20100
C  -3.95500 19.57000 27.92100
C  -3.35700 19.41900 23.09200
C  -2.77800 14.68500 23.33000
N  -3.55300 17.13600 27.91500
C  -3.39300 16.11200 28.73000
C  -3.50500 16.53600 30.20100
C  -4.04400 18.00500 30.08100
C  -3.87200 18.30600 28.53100
C  -5.43500 18.42800 30.61200
C  -2.08500 16.32900 30.85500
C  -1.52600 17.08200 32.06300
H  -1.30600 16.17800 33.29500
N  -3.63900 19.21100 25.47100
C  -3.82700 19.99300 26.57000
C  -4.08300 21.29500 26.11600
C  -3.83300 21.38600 24.75000
C  -3.63000 19.96600 24.35700
C  -4.47400 22.45400 27.09700
C  -3.71600 22.66500 23.82500
O  -3.68500 22.56600 22.62200
C  -3.55400 24.03300 24.50500
N  -2.74600 17.11600 23.51200
C  -2.97700 18.16700 22.70800
C  -2.76700 17.82200 21.20600
C  -2.85700 16.28200 21.36800
C  -2.66600 15.98800 22.80200
C  -3.77100 18.36500 20.12400
C  -1.97000 15.43000 20.36900
C  -2.56900 14.24400 19.64100
N  -3.16400 15.23800 25.71000
C  -3.05200 14.31800 24.69100
C  -3.14700 12.97900 25.15000
C  -3.19500 13.17100 26.48800
C  -3.22400 14.56200 26.83800
C  -3.06000 11.67800 24.43800
C  -3.26200 12.39900 27.72400
O  -3.16600 11.19500 27.89300
C  -3.26100 13.49300 28.89100
C  -2.03900 13.12200 29.71500
O  -0.86100 13.31500 29.42900
O  -2.47800 12.56700 30.90900
C  -1.47700 12.48000 31.93200
H  -4.35400 20.26100 28.66700
H  -3.39400 20.10100 22.24000
H  -2.81000 13.91600 22.55600
H  -4.23500 15.84400 30.62100
H  -3.37400 18.65500 30.64300
H  -5.93700 17.59300 31.10100
H  -6.08900 18.70900 29.78700
H  -5.43500 19.23000 31.35000
H  -1.34000 16.51800 30.08200
H  -2.02100 15.24700 30.97500
H  -2.28500 17.83400 32.27900
H  -0.52100 17.43600 31.83400
H  -4.88100 22.04300 28.02100
H  -5.25900 22.96600 26.54200
H  -3.58700 23.06600 27.26300
H  -3.50800 24.80800 23.73900
H  -2.60300 24.07500 25.03700
H  -4.38600 24.22700 25.18200
H  -1.77000 18.08400 20.85000
H  -3.81800 15.80700 21.17300
H  -4.72300 18.60400 20.59700
H  -3.81500 17.66700 19.28700
H  -3.32500 19.31200 19.82100
H  -1.14900 15.05500 20.98000
H  -1.56400 16.13500 19.64400
H  -3.56800 14.09200 20.05000
H  -1.91100 13.37800 19.70700
H  -2.63600 14.54600 18.59600
H  -4.07300 11.37600 24.17000
H  -2.51500 10.87700 24.93600
H  -2.39000 11.71600 23.57900
H  -4.13100 13.29300 29.51600
H  -0.65300 13.19300 31.95100
H  -1.05500 11.48100 31.82900
H  -2.11300 12.65400 32.80100
Mg 0.20600 7.40700 24.71900
C  0.92300 9.29900 27.58800
C  0.70800 4.56800 26.60700
C  0.03600 5.61500 21.84100
C  0.46200 10.42300 22.77700
N  0.80600 7.02700 26.79100
C  0.78000 7.89900 27.83800
C  0.68300 7.20700 29.17900
C  0.91900 5.76400 28.79600
C  0.73100 5.74800 27.29600
C  2.41600 5.18000 29.17600
C  -0.66600 7.51400 29.90900
C  -0.65500 7.58100 31.47200
H  0.63500 7.25500 32.38100
N  0.46200 5.36200 24.32700
C  0.60400 4.32600 25.21700
C  0.53100 3.07900 24.52500
C  0.30100 3.37500 23.12500
C  0.32200 4.82000 23.04100
C  0.59800 1.75500 25.28100
C  0.17100 2.40000 21.98600
O  -0.09000 2.71900 20.84300
C  0.12200 0.94100 22.24200
N  0.22500 7.98300 22.57300
C  0.08100 6.97800 21.61200
C  0.25300 7.73100 20.27400
C  0.05600 9.22400 20.57000
C  0.21400 9.26600 22.06500
C  1.55600 7.28400 19.49200
C  -1.18700 10.04800 20.11200
C  -2.38700 10.38500 21.03600
N  0.67600 9.41600 25.07000
C  0.66500 10.51500 24.22600
C  0.97600 11.72300 24.99900
C  1.01800 11.23600 26.32500
C  0.83200 9.86300 26.33000
C  1.00600 13.16200 24.47200
C  1.28500 11.63600 27.65100
O  1.63500 12.76500 28.03900
C  1.03200 10.34200 28.60700
C  2.19900 10.33200 29.53900
O  3.25200 9.71400 29.39900
O  1.87200 11.16300 30.63600
C  3.00100 11.28800 31.58100
H  0.50500 3.67900 27.20900
H  0.08800 5.04500 20.91100
H  0.41100 11.40400 22.30100
H  1.48900 7.61700 29.78800
H  0.17400 5.09500 29.22600
H  2.98100 5.93900 29.71700
H  3.00300 4.86900 28.31200
H  2.19500 4.35900 29.85700
H  -1.37600 6.71800 29.68400
H  -1.04700 8.44400 29.48500
H  -1.37100 6.79800 31.72100
H  -1.23500 8.45200 31.77700
H  -0.44500 1.54400 25.51400
H  1.09900 1.96900 26.22600
H  1.25600 0.98300 24.88300
H  1.12500 0.71000 22.60100
H  0.04800 0.28500 21.37500
H  -0.75000 0.70800 22.85400
H  -0.58900 7.37700 19.68000
H  0.87600 9.82900 20.18400
H  1.27800 6.81000 18.55000
H  2.18800 6.59500 20.05200
H  2.22500 8.14400 19.52700
H  -1.54200 9.56600 19.20100
H  -0.73700 10.99700 19.81800
H  -2.50000 11.45100 20.84200
H  -2.10900 10.25000 22.08100
H  -3.18000 9.74400 20.65100
H  0.07500 13.38600 23.95100
H  1.87600 13.17600 23.81500
H  1.16600 13.93400 25.22400
H  0.11900 10.60100 29.14500
H  2.84000 10.41200 32.20900
H  2.89800 12.15600 32.23300
H  3.95900 11.17300 31.07400

