158

Mg 1.23400 -2.48100 44.31400
C  4.66600 -1.91600 43.92700
C  0.67800 0.19100 42.04400
C  -2.01400 -3.48400 43.98300
C  1.97600 -5.41100 46.01600
N  2.56700 -1.12800 42.96800
C  3.88500 -0.92800 43.18100
C  4.49100 0.24600 42.53800
C  3.21200 1.00200 42.03000
C  2.07500 -0.05100 42.38100
C  2.98000 2.42400 42.82400
C  5.37500 -0.06800 41.34800
C  6.62300 0.89500 41.09000
H  6.56300 1.81300 39.86000
N  -0.44800 -1.83200 43.13300
C  -0.45500 -0.69400 42.36500
C  -1.80000 -0.40100 41.93500
C  -2.66700 -1.42800 42.49700
C  -1.73300 -2.29000 43.26100
C  -2.13800 0.65300 40.80400
C  -4.08200 -1.59600 42.12700
O  -4.59700 -0.58600 41.62900
C  -4.93200 -2.83300 42.33600
N  0.15400 -4.13600 44.94100
C  -1.22000 -4.22300 44.83500
C  -1.77600 -5.42700 45.60200
C  -0.47000 -6.16100 46.14400
C  0.61800 -5.13700 45.74700
C  -2.81800 -5.02800 46.73300
C  -0.30300 -7.62300 45.59900
C  0.23400 -8.63100 46.64200
N  2.94800 -3.43300 44.97700
C  3.11400 -4.58000 45.67400
C  4.50100 -4.75800 45.98200
C  5.16900 -3.75100 45.28600
C  4.18100 -2.89600 44.69400
C  5.13000 -5.83100 46.76000
C  6.50900 -3.28400 44.97000
O  7.62200 -3.62000 45.33700
C  6.22500 -2.01400 44.01700
C  6.92800 -0.82100 44.66900
O  6.84100 -0.45000 45.81100
O  7.81300 -0.23100 43.76400
C  8.51100 0.91400 44.33300
H  0.64100 1.15300 41.53000
H  -3.06500 -3.76800 44.06900
H  2.33400 -6.35500 46.43100
H  5.02300 0.82800 43.29000
H  3.21500 1.24900 40.96800
H  3.69900 2.57100 43.62900
H  1.95900 2.42100 43.20600
H  3.06100 3.27100 42.14300
H  4.81600 -0.01400 40.41400
H  5.67200 -1.09800 41.54500
H  7.40300 0.15600 40.90700
H  6.87900 1.49000 41.96600
H  -2.63600 0.14900 39.97600
H  -1.29800 1.20500 40.38100
H  -2.84400 1.28400 41.34300
H  -5.38300 -2.90400 43.32500
H  -4.41600 -3.78700 42.23000
H  -5.74000 -2.93500 41.61200
H  -2.26600 -6.02300 44.83200
H  -0.47000 -6.09600 47.23200
H  -2.90300 -3.95000 46.87400
H  -2.67800 -5.47300 47.71800
H  -3.74800 -5.53900 46.48700
H  0.39900 -7.54600 44.76800
H  -1.24100 -8.04700 45.24000
H  1.23700 -8.95900 46.37100
H  -0.30700 -9.54200 46.89800
H  0.39400 -8.29100 47.66500
H  4.45100 -6.68100 46.69400
H  5.20000 -5.63900 47.83100
H  6.00300 -6.27500 46.28100
H  6.77400 -2.39500 43.15600
H  7.87500 1.75000 44.62300
H  9.22400 1.28800 43.59900
H  9.09900 0.56800 45.18300
Mg 36.53000 49.66000 25.51200
C  36.73700 47.86000 28.37800
C  35.60000 52.48000 27.38100
C  36.12900 51.37000 22.61900
C  37.76800 46.97900 23.69400
N  36.08400 50.13100 27.66600
C  36.37600 49.18000 28.70500
C  36.59200 49.86800 30.01800
C  36.10100 51.31700 29.68600
C  35.80400 51.35700 28.19500
C  34.75300 51.68200 30.51300
C  38.08300 49.77400 30.50800
C  38.36300 49.70600 32.00600
H  37.17700 49.55300 32.96700
N  35.92600 51.69000 25.06700
C  35.61300 52.63900 25.99600
C  35.18500 53.85900 25.26800
C  35.31300 53.62400 23.89600
C  35.73800 52.17700 23.80800
C  34.80100 55.15600 25.97800
C  35.07400 54.49500 22.73000
O  35.31000 54.12100 21.55200
C  34.77300 55.93300 22.85800
N  36.78600 49.19300 23.42500
C  36.58100 50.05500 22.42900
C  36.90800 49.44800 21.06800
C  37.67800 48.26000 21.46600
C  37.39400 48.12100 22.93700
C  35.64800 49.15700 20.23000
C  39.16500 48.29800 21.10100
C  40.15800 47.09100 21.35700
N  36.99000 47.69800 25.87200
C  37.43100 46.75600 25.05300
C  37.65300 45.53500 25.81800
C  37.48000 45.88800 27.19400
C  36.99400 47.25400 27.13300
C  37.97800 44.30900 25.18900
C  37.48300 45.46000 28.61000
O  37.64400 44.39100 29.17200
C  37.00700 46.71900 29.40600
C  35.79900 46.37300 30.22900
O  34.63200 46.63500 29.92700
O  36.17000 45.73400 31.33800
C  35.19400 45.39900 32.38000
H  35.44400 53.42200 27.91200
H  36.04400 51.80300 21.62100
H  38.20700 46.19800 23.06900
H  35.86200 49.38500 30.66800
H  36.83000 52.03800 30.05800
H  34.50000 50.96600 31.29400
H  33.94300 51.83400 29.80000
H  34.76100 52.57300 31.14000
H  38.58100 50.64300 30.07800
H  38.52100 48.94100 29.95700
H  39.03900 50.48000 32.36700
H  38.88800 48.78600 32.26300
H  35.51600 55.94300 25.74100
H  34.76300 55.08700 27.06500
H  33.83200 55.54300 25.66100
H  34.59800 56.37700 21.87800
H  35.64100 56.42200 23.30000
H  33.89600 56.04100 23.49600
H  37.46400 50.15300 20.44900
H  37.25100 47.30400 21.16300
H  34.85100 48.63800 20.76400
H  35.90900 48.61300 19.32200
H  35.30200 50.14400 19.92200
H  39.42100 49.18600 21.67900
H  39.27000 48.67200 20.08300
H  40.84800 47.00500 20.51800
H  39.58600 46.16400 21.41200
H  40.73400 47.27600 22.26400
H  37.61400 44.28200 24.16200
H  37.36000 43.52900 25.63200
H  39.06400 44.25500 25.10900
H  37.70600 47.01300 30.18900
H  35.66300 45.68000 33.32300
H  34.86000 44.36200 32.40900
H  34.26000 45.95100 32.26700

