158

Mg 35.79800 2.45600 29.76900
C  33.48400 3.40700 32.27100
C  38.24500 2.54300 32.18400
C  38.00900 1.73900 27.44900
C  33.26400 2.87000 27.43500
N  35.80900 2.96500 31.95500
C  34.76800 3.12700 32.80200
C  35.19100 3.13600 34.26500
C  36.71100 3.16800 34.14800
C  36.92900 2.75300 32.66600
C  37.31200 4.47300 34.59600
C  34.52700 1.92100 35.00100
C  33.81300 2.26400 36.37600
H  34.40200 3.30100 37.29600
N  37.89400 2.13800 29.84300
C  38.75600 2.21400 30.92600
C  40.07700 1.79400 30.51800
C  40.02600 1.46400 29.11000
C  38.67200 1.81800 28.71500
C  41.28300 1.80200 31.40500
C  41.19700 0.97900 28.22300
O  41.11500 0.81600 27.01900
C  42.58400 0.61000 28.76400
N  35.65800 2.43200 27.75800
C  36.69100 1.96800 26.96300
C  36.23300 1.62400 25.54200
C  34.77100 2.07300 25.48800
C  34.50700 2.46800 27.00800
C  37.12600 2.36700 24.52100
C  33.85000 1.01200 24.95500
C  32.54400 1.49500 24.22400
N  33.75700 3.05200 29.78100
C  32.87600 3.21100 28.71600
C  31.55800 3.67600 29.27300
C  31.73300 3.68900 30.69200
C  33.15200 3.41600 30.90800
C  30.34900 3.95700 28.42600
C  31.10200 3.88000 31.92300
O  29.93100 4.19500 32.14400
C  32.22200 3.70600 33.00900
C  32.30500 4.99300 33.80700
O  33.10300 5.87600 33.70700
O  31.32200 4.99200 34.80800
C  31.11900 6.01700 35.77900
H  38.98600 2.59700 32.98500
H  38.79600 1.47400 26.73900
H  32.48900 3.09100 26.69800
H  34.74500 4.03900 34.68000
H  37.14600 2.37400 34.75500
H  37.69000 4.35300 35.61100
H  36.54000 5.21000 34.37500
H  38.08200 4.73800 33.87300
H  35.30100 1.15400 35.02800
H  33.73500 1.56900 34.34100
H  33.61100 1.32900 36.89900
H  32.79500 2.48600 36.05600
H  42.22600 2.23200 31.06700
H  41.56400 0.75700 31.53700
H  41.01300 2.17800 32.39200
H  43.18000 0.14700 27.97700
H  42.56500 -0.05100 29.63100
H  43.16200 1.47500 29.08900
H  36.42000 0.58200 25.28500
H  34.70800 3.01000 24.93400
H  37.78900 1.64700 24.04200
H  37.79300 3.12500 24.93300
H  36.51400 2.71400 23.68900
H  33.56100 0.30700 25.73500
H  34.39600 0.36300 24.27000
H  32.44600 2.57700 24.31200
H  31.61100 0.94800 24.36600
H  32.74200 1.22600 23.18700
H  30.74100 4.62200 27.65700
H  29.54500 4.47600 28.94800
H  29.96500 3.11000 27.85800
H  31.95900 2.88000 33.67100
H  30.66400 5.62400 36.68800
H  30.45300 6.80400 35.42200
H  32.00100 6.49600 36.20400
Mg 10.49000 47.74900 26.26800
C  8.68100 47.68100 29.17200
C  13.15200 48.89200 28.10600
C  12.32000 48.07700 23.35100
C  7.73500 46.95900 24.36700
N  10.78500 48.39700 28.37400
C  10.00100 48.10800 29.44000
C  10.61200 48.57900 30.80600
C  11.84700 49.29900 30.26100
C  12.02200 48.73300 28.85000
C  11.75100 50.88300 30.34300
C  10.92300 47.31300 31.74200
C  10.43300 47.47600 33.17400
H  10.48200 46.23900 34.19600
N  12.48800 48.32200 25.78300
C  13.40100 48.72900 26.73200
C  14.68200 48.96800 26.10700
C  14.42300 48.64100 24.70100
C  13.00800 48.32600 24.54200
C  15.83700 49.50500 26.85900
C  15.43300 48.52300 23.57000
O  15.11800 48.04400 22.47100
C  16.84800 48.82800 23.72300
N  10.07800 47.51900 24.12800
C  10.96000 47.79500 23.13800
C  10.39800 47.45200 21.70200
C  8.93000 47.04000 22.08900
C  8.86800 47.19800 23.63100
C  10.48600 48.73800 20.75100
C  8.57000 45.60900 21.66700
C  9.41300 44.44700 22.24500
N  8.60800 47.37400 26.67200
C  7.53500 47.14600 25.76800
C  6.30800 46.92800 26.54600
C  6.72800 47.12800 27.86500
C  8.12300 47.42000 27.88000
C  4.98800 46.71500 25.99300
C  6.23300 47.22000 29.24100
O  5.04800 47.05900 29.65100
C  7.51900 47.65800 30.13800
C  7.67300 46.74000 31.27200
O  8.28600 45.69500 31.31900
O  6.75100 47.06100 32.19100
C  6.37800 46.01700 33.18700
H  13.90400 49.41600 28.70000
H  12.79400 48.16500 22.37200
H  6.80600 46.76200 23.82800
H  9.90500 49.22300 31.32900
H  12.65700 48.93300 30.89200
H  12.13700 51.22600 31.30300
H  10.69500 51.14200 30.42400
H  12.20300 51.52900 29.59000
H  11.98800 47.12800 31.87900
H  10.60400 46.33200 31.38800
H  9.50400 48.03500 33.06700
H  11.22600 48.02600 33.68000
H  15.87800 49.60400 27.94400
H  16.12600 50.46200 26.42500
H  16.54400 48.71200 26.61300
H  17.32400 48.97300 22.75200
H  17.38300 48.00800 24.20100
H  16.86100 49.74500 24.31100
H  10.83600 46.58200 21.21300
H  8.29800 47.75600 21.56400
H  11.07200 48.51100 19.86100
H  10.95800 49.53600 21.32500
H  9.46200 48.98900 20.47400
H  8.67300 45.58800 20.58200
H  7.49200 45.49700 21.78300
H  8.83100 43.87800 22.97000
H  10.22000 44.89100 22.82700
H  9.93600 43.79200 21.54800
H  4.33700 46.18000 26.68400
H  5.07900 46.10600 25.09300
H  4.57300 47.66600 25.65700
H  7.32000 48.63500 30.57900
H  7.06500 45.94500 34.03100
H  6.18900 45.02200 32.78600
H  5.36500 46.30200 33.46900

