158

Mg 46.72000 25.06300 28.27600
C  47.42100 27.26400 30.83400
C  45.77900 22.68000 30.73500
C  46.14000 22.87100 25.87600
C  48.30400 27.23000 26.00200
N  46.81800 24.89000 30.49800
C  46.98000 26.06500 31.32800
C  46.63000 25.71000 32.78300
C  46.35500 24.14100 32.77200
C  46.31900 23.85000 31.21500
C  47.37000 23.20200 33.48400
C  45.59800 26.64500 33.35700
C  45.96300 27.40100 34.61200
H  46.62300 26.61300 35.76500
N  46.03700 22.97200 28.27900
C  45.72400 22.21100 29.36900
C  45.37900 20.90000 28.92400
C  45.34300 20.93000 27.48900
C  45.78900 22.28200 27.10700
C  44.97500 19.83800 29.86300
C  44.96200 19.95600 26.49900
O  44.92300 20.19000 25.29100
C  44.57300 18.59600 27.00400
N  47.12300 25.02100 26.20300
C  46.71500 24.03400 25.43200
C  47.22100 24.16700 23.99300
C  47.76400 25.60300 23.95400
C  47.83300 25.96800 25.49800
C  48.25300 23.08100 23.52800
C  46.86700 26.68900 23.26500
C  47.47400 27.93900 22.59900
N  47.65600 26.87200 28.30100
C  48.23600 27.66600 27.31700
C  48.62700 28.96100 27.86700
C  48.27500 28.85900 29.25200
C  47.69900 27.56200 29.47200
C  49.30100 30.07300 27.10500
C  48.31200 29.62000 30.48100
O  48.84500 30.65700 30.83200
C  47.88000 28.57700 31.54300
C  48.95800 28.31400 32.52800
O  49.90800 27.56600 32.28500
O  48.79800 29.15500 33.58400
C  49.85000 28.97400 34.57700
H  45.54700 22.01300 31.56800
H  46.09600 22.15800 25.05000
H  48.89300 27.86400 25.33600
H  47.54700 25.88400 33.34600
H  45.38300 24.06100 33.25900
H  46.74400 22.55100 34.09600
H  48.00300 23.77600 34.16000
H  47.91500 22.54000 32.81100
H  44.65800 26.13800 33.57400
H  45.35700 27.44600 32.65900
H  44.95800 27.61000 34.97900
H  46.49700 28.33800 34.45500
H  45.02500 19.91400 30.94900
H  45.55500 18.93100 29.69300
H  43.92800 19.68300 29.59900
H  43.57600 18.48200 27.43000
H  45.35900 18.28700 27.69300
H  44.60400 17.91700 26.15200
H  46.37200 24.05500 23.31800
H  48.73400 25.69300 23.46400
H  48.52300 22.46700 24.38700
H  49.20100 23.44800 23.13400
H  47.75900 22.52200 22.73300
H  46.10800 26.92800 24.01000
H  46.27600 26.21400 22.48300
H  47.10500 27.84300 21.57800
H  48.56100 27.87100 22.65900
H  47.15600 28.82900 23.14200
H  50.34600 29.98900 27.40100
H  48.91900 31.07800 27.28800
H  49.23100 29.89700 26.03200
H  47.00800 29.04900 31.99600
H  50.83800 28.77000 34.16400
H  49.55400 28.08500 35.13400
H  49.78700 29.68600 35.40000
Mg -2.35100 35.50600 26.57700
C  -4.00300 33.79100 29.19300
C  -0.68900 37.42000 28.83300
C  -1.06600 37.20300 24.03800
C  -4.40500 33.81800 24.44500
N  -2.59800 35.68800 28.78000
C  -3.16400 34.85900 29.64100
C  -2.72400 35.16600 31.15400
C  -1.90700 36.48400 30.97500
C  -1.75300 36.58000 29.42600
C  -2.49300 37.77800 31.64900
C  -1.98200 33.98000 31.81900
C  -2.68500 33.35200 33.06400
H  -1.74000 33.30900 34.31700
N  -0.85600 36.88800 26.44800
C  -0.30800 37.63200 27.51100
C  0.80500 38.50700 26.97800
C  0.75400 38.39800 25.53200
C  -0.38900 37.48400 25.22800
C  1.62000 39.37100 27.85400
C  1.61500 39.19900 24.54900
O  1.53600 39.01900 23.34600
C  2.80200 39.97500 24.93700
N  -2.93400 35.73800 24.55600
C  -2.17400 36.40100 23.73000
C  -2.75800 36.36200 22.32200
C  -3.76800 35.18400 22.41400
C  -3.71000 34.87000 23.86900
C  -3.25500 37.70300 21.74800
C  -3.44900 33.97800 21.51400
C  -2.08900 33.27300 21.92000
N  -3.84100 34.06300 26.71800
C  -4.49800 33.35800 25.76500
C  -5.08100 32.22200 26.31400
C  -4.93600 32.36500 27.67600
C  -4.25800 33.50300 27.87600
C  -5.66400 31.12400 25.40400
C  -5.26000 31.79900 28.94400
O  -5.78900 30.74000 29.22400
C  -4.79700 32.76600 30.01900
C  -5.98700 33.27800 30.77000
O  -6.93300 33.86200 30.33700
O  -5.81100 32.95600 32.09300
C  -7.04800 32.84400 32.94000
H  -0.16400 37.99500 29.59800
H  -0.72100 37.91200 23.28200
H  -4.84900 33.10900 23.74200
H  -3.60500 35.38300 31.75900
H  -0.90200 36.50700 31.39600
H  -3.29100 37.49600 32.33500
H  -2.93100 38.43900 30.90100
H  -1.77900 38.27900 32.30200
H  -1.00600 34.36600 32.11400
H  -1.88200 33.17300 31.09300
H  -2.78900 32.29900 32.80400
H  -3.66700 33.80300 33.19900
H  1.82800 40.30400 27.33100
H  2.46000 38.75300 28.17300
H  1.07500 39.59600 28.77100
H  2.44700 40.94800 25.27800
H  3.39700 40.08700 24.03100
H  3.34700 39.45300 25.72300
H  -1.94800 36.02200 21.67600
H  -4.80400 35.41300 22.16300
H  -2.62600 38.50100 22.14100
H  -4.30600 37.88100 21.97500
H  -3.07500 37.71600 20.67300
H  -3.27600 34.16100 20.45400
H  -4.27900 33.27700 21.61000
H  -1.57800 33.11400 20.97000
H  -2.22700 32.35600 22.49400
H  -1.36600 33.89500 22.44800
H  -4.97500 30.67200 24.69100
H  -6.56500 31.45500 24.88600
H  -5.97300 30.32500 26.07700
H  -4.16600 32.18000 30.68700
H  -7.81200 33.39000 32.38700
H  -6.79900 33.36000 33.86600
H  -7.26000 31.78100 33.05500

