158

Mg 49.80000 46.30600 41.98400
C  46.90500 48.06800 41.11700
C  48.56700 43.60300 40.26100
C  52.78200 44.89400 41.95500
C  51.20600 49.31800 43.17000
N  47.81600 45.88100 40.95200
C  46.79100 46.73000 40.72300
C  45.65500 46.01900 39.92800
C  46.33300 44.58400 39.75100
C  47.68900 44.63400 40.34200
C  45.47500 43.42600 40.26800
C  45.29900 46.71300 38.53300
C  43.97800 46.19000 37.88900
H  44.00500 45.02500 36.90100
N  50.49400 44.38100 41.43900
C  49.80700 43.41200 40.79900
C  50.64500 42.24100 40.65300
C  51.94700 42.61700 41.11000
C  51.78200 44.01200 41.57100
C  50.15800 40.85800 40.04000
C  53.09100 41.69100 41.24300
O  53.00500 40.49700 40.80200
C  54.37600 41.96400 41.95600
N  51.75700 47.08600 42.54900
C  52.84500 46.25200 42.36900
C  54.08800 47.07400 42.76800
C  53.58400 48.47100 43.18200
C  52.10000 48.30000 43.02900
C  55.08300 46.27700 43.65200
C  54.32600 49.72000 42.49700
C  55.71500 50.06700 43.16700
N  49.16000 48.27200 42.18600
C  49.88900 49.36000 42.69700
C  48.90600 50.50600 42.79600
C  47.76000 49.98200 42.21100
C  47.94100 48.63400 41.85800
C  49.09100 51.91200 43.31200
C  46.40900 50.31600 41.83000
O  45.76100 51.31200 41.95700
C  45.93600 49.12000 40.93900
C  44.67300 48.63300 41.45400
O  44.48900 48.14300 42.55100
O  43.73700 48.68700 40.47600
C  42.36400 48.42000 41.03400
H  48.11200 42.73500 39.77900
H  53.73500 44.36500 41.89000
H  51.66300 50.25700 43.49000
H  44.77400 46.05500 40.56800
H  46.42200 44.34500 38.69100
H  45.33300 42.73000 39.44100
H  44.49900 43.74800 40.63200
H  46.09100 42.90100 40.99900
H  46.12100 46.43400 37.87400
H  45.36900 47.79900 38.57700
H  43.46000 47.04300 37.45000
H  43.31500 45.80300 38.66200
H  50.78700 40.69100 39.16500
H  49.09400 40.80000 39.81200
H  50.25300 40.06900 40.78600
H  54.92500 41.02200 41.94400
H  54.15200 42.34200 42.95400
H  54.98000 42.62500 41.33600
H  54.62900 47.36600 41.86900
H  53.65800 48.61900 44.25900
H  54.48800 45.43800 44.01100
H  55.43400 46.81800 44.53000
H  55.85100 45.91800 42.96700
H  53.62200 50.54800 42.58500
H  54.53500 49.51500 41.44700
H  56.53900 50.11900 42.45600
H  55.96400 49.30200 43.90200
H  55.61300 51.02600 43.67500
H  50.01500 52.34500 42.92900
H  49.14300 51.85000 44.39900
H  48.29400 52.48700 42.84100
H  45.82400 49.49600 39.92200
H  42.24500 47.68100 41.82600
H  41.93300 47.92700 40.16200
H  41.91800 49.40200 41.19200
Mg -1.14100 34.00800 27.25400
C  -3.04800 32.39500 29.63300
C  0.29500 35.94900 29.74000
C  0.17100 36.02600 24.83500
C  -2.97800 32.32600 24.74300
N  -1.49300 34.25100 29.40700
C  -2.22100 33.36100 30.11800
C  -1.95800 33.64300 31.62300
C  -0.98900 34.79300 31.64900
C  -0.70600 35.04300 30.18800
C  -1.38400 36.07400 32.44200
C  -1.37100 32.28300 32.32800
C  -2.03700 31.86900 33.58900
H  -1.26600 32.15000 34.89500
N  0.09700 35.76000 27.28600
C  0.62600 36.36700 28.42200
C  1.37200 37.50700 28.00700
C  1.34200 37.57500 26.58600
C  0.47300 36.48800 26.14500
C  2.04000 38.36400 29.05600
C  2.05500 38.52500 25.65600
O  2.00600 38.31200 24.46100
C  2.62100 39.81500 26.16000
N  -1.42900 34.16600 25.07200
C  -0.62400 34.98200 24.34400
C  -0.88100 34.83100 22.83300
C  -1.72500 33.58800 22.88200
C  -2.18400 33.35300 24.31600
C  -1.59400 36.08900 22.22700
C  -1.10800 32.34400 22.15300
C  0.02800 31.58800 22.91100
N  -2.75500 32.74300 27.08900
C  -3.24800 32.02300 26.03600
C  -4.20000 31.01600 26.53100
C  -4.16100 31.13800 27.94900
C  -3.18900 32.13900 28.23700
C  -5.06200 30.01900 25.78000
C  -4.68200 30.62800 29.16500
O  -5.55900 29.84700 29.34900
C  -3.89900 31.40800 30.31400
C  -4.98700 32.09500 31.15300
O  -5.62200 33.12300 30.85600
O  -5.24200 31.38300 32.32400
C  -6.32500 31.94200 33.18900
H  0.79900 36.45000 30.56900
H  0.71700 36.58900 24.07500
H  -3.34800 31.54600 24.07500
H  -2.91900 33.85900 32.09100
H  -0.06000 34.43500 32.09300
H  -1.24000 37.00400 31.89300
H  -0.72700 35.96600 33.30500
H  -2.43700 36.00800 32.71700
H  -0.30200 32.42000 32.49300
H  -1.42100 31.45100 31.62500
H  -2.26000 30.80200 33.57000
H  -2.99900 32.38100 33.58400
H  3.07200 38.43000 28.71200
H  1.94100 37.96800 30.06600
H  1.57400 39.34900 29.10400
H  2.95900 40.38000 25.29100
H  3.54500 39.61500 26.70200
H  1.95600 40.27400 26.89100
H  0.10300 34.66400 22.39600
H  -2.62600 33.77300 22.29700
H  -1.43600 36.96300 22.85900
H  -2.67300 36.10000 22.07600
H  -1.05800 36.24500 21.29100
H  -0.61200 32.64300 21.22900
H  -1.88400 31.63700 21.85700
H  -0.38200 30.65200 23.29200
H  0.54200 32.21300 23.64200
H  0.77600 31.23900 22.19900
H  -5.09200 30.15700 24.69900
H  -6.07200 30.21700 26.13800
H  -4.65100 29.04500 26.04700
H  -3.36300 30.69500 30.94000
H  -7.09600 32.32900 32.52300
H  -5.90900 32.69500 33.85900
H  -6.84700 31.17700 33.76300

