158

Mg 40.20400 9.31100 28.75700
C  42.13300 10.66800 31.37300
C  37.89100 8.35300 31.28200
C  38.49300 7.96700 26.38500
C  42.76400 10.19700 26.52800
N  39.99700 9.71900 31.10100
C  40.91600 10.31100 31.91000
C  40.55600 10.14400 33.38800
C  39.30800 9.18100 33.30500
C  39.02200 9.14000 31.76300
C  39.58800 7.78100 33.97600
C  40.25600 11.53100 34.11200
C  39.81500 11.30300 35.57000
H  40.80100 11.56300 36.66400
N  38.43700 8.30900 28.80600
C  37.67600 8.01300 29.88800
C  36.57900 7.13400 29.50300
C  36.70000 6.99200 28.07800
C  37.91300 7.76600 27.67300
C  35.65700 6.46200 30.46700
C  35.86200 6.15700 27.07400
O  36.07900 6.04700 25.89100
C  34.64300 5.47200 27.50300
N  40.63300 8.94500 26.72100
C  39.74000 8.47800 25.93500
C  40.01100 8.69600 24.43800
C  41.35500 9.47400 24.55500
C  41.61300 9.52700 26.01200
C  40.03200 7.48200 23.54500
C  41.40800 10.83200 23.80400
C  41.02200 12.16700 24.49800
N  42.09300 10.12000 28.84500
C  42.97800 10.47600 27.90700
C  44.16600 11.12300 28.49300
C  43.90400 11.20100 29.87200
C  42.59900 10.68100 29.99400
C  45.38700 11.46800 27.75200
C  44.42800 11.57800 31.08100
O  45.50600 12.00500 31.42200
C  43.35600 11.21500 32.11600
C  43.91400 10.29000 33.23100
O  43.97800 9.04600 33.15700
O  44.17900 10.94400 34.40100
C  44.58700 10.19300 35.54700
H  37.27700 7.84200 32.02700
H  37.83100 7.65800 25.57500
H  43.53000 10.57900 25.85000
H  41.48800 9.78400 33.82400
H  38.39800 9.60700 33.72900
H  38.99100 7.76000 34.88800
H  40.65300 7.72900 34.19900
H  39.29500 6.94500 33.34100
H  39.47400 12.06600 33.57300
H  41.15200 12.15100 34.07800
H  39.57300 10.24400 35.65500
H  38.95700 11.90100 35.87900
H  36.15300 5.61200 30.93500
H  34.77000 5.95700 30.08500
H  35.27700 7.14400 31.22700
H  34.03800 5.09100 26.68000
H  34.05500 6.08500 28.18500
H  34.88000 4.57500 28.07500
H  39.21800 9.39600 24.17700
H  42.22500 9.00700 24.09500
H  40.68200 7.60600 22.67900
H  39.03200 7.44700 23.11200
H  40.18900 6.56600 24.11500
H  41.01200 10.69900 22.79800
H  42.48300 10.89900 23.63600
H  40.90000 11.92400 25.55300
H  40.21400 12.60000 23.90700
H  41.87000 12.85200 24.50100
H  45.59800 12.53600 27.81100
H  45.33900 11.19500 26.69700
H  46.08600 10.87400 28.33900
H  43.15400 12.11700 32.69400
H  45.43100 10.72200 35.98800
H  44.78800 9.14200 35.33800
H  43.83000 10.18200 36.33100
Mg 49.21200 35.62700 27.09500
C  47.44000 34.02400 29.64400
C  49.22100 38.54200 28.93200
C  50.83500 37.00200 24.59200
C  48.25600 32.88600 24.85400
N  48.50700 36.18800 29.12000
C  47.90500 35.35300 30.01800
C  47.91500 36.04200 31.33700
C  48.13800 37.57700 30.99700
C  48.59200 37.43700 29.56700
C  46.87900 38.52500 30.96700
C  48.99500 35.31400 32.25300
C  48.57700 35.02900 33.75600
H  48.13400 36.20200 34.73400
N  50.11700 37.41800 26.93500
C  49.93800 38.53500 27.75200
C  50.70600 39.63300 27.18500
C  51.39500 39.10100 26.01200
C  50.79900 37.76000 25.82400
C  50.79200 41.07900 27.64100
C  52.48100 39.73500 25.13900
O  52.87200 39.08000 24.15300
C  53.11200 41.08700 25.43600
N  49.66300 34.96000 25.02600
C  50.27000 35.76900 24.16500
C  50.28100 35.27300 22.74700
C  49.50000 33.88200 22.86700
C  49.15700 33.86700 24.40200
C  49.60000 36.27300 21.75200
C  50.25400 32.57200 22.40800
C  51.72200 32.57500 22.41700
N  48.12400 33.81900 27.16000
C  47.81500 32.83700 26.22800
C  47.01900 31.82900 26.83100
C  46.75100 32.31200 28.12300
C  47.58400 33.44400 28.33400
C  46.48800 30.57400 26.24800
C  46.05200 32.01500 29.27200
O  45.23800 31.07800 29.55700
C  46.27200 33.21200 30.32500
C  46.68400 32.67000 31.68400
O  47.78700 32.17900 31.98000
O  45.61200 32.61700 32.50600
C  45.76100 32.08400 33.87400
H  49.36600 39.47200 29.48600
H  51.31600 37.55200 23.78100
H  47.84800 32.20100 24.10800
H  46.91100 36.11100 31.75800
H  48.85900 38.06600 31.65300
H  46.91000 39.33700 30.24000
H  46.75700 38.92200 31.97500
H  45.99700 37.92300 30.75200
H  49.91000 35.90500 32.23600
H  49.23900 34.36600 31.77300
H  49.34800 34.63700 34.42000
H  47.71300 34.36700 33.81600
H  49.96300 41.28700 28.31800
H  50.53000 41.67400 26.76500
H  51.77000 41.22500 28.09800
H  52.35600 41.86600 25.33800
H  53.94500 41.18400 24.74000
H  53.44100 40.99200 26.47100
H  51.29700 35.20200 22.36100
H  48.55500 33.97900 22.33300
H  48.55100 36.01200 21.61800
H  50.06700 36.30500 20.76700
H  49.60800 37.31200 22.08000
H  49.87100 32.39700 21.40300
H  49.78600 31.70500 22.87500
H  52.06100 32.51600 21.38300
H  52.06200 31.72000 23.00100
H  52.04200 33.49700 22.90200
H  46.32100 29.90200 27.08900
H  47.15000 30.07900 25.53800
H  45.46900 30.85800 25.98400
H  45.39600 33.85000 30.44100
H  44.80000 31.69500 34.21000
H  46.11900 32.92900 34.46100
H  46.60100 31.39200 33.93000

