158

Mg 42.08800 41.08400 27.05100
C  41.19700 43.69200 29.40000
C  42.79600 39.06400 29.64400
C  42.92500 38.80200 24.85800
C  41.82600 43.46300 24.47200
N  41.89800 41.31500 29.21700
C  41.50100 42.38800 29.94000
C  41.54700 42.11700 31.48200
C  42.23200 40.68800 31.49500
C  42.32500 40.33400 30.03800
C  43.65300 40.61500 32.24500
C  40.21100 42.25100 32.20700
C  39.86600 41.36500 33.43200
H  39.41900 42.18900 34.70800
N  42.67900 39.22500 27.22100
C  42.96800 38.55800 28.37000
C  43.49100 37.23200 27.98200
C  43.58200 37.13400 26.59300
C  43.03200 38.42300 26.15800
C  43.79800 36.18300 28.97000
C  44.00300 36.00900 25.75400
O  43.97700 36.03100 24.52900
C  44.60400 34.80300 26.34900
N  42.32700 41.17500 24.98000
C  42.53500 40.02900 24.33100
C  42.67800 40.33500 22.80400
C  42.15300 41.76100 22.66800
C  42.07000 42.14400 24.12600
C  44.06800 39.97200 22.25800
C  40.82300 41.81900 21.89700
C  39.73300 40.71500 22.17400
N  41.72100 43.20400 26.88500
C  41.58100 43.98900 25.75700
C  41.12200 45.27700 26.18800
C  40.99400 45.26000 27.62000
C  41.28700 43.92800 28.02400
C  40.79200 46.45200 25.30300
C  40.53700 45.93900 28.86600
O  39.96600 46.99700 29.04100
C  40.78500 44.90800 30.13400
C  41.95700 45.38400 30.90800
O  43.12100 45.25400 30.61900
O  41.50800 45.87700 32.09400
C  42.46100 46.03400 33.14400
H  43.12600 38.38500 30.43400
H  42.96700 37.97200 24.14900
H  41.61800 44.11200 23.61900
H  42.21300 42.83200 31.96500
H  41.56700 39.92700 31.90200
H  43.54900 40.10200 33.20100
H  43.83700 41.66700 32.46600
H  44.42300 40.23700 31.57400
H  39.51000 41.81800 31.49400
H  39.93500 43.25800 32.51800
H  40.67100 40.67900 33.69500
H  39.14200 40.63200 33.07700
H  43.21600 36.31900 29.88200
H  44.87500 36.09700 29.10900
H  43.45100 35.19000 28.68400
H  45.27600 34.35200 25.61800
H  43.81000 34.13100 26.67200
H  45.30700 35.13500 27.11300
H  41.94300 39.58800 22.50500
H  42.83900 42.35700 22.06600
H  44.21000 38.96200 21.87300
H  44.83700 40.16400 23.00500
H  44.43900 40.71900 21.55600
H  41.09100 41.78000 20.84100
H  40.35100 42.79300 22.03300
H  39.53900 40.10600 21.29100
H  38.76100 41.12100 22.45400
H  40.03000 40.09100 23.01700
H  40.60900 46.05900 24.30300
H  41.57500 47.21000 25.30700
H  39.80900 46.83800 25.57300
H  39.96600 44.69700 30.82100
H  42.93300 47.01700 33.11500
H  43.14500 45.18800 33.20100
H  41.88000 45.74200 34.01900
Mg 9.50200 48.07400 25.94400
C  7.37500 48.10300 28.70600
C  12.00500 49.24300 27.98900
C  11.60500 48.05100 23.33600
C  6.77200 47.47600 23.85100
N  9.72100 48.58000 28.10900
C  8.67100 48.52200 29.07400
C  9.19400 48.87800 30.40900
C  10.44800 49.77300 30.11500
C  10.75900 49.20900 28.68000
C  10.37200 51.30300 30.33000
C  9.45600 47.66500 31.40200
C  9.68200 47.94700 32.91100
H  9.34300 46.87200 33.98600
N  11.55300 48.52300 25.71600
C  12.47400 48.90000 26.70100
C  13.82200 48.92500 26.08200
C  13.69600 48.51500 24.70200
C  12.26200 48.32200 24.57700
C  15.07100 49.25900 26.91900
C  14.78200 48.19600 23.68000
O  14.56900 48.00300 22.54200
C  16.20000 48.23400 24.13900
N  9.26200 47.89200 23.90100
C  10.27400 47.93000 23.01200
C  9.91200 47.36600 21.62500
C  8.39700 47.16200 21.81000
C  8.11800 47.47900 23.29100
C  10.38400 48.14500 20.32500
C  7.72100 45.88500 21.20300
C  6.79700 46.13800 19.96500
N  7.46100 47.85000 26.22800
C  6.45900 47.62300 25.24100
C  5.18900 47.45400 25.82100
C  5.50000 47.70200 27.23100
C  6.89100 47.88100 27.40900
C  3.90800 47.23200 25.16700
C  4.97600 47.71400 28.56100
O  3.88900 47.36000 28.89100
C  6.17100 48.14000 29.55300
C  6.12300 47.07700 30.57300
O  6.53700 45.96400 30.44200
O  5.49400 47.60000 31.66900
C  5.45900 46.72700 32.78700
H  12.74600 49.69900 28.64900
H  12.28400 47.88800 22.49700
H  5.91600 47.27000 23.20400
H  8.52400 49.42600 31.07000
H  11.25400 49.56200 30.81800
H  11.13900 51.63900 31.02900
H  9.45700 51.64300 30.81500
H  10.47600 51.72000 29.32800
H  10.50600 47.42700 31.23300
H  8.90700 46.75900 31.14400
H  9.03100 48.75600 33.24300
H  10.61800 48.49400 33.02100
H  14.92700 49.49400 27.97300
H  15.48400 50.16100 26.46800
H  15.78400 48.43500 26.94600
H  16.13800 47.51100 24.95200
H  16.48800 49.27100 24.31400
H  16.95100 47.87800 23.43400
H  10.32300 46.35700 21.57800
H  7.91400 48.04700 21.39500
H  9.64300 48.93000 20.17400
H  10.28100 47.45100 19.49100
H  11.44200 48.37000 20.45600
H  7.04600 45.37000 21.88600
H  8.51200 45.20500 20.88600
H  7.18600 45.48800 19.18200
H  6.83700 47.18500 19.66300
H  5.77400 45.84500 20.20000
H  3.41000 46.45800 25.75200
H  3.92900 46.99600 24.10300
H  3.41500 48.19500 25.29700
H  6.07700 49.14100 29.97500
H  6.06700 45.82300 32.75500
H  4.42100 46.47900 33.01100
H  5.90100 47.33700 33.57500

