158

Mg -2.17200 17.50900 26.78400
C  -2.29000 15.37400 29.49600
C  -2.76200 20.13900 28.89100
C  -1.95000 19.33300 24.04900
C  -1.89600 14.58000 24.62900
N  -2.57400 17.68300 28.97600
C  -2.58000 16.68900 29.91100
C  -2.81400 17.31400 31.34200
C  -2.93400 18.81500 31.07200
C  -2.84400 18.92700 29.53100
C  -4.28800 19.41100 31.51000
C  -1.77200 16.98100 32.54700
C  -1.90800 17.75500 33.85200
H  -2.03200 17.05500 35.19400
N  -2.32600 19.53000 26.53100
C  -2.57200 20.44200 27.50100
C  -2.53300 21.74100 26.87400
C  -2.50300 21.49200 25.47100
C  -2.25300 20.11600 25.24700
C  -2.87500 23.06000 27.61400
C  -2.55000 22.51600 24.28300
O  -2.75500 22.16000 23.14100
C  -2.69800 23.99700 24.58900
N  -1.71700 16.98500 24.68400
C  -1.79200 17.96100 23.81500
C  -1.73700 17.45000 22.34700
C  -1.43800 15.92200 22.52500
C  -1.71100 15.79700 23.99900
C  -3.03600 17.80700 21.51500
C  0.00800 15.65800 22.29100
C  1.18000 16.57500 22.83900
N  -2.15100 15.43300 26.95400
C  -1.98700 14.38200 26.00500
C  -2.02700 13.09900 26.70400
C  -2.07400 13.45000 28.04400
C  -2.23900 14.87000 28.18300
C  -2.07000 11.76900 26.17700
C  -2.14900 12.89000 29.39700
O  -2.16500 11.73500 29.73700
C  -2.23200 14.09200 30.32600
C  -1.07400 14.03700 31.29700
O  0.04300 14.52800 31.08700
O  -1.49700 13.33500 32.43500
C  -0.50100 13.40000 33.51100
H  -2.91800 20.99400 29.55100
H  -1.81400 19.91200 23.13300
H  -1.87200 13.67500 24.01900
H  -3.81300 16.92800 31.54800
H  -2.19600 19.46200 31.54600
H  -4.98300 19.57600 30.68800
H  -4.05300 20.34800 32.01500
H  -4.76700 18.85100 32.31400
H  -0.74300 17.23900 32.29600
H  -1.80700 15.90400 32.71500
H  -2.86300 18.27300 33.76400
H  -1.04900 18.35700 34.15200
H  -3.91400 23.22800 27.33100
H  -2.18100 23.88800 27.46600
H  -2.91900 22.86300 28.68500
H  -1.80800 24.54700 24.89500
H  -3.53900 24.14700 25.26600
H  -3.17800 24.41400 23.70300
H  -0.89800 17.95700 21.87100
H  -2.04800 15.20800 21.97200
H  -3.61500 18.50700 22.11700
H  -3.64800 16.96500 21.19200
H  -2.74800 18.37200 20.62900
H  0.15300 15.50500 21.22200
H  0.26200 14.73400 22.81000
H  0.91500 17.46400 23.41200
H  1.77500 17.01000 22.03600
H  1.89400 16.06800 23.48800
H  -1.48100 11.04300 26.73800
H  -2.07000 11.65800 25.09300
H  -3.08300 11.42600 26.39000
H  -3.16800 14.02600 30.88000
H  0.48600 13.02800 33.23900
H  -0.70100 12.75800 34.36900
H  -0.38100 14.43700 33.82500
Mg -12.92900 38.38600 42.23300
C  -11.68700 35.41100 40.85300
C  -10.32200 40.15000 40.64900
C  -14.48500 41.47500 42.79000
C  -15.49600 36.73800 43.56900
N  -11.22200 37.80700 40.79500
C  -10.89200 36.52000 40.46200
C  -9.56100 36.50100 39.66500
C  -9.04700 37.99100 39.78100
C  -10.19400 38.71500 40.56000
C  -7.69500 38.07700 40.48400
C  -9.84700 35.96800 38.18400
C  -8.79400 34.94200 37.84600
H  -7.64200 35.53900 36.89700
N  -12.47500 40.53700 41.79500
C  -11.36300 40.99000 41.15300
C  -11.36100 42.38700 41.16700
C  -12.56900 42.80400 41.68200
C  -13.28300 41.59600 42.13500
C  -10.23200 43.25800 40.60900
C  -13.07200 44.30900 41.79100
O  -12.40300 45.22900 41.38700
C  -14.29900 44.67300 42.50800
N  -14.78400 39.02300 42.81200
C  -15.02600 40.27200 43.24800
C  -16.30400 40.30700 44.16700
C  -16.49700 38.80200 44.51000
C  -15.49700 38.10700 43.59500
C  -16.24500 41.29100 45.37700
C  -17.93100 38.26200 44.25000
C  -19.11800 39.04800 44.94300
N  -13.58800 36.43800 42.23300
C  -14.60900 35.88300 42.90500
C  -14.62700 34.40200 42.66600
C  -13.39100 34.24800 41.96300
C  -12.88300 35.47600 41.63200
C  -15.69000 33.40600 42.92700
C  -12.51800 33.25600 41.38200
O  -12.62000 32.05200 41.53900
C  -11.38400 33.95700 40.52000
C  -10.10200 33.43800 41.01200
O  -9.48900 32.51400 40.48500
O  -9.73700 33.98000 42.26300
C  -8.73600 33.13500 42.94400
H  -9.43800 40.59800 40.19100
H  -15.08600 42.29100 43.19600
H  -16.28100 36.15600 44.05600
H  -8.93600 35.82800 40.25100
H  -8.94100 38.40300 38.77700
H  -7.11100 37.16600 40.35300
H  -7.83800 38.16200 41.56100
H  -7.14700 38.93600 40.09600
H  -9.72200 36.76200 37.44800
H  -10.83400 35.50800 38.14000
H  -9.31800 34.18300 37.26500
H  -8.29000 34.53600 38.72300
H  -9.28700 42.72900 40.48700
H  -9.96000 43.95900 41.39800
H  -10.51200 43.86500 39.74700
H  -15.11100 44.05300 42.12800
H  -14.54900 45.72900 42.40200
H  -14.23000 44.46400 43.57600
H  -17.06500 40.80400 43.56500
H  -16.23700 38.65000 45.55700
H  -16.58200 42.29200 45.10600
H  -15.25300 41.25200 45.82700
H  -16.89800 40.99700 46.19900
H  -17.99600 37.26300 44.68100
H  -18.02100 38.14900 43.17000
H  -18.72400 39.78400 45.64500
H  -19.78300 38.43200 45.54800
H  -19.76200 39.45300 44.16200
H  -16.39100 33.52900 42.10200
H  -16.02600 33.67600 43.92800
H  -15.25100 32.41000 42.86600
H  -11.32600 33.64000 39.47800
H  -8.55800 33.75700 43.82000
H  -7.80600 32.96100 42.40300
H  -9.19800 32.17100 43.15900

