158

Mg -2.55600 17.74100 26.73600
C  -3.02100 15.71400 29.66200
C  -3.23900 20.46200 28.62400
C  -2.46200 19.51600 23.90300
C  -2.57900 14.78100 24.83400
N  -3.10900 18.04100 28.92200
C  -3.12200 17.09400 29.91100
C  -3.23800 17.90100 31.21300
C  -3.73900 19.32000 30.84100
C  -3.39700 19.28200 29.36000
C  -5.24400 19.66500 30.95100
C  -1.92700 18.02800 32.06200
C  -2.26200 18.46400 33.56200
H  -1.64600 17.59000 34.69700
N  -2.69400 19.76600 26.27500
C  -2.91000 20.71400 27.19500
C  -2.89600 22.01800 26.50600
C  -2.60500 21.74400 25.16700
C  -2.58800 20.30700 25.06100
C  -3.08900 23.33700 27.12500
C  -2.28000 22.66000 24.01800
O  -2.09100 22.27900 22.89200
C  -2.22800 24.09900 24.16300
N  -2.21000 17.25600 24.74300
C  -2.38500 18.12800 23.76600
C  -2.34300 17.48100 22.36500
C  -2.03800 16.01700 22.70700
C  -2.31700 15.98600 24.23700
C  -3.65000 17.77400 21.53400
C  -0.54200 15.58600 22.40200
C  0.60900 16.46500 22.98300
N  -2.77900 15.63800 27.11500
C  -2.70500 14.56000 26.23600
C  -2.80600 13.35900 26.93400
C  -2.90200 13.75600 28.29700
C  -2.90500 15.14400 28.37400
C  -2.80600 11.95500 26.35500
C  -3.10500 13.25700 29.65500
O  -3.22700 12.11900 30.07900
C  -3.19100 14.54600 30.58200
C  -2.20100 14.27500 31.63700
O  -1.01600 14.52700 31.56300
O  -2.73600 13.47200 32.64400
C  -1.78000 12.92100 33.61700
H  -3.38000 21.37900 29.19900
H  -2.43600 20.05100 22.95100
H  -2.43700 13.92000 24.17800
H  -3.97900 17.34300 31.78500
H  -3.11500 20.04300 31.36600
H  -5.76500 18.75100 31.23400
H  -5.66600 19.79800 29.95500
H  -5.53200 20.53600 31.54200
H  -1.32900 18.86500 31.70000
H  -1.43200 17.06400 31.94700
H  -3.34100 18.49100 33.71500
H  -1.91600 19.47100 33.79500
H  -3.31500 23.21100 28.18400
H  -3.93800 23.85800 26.68300
H  -2.19600 23.93400 26.94000
H  -1.37100 24.17500 24.83200
H  -3.18700 24.48800 24.50400
H  -1.91200 24.57300 23.23400
H  -1.50700 17.98600 21.88000
H  -2.75600 15.40400 22.16000
H  -4.24500 16.86500 21.62000
H  -3.42600 17.93700 20.48000
H  -4.24500 18.55200 22.01200
H  -0.27300 15.54200 21.34700
H  -0.42900 14.56500 22.76600
H  1.33500 16.79400 22.23900
H  1.00600 15.80600 23.75500
H  0.21600 17.30700 23.55300
H  -2.37000 11.97600 25.35600
H  -3.87300 11.75800 26.24200
H  -2.25300 11.29600 27.02400
H  -4.13900 14.66800 31.10600
H  -0.82700 12.66600 33.15300
H  -2.25800 12.07400 34.10800
H  -1.54000 13.63300 34.40700
Mg -0.14300 7.36800 26.70200
C  0.36600 9.84500 29.22800
C  -0.19700 5.08800 29.21900
C  -0.03600 5.14600 24.34000
C  0.09000 10.03900 24.27100
N  0.20600 7.44200 28.91000
C  0.29000 8.54200 29.70800
C  0.41800 8.14000 31.22100
C  0.51600 6.58400 31.16500
C  0.04100 6.36300 29.68400
C  2.00300 6.12700 31.49500
C  -0.76800 8.66900 32.12800
C  -0.40500 9.23300 33.51400
H  -0.84800 8.64500 34.85600
N  -0.23100 5.35700 26.74700
C  -0.24400 4.58700 27.87700
C  -0.49700 3.22000 27.46500
C  -0.33800 3.15300 26.07100
C  -0.20300 4.60100 25.66900
C  -0.68900 2.03100 28.50500
C  -0.51800 1.97000 25.06900
O  -0.35500 2.11200 23.88200
C  -0.71900 0.61200 25.52400
N  0.27200 7.54800 24.55900
C  0.12000 6.49100 23.81000
C  0.12400 6.88400 22.36100
C  -0.36800 8.40000 22.34000
C  -0.02600 8.67100 23.79600
C  1.42500 6.62200 21.60400
C  -1.87700 8.60700 22.02200
C  -2.27500 9.90600 21.40600
N  0.16900 9.50800 26.68000
C  0.26000 10.45400 25.63200
C  0.48100 11.82200 26.11600
C  0.40300 11.58900 27.53400
C  0.37500 10.21800 27.83300
C  0.54200 13.15000 25.38900
C  0.54200 12.28800 28.81300
O  0.68300 13.48600 29.09500
C  0.40500 11.16000 29.93100
C  1.57500 11.20600 30.83000
O  2.75000 11.03300 30.67200
O  1.05400 11.50900 32.07400
C  2.10900 11.84500 33.04400
H  -0.34100 4.35100 30.01100
H  -0.08400 4.43700 23.51100
H  0.07200 10.85700 23.54900
H  1.29900 8.69500 31.54100
H  -0.11800 6.17700 31.95300
H  2.42200 5.55700 30.66600
H  2.03400 5.47500 32.36700
H  2.73200 6.88400 31.78400
H  -1.56100 7.92200 32.12000
H  -1.22300 9.51600 31.61300
H  -0.71100 10.27900 33.46900
H  0.68100 9.30300 33.44300
H  -1.38000 1.30700 28.07300
H  -1.04200 2.19100 29.52400
H  0.31400 1.62800 28.64200
H  -1.79000 0.51800 25.70300
H  0.00600 0.33700 26.28900
H  -0.46800 -0.03500 24.68400
H  -0.65700 6.24400 21.95000
H  0.27100 9.01400 21.70600
H  1.92600 5.87300 22.21800
H  2.04300 7.51000 21.47100
H  1.18000 6.16700 20.64400
H  -2.35900 8.55200 22.99700
H  -2.12600 7.81200 21.31900
H  -3.08400 10.31300 22.01300
H  -2.78300 9.71000 20.46200
H  -1.49700 10.63000 21.16900
H  0.78800 14.00400 26.02000
H  -0.26800 13.36900 24.69200
H  1.43000 13.13200 24.75700
H  -0.43000 11.45000 30.56900
H  2.70200 12.68500 32.68200
H  2.67100 10.93200 33.24100
H  1.66100 12.22800 33.96000

