158

Mg 1.74400 -0.93600 44.07400
C  5.21100 -0.19400 43.38000
C  1.00600 1.74100 42.06300
C  -1.41100 -1.91800 44.30300
C  2.85000 -3.91200 45.63500
N  3.01200 0.51100 42.70100
C  4.32700 0.69700 42.73900
C  4.74900 1.94800 41.85900
C  3.38300 2.63600 41.66000
C  2.40800 1.59400 42.24000
C  3.14500 4.03500 42.38500
C  5.57200 1.72500 40.51000
C  6.47800 2.90500 40.06900
H  6.31100 3.57500 38.70100
N  0.00000 -0.15000 43.31900
C  -0.11200 0.91400 42.52300
C  -1.57900 1.20900 42.35700
C  -2.32400 0.14100 42.98400
C  -1.22800 -0.66300 43.60300
C  -2.11100 2.41800 41.63600
C  -3.76200 0.02100 42.99300
O  -4.46200 0.78600 42.27900
C  -4.53200 -0.97800 43.86500
N  0.85300 -2.69600 44.84200
C  -0.52400 -2.85400 44.88000
C  -0.97400 -4.07900 45.62500
C  0.40000 -4.68900 46.07300
C  1.47100 -3.75300 45.52700
C  -1.94100 -3.91100 46.81000
C  0.63200 -6.21000 45.71900
C  0.72100 -7.06100 47.07000
N  3.63700 -2.00100 44.37800
C  3.93700 -3.19100 45.04700
C  5.35200 -3.39000 45.20200
C  5.90000 -2.17800 44.58900
C  4.77400 -1.34000 44.15600
C  6.04200 -4.51000 45.84100
C  7.13300 -1.48700 44.35900
O  8.32300 -1.74400 44.70500
C  6.72500 -0.23100 43.48200
C  7.19800 0.97000 44.17900
O  6.82500 1.33400 45.29900
O  8.14200 1.64300 43.56700
C  8.72600 2.82500 44.15000
H  0.73700 2.62800 41.48500
H  -2.48500 -2.00900 44.48000
H  3.15500 -4.80500 46.18500
H  5.35600 2.54400 42.54100
H  3.32000 2.82200 40.58700
H  4.05900 4.31700 42.90800
H  2.29700 4.05300 43.06900
H  2.95000 4.80900 41.64200
H  4.88500 1.55500 39.68100
H  6.24400 0.86800 40.56200
H  7.49600 2.51600 40.08400
H  6.29900 3.69000 40.80300
H  -2.66100 2.20200 40.72000
H  -1.44300 3.26500 41.48000
H  -2.84800 2.85800 42.30800
H  -5.60600 -0.79600 43.89100
H  -4.19300 -0.79400 44.88500
H  -4.33200 -1.95800 43.43400
H  -1.36000 -4.75800 44.86500
H  0.59200 -4.49300 47.12800
H  -2.31300 -2.89800 46.66100
H  -1.44500 -4.19600 47.73800
H  -2.86300 -4.45800 46.61100
H  1.54500 -6.30900 45.13200
H  -0.03000 -6.52800 44.91300
H  1.59700 -7.69200 47.22000
H  -0.18400 -7.66800 47.04600
H  0.55900 -6.43700 47.94900
H  6.55000 -4.99900 45.01000
H  5.42500 -5.24400 46.35800
H  6.76900 -4.04200 46.50600
H  7.31800 -0.21600 42.56700
H  9.76200 2.53600 44.32500
H  8.18400 3.21600 45.01000
H  8.60700 3.67400 43.47700
Mg 46.66200 3.64900 48.10200
C  45.10400 6.69800 47.12000
C  43.62500 2.00200 47.46000
C  48.17000 0.65500 48.46200
C  49.61900 5.29600 48.16400
N  44.62200 4.29400 47.31700
C  44.23700 5.57900 46.96500
C  42.74400 5.65100 46.50300
C  42.23900 4.17600 46.80900
C  43.58900 3.42500 47.24400
C  41.09700 4.10000 47.89400
C  42.67400 6.13700 44.99000
C  41.97600 7.54700 44.64400
H  40.80200 7.44100 43.70800
N  46.01100 1.56500 47.97200
C  44.72500 1.13000 47.72800
C  44.71400 -0.33300 47.72900
C  46.00000 -0.72400 48.03700
C  46.84300 0.47500 48.12000
C  43.45800 -1.20800 47.53900
C  46.48700 -2.17200 48.25700
O  45.76300 -3.08400 47.97800
C  47.82500 -2.65900 48.76900
N  48.52500 3.00000 48.18100
C  48.97800 1.77900 48.48800
C  50.39000 1.73900 48.89100
C  50.89200 3.16000 48.63500
C  49.62300 3.92800 48.26900
C  50.63900 1.14300 50.27600
C  51.98700 3.25300 47.45000
C  51.33600 3.36000 46.03000
N  47.22000 5.62400 47.85700
C  48.54200 6.15300 47.99300
C  48.54700 7.55500 47.82300
C  47.19600 7.88100 47.49800
C  46.42700 6.64200 47.48200
C  49.80200 8.46100 47.93500
C  46.21200 8.94100 47.16400
O  46.33500 10.13200 47.03800
C  44.89000 8.18200 46.84200
C  43.84400 8.71000 47.74600
O  43.56500 8.25700 48.88400
O  43.16000 9.73600 47.14700
C  42.10400 10.49500 47.88100
H  42.63800 1.53700 47.40800
H  48.75300 -0.24000 48.69100
H  50.60300 5.75900 48.25700
H  42.26600 6.41100 47.12200
H  41.93100 3.70200 45.87700
H  41.58800 3.68600 48.77500
H  40.46800 3.29700 47.51000
H  40.49600 5.00000 48.02400
H  42.13700 5.34500 44.46600
H  43.64300 6.24900 44.50400
H  42.78100 8.08000 44.13700
H  41.71100 8.13200 45.52400
H  42.85800 -1.39800 48.43000
H  43.69500 -2.17800 47.10200
H  42.91600 -0.71600 46.73100
H  48.23400 -2.08200 49.59800
H  48.56200 -2.54600 47.97400
H  47.74200 -3.72200 48.99700
H  50.79400 1.05600 48.14400
H  51.30100 3.65900 49.51300
H  50.72400 0.07000 50.10800
H  49.74300 1.35100 50.86200
H  51.56800 1.44800 50.75800
H  52.75300 2.47800 47.47200
H  52.41600 4.24900 47.55300
H  50.45500 2.71900 46.06400
H  51.99300 2.98000 45.24700
H  50.99500 4.37600 45.82800
H  49.51400 9.42900 48.34500
H  50.06100 8.65700 46.89500
H  50.65100 8.03800 48.47300
H  44.57900 8.28200 45.80200
H  41.37300 9.81200 48.31400
H  41.48800 11.14000 47.25400
H  42.59400 10.98900 48.72100

