158

Mg 16.76600 -0.79000 27.43300
C  15.79900 1.23600 30.13300
C  19.03600 -2.36500 29.55300
C  18.04000 -2.31300 24.74500
C  14.86700 1.38100 25.35300
N  17.31800 -0.57300 29.60900
C  16.69300 0.23500 30.48800
C  17.28400 0.01500 31.82300
C  18.43600 -1.00200 31.59400
C  18.30900 -1.29100 30.13000
C  19.90900 -0.66000 32.06600
C  16.20200 -0.51700 32.84500
C  16.29000 0.17600 34.26500
H  17.74500 0.48300 34.72000
N  18.22700 -2.27100 27.18800
C  18.95500 -2.88400 28.17700
C  19.80400 -3.82600 27.58500
C  19.56700 -3.89100 26.19900
C  18.55800 -2.84500 25.96700
C  20.82600 -4.67800 28.53000
C  20.17700 -4.72900 25.15900
O  19.85500 -4.59400 23.98700
C  21.14200 -5.88600 25.52700
N  16.58000 -0.44500 25.34300
C  17.17500 -1.18100 24.44900
C  16.80800 -0.77800 22.97200
C  15.79400 0.35900 23.23500
C  15.69200 0.43100 24.73500
C  18.09500 -0.33300 22.21600
C  14.45900 0.21300 22.46500
C  13.45500 -0.66400 23.21900
N  15.44400 0.86200 27.64100
C  14.72500 1.62900 26.71200
C  14.02700 2.63600 27.39100
C  14.35500 2.46400 28.73300
C  15.31900 1.46500 28.80500
C  13.14200 3.73400 26.79400
C  14.09200 2.99900 30.00700
O  13.30900 3.82900 30.48500
C  15.09500 2.22200 31.02300
C  16.03700 3.08300 31.82100
O  17.19400 3.30000 31.53700
O  15.42300 3.51700 32.95100
C  16.27000 4.29800 33.96100
H  19.63200 -2.94600 30.25900
H  18.38900 -2.89300 23.88800
H  14.22900 1.92800 24.65700
H  17.82500 0.89400 32.17300
H  18.23400 -1.93500 32.11900
H  20.14500 -1.49400 32.72500
H  19.82000 0.31900 32.53700
H  20.60600 -0.62300 31.22800
H  16.10100 -1.59100 33.00100
H  15.26900 -0.09900 32.46600
H  15.79900 -0.33000 35.09600
H  15.70500 1.09200 34.17400
H  20.91200 -4.34100 29.56300
H  21.80800 -4.69700 28.05900
H  20.31000 -5.63800 28.54700
H  22.03100 -5.41300 25.94400
H  21.38800 -6.55300 24.70200
H  20.56200 -6.45100 26.25700
H  16.32200 -1.63600 22.50800
H  16.28500 1.25300 22.85100
H  18.30600 -1.03400 21.40900
H  18.99400 -0.21800 22.82200
H  18.06400 0.58000 21.62200
H  14.81200 -0.25600 21.54700
H  14.01300 1.14900 22.13000
H  13.69300 -1.01600 24.22300
H  13.19300 -1.49900 22.57000
H  12.56300 -0.05100 23.34600
H  12.30600 3.17200 26.37800
H  13.72800 4.16600 25.98300
H  12.83100 4.43600 27.56800
H  14.49800 1.71600 31.78200
H  15.67500 5.17400 34.22000
H  17.20400 4.63500 33.51100
H  16.38400 3.76100 34.90300
Mg 48.15000 15.95100 28.49100
C  46.06300 15.72800 31.32100
C  50.40800 17.61700 30.38300
C  49.71800 16.65100 25.67800
C  45.30500 15.02500 26.58400
N  48.19500 16.70600 30.55100
C  47.29200 16.39900 31.58700
C  47.85700 16.93500 32.91700
C  49.05400 17.84500 32.49300
C  49.23100 17.44600 31.06400
C  48.94100 19.37300 32.84300
C  48.25000 15.79600 33.80300
C  47.83100 15.96400 35.31600
H  47.46300 17.41200 35.80300
N  49.93400 16.87600 28.06200
C  50.79600 17.43700 29.02600
C  52.00500 17.88700 28.28100
C  51.87300 17.44900 26.92100
C  50.44900 16.97700 26.86200
C  53.13000 18.72200 28.92100
C  52.76900 17.39600 25.76200
O  52.48100 16.95100 24.69500
C  54.26200 17.68600 26.01400
N  47.61500 15.70300 26.44700
C  48.48300 16.01600 25.49100
C  47.91000 15.80000 24.08700
C  46.57200 15.10000 24.34500
C  46.48400 15.32200 25.87000
C  47.77300 17.01700 23.03700
C  46.57900 13.56700 24.00600
C  47.43400 12.61000 24.89200
N  46.12300 15.30100 28.81100
C  45.12700 14.98100 28.01100
C  43.98100 14.42900 28.76400
C  44.31700 14.68800 30.07000
C  45.59400 15.29300 30.02300
C  42.86700 13.64700 28.19500
C  43.88700 14.60800 31.43400
O  42.86600 14.11300 31.93100
C  44.94200 15.40900 32.25400
C  44.21300 16.53400 32.94700
O  43.80100 17.55400 32.45700
O  44.08000 16.26400 34.30100
C  43.18700 17.16900 35.01200
H  51.14700 18.10300 31.02400
H  50.09800 16.91300 24.68800
H  44.54800 14.68200 25.87500
H  47.00500 17.49400 33.30400
H  49.99900 17.69900 33.01600
H  49.10700 20.00600 31.97100
H  49.57200 19.59400 33.70400
H  47.90900 19.53600 33.15300
H  49.33900 15.78300 33.77600
H  47.98000 14.86600 33.30300
H  48.69600 15.61800 35.88200
H  47.04700 15.23200 35.51200
H  53.33900 19.53200 28.22200
H  53.95400 18.07000 29.21200
H  52.65000 19.04500 29.84500
H  54.68800 17.44600 26.98800
H  54.33500 18.76200 25.85400
H  54.90900 17.30500 25.22400
H  48.57300 15.10600 23.57000
H  45.74200 15.54300 23.79500
H  48.20100 17.95900 23.38100
H  46.73600 17.19600 22.75200
H  48.26700 16.66400 22.13200
H  47.01500 13.57000 23.00700
H  45.55800 13.20300 23.89100
H  47.86400 11.97700 24.11600
H  46.89200 11.92100 25.54000
H  48.32400 12.94800 25.42300
H  43.35500 12.69700 27.97800
H  42.63600 14.07300 27.21800
H  41.97900 13.44000 28.79300
H  45.48600 14.83500 33.00400
H  42.43700 17.52600 34.30700
H  43.86500 17.90400 35.44600
H  42.66500 16.64200 35.81100

