158

Mg -1.37200 17.67400 27.23700
C  -2.00100 15.31100 29.79700
C  -1.31000 20.13800 29.57800
C  -1.16700 19.73300 24.72900
C  -2.35300 15.10100 25.06200
N  -1.61600 17.71600 29.43800
C  -1.86900 16.64700 30.27000
C  -1.89200 17.10500 31.75200
C  -1.95800 18.66200 31.58500
C  -1.55200 18.90000 30.10500
C  -3.32800 19.42100 31.79600
C  -0.69200 16.53600 32.53700
C  -0.20000 17.24400 33.81800
H  -0.09200 16.42700 35.12900
N  -1.18900 19.70700 27.11400
C  -1.14800 20.52400 28.18600
C  -0.94000 21.90800 27.68900
C  -0.86800 21.89600 26.28700
C  -1.16200 20.40600 25.94800
C  -0.85600 23.05900 28.71300
C  -0.85800 22.97200 25.31700
O  -0.87300 22.79200 24.10400
C  -0.81800 24.44100 25.77400
N  -1.64400 17.46600 25.22200
C  -1.47700 18.42800 24.34700
C  -1.68100 18.01600 22.87000
C  -1.84400 16.45500 22.97600
C  -1.97200 16.32200 24.49600
C  -2.81100 18.68400 22.10600
C  -0.63300 15.64400 22.45600
C  0.86000 15.91400 22.88200
N  -1.91600 15.62400 27.31400
C  -2.25000 14.72700 26.33200
C  -2.37600 13.39400 26.83100
C  -2.28400 13.59600 28.21100
C  -2.05000 14.94100 28.47600
C  -2.79300 12.25900 25.96100
C  -2.33500 12.90400 29.43700
O  -2.33200 11.69000 29.65300
C  -2.25300 13.98400 30.55600
C  -1.15400 13.51300 31.38100
O  0.04600 13.72300 31.22900
O  -1.68100 12.89200 32.44600
C  -0.67000 12.28300 33.38100
H  -1.21500 20.96400 30.28500
H  -1.03600 20.28400 23.79500
H  -2.48500 14.39300 24.24200
H  -2.87500 16.84800 32.14500
H  -1.14700 19.19600 32.08100
H  -3.99200 19.29700 30.94000
H  -3.08200 20.43700 32.10400
H  -3.86500 18.86700 32.56700
H  0.19000 16.28700 31.94500
H  -1.23500 15.65800 32.88600
H  -0.98000 17.97900 34.01400
H  0.64100 17.93000 33.72400
H  -1.33300 23.90500 28.21900
H  0.15300 23.33500 29.02000
H  -1.36100 22.85000 29.65600
H  -1.73500 24.78700 26.25000
H  -0.69200 25.25100 25.05500
H  0.07100 24.33700 26.39600
H  -0.78000 18.20900 22.28700
H  -2.77700 16.15100 22.50200
H  -2.37400 19.28700 21.31100
H  -3.40300 19.25500 22.82100
H  -3.50000 17.95600 21.67600
H  -0.69100 15.62800 21.36700
H  -0.74400 14.63900 22.86300
H  1.38500 15.00300 23.17000
H  0.96500 16.74000 23.58600
H  1.33000 16.18000 21.93500
H  -2.07500 12.27300 25.14100
H  -3.78600 12.27500 25.51100
H  -2.66500 11.30300 26.46900
H  -3.22600 13.83500 31.02300
H  0.28900 12.06200 32.91300
H  -1.00700 11.30900 33.73600
H  -0.60100 12.85700 34.30500
Mg -11.21300 38.16800 42.60800
C  -8.95000 35.46400 42.21100
C  -9.00400 40.32200 41.08500
C  -13.67500 40.44900 42.29700
C  -13.58500 35.74200 43.68100
N  -9.22300 37.82200 41.57700
C  -8.52900 36.65600 41.56700
C  -7.29000 36.84400 40.69600
C  -7.16500 38.46500 40.58400
C  -8.50400 38.96900 41.15000
C  -5.84600 39.03900 41.08300
C  -7.34100 36.14100 39.28400
C  -6.20000 35.05700 39.10100
H  -5.12200 35.58800 38.16600
N  -11.24900 40.10500 42.06500
C  -10.24900 40.83000 41.46800
C  -10.67800 42.17700 41.25000
C  -12.05100 42.29400 41.55100
C  -12.41100 40.91300 42.00000
C  -9.70000 43.14700 40.71900
C  -12.91300 43.54200 41.34800
O  -12.36500 44.53900 40.91200
C  -14.38200 43.62900 41.68800
N  -13.33500 38.09500 42.86300
C  -14.13000 39.13300 42.67800
C  -15.65600 38.76900 43.00000
C  -15.50100 37.25000 43.35300
C  -14.01300 37.02000 43.41300
C  -16.35800 39.69500 44.11000
C  -16.14000 36.23700 42.41900
C  -16.79800 34.96600 42.97200
N  -11.28200 36.00100 42.92200
C  -12.29500 35.19300 43.43900
C  -11.81900 33.77100 43.48400
C  -10.45300 33.93800 43.15400
C  -10.20100 35.27000 42.77800
C  -12.59700 32.56000 43.99100
C  -9.15400 33.23000 43.00200
O  -8.84300 32.09800 43.28000
C  -8.19600 34.13500 42.29000
C  -6.89100 34.22100 43.00800
O  -6.04300 33.35500 42.91200
O  -6.63700 35.49200 43.56600
C  -5.29400 35.66000 44.21600
H  -8.22500 40.98900 40.71000
H  -14.46800 41.19900 42.25900
H  -14.33200 34.99700 43.96300
H  -6.40400 36.56900 41.26800
H  -7.11700 38.71600 39.52400
H  -5.10100 39.18300 40.30000
H  -5.33100 38.41200 41.81000
H  -6.02600 39.95500 41.64600
H  -7.43500 36.79000 38.41300
H  -8.22000 35.50300 39.19000
H  -6.51100 34.08600 38.71500
H  -5.79400 34.82800 40.08600
H  -9.62400 42.82000 39.68200
H  -8.73500 43.01200 41.20700
H  -10.07100 44.16100 40.86800
H  -14.51800 43.61500 42.76900
H  -15.04700 42.88300 41.25300
H  -14.73000 44.58900 41.30700
H  -16.22500 38.76400 42.07100
H  -15.94600 37.02000 44.32100
H  -17.24700 40.24900 43.80900
H  -15.74300 40.55300 44.38100
H  -16.44900 38.97400 44.92200
H  -15.39500 35.78100 41.76600
H  -16.96800 36.67400 41.86200
H  -17.86200 35.04800 42.74800
H  -16.68600 34.87600 44.05200
H  -16.34400 34.10600 42.48000
H  -12.70400 31.82600 43.19300
H  -13.61400 32.93100 44.11900
H  -12.09900 32.13800 44.86400
H  -8.00700 33.69800 41.31000
H  -4.50900 35.65500 43.45900
H  -5.15100 34.84900 44.92900
H  -5.33700 36.60800 44.75300

