158

Mg 35.29900 48.48900 24.80200
C  35.53100 46.86400 27.88700
C  33.57700 50.95100 26.33500
C  34.82800 49.82000 21.78300
C  36.34500 45.52300 23.19800
N  34.54700 48.83000 26.89600
C  34.96400 48.11500 28.00500
C  34.71600 48.94900 29.34200
C  33.92000 50.13800 28.83400
C  33.95600 49.98700 27.26000
C  32.48000 50.06600 29.32400
C  35.98400 49.38600 30.05400
C  36.02400 49.66600 31.55000
H  34.72600 49.47800 32.39700
N  34.43000 50.24300 24.13900
C  33.80000 51.11400 24.93300
C  33.35200 52.22000 24.11300
C  33.61200 51.84700 22.76400
C  34.38200 50.62500 22.84500
C  32.63800 53.46900 24.66200
C  33.03000 52.41600 21.45100
O  33.23200 51.85200 20.36700
C  32.25600 53.73700 21.47100
N  35.46700 47.70600 22.85000
C  35.28300 48.50800 21.74100
C  35.70200 47.85100 20.41800
C  36.57600 46.65400 20.98800
C  36.07900 46.55400 22.44000
C  34.56300 47.31500 19.54100
C  38.15700 46.78800 20.82200
C  38.76500 46.53100 19.42700
N  35.80400 46.51900 25.41100
C  36.27600 45.46200 24.68900
C  36.61500 44.41600 25.58700
C  36.38500 44.92100 26.85200
C  35.81600 46.17100 26.71800
C  37.12800 43.07400 25.23800
C  36.49700 44.59100 28.28600
O  36.85700 43.57500 28.80500
C  35.92100 45.93200 29.00400
C  34.70500 45.40500 29.81300
O  33.74800 44.88300 29.28800
O  34.89400 45.54500 31.21300
C  34.04100 44.96500 32.13500
H  32.89400 51.72300 26.69600
H  34.83600 50.37000 20.83900
H  36.83500 44.67900 22.70900
H  34.16400 48.50400 30.16900
H  34.36300 51.09300 29.11500
H  32.34200 50.69400 30.20400
H  32.09300 49.11800 29.69900
H  31.81400 50.43200 28.54300
H  36.41600 50.19000 29.45800
H  36.58800 48.49400 29.88200
H  36.32600 50.70900 31.64300
H  36.73500 48.92800 31.92200
H  31.55400 53.35300 24.63300
H  32.98100 54.39400 24.19700
H  32.93700 53.59000 25.70300
H  32.90500 54.53400 21.83700
H  31.33100 53.78200 22.04600
H  32.16800 54.01300 20.42000
H  36.30900 48.60700 19.91900
H  36.17400 45.79400 20.45100
H  34.44400 47.96700 18.67500
H  33.59800 47.46800 20.02500
H  34.73700 46.30700 19.16300
H  38.50100 45.93000 21.40000
H  38.55100 47.67400 21.31900
H  37.99300 46.40600 18.66700
H  39.38300 45.63300 19.44300
H  39.49000 47.32200 19.23500
H  37.94200 42.91200 25.94400
H  37.50600 42.96500 24.22100
H  36.43100 42.27600 25.49300
H  36.71900 46.30100 29.64900
H  33.17500 44.49600 31.66800
H  33.70000 45.77500 32.78000
H  34.56500 44.25300 32.77200
Mg -4.73400 25.77200 26.23100
C  -3.34100 27.39800 28.80200
C  -6.70200 23.88100 28.38400
C  -5.62700 23.73100 23.64700
C  -2.74600 27.52000 23.94300
N  -4.93200 25.55200 28.38100
C  -4.33900 26.48500 29.25700
C  -4.69600 26.06000 30.71600
C  -5.59600 24.80800 30.47900
C  -5.80200 24.79900 28.96600
C  -4.91800 23.44100 30.94900
C  -5.36700 27.15900 31.50900
C  -4.99200 27.22900 33.01100
H  -4.70800 25.95400 33.70600
N  -5.98800 24.01600 26.05600
C  -6.80200 23.49600 27.01200
C  -7.65900 22.45000 26.48100
C  -7.31100 22.31000 25.11800
C  -6.29900 23.37000 24.88600
C  -8.80000 21.81000 27.31200
C  -7.92000 21.35600 24.18800
O  -7.56500 21.38200 22.99000
C  -8.90000 20.34500 24.55900
N  -4.20900 25.62600 24.14500
C  -4.71600 24.73800 23.32300
C  -4.37600 25.02000 21.80200
C  -3.53900 26.32300 21.95600
C  -3.53200 26.51600 23.42400
C  -3.64200 23.79900 21.24000
C  -4.05100 27.55000 21.17000
C  -3.02000 28.06200 20.17900
N  -3.37200 27.25200 26.29500
C  -2.65400 27.91300 25.27700
C  -1.68900 28.76300 25.99600
C  -1.91100 28.55300 27.33500
C  -2.96600 27.64600 27.46200
C  -0.63000 29.65700 25.22800
C  -1.47700 28.95600 28.58100
O  -0.55200 29.67900 28.89500
C  -2.38200 28.25100 29.62700
C  -1.57000 27.41900 30.51100
O  -0.84400 26.57100 30.11600
O  -1.80500 27.66900 31.83600
C  -1.09400 26.73900 32.79900
H  -7.24700 23.28200 29.11700
H  -5.93700 23.11700 22.79900
H  -1.92000 27.94200 23.36700
H  -3.73300 25.71800 31.09300
H  -6.53700 24.90600 31.02000
H  -3.88100 23.64500 31.21400
H  -5.02900 22.66800 30.18800
H  -5.42900 23.08700 31.84400
H  -6.45300 27.07500 31.45700
H  -5.17400 28.11400 31.02000
H  -5.88900 27.67700 33.43800
H  -4.18300 27.93400 33.20100
H  -8.75400 20.72700 27.19000
H  -9.76800 22.23200 27.04600
H  -8.68400 21.87600 28.39400
H  -9.38200 19.88500 23.69600
H  -9.75700 20.86600 24.98600
H  -8.59100 19.59000 25.28200
H  -5.32500 25.21000 21.30000
H  -2.51400 26.12900 21.64000
H  -4.41200 23.12900 20.85500
H  -2.98800 23.46800 22.04600
H  -3.08000 24.06000 20.34300
H  -4.36200 28.34100 21.85200
H  -4.98900 27.29700 20.67500
H  -3.39800 28.80300 19.47400
H  -2.40100 27.32900 19.66000
H  -2.31500 28.56400 20.84200
H  -1.15400 30.54900 24.88400
H  -0.29200 29.15900 24.31900
H  0.13800 29.86500 25.97300
H  -2.99900 29.03600 30.06400
H  -0.91600 27.18100 33.78000
H  -0.09400 26.51700 32.42800
H  -1.78700 25.89800 32.78400

