158

Mg 53.77000 24.15200 44.64100
C  51.14800 26.39300 44.01700
C  51.98700 21.67200 43.00500
C  56.41800 22.30500 44.92200
C  55.72500 26.95700 45.69200
N  51.85800 24.10700 43.53900
C  51.04200 25.16600 43.30500
C  49.89500 24.77400 42.32100
C  50.13100 23.25100 42.22800
C  51.33700 22.97400 42.98000
C  48.94700 22.35500 42.48500
C  49.88400 25.55800 40.89200
C  51.26000 26.18200 40.53400
H  52.09400 25.48000 39.49600
N  54.16000 22.21900 43.99400
C  53.23800 21.30900 43.50100
C  53.90400 20.08700 43.38100
C  55.11300 20.16900 44.08600
C  55.32600 21.58900 44.27800
C  53.31700 18.88000 42.71000
C  56.09100 18.97100 44.50000
O  55.75300 17.82400 44.27200
C  57.43800 19.17400 45.17100
N  55.85200 24.62900 45.03300
C  56.71900 23.63800 45.18500
C  58.10200 24.02900 45.78300
C  57.88800 25.54900 45.98500
C  56.38400 25.74200 45.56400
C  58.68100 23.13300 46.97900
C  58.83700 26.45600 45.15600
C  60.25400 26.38400 45.52800
N  53.56000 26.19700 44.82100
C  54.37800 27.17500 45.48600
C  53.61100 28.36100 45.68500
C  52.34000 28.08700 45.30300
C  52.40100 26.75000 44.71500
C  54.02700 29.66200 46.49400
C  50.96000 28.55500 45.24000
O  50.44700 29.59700 45.57700
C  50.18600 27.51600 44.30300
C  49.72700 28.21600 43.05200
O  50.40700 28.83300 42.22600
O  48.33800 28.20500 43.01500
C  47.77300 28.88500 41.86200
H  51.33100 20.93100 42.54500
H  57.20300 21.63000 45.26900
H  56.25800 27.75400 46.21500
H  48.97600 24.96700 42.87500
H  50.27600 22.98000 41.18300
H  49.20400 21.65600 43.28000
H  48.80000 21.69500 41.63000
H  48.12700 22.92700 42.92000
H  49.22700 26.41800 41.02000
H  49.56300 24.94200 40.05200
H  51.96500 26.39900 41.33700
H  50.98000 27.15200 40.12300
H  52.53300 19.15900 42.00600
H  52.76600 18.21000 43.36900
H  53.99200 18.13000 42.29800
H  57.87400 18.18900 45.33300
H  57.11600 19.66400 46.09000
H  58.01500 19.83300 44.52200
H  58.84000 23.93500 44.98700
H  57.90600 25.80900 47.04300
H  59.21400 22.24200 46.64500
H  57.80200 22.91300 47.58400
H  59.34800 23.79100 47.53600
H  58.46100 27.47300 45.04700
H  58.81500 25.99000 44.17000
H  60.17600 25.94500 46.52300
H  60.80600 27.32200 45.47600
H  60.87200 25.65400 45.00500
H  53.68700 30.50200 45.88700
H  55.11500 29.72800 46.48200
H  53.66600 29.56300 47.51800
H  49.28400 27.19400 44.82500
H  48.31300 28.67900 40.93700
H  47.77200 29.96700 42.00000
H  46.72200 28.62600 41.73700
Mg -1.24000 34.28000 26.40400
C  -2.86600 32.54600 28.96800
C  0.35800 36.16200 28.77400
C  -0.08400 35.98900 23.88700
C  -3.17300 32.40000 24.16600
N  -1.41400 34.39400 28.70500
C  -2.06000 33.55400 29.57700
C  -1.77700 33.90000 31.03900
C  -0.92700 35.19200 30.90800
C  -0.62500 35.27900 29.33000
C  -1.58800 36.46100 31.51500
C  -0.97400 32.80100 31.82400
C  -1.47700 32.69900 33.33100
H  -0.40700 32.68200 34.43900
N  0.03400 35.74000 26.35500
C  0.62000 36.41100 27.39400
C  1.66100 37.27000 26.82400
C  1.61800 37.15200 25.40200
C  0.45400 36.27600 25.16500
C  2.53100 38.13100 27.71500
C  2.50800 37.73200 24.24400
O  2.37200 37.52500 23.08600
C  3.67200 38.53100 24.64300
N  -1.71700 34.26000 24.33700
C  -1.04200 35.05600 23.51000
C  -1.55000 34.90700 22.12900
C  -2.10100 33.42500 22.15900
C  -2.35100 33.36600 23.60000
C  -2.65300 36.01600 21.65700
C  -1.02000 32.33000 21.77700
C  -0.81600 32.22600 20.19300
N  -2.73000 32.82600 26.51700
C  -3.39200 32.12400 25.50600
C  -4.32800 31.22700 26.09600
C  -4.09500 31.21700 27.47000
C  -3.15600 32.34600 27.65300
C  -5.34200 30.37000 25.47600
C  -4.45800 30.73200 28.76500
O  -5.11100 29.78800 29.19100
C  -3.73200 31.62400 29.82500
C  -4.67800 32.27200 30.72500
O  -5.47000 33.18500 30.45100
O  -4.50400 31.71200 31.97000
C  -5.11700 32.50600 32.97500
H  0.91800 36.70900 29.53500
H  0.27400 36.52000 23.00200
H  -3.70200 31.81600 23.41000
H  -2.75400 34.04700 31.50100
H  0.09600 35.16100 31.28300
H  -2.55000 36.07700 31.85400
H  -1.85000 37.26500 30.82700
H  -1.01400 36.88500 32.33900
H  0.07100 33.08700 31.70600
H  -1.11200 31.79900 31.41700
H  -2.02900 31.78100 33.53100
H  -2.09800 33.57700 33.50800
H  2.38400 37.92500 28.77500
H  2.24800 39.16000 27.49600
H  3.54800 37.87800 27.41400
H  4.48900 37.87500 24.94400
H  3.43000 39.35800 25.31100
H  3.83300 39.02800 23.68600
H  -0.79200 34.80600 21.35200
H  -3.05600 33.55500 21.65100
H  -3.04100 36.44200 22.58200
H  -3.46100 35.54900 21.09400
H  -2.08900 36.76300 21.09800
H  -1.43000 31.36800 22.08400
H  -0.13800 32.67400 22.31600
H  -0.83100 31.22200 19.77000
H  0.11300 32.69800 19.87200
H  -1.55600 32.85600 19.69900
H  -5.21700 29.29000 25.55800
H  -5.55800 30.69300 24.45700
H  -6.31600 30.64000 25.88500
H  -3.14400 30.96400 30.46300
H  -4.75400 33.53400 32.97500
H  -5.07800 32.04100 33.96000
H  -6.19900 32.39200 32.90000

