158

Mg 8.04000 3.21100 27.11500
C  9.45400 1.65500 29.98000
C  6.20100 5.19500 29.43200
C  6.19400 4.32000 24.57500
C  9.43900 0.76800 25.13000
N  7.94900 3.50600 29.43800
C  8.66800 2.78100 30.37300
C  8.47100 3.26200 31.85200
C  7.41900 4.47700 31.61700
C  7.12600 4.36000 30.09700
C  6.17400 4.57500 32.50400
C  9.76300 3.69000 32.60800
C  9.72600 4.75000 33.72500
H  10.65400 4.54400 34.98700
N  6.54100 4.55100 27.03700
C  5.95800 5.35200 28.05200
C  5.09900 6.32300 27.45600
C  5.25500 6.20600 26.05800
C  6.02400 5.03000 25.84200
C  4.29800 7.27800 28.30400
C  4.70000 7.05400 24.93000
O  5.00600 6.93400 23.74400
C  3.82600 8.23200 25.28600
N  7.98700 2.67900 25.03800
C  7.08500 3.28800 24.20500
C  7.44200 2.84100 22.72000
C  8.62500 1.81100 22.87900
C  8.68300 1.72200 24.40400
C  6.28500 2.26500 21.87900
C  9.95800 2.21600 22.27200
C  10.92600 1.09300 21.94500
N  9.16100 1.56700 27.43300
C  9.64600 0.67600 26.53600
C  10.48200 -0.31800 27.25400
C  10.44800 0.07100 28.60800
C  9.66500 1.24600 28.65200
C  10.98200 -1.60900 26.73200
C  11.00600 -0.27600 29.92000
O  11.75200 -1.20700 30.24000
C  10.32600 0.80700 30.89800
C  9.55200 0.15100 31.94200
O  8.54300 -0.53900 31.71400
O  10.03500 0.44600 33.20200
C  9.27400 0.01400 34.41800
H  5.64900 5.82200 30.13500
H  5.56400 4.66000 23.75100
H  9.92200 -0.05300 24.59500
H  8.08200 2.38100 32.36300
H  7.89100 5.45300 31.72600
H  6.07300 5.54500 32.99100
H  6.28300 3.80200 33.26400
H  5.27900 4.32200 31.93500
H  10.36500 4.14500 31.82200
H  10.38100 2.87500 32.98500
H  8.73500 4.81600 34.17400
H  10.03600 5.69600 33.28000
H  4.00200 6.83600 29.25500
H  3.30100 7.30600 27.86400
H  4.81100 8.22700 28.46000
H  3.24700 8.41800 24.38200
H  4.33600 9.16500 25.52500
H  2.97100 8.16800 25.95900
H  7.67300 3.82300 22.30600
H  8.31700 0.82000 22.54600
H  5.41100 2.74000 22.32500
H  6.18200 1.18000 21.89100
H  6.31700 2.49000 20.81300
H  10.41500 2.96000 22.92400
H  9.68800 2.74800 21.36000
H  10.38800 0.14500 21.92200
H  11.69100 0.99200 22.71400
H  11.41400 1.23100 20.98000
H  10.44500 -1.92600 25.83800
H  10.95400 -2.45700 27.41700
H  12.02800 -1.36700 26.54400
H  11.18000 1.36700 31.27800
H  10.01900 -0.54900 34.98000
H  8.48500 -0.70500 34.19900
H  8.93400 0.87000 35.00200
Mg 46.32100 17.32400 29.10400
C  44.41600 16.90200 31.89000
C  48.68700 18.91900 30.90000
C  47.90200 17.70700 26.16000
C  43.72100 15.65400 27.24500
N  46.49900 17.95500 31.13100
C  45.56600 17.69000 32.10800
C  46.00900 18.16900 33.47800
C  47.37300 18.96200 33.10800
C  47.54100 18.58900 31.63200
C  47.26200 20.47400 33.41900
C  46.37500 16.97100 34.47200
C  46.53900 17.10600 35.99000
H  46.21300 18.47400 36.63700
N  48.04900 18.30700 28.61300
C  48.93000 18.82600 29.46000
C  50.09400 19.24600 28.70600
C  49.98700 18.73200 27.35300
C  48.55800 18.25200 27.36200
C  51.20900 20.02400 29.32900
C  50.92800 18.74400 26.16800
O  50.63600 18.24700 25.05200
C  52.35200 19.24800 26.41400
N  45.87200 16.82500 27.09100
C  46.65600 17.17200 26.00900
C  46.00600 16.88000 24.67700
C  44.86700 15.92000 25.14500
C  44.83700 16.15100 26.60900
C  45.65000 18.16400 23.93200
C  45.12300 14.36200 24.92400
C  44.49300 13.83100 23.69400
N  44.35000 16.61400 29.41300
C  43.43200 15.93700 28.61600
C  42.26700 15.64600 29.41700
C  42.62800 15.99500 30.73100
C  43.90800 16.51400 30.67900
C  41.03300 15.03800 28.90400
C  42.19400 15.95700 32.13300
O  41.13300 15.54400 32.62100
C  43.37300 16.54600 32.95000
C  42.81600 17.64700 33.74500
O  42.57500 18.73600 33.28100
O  42.35000 17.23500 35.00900
C  41.84300 18.24600 35.96700
H  49.39100 19.48400 31.51400
H  48.37000 17.95100 25.20400
H  42.87700 15.14100 26.78100
H  45.23700 18.82400 33.88200
H  48.28400 18.61400 33.59500
H  46.26400 20.86200 33.62500
H  47.61100 21.06400 32.57100
H  47.79400 20.68300 34.34600
H  47.21300 16.41400 34.05300
H  45.67700 16.14300 34.35000
H  47.57400 16.90600 36.27100
H  45.89000 16.37800 36.47700
H  51.09800 20.26000 30.38800
H  51.48900 20.94700 28.82200
H  52.07600 19.36400 29.31000
H  52.45100 20.19400 26.94700
H  52.66800 19.40700 25.38300
H  52.85300 18.41700 26.91100
H  46.78900 16.33500 24.15000
H  43.97000 16.30200 24.65800
H  46.55700 18.68800 23.62900
H  44.98200 18.77800 24.53500
H  44.91100 17.90200 23.17500
H  44.71500 13.78400 25.75300
H  46.20300 14.21400 24.89700
H  44.17400 14.67600 23.08400
H  43.64500 13.15500 23.80300
H  45.27100 13.36000 23.09300
H  40.84400 15.43600 27.90700
H  40.24900 15.45100 29.54000
H  40.94300 13.95200 28.89400
H  43.57900 15.80000 33.71800
H  40.78800 18.09800 36.20000
H  41.89400 19.29200 35.66900
H  42.33000 18.03300 36.91900

