158

Mg 17.35000 -1.57700 27.63400
C  16.19200 0.62800 30.01700
C  19.18700 -3.30600 29.93800
C  18.82300 -3.27500 25.14700
C  16.16500 0.82000 25.24400
N  17.51100 -1.42900 29.79300
C  16.94100 -0.44800 30.55900
C  17.29200 -0.70100 32.01200
C  18.46100 -1.74700 31.90200
C  18.35600 -2.27600 30.48200
C  19.91800 -1.35400 32.50900
C  16.03300 -1.08800 32.85800
C  15.89800 -0.28300 34.21000
H  17.15600 0.17400 34.84400
N  18.63400 -3.27200 27.56600
C  19.31900 -3.79400 28.64400
C  20.11600 -4.92400 28.12700
C  19.99200 -4.95200 26.74200
C  19.13300 -3.80300 26.42000
C  20.87300 -5.84700 29.16500
C  20.65200 -5.91300 25.74500
O  20.50900 -5.83900 24.53500
C  21.59800 -6.96100 26.27300
N  17.37800 -1.35200 25.55800
C  18.02100 -2.24000 24.67200
C  18.00300 -1.80600 23.22000
C  17.04800 -0.53700 23.30300
C  16.82900 -0.33600 24.80200
C  19.37000 -1.48600 22.63200
C  15.70500 -0.72000 22.54100
C  15.23800 0.51500 21.81600
N  16.33500 0.36000 27.60300
C  15.91300 1.14100 26.51400
C  15.14700 2.21900 26.99800
C  15.17000 2.03200 28.38000
C  15.92700 0.92800 28.67200
C  14.51600 3.34800 26.12900
C  14.72600 2.57600 29.66400
O  13.98800 3.53600 29.91200
C  15.51000 1.78100 30.72300
C  16.35000 2.76600 31.51200
O  17.56300 2.93100 31.45800
O  15.55600 3.36400 32.50900
C  16.18400 4.36200 33.45700
H  19.91900 -3.69400 30.64900
H  19.40400 -3.72200 24.33900
H  15.76600 1.50400 24.49100
H  17.73600 0.23000 32.36300
H  18.19000 -2.58300 32.54700
H  20.58100 -1.22600 31.65300
H  20.22300 -2.07800 33.26400
H  19.75000 -0.35700 32.91600
H  16.02400 -2.09400 33.27600
H  15.14400 -0.83800 32.28000
H  15.31200 -0.80600 34.96500
H  15.37400 0.61900 33.89300
H  21.94600 -5.84900 28.97200
H  20.45700 -6.82800 29.39200
H  20.77200 -5.39500 30.15200
H  22.35800 -6.55000 26.93800
H  22.03800 -7.41500 25.38500
H  20.97900 -7.67900 26.81100
H  17.49700 -2.52000 22.57100
H  17.51600 0.36900 22.91900
H  19.91600 -1.07100 23.47900
H  19.25800 -0.87500 21.73700
H  19.90900 -2.38200 22.32300
H  14.90600 -0.99500 23.22900
H  15.89600 -1.45600 21.76000
H  14.97000 0.21400 20.80400
H  16.01000 1.28500 21.80100
H  14.35200 0.94500 22.28300
H  14.16900 2.99500 25.15700
H  15.11800 4.24400 25.97900
H  13.55400 3.53100 26.60700
H  14.82100 1.23200 31.36600
H  15.70700 5.33100 33.60700
H  17.21600 4.58600 33.18400
H  16.26500 3.79400 34.38300
Mg 36.35400 48.85300 25.05900
C  36.72500 47.05700 28.15800
C  35.14200 51.61500 26.74500
C  35.62700 50.24000 22.07900
C  37.65500 46.01700 23.49600
N  35.97200 49.24100 27.12500
C  36.26400 48.41700 28.27800
C  36.05100 49.18200 29.58900
C  35.20100 50.41400 29.12700
C  35.54500 50.46900 27.56500
C  33.67500 50.33300 29.54800
C  37.38200 49.37000 30.53200
C  37.22100 48.84300 31.97000
H  35.94500 49.18200 32.74700
N  35.59100 50.66500 24.53700
C  35.24900 51.64500 25.37900
C  34.93600 52.86000 24.58100
C  34.93700 52.46400 23.18100
C  35.38600 51.06900 23.20100
C  34.76100 54.22600 25.29800
C  34.66700 53.34000 21.91300
O  34.67500 52.83100 20.75000
C  34.13200 54.73600 22.08700
N  36.53400 48.13900 23.11900
C  36.16000 48.94700 22.03000
C  36.55300 48.36500 20.70500
C  37.56200 47.16500 21.12800
C  37.25200 47.05500 22.65300
C  35.44300 47.96000 19.70800
C  39.03600 47.39000 20.73100
C  39.90500 46.22600 20.34200
N  36.97700 46.90300 25.61100
C  37.47900 45.87200 24.85400
C  37.70700 44.74800 25.66100
C  37.45400 45.19200 26.98000
C  37.04000 46.48300 26.87500
C  38.13100 43.33700 25.11300
C  37.41400 44.75500 28.33800
O  37.68400 43.69400 28.81900
C  37.01800 46.00900 29.20000
C  35.93600 45.69300 30.15500
O  34.71800 45.68300 29.96600
O  36.39800 45.33100 31.37200
C  35.46700 45.15800 32.52300
H  34.64800 52.37200 27.35800
H  35.48000 50.71100 21.10500
H  37.97300 45.17600 22.87600
H  35.37100 48.43800 30.00400
H  35.62300 51.34000 29.51600
H  33.08500 50.30300 28.63200
H  33.27600 51.27300 29.93000
H  33.39900 49.57100 30.27700
H  37.80100 50.37600 30.50100
H  38.11300 48.74400 30.02100
H  38.09400 49.27400 32.46000
H  37.63900 47.84300 32.08500
H  35.44600 54.92500 24.81800
H  35.12200 54.13500 26.32200
H  33.73600 54.58200 25.18900
H  34.94800 55.35800 22.45300
H  33.30300 54.75800 22.79400
H  33.85200 55.33900 21.22300
H  37.09100 49.18700 20.23200
H  37.19200 46.20400 20.77100
H  35.47700 46.97300 19.24700
H  35.51100 48.68200 18.89500
H  34.43000 47.93900 20.11100
H  39.55000 47.70200 21.64000
H  39.07500 48.16100 19.96200
H  40.28700 45.71800 21.22700
H  40.69000 46.81900 19.87500
H  39.39700 45.59900 19.60900
H  38.04500 43.27500 24.02800
H  37.67300 42.48100 25.60800
H  39.18800 43.37800 25.37600
H  37.91900 46.24700 29.76700
H  35.67900 44.16300 32.91300
H  34.39200 45.21200 32.34600
H  35.80900 45.90000 33.24400

