158

Mg 47.29900 15.91800 29.07800
C  45.36100 15.27400 31.93900
C  49.50600 17.53200 31.04500
C  48.81000 16.90100 26.16900
C  44.64800 14.71000 27.08600
N  47.28200 16.38900 31.22100
C  46.52900 15.92800 32.26500
C  47.03700 16.38500 33.62200
C  48.16900 17.35500 33.22300
C  48.30900 17.04900 31.74900
C  48.00400 18.85300 33.42500
C  47.49700 15.20900 34.51800
C  48.18900 15.43400 35.90100
H  47.82600 16.64600 36.72900
N  48.94000 16.91800 28.71400
C  49.82100 17.44100 29.65300
C  51.03800 17.92400 28.98300
C  50.73200 17.91400 27.62900
C  49.41900 17.23600 27.42300
C  52.18800 18.49200 29.78400
C  51.63700 18.41000 26.51500
O  51.34800 18.25300 25.29500
C  52.90900 19.19200 26.84800
N  46.78800 15.82700 26.86300
C  47.57400 16.33000 25.89300
C  46.88100 16.09100 24.46400
C  45.54500 15.33900 24.85100
C  45.68900 15.24300 26.32200
C  46.73000 17.42900 23.66000
C  45.35300 13.98200 24.12500
C  46.31700 12.79700 24.36100
N  45.41300 15.08600 29.38900
C  44.43800 14.61700 28.53200
C  43.36300 14.03600 29.35400
C  43.65800 14.28800 30.73200
C  44.92500 14.91400 30.60300
C  42.29000 13.18600 28.69300
C  43.26900 14.05600 32.06900
O  42.29700 13.46500 32.57100
C  44.33100 14.73800 32.96400
C  43.56600 15.75200 33.76800
O  42.88200 16.65900 33.38800
O  43.88500 15.56700 35.12700
C  43.16300 16.47600 36.07700
H  50.15900 18.03400 31.76200
H  49.42600 17.27600 25.34900
H  43.77100 14.40700 26.51000
H  46.17100 16.80800 34.13100
H  49.05000 17.08800 33.80700
H  47.70800 19.12000 34.43900
H  47.24200 19.07800 32.67800
H  48.71600 19.65100 33.21200
H  48.22500 14.64500 33.93400
H  46.68000 14.52100 34.73300
H  49.26500 15.56400 35.78300
H  48.02500 14.58200 36.56100
H  52.42900 19.50200 29.45500
H  53.00900 17.83400 29.49800
H  52.08300 18.60200 30.86400
H  53.48800 18.45600 27.40600
H  52.66500 20.01300 27.52200
H  53.31000 19.56000 25.90300
H  47.48200 15.36300 23.92000
H  44.69400 15.92300 24.50200
H  47.10400 18.33300 24.14100
H  45.70800 17.70200 23.39700
H  47.33900 17.36900 22.75800
H  45.33200 14.28200 23.07700
H  44.40000 13.63100 24.52100
H  46.73700 12.39000 23.44100
H  45.89400 11.89500 24.80300
H  47.10400 13.20200 24.99900
H  41.30700 13.49400 29.04900
H  42.53000 12.12400 28.75600
H  42.28200 13.50200 27.65000
H  44.74200 14.03300 33.68700
H  42.55500 15.92800 36.79700
H  42.76100 17.41400 35.69500
H  44.02700 16.60500 36.73000
Mg 16.65400 51.17600 25.36200
C  18.47200 49.97800 28.18600
C  14.26000 52.12200 27.46100
C  15.04200 52.35500 22.62400
C  19.16500 49.75700 23.26000
N  16.27800 50.81900 27.61900
C  17.19200 50.53300 28.56800
C  16.68200 50.88200 29.94500
C  15.21900 51.32000 29.71300
C  15.23700 51.44800 28.15800
C  14.14600 50.43700 30.37700
C  17.52100 51.92900 30.78900
C  18.13200 51.55100 32.11500
H  17.53300 52.13200 33.35200
N  14.93900 52.17000 25.12200
C  14.05000 52.51200 26.13200
C  13.00600 53.35600 25.60600
C  13.14400 53.40000 24.18100
C  14.42600 52.64400 23.94200
C  11.91300 53.86800 26.52100
C  12.20400 54.00200 23.21000
O  12.51600 53.95000 22.03100
C  10.81900 54.47900 23.49900
N  17.18100 51.23500 23.23800
C  16.25200 51.69500 22.32300
C  16.78100 51.54400 20.89800
C  18.09800 50.64700 21.08900
C  18.21100 50.53100 22.57400
C  15.72300 50.95200 19.91000
C  19.30000 51.42300 20.43300
C  20.41200 50.48400 19.97700
N  18.42500 50.01500 25.58200
C  19.31100 49.55800 24.69200
C  20.45100 48.89200 25.38400
C  20.16600 49.10200 26.76600
C  18.90100 49.76300 26.84300
C  21.61400 48.17000 24.64500
C  20.70800 48.93800 28.17200
O  21.72900 48.38300 28.64700
C  19.53200 49.46500 29.08400
C  19.02300 48.49400 30.06700
O  18.01300 47.77300 30.03000
O  19.77700 48.67100 31.19600
C  19.42800 47.76100 32.27400
H  13.52200 52.46700 28.18700
H  14.48900 52.77900 21.78300
H  19.99800 49.32100 22.70400
H  16.69200 49.90900 30.43700
H  15.16000 52.34400 30.08200
H  13.14700 50.60000 29.97300
H  14.16300 50.66500 31.44300
H  14.37700 49.39200 30.17200
H  16.94500 52.84300 30.93900
H  18.19200 52.29700 30.01200
H  19.14500 51.95300 32.13500
H  18.08200 50.46200 32.12300
H  11.82800 54.92400 26.26600
H  12.23000 53.82800 27.56400
H  10.97800 53.32900 26.37200
H  10.43300 53.87700 24.32100
H  10.17300 54.42100 22.62300
H  10.83400 55.47300 23.94700
H  17.07600 52.46700 20.39900
H  17.89300 49.73400 20.53000
H  15.95900 49.97000 19.50100
H  15.46100 51.58300 19.06100
H  14.77900 50.81800 20.43900
H  19.79700 51.96400 21.23700
H  19.04400 52.16400 19.67600
H  20.25100 49.43100 20.20900
H  21.38900 50.86600 20.27200
H  20.48800 50.43000 18.89100
H  21.93300 47.35700 25.29800
H  22.47700 48.83500 24.61300
H  21.42700 47.78000 23.64400
H  19.94400 50.33000 29.60400
H  18.50600 48.14900 32.70700
H  20.15800 47.70600 33.08300
H  19.22900 46.75500 31.90400

