158

Mg 26.92700 49.93400 26.30300
C  24.72500 50.96100 28.77300
C  29.16500 49.16700 28.62700
C  29.14700 49.52800 23.73600
C  24.66900 51.34800 23.90600
N  26.97100 50.16200 28.47600
C  25.93000 50.47900 29.25500
C  26.23200 50.17000 30.75200
C  27.72900 49.59800 30.72500
C  27.95900 49.66500 29.19700
C  28.82500 50.34800 31.53100
C  25.26000 49.06600 31.26800
C  25.17200 48.85900 32.76000
H  25.87000 49.79800 33.79400
N  28.79700 49.25100 26.21500
C  29.66900 49.07800 27.27100
C  30.98000 48.79900 26.82000
C  30.91300 48.81100 25.41300
C  29.53700 49.20700 25.05500
C  32.12000 48.49800 27.79300
C  32.04500 48.57300 24.44400
O  31.91300 48.70100 23.25600
C  33.37600 48.18400 24.93800
N  26.99500 50.45300 24.18800
C  27.98100 50.09100 23.31200
C  27.58100 50.17100 21.81300
C  26.24300 50.95400 21.89900
C  25.87400 50.82000 23.40200
C  28.60900 51.06700 21.03600
C  25.14800 50.27000 20.97800
C  24.45900 51.17100 19.85000
N  25.05600 51.01300 26.28300
C  24.25800 51.43500 25.26200
C  23.08800 52.14100 25.87100
C  23.27700 52.05300 27.25100
C  24.44900 51.27800 27.46400
C  22.07600 52.85100 25.10300
C  22.68400 52.39000 28.53300
O  21.67800 53.03300 28.83700
C  23.60300 51.65400 29.57900
C  23.95800 52.61800 30.58000
O  24.89200 53.41800 30.50100
O  23.06500 52.61200 31.59800
C  23.23900 53.69100 32.57700
H  29.89200 48.86900 29.38600
H  29.79900 49.31700 22.88600
H  23.98600 51.73100 23.14400
H  26.40600 51.03800 31.38800
H  27.81500 48.61700 31.19100
H  29.51500 50.94700 30.93700
H  29.43400 49.65400 32.11000
H  28.44700 51.01800 32.30400
H  25.61600 48.09000 30.93800
H  24.25800 49.22500 30.86900
H  25.22400 47.80100 33.02000
H  24.16400 49.12900 33.07800
H  32.13900 47.40800 27.76300
H  31.81600 48.84100 28.78200
H  33.14000 48.86000 27.66100
H  33.20400 47.39700 25.67300
H  33.75600 49.11200 25.36500
H  33.95700 47.89600 24.06100
H  27.56300 49.15900 21.40700
H  26.31000 52.01100 21.64000
H  28.83900 50.56700 20.09500
H  29.52400 51.20700 21.61100
H  28.21000 52.03500 20.73000
H  24.57500 49.64000 21.65900
H  25.63200 49.53600 20.33300
H  25.11100 51.93900 19.43400
H  23.62900 51.78200 20.20400
H  24.18900 50.50000 19.03400
H  21.62300 52.26200 24.30600
H  22.42700 53.75800 24.61100
H  21.20800 53.05000 25.73100
H  22.89800 50.90900 29.94900
H  22.38000 53.91400 33.20900
H  23.48100 54.62300 32.06800
H  23.95200 53.35500 33.33000
Mg 7.12400 53.31500 40.40700
C  6.46900 49.80100 40.15600
C  10.48200 52.65100 39.93000
C  7.57500 56.60200 40.21200
C  3.62800 53.73200 40.65900
N  8.36700 51.40500 40.13500
C  7.84400 50.11800 40.05200
C  8.94800 49.20100 39.65200
C  10.21300 49.98300 40.12500
C  9.68700 51.48900 40.02300
C  10.62900 49.65700 41.58200
C  8.96700 48.82300 38.11700
C  8.38500 49.80800 37.08500
H  7.55700 49.22200 35.91500
N  8.79500 54.46900 40.05900
C  10.09800 54.00000 39.86900
C  10.96100 55.15900 39.48400
C  10.19600 56.33400 39.65200
C  8.78800 55.81100 40.05300
C  12.37100 55.11300 39.10300
C  10.70800 57.76700 39.50800
O  11.90400 58.04500 39.28100
C  9.75500 58.96500 39.68300
N  5.78800 54.91500 40.45000
C  6.23600 56.20900 40.48100
C  5.05800 57.21200 40.62800
C  3.81500 56.24600 40.53600
C  4.45500 54.87600 40.56000
C  5.13300 58.13000 41.86000
C  3.00500 56.44300 39.19800
C  1.51400 56.23800 39.33600
N  5.36000 52.11400 40.49500
C  4.06500 52.37900 40.68900
C  3.27800 51.15200 40.82200
C  4.25900 50.08700 40.62100
C  5.43300 50.71000 40.47700
C  1.78000 51.04700 41.07900
C  4.41400 48.68500 40.56200
O  3.54400 47.85800 40.75000
C  5.85700 48.38200 40.16500
C  5.73300 47.69200 38.89200
O  5.25900 48.12600 37.86100
O  6.05800 46.37300 39.08500
C  5.95700 45.57300 37.82900
H  11.52500 52.40800 39.71900
H  7.70300 57.68300 40.29600
H  2.56700 53.85500 40.88200
H  8.81100 48.23500 40.13800
H  11.01300 49.71400 39.43600
H  10.17800 48.78200 42.05000
H  10.32100 50.45100 42.26200
H  11.71600 49.60100 41.62100
H  8.39000 47.91100 37.96200
H  9.99000 48.58200 37.82800
H  9.14100 50.34000 36.50800
H  7.77300 50.60400 37.51000
H  12.98300 55.68000 39.80500
H  12.58000 55.36000 38.06200
H  12.69500 54.07600 39.18600
H  10.38800 59.82100 39.44900
H  9.42400 59.09300 40.71400
H  8.93700 58.98000 38.96200
H  5.05600 57.85100 39.74500
H  3.24000 56.49500 41.42800
H  5.25300 59.20100 41.69600
H  6.01600 57.75400 42.37600
H  4.29100 57.87200 42.50200
H  3.46100 55.92200 38.35600
H  3.18100 57.48900 38.94800
H  1.10900 55.67600 38.49400
H  0.90300 57.10300 39.59500
H  1.45400 55.59000 40.20900
H  1.27500 51.97600 40.81600
H  1.61000 50.80500 42.12800
H  1.41900 50.25800 40.41900
H  6.28300 47.69400 40.89600
H  6.71000 46.01700 37.17900
H  4.94800 45.57700 37.41600
H  6.34800 44.57000 38.00000

