158

Mg 24.85900 -7.31100 47.99400
C  27.02800 -4.82000 46.86100
C  22.54200 -6.06900 45.67400
C  22.94700 -9.85200 48.75600
C  27.30400 -8.51600 50.24000
N  24.92100 -5.74500 46.18900
C  25.87000 -4.78900 46.11700
C  25.54900 -3.89300 44.83900
C  23.99000 -4.10100 44.71300
C  23.79000 -5.38000 45.57600
C  23.09700 -2.90500 45.04300
C  26.47300 -4.17000 43.60900
C  27.03000 -2.98900 42.83300
H  27.07600 -3.06500 41.31600
N  23.08200 -7.90500 47.22800
C  22.21000 -7.29700 46.38900
C  20.99500 -8.12800 46.25900
C  21.14100 -9.28600 47.08400
C  22.40700 -9.04900 47.71900
C  19.82800 -7.63500 45.26700
C  20.10300 -10.40000 47.22600
O  18.95300 -10.26800 46.78400
C  20.47000 -11.68000 47.93800
N  25.11000 -8.97000 49.31700
C  24.11600 -9.85800 49.46100
C  24.34500 -10.84900 50.61500
C  25.89400 -10.62500 50.79200
C  26.10800 -9.26000 50.14900
C  23.41700 -10.63400 51.84700
C  26.82200 -11.66900 50.07600
C  27.82100 -12.43900 50.98400
N  26.79800 -6.79000 48.44000
C  27.64400 -7.33400 49.46400
C  28.87500 -6.54500 49.40900
C  28.56000 -5.49900 48.45200
C  27.38000 -5.72400 47.87100
C  30.13100 -6.80900 50.20500
C  29.03800 -4.31900 47.83300
O  30.11100 -3.76700 48.09500
C  28.06100 -3.79400 46.80200
C  27.54200 -2.46100 47.18900
O  27.16900 -2.11600 48.32200
O  27.65000 -1.62500 46.12300
C  27.03800 -0.22900 46.21000
H  21.70500 -5.57200 45.18100
H  22.29300 -10.63800 49.14200
H  28.10700 -8.91600 50.86200
H  25.80800 -2.88500 45.16400
H  23.75700 -4.28000 43.66300
H  23.54900 -1.95400 44.76000
H  22.82600 -2.88900 46.09900
H  22.21800 -3.08400 44.42400
H  25.82100 -4.78200 42.98600
H  27.28100 -4.84300 43.89700
H  28.01300 -2.84200 43.28100
H  26.31200 -2.19200 43.02900
H  19.73900 -6.56300 45.09500
H  18.85400 -8.01600 45.57400
H  20.07700 -7.94500 44.25200
H  21.42800 -12.13500 47.68200
H  19.66400 -12.34700 47.63200
H  20.46300 -11.46300 49.00600
H  24.13600 -11.82200 50.16900
H  26.15500 -10.47000 51.83900
H  22.45200 -10.19400 51.59300
H  23.88800 -10.16400 52.71100
H  23.11200 -11.62500 52.18600
H  27.21400 -11.24400 49.15200
H  26.11300 -12.41900 49.72700
H  28.75200 -12.53900 50.42600
H  27.59000 -13.48900 51.16700
H  28.03700 -11.81800 51.85300
H  29.95200 -7.49600 51.03200
H  30.47700 -5.85300 50.59700
H  30.90100 -7.21100 49.54700
H  28.37700 -3.67100 45.76600
H  26.14700 -0.02900 45.61400
H  27.85300 0.43300 45.91800
H  26.72700 -0.00500 47.23100
Mg 8.72200 48.14700 27.37400
C  6.76000 47.41200 30.19600
C  11.36500 48.40800 29.36000
C  10.36700 48.98600 24.51500
C  5.85100 47.59000 25.41200
N  8.97200 47.95000 29.52200
C  8.02200 47.68700 30.57800
C  8.72600 47.84900 31.99300
C  10.17200 48.17300 31.58800
C  10.17900 48.13100 30.07800
C  10.63800 49.45000 32.32500
C  8.49600 46.60800 32.91600
C  9.51200 46.49100 33.99000
H  9.14300 45.74700 35.30900
N  10.65000 48.52200 26.99800
C  11.62100 48.55300 27.92600
C  12.85400 48.75800 27.25000
C  12.65200 48.98100 25.83800
C  11.19700 48.84200 25.72900
C  14.18900 48.54800 27.98000
C  13.63400 49.14300 24.75200
O  13.38800 49.26300 23.56800
C  15.08900 49.03100 25.08300
N  8.07500 48.48600 25.31400
C  9.00800 48.89700 24.32900
C  8.39100 49.02200 22.93200
C  6.97000 48.33100 23.20300
C  6.91300 48.10900 24.73100
C  8.32100 50.53900 22.48300
C  6.63600 47.10700 22.20300
C  5.61800 47.50400 21.08800
N  6.65000 47.92400 27.70200
C  5.67400 47.58000 26.77800
C  4.46400 47.26000 27.51000
C  4.85000 47.14200 28.81600
C  6.19600 47.49600 28.88900
C  3.12700 47.05900 26.88300
C  4.29100 46.94600 30.15600
O  3.18100 46.59600 30.55500
C  5.57400 47.16100 31.09200
C  5.44900 45.91000 31.93600
O  5.92900 44.81000 31.65800
O  4.83100 46.22600 33.15600
C  4.78300 45.02600 34.06300
H  12.27500 48.60100 29.93200
H  10.83500 49.17200 23.54700
H  4.98500 47.32100 24.80500
H  8.31600 48.77100 32.40600
H  10.90700 47.41100 31.84400
H  11.69300 49.38100 32.59300
H  10.04300 49.70100 33.20200
H  10.65000 50.32400 31.67400
H  8.45800 45.70600 32.30500
H  7.57800 46.83300 33.45900
H  9.96400 47.47700 34.09600
H  10.32000 45.87900 33.59000
H  14.78700 49.44300 27.80900
H  14.72300 47.69900 27.55300
H  14.10700 48.49400 29.06500
H  15.38900 49.89700 25.67300
H  15.59200 49.14500 24.12300
H  15.20900 48.04300 25.52700
H  8.91500 48.39200 22.21300
H  6.24200 49.10700 22.96600
H  7.43000 50.63000 21.86300
H  9.20200 50.76300 21.88100
H  8.16900 51.21300 23.32600
H  6.37300 46.16700 22.68900
H  7.53100 46.84200 21.64000
H  4.92100 46.67600 20.95800
H  6.12200 47.74900 20.15300
H  4.93900 48.23900 21.52200
H  3.07400 46.75400 25.83800
H  2.53900 47.97400 26.94300
H  2.62800 46.37300 27.56700
H  5.33400 48.05800 31.66300
H  4.56200 45.45400 35.04000
H  5.73200 44.49500 34.13800
H  4.00000 44.31900 33.78600

