158

Mg 30.52100 57.80100 40.40600
C  27.66100 56.15700 38.92600
C  32.46300 55.13800 39.60200
C  33.12900 59.82400 40.79500
C  28.31100 60.50700 41.13600
N  30.12700 55.95700 39.26700
C  28.87700 55.39300 38.80900
C  29.05700 53.99900 38.32200
C  30.38700 53.57300 38.97900
C  31.09600 54.97400 39.28500
C  30.32100 52.58000 40.12700
C  29.00700 54.05300 36.76300
C  28.16500 52.95600 36.03300
H  27.41900 53.49800 34.76300
N  32.54400 57.60400 40.12900
C  33.16800 56.39700 39.89500
C  34.59200 56.52800 39.94900
C  34.86400 57.89700 40.09900
C  33.53400 58.53900 40.34000
C  35.51500 55.38500 39.78500
C  36.25300 58.54100 40.28200
O  37.31400 57.85900 40.15800
C  36.46200 59.97900 40.46500
N  30.60500 59.88300 40.66400
C  31.87700 60.43700 40.98300
C  31.66400 61.90800 41.33600
C  30.18500 62.01200 41.63900
C  29.70000 60.72200 41.09100
C  32.57200 62.47400 42.36000
C  29.51600 63.35200 41.06700
C  28.39000 63.97700 41.90800
N  28.38000 58.23800 40.21400
C  27.64800 59.32300 40.64700
C  26.25700 59.19100 40.22100
C  26.18500 57.88100 39.59100
C  27.50800 57.40600 39.57700
C  25.16800 60.16400 40.51100
C  25.34300 56.79100 38.86200
O  24.13800 56.84200 38.60400
C  26.26200 55.74300 38.55500
C  25.89400 54.59500 39.38500
O  25.78100 54.57900 40.57700
O  25.51500 53.61700 38.53600
C  24.67700 52.53700 39.00700
H  33.06800 54.23600 39.49100
H  34.00500 60.47000 40.87500
H  27.63900 61.29300 41.48700
H  28.20300 53.39100 38.62200
H  30.84800 53.06900 38.13000
H  30.93700 53.05600 40.88900
H  30.78100 51.64900 39.79500
H  29.29100 52.45800 40.46100
H  29.99900 53.96900 36.31900
H  28.56600 54.98500 36.40700
H  27.26500 52.74200 36.61000
H  28.78000 52.07700 35.84100
H  35.44300 55.09200 38.73800
H  35.21400 54.61100 40.49000
H  36.52600 55.51300 40.17300
H  36.19900 60.24600 41.48800
H  35.85700 60.50800 39.72900
H  37.44100 60.31200 40.11900
H  31.85600 62.36700 40.36600
H  29.95700 62.00700 42.70500
H  33.15000 61.67700 42.82800
H  32.07800 63.01100 43.16900
H  33.09900 63.24600 41.79900
H  28.99900 62.99600 40.17600
H  30.15500 64.07500 40.56000
H  28.04700 63.35100 42.73200
H  27.53700 64.17600 41.25900
H  28.71000 64.91800 42.35500
H  25.37700 60.49900 41.52700
H  24.23000 59.61100 40.47600
H  25.17300 61.00900 39.82200
H  26.27900 55.52000 37.48800
H  24.48700 51.92500 38.12600
H  23.81000 52.83800 39.59400
H  25.20400 51.87800 39.69800
Mg 37.02600 50.16700 25.17600
C  37.32400 47.96000 27.88900
C  35.40000 52.35100 27.22300
C  36.58700 52.13900 22.54100
C  38.18700 47.58300 23.10600
N  36.19900 50.12500 27.34600
C  36.66900 49.19100 28.23800
C  36.37800 49.74700 29.70100
C  35.53500 51.05100 29.39400
C  35.67800 51.16100 27.91000
C  34.04900 51.03300 29.94400
C  37.68300 50.03800 30.48900
C  37.69100 49.54700 31.91800
H  36.25300 49.56400 32.76300
N  36.26500 52.11100 24.92900
C  35.62200 52.81600 25.87000
C  35.20400 54.06700 25.36800
C  35.52100 54.04900 23.95400
C  36.17000 52.74500 23.70200
C  34.63500 55.21600 26.21200
C  35.32300 55.09600 22.90300
O  35.72700 55.00100 21.76100
C  34.48200 56.33000 23.19200
N  37.28600 49.87600 23.11900
C  37.12600 50.88800 22.18600
C  37.48100 50.42100 20.72200
C  37.90400 48.93800 20.96600
C  37.78200 48.75900 22.47800
C  36.30000 50.51200 19.72500
C  39.32400 48.57700 20.41400
C  40.49500 49.20200 21.19400
N  37.60000 48.21300 25.38000
C  38.07100 47.29400 24.45100
C  38.38700 46.04600 25.08400
C  38.11100 46.25300 26.44300
C  37.64500 47.57600 26.55500
C  38.95200 44.82400 24.38600
C  38.11800 45.62400 27.74000
O  38.49800 44.51200 28.06400
C  37.69900 46.72300 28.75700
C  36.53000 46.28000 29.51600
O  35.46600 45.96200 29.02600
O  36.86500 46.36900 30.85100
C  35.81000 45.87300 31.79200
H  34.93300 53.07700 27.89300
H  36.46900 52.75900 21.65000
H  38.52000 46.74900 22.48500
H  35.76100 48.99900 30.20100
H  36.04000 51.89700 29.86100
H  33.84800 51.98100 30.44400
H  33.88100 50.21000 30.63800
H  33.36600 51.12500 29.09900
H  38.03900 51.06200 30.38000
H  38.48100 49.54600 29.93200
H  38.39000 50.16200 32.48400
H  38.12800 48.55000 31.98300
H  35.12600 56.16600 26.42300
H  34.29900 54.86900 27.18900
H  33.66700 55.50800 25.80600
H  33.51600 56.06900 23.62400
H  34.33500 56.87800 22.26100
H  34.87400 57.03100 23.93000
H  38.37900 50.93500 20.37800
H  37.21700 48.26300 20.45500
H  36.27900 51.56700 19.45200
H  35.37700 50.35800 20.28300
H  36.23600 49.73100 18.96700
H  39.35800 49.02700 19.42200
H  39.43300 47.49400 20.47300
H  40.92300 48.35300 21.72700
H  40.11500 49.78700 22.03100
H  41.16200 49.83500 20.60900
H  39.90600 45.06500 23.91900
H  38.31500 44.42500 23.59700
H  39.05200 43.97800 25.06600
H  38.50900 46.99600 29.43300
H  35.61900 44.84400 31.48700
H  34.90300 46.47100 31.69400
H  36.22200 45.76500 32.79500

