158

Mg 0.43900 7.87900 26.30100
C  1.34900 9.74900 29.04400
C  0.36200 5.11000 28.36700
C  0.11200 5.98700 23.56000
C  1.16200 10.65700 24.34300
N  0.92600 7.44800 28.44000
C  1.10400 8.43600 29.40300
C  1.09400 7.80900 30.78700
C  1.18500 6.27000 30.58100
C  0.85200 6.25900 29.00400
C  2.60400 5.63200 30.81700
C  -0.23000 8.20500 31.55300
C  -0.35200 7.90600 33.04100
H  0.85500 7.28300 33.77600
N  0.07000 5.84500 26.03800
C  -0.01300 4.90200 26.98900
C  -0.46300 3.68600 26.37400
C  -0.65300 3.97700 24.94800
C  -0.15200 5.29800 24.78300
C  -0.71500 2.39000 27.06400
C  -1.28800 3.09600 23.85100
O  -1.41300 3.44800 22.66100
C  -1.81700 1.77300 24.13300
N  0.67800 8.26400 24.26300
C  0.47600 7.29500 23.32100
C  0.75700 7.80500 21.85300
C  1.09100 9.30700 22.12300
C  1.02400 9.42700 23.69700
C  1.81800 7.01300 21.03400
C  0.19900 10.38600 21.35800
C  -1.24100 10.36100 21.72600
N  1.11300 9.84000 26.58400
C  1.15700 10.92200 25.66200
C  1.36900 12.20000 26.36800
C  1.53500 11.70400 27.73300
C  1.26600 10.35400 27.75400
C  1.51500 13.57100 25.78400
C  1.78000 12.15100 29.04100
O  1.88600 13.36500 29.37600
C  1.58500 10.93700 29.96100
C  2.86900 10.97000 30.77900
O  3.83600 10.17000 30.62500
O  2.66600 11.81500 31.85700
C  3.58500 11.53300 32.99800
H  0.30400 4.19900 28.96600
H  0.03700 5.38300 22.65300
H  1.54600 11.50600 23.77400
H  1.93500 8.24200 31.32700
H  0.42000 5.69900 31.10700
H  3.16100 5.29800 29.94200
H  2.42000 4.70800 31.36400
H  3.18400 6.22200 31.52600
H  -1.07400 7.60300 31.21700
H  -0.53600 9.24000 31.39700
H  -1.16200 7.21100 33.25800
H  -0.60000 8.83700 33.55100
H  -1.77600 2.25300 27.27200
H  -0.22300 2.35500 28.03700
H  -0.31000 1.56600 26.47600
H  -0.91000 1.17300 24.20900
H  -2.24200 1.33200 23.23200
H  -2.45800 1.62900 25.00300
H  -0.21900 7.71600 21.37800
H  2.12200 9.55800 21.87200
H  2.60000 7.71600 20.75000
H  1.44100 6.52400 20.13600
H  2.31000 6.17100 21.52200
H  0.53600 10.42900 20.32200
H  0.49600 11.37500 21.70800
H  -1.57300 11.39200 21.84100
H  -1.37600 9.83500 22.67100
H  -1.86800 9.97600 20.92200
H  1.79700 14.29500 26.54900
H  0.61600 13.83700 25.22700
H  2.31500 13.61700 25.04500
H  0.70900 11.05200 30.60000
H  4.22000 12.40300 32.83300
H  4.16400 10.60900 32.98200
H  2.98700 11.69800 33.89400
Mg 6.77100 54.76600 40.65100
C  6.09600 51.37000 40.20100
C  9.93800 54.24000 39.29700
C  6.99100 58.02500 40.27500
C  3.32800 55.20300 41.50200
N  7.80100 53.03700 39.72100
C  7.36600 51.75100 39.66700
C  8.43000 50.82600 38.96600
C  9.68400 51.62900 39.24500
C  9.15100 53.07600 39.51900
C  10.66400 51.10500 40.32900
C  8.18300 50.50900 37.47200
C  8.27000 49.01800 36.99400
H  7.22300 48.37900 36.06000
N  8.25500 55.98600 39.99800
C  9.50200 55.57300 39.55400
C  10.30100 56.74300 39.26400
C  9.61800 57.85800 39.68300
C  8.19800 57.32600 39.99500
C  11.73400 56.60800 38.67900
C  10.20600 59.28800 39.66600
O  11.36000 59.55300 39.27800
C  9.32000 60.46300 40.14200
N  5.26700 56.36200 40.53200
C  5.74600 57.61000 40.56200
C  4.66800 58.55700 41.12000
C  3.36100 57.70300 41.11600
C  4.00600 56.34500 41.02800
C  4.96500 59.13300 42.48600
C  2.45100 57.97400 39.90300
C  1.02600 58.48200 40.01700
N  4.98500 53.60700 40.82300
C  3.73400 53.90600 41.25500
C  3.09800 52.73300 41.44800
C  3.95800 51.62800 41.10600
C  5.10300 52.27400 40.67300
C  1.67500 52.71100 41.92700
C  4.13100 50.12200 41.03100
O  3.42400 49.18200 41.26300
C  5.59800 49.96500 40.43600
C  5.31800 49.00800 39.27000
O  4.62700 49.20000 38.30700
O  5.83400 47.75500 39.66000
C  5.36700 46.54600 38.86500
H  10.94500 53.94000 38.99700
H  7.06600 59.10600 40.41300
H  2.32300 55.27400 41.92400
H  8.37400 49.90200 39.54000
H  10.22700 51.65800 38.30100
H  11.39100 50.42500 39.88500
H  10.08800 50.41900 40.95000
H  11.05400 51.90000 40.96500
H  8.78300 51.05900 36.74800
H  7.17000 50.86100 37.28100
H  8.26200 48.45500 37.92800
H  9.17800 48.81500 36.42700
H  12.36200 57.48600 38.82800
H  11.70500 56.37600 37.61400
H  12.14400 55.74900 39.20900
H  9.83100 61.42600 40.11900
H  8.95500 60.32900 41.16000
H  8.54000 60.50500 39.38200
H  4.64600 59.44100 40.48300
H  2.85100 57.76800 42.07700
H  4.38200 58.76600 43.33000
H  4.82700 60.21200 42.41900
H  6.04700 59.01900 42.56100
H  2.49200 57.04000 39.34300
H  2.98700 58.54600 39.14600
H  0.94100 59.47000 39.56500
H  0.72300 58.46900 41.06400
H  0.33800 57.78500 39.53900
H  1.39900 52.84900 42.97300
H  1.20300 51.74400 41.75200
H  1.08800 53.38900 41.30800
H  6.28200 49.43300 41.09700
H  4.34400 46.34600 39.18500
H  5.99000 45.70300 39.16600
H  5.39700 46.70000 37.78700

