158

Mg 44.96600 3.09200 47.20900
C  42.99900 5.97000 46.77200
C  42.07800 1.14500 46.74300
C  46.99400 0.36900 46.61200
C  47.85000 5.18400 46.72500
N  42.80700 3.53800 46.80000
C  42.27400 4.76900 46.78900
C  40.74500 4.64000 46.39800
C  40.38500 3.09000 46.62400
C  41.83300 2.52200 46.79800
C  39.54000 2.97000 47.94500
C  40.40500 5.17400 44.94400
C  39.21200 6.20800 44.81400
H  38.29500 6.04200 43.68700
N  44.57500 1.08400 46.96500
C  43.34500 0.47200 46.89100
C  43.55300 -0.99600 46.83800
C  44.94800 -1.25200 46.81700
C  45.59700 0.09900 46.87400
C  42.34700 -1.93100 46.76500
C  45.59800 -2.63500 46.65900
O  44.92100 -3.65700 46.86100
C  46.90200 -2.81700 46.24100
N  47.10100 2.81900 46.72400
C  47.67000 1.59400 46.62100
C  49.22000 1.73600 46.38600
C  49.51200 3.25000 46.40200
C  48.06600 3.78800 46.63500
C  50.00000 0.90800 47.38900
C  50.13600 3.80500 45.08000
C  51.04100 4.94800 45.19200
N  45.45900 5.14500 47.04200
C  46.63600 5.86900 46.93500
C  46.35300 7.33700 46.82900
C  44.92000 7.40800 46.77700
C  44.42600 6.05400 46.88000
C  47.29800 8.41400 46.52400
C  43.70900 8.28100 46.60600
O  43.61500 9.49200 46.54500
C  42.46800 7.40500 46.52400
C  41.64300 7.90600 47.68700
O  41.75900 7.49600 48.79500
O  40.84500 8.99600 47.22500
C  40.15600 9.74400 48.33100
H  41.19000 0.52200 46.61700
H  47.74800 -0.39100 46.40000
H  48.77100 5.71100 46.46700
H  40.08700 5.25800 47.00900
H  39.93900 2.66500 45.72600
H  40.15700 2.53200 48.73100
H  38.69200 2.36900 47.61800
H  39.24300 3.95400 48.30900
H  40.10500 4.32600 44.32900
H  41.31900 5.66700 44.61100
H  39.54300 7.24200 44.71800
H  38.63500 6.19200 45.73900
H  42.63100 -2.70600 46.05300
H  41.39300 -1.54700 46.40300
H  42.24400 -2.41700 47.73500
H  47.11600 -2.24500 45.33900
H  47.12500 -3.84400 45.95200
H  47.60500 -2.55700 47.03200
H  49.25400 1.35400 45.36600
H  50.14600 3.47100 47.26100
H  49.35500 0.25500 47.97700
H  50.61800 1.49500 48.06800
H  50.59400 0.15400 46.87200
H  49.36600 4.00200 44.33400
H  50.61200 2.92300 44.65100
H  50.92200 5.37900 46.18600
H  50.62100 5.79600 44.65000
H  52.04500 4.66700 44.87300
H  48.10900 8.48800 47.24900
H  46.73700 9.34800 46.54900
H  47.69100 8.32500 45.51200
H  41.97200 7.45900 45.55400
H  39.24700 9.22500 48.63500
H  39.86500 10.74000 47.99700
H  40.74400 9.84600 49.24300
Mg -0.26100 43.52800 26.67500
C  2.09600 43.17500 29.31700
C  -2.67500 42.92300 28.88400
C  -2.36300 43.36200 24.13100
C  2.52500 43.96300 24.38600
N  -0.30700 43.20500 28.89500
C  0.74300 43.04700 29.78600
C  0.26000 42.98500 31.21600
C  -1.30300 42.73200 30.97200
C  -1.42800 42.99000 29.49600
C  -1.79500 41.37500 31.53700
C  0.77600 44.27100 32.01800
C  1.57400 44.04000 33.28500
H  1.11600 43.05000 34.35100
N  -2.26200 43.29300 26.47400
C  -3.13500 43.03900 27.54200
C  -4.51700 42.86700 27.04400
C  -4.44500 43.06300 25.62500
C  -3.03300 43.28100 25.32300
C  -5.70200 42.71600 28.01300
C  -5.60100 43.21100 24.62700
O  -5.36900 43.57000 23.48400
C  -7.02700 43.10700 25.03200
N  0.03400 43.76500 24.57100
C  -0.99800 43.54900 23.71000
C  -0.54700 43.39300 22.29300
C  0.96200 43.74700 22.35000
C  1.21600 43.88500 23.86000
C  -0.74800 41.90000 21.79700
C  1.24400 45.18300 21.67300
C  2.61900 45.37800 21.05400
N  1.84900 43.68600 26.79000
C  2.82500 43.90500 25.78300
C  4.17900 43.80700 26.38800
C  3.94000 43.57400 27.76200
C  2.51500 43.44800 27.94400
C  5.56700 44.01200 25.76500
C  4.58500 43.37600 29.09000
O  5.75300 43.39000 29.48200
C  3.35700 43.10800 30.02200
C  3.56400 41.87200 30.85000
O  3.35800 40.73800 30.46800
O  4.17400 42.25600 31.95100
C  4.78400 41.15400 32.80700
H  -3.50300 42.74200 29.57300
H  -2.90600 43.17200 23.20300
H  3.25000 44.14300 23.59000
H  0.58500 42.10900 31.77700
H  -1.74300 43.49300 31.61700
H  -2.80800 41.37800 31.93800
H  -1.13800 41.00100 32.32300
H  -1.65600 40.67300 30.71400
H  -0.06300 44.89800 32.31800
H  1.36100 44.93900 31.38700
H  1.63700 45.03100 33.73300
H  2.61300 43.87000 33.00400
H  -6.48200 42.19200 27.46100
H  -6.04600 43.67800 28.39200
H  -5.38400 42.08500 28.84300
H  -7.23800 42.06900 25.28700
H  -7.70600 43.34300 24.21300
H  -7.38600 43.82400 25.77000
H  -0.95700 44.16000 21.63500
H  1.53400 42.99000 21.81400
H  0.13400 41.34000 21.48700
H  -1.35700 42.14000 20.92500
H  -1.43100 41.25500 22.35000
H  1.05600 45.87000 22.49800
H  0.41300 45.33800 20.98600
H  2.45600 45.37300 19.97700
H  3.28700 44.54100 21.25800
H  2.95300 46.38700 21.29700
H  5.56400 44.71100 24.92900
H  5.94300 43.08400 25.33500
H  6.34900 44.26700 26.48000
H  3.41600 43.90400 30.76400
H  5.20800 40.32900 32.23500
H  3.94300 40.66400 33.29800
H  5.55400 41.52400 33.48400

