158

Mg 0.34500 8.62200 26.55800
C  1.06100 10.68200 29.48400
C  0.82700 5.89000 28.55700
C  0.14500 6.74900 23.80200
C  0.86500 11.44800 24.64400
N  0.85700 8.33100 28.86100
C  0.99200 9.29300 29.81800
C  1.11000 8.56700 31.18600
C  1.25900 7.02800 30.88000
C  0.97900 7.05500 29.35000
C  2.62200 6.39500 31.27400
C  -0.17600 9.02900 31.94100
C  -0.09400 8.94400 33.49500
H  1.23100 8.41800 34.14800
N  0.34400 6.66700 26.26800
C  0.50300 5.68300 27.21500
C  0.19900 4.37700 26.60700
C  0.09300 4.56300 25.16800
C  0.13700 6.08200 25.03800
C  0.19600 3.08200 27.38200
C  0.09400 3.55000 24.01600
O  0.19000 3.87100 22.84700
C  0.07400 2.10900 24.20800
N  0.48100 9.01000 24.53100
C  0.37300 8.08200 23.57600
C  0.53400 8.67500 22.17700
C  0.33800 10.17100 22.50900
C  0.62100 10.21400 23.96900
C  1.94300 8.24700 21.56200
C  -1.16600 10.72300 22.26900
C  -1.44300 11.98700 21.62500
N  0.92000 10.61800 26.90600
C  1.08000 11.70100 26.02100
C  1.38100 12.87600 26.72900
C  1.38400 12.51200 28.09600
C  1.01400 11.15500 28.20600
C  1.63500 14.22700 26.15500
C  1.60400 13.05700 29.35500
O  2.02500 14.18500 29.60600
C  1.30900 11.88300 30.40600
C  2.43800 11.72100 31.31300
O  3.67200 11.64000 31.06100
O  1.92200 11.77500 32.55700
C  2.88900 12.31600 33.51400
H  0.95700 5.01300 29.19400
H  0.14000 6.13400 22.89900
H  1.05400 12.36200 24.07800
H  1.99600 9.01400 31.63500
H  0.53600 6.35600 31.34400
H  2.53500 5.55800 31.96700
H  3.20900 7.18800 31.73600
H  3.14400 6.01400 30.39600
H  -1.01500 8.37500 31.70400
H  -0.53900 9.99500 31.58900
H  -0.85500 8.23800 33.82700
H  -0.26500 9.95000 33.88000
H  -0.08400 3.38300 28.39200
H  1.17300 2.60500 27.30500
H  -0.49900 2.42800 26.85700
H  -0.76800 1.65700 24.73100
H  0.98800 1.82700 24.73200
H  0.08000 1.64000 23.22400
H  -0.25300 8.17700 21.61100
H  1.03900 10.77100 21.92900
H  1.82500 7.44100 20.83700
H  2.76200 8.09600 22.26500
H  2.37900 9.02000 20.93000
H  -1.58800 10.79400 23.27100
H  -1.71500 9.93000 21.76000
H  -0.99900 12.12500 20.64000
H  -1.17200 12.74700 22.35800
H  -2.46500 11.99100 21.24500
H  0.71700 14.80400 26.26800
H  1.82900 14.18800 25.08300
H  2.42500 14.81700 26.61900
H  0.41600 12.23800 30.92000
H  3.14200 11.46500 34.14700
H  2.42300 12.99000 34.23300
H  3.79600 12.73100 33.07700
Mg 26.41400 50.11400 27.27600
C  24.42300 51.49500 29.55300
C  28.62900 49.06500 29.71200
C  28.52900 49.02600 24.83200
C  24.31800 51.31600 24.79300
N  26.56800 50.39400 29.44400
C  25.48500 50.89500 30.17200
C  25.65900 50.57600 31.65100
C  27.16000 49.99100 31.68600
C  27.55300 49.80200 30.21400
C  28.15500 50.80900 32.48900
C  24.55200 49.56700 32.25700
C  24.03800 49.96600 33.64700
H  24.96300 50.65100 34.66500
N  28.40300 49.25300 27.27200
C  29.05100 48.84700 28.33200
C  30.35700 48.30700 27.96300
C  30.30900 48.22100 26.54700
C  29.07400 48.88000 26.13700
C  31.36900 47.88800 29.03600
C  31.33800 47.61700 25.61500
O  31.19400 47.63000 24.37200
C  32.47700 46.89600 26.27400
N  26.49300 50.32600 25.13300
C  27.38900 49.60200 24.35000
C  27.04400 49.81100 22.88200
C  25.54500 50.15900 22.90600
C  25.45600 50.72000 24.31200
C  27.89600 50.83800 22.13300
C  24.51000 49.01500 22.55400
C  23.70800 49.13500 21.20600
N  24.72900 51.19700 27.14000
C  23.96300 51.65500 26.09100
C  22.84200 52.52400 26.57500
C  22.95700 52.42800 27.94300
C  24.09900 51.60700 28.24600
C  21.79900 53.21500 25.66200
C  22.30300 52.73200 29.16300
O  21.24100 53.31800 29.37300
C  23.19900 52.13900 30.25900
C  23.51700 53.21900 31.23800
O  24.39600 54.07200 31.15400
O  22.65900 53.16100 32.33200
C  22.64600 54.19700 33.40300
H  29.27400 48.69500 30.51200
H  29.02200 48.66000 23.93000
H  23.69900 51.62100 23.94600
H  25.57500 51.48800 32.24200
H  27.12400 48.99500 32.12800
H  28.84400 50.07300 32.90300
H  27.61000 51.33900 33.27100
H  28.67400 51.57000 31.90800
H  25.05200 48.60200 32.17900
H  23.68100 49.52000 31.60400
H  23.53600 49.11900 34.11300
H  23.26200 50.71600 33.49700
H  32.34600 48.34000 28.86400
H  31.43900 46.80100 29.00000
H  31.21300 48.03000 30.10500
H  33.04300 46.44300 25.46000
H  32.08100 46.06000 26.84900
H  33.10400 47.57300 26.85400
H  27.27500 48.89100 22.34400
H  25.29600 50.98400 22.23900
H  28.40500 50.31500 21.32400
H  28.60300 51.24600 22.85600
H  27.31500 51.67600 21.74900
H  23.85500 48.81500 23.40200
H  25.14400 48.14700 22.36900
H  24.27100 49.79500 20.54600
H  22.74200 49.63200 21.29800
H  23.47800 48.16400 20.76600
H  21.37400 52.52500 24.93400
H  22.19200 54.03600 25.06200
H  20.95100 53.38500 26.32500
H  22.61100 51.44900 30.86400
H  23.03500 55.17500 33.12000
H  23.26800 53.82600 34.21700
H  21.64000 54.32500 33.80500

