158

Mg 36.02300 49.37600 25.91800
C  36.03400 47.60700 28.85900
C  34.81200 52.13600 27.69900
C  35.53200 50.96600 22.95700
C  36.81500 46.56500 24.15600
N  35.25400 49.78400 28.11000
C  35.71400 48.94500 29.11000
C  35.64800 49.63000 30.44600
C  35.12300 51.05800 30.03400
C  35.03300 51.00500 28.54500
C  33.85800 51.48300 30.82700
C  37.00200 49.62500 31.18900
C  36.87900 49.27500 32.65700
H  35.62400 49.64300 33.46800
N  35.27000 51.25000 25.40200
C  34.82600 52.20900 26.24300
C  34.33000 53.33600 25.50000
C  34.59100 53.04800 24.11700
C  35.13300 51.68200 24.03800
C  33.78600 54.57100 26.21700
C  34.33100 53.98100 22.80400
O  34.48700 53.64700 21.63800
C  34.00200 55.41300 23.13800
N  35.97600 48.80200 23.82200
C  35.99500 49.70500 22.86100
C  36.34600 49.04400 21.49800
C  37.06200 47.75100 21.97100
C  36.59700 47.67600 23.41000
C  35.21800 48.67700 20.44600
C  38.61500 47.83700 21.90600
C  39.40700 46.46100 21.78100
N  36.32100 47.40500 26.34700
C  36.70900 46.38700 25.55900
C  37.03500 45.26200 26.42800
C  36.73400 45.68400 27.71400
C  36.32200 46.99500 27.56700
C  37.31300 43.92600 25.96400
C  36.60700 45.22000 29.06900
O  36.71600 44.12700 29.59100
C  36.35400 46.51900 29.88200
C  35.24600 46.21000 30.83100
O  34.08400 46.11200 30.54500
O  35.76700 45.99300 32.04900
C  34.80100 45.79600 33.17000
H  34.43900 52.96400 28.30400
H  35.49000 51.47800 21.99400
H  37.15800 45.62900 23.70900
H  34.86500 49.05800 30.94400
H  35.83500 51.84700 30.27800
H  34.03300 52.36700 31.44000
H  33.49800 50.78000 31.57800
H  33.08900 51.65300 30.07300
H  37.53400 50.57200 31.09900
H  37.65200 48.94500 30.63800
H  37.75100 49.74000 33.11700
H  37.18400 48.23100 32.59300
H  33.04800 55.13700 25.64800
H  34.59000 55.19600 26.60600
H  33.22500 54.39100 27.13500
H  33.97600 56.11900 22.30800
H  34.81500 55.69000 23.80900
H  33.03500 55.54100 23.62400
H  37.02700 49.69900 20.95500
H  36.64000 46.87700 21.47500
H  34.21100 48.98200 20.73200
H  35.02500 47.62600 20.22900
H  35.46700 49.13200 19.48700
H  39.07800 48.15400 22.84000
H  38.95200 48.41500 21.04500
H  38.77400 45.57700 21.70100
H  40.09800 46.28200 22.60400
H  40.04800 46.42400 20.90000
H  38.32400 44.01300 25.56600
H  36.56800 43.62100 25.22900
H  37.30800 43.18800 26.76500
H  37.30700 46.81200 30.32200
H  35.16800 46.31200 34.05800
H  34.69500 44.75100 33.45900
H  33.86200 46.32700 33.01600
Mg 26.38100 51.02500 27.58500
C  24.31300 51.99400 30.15200
C  28.80200 50.19800 29.98600
C  28.46100 50.32900 25.04400
C  24.11600 52.42500 25.37600
N  26.58300 51.15700 29.90200
C  25.52400 51.43100 30.70600
C  25.89100 51.03400 32.13000
C  27.40400 50.54400 31.98900
C  27.64600 50.61100 30.55200
C  28.38700 51.28200 32.99700
C  24.99700 50.03500 32.80500
C  24.28000 50.49300 34.09300
H  25.15700 50.94700 35.26900
N  28.27400 50.30100 27.54600
C  29.12300 49.98200 28.59000
C  30.33200 49.38400 28.12600
C  30.33800 49.50900 26.68000
C  28.98700 50.09100 26.34800
C  31.44100 48.78900 28.89100
C  31.40100 49.07300 25.61700
O  31.16100 49.08200 24.41800
C  32.74300 48.55300 26.01800
N  26.31300 51.33400 25.53500
C  27.22700 50.86600 24.67900
C  26.87800 51.06200 23.20500
C  25.45700 51.63900 23.33400
C  25.24100 51.87800 24.84500
C  27.83100 51.95600 22.33000
C  24.27000 50.75500 22.79800
C  23.07900 51.59700 22.25100
N  24.52900 52.03300 27.68900
C  23.67900 52.49100 26.71900
C  22.47900 52.98600 27.23300
C  22.69900 52.82300 28.60300
C  23.97700 52.30300 28.83000
C  21.31600 53.45700 26.53900
C  22.06000 53.06800 29.91200
O  21.02500 53.63600 30.18800
C  23.12400 52.40200 30.95900
C  23.49800 53.43900 31.97600
O  24.55300 54.05200 31.96800
O  22.44800 53.73900 32.79400
C  22.84200 54.58700 33.86700
H  29.54100 49.82600 30.69900
H  29.09100 50.05500 24.19500
H  23.30100 52.74400 24.72200
H  25.87700 52.00800 32.61900
H  27.44500 49.48000 32.22400
H  29.23000 51.73500 32.47500
H  28.77600 50.60800 33.76000
H  27.87100 52.16300 33.37900
H  25.54600 49.12600 33.05100
H  24.20600 49.85700 32.07700
H  23.66600 49.67400 34.46600
H  23.65200 51.31900 33.75900
H  31.05800 48.78700 29.91200
H  32.41200 49.28400 28.91100
H  31.56500 47.77100 28.52400
H  33.30400 48.36100 25.10400
H  32.57400 47.61500 26.54700
H  33.18300 49.28200 26.69900
H  26.75300 50.07600 22.75900
H  25.33300 52.60700 22.84900
H  28.75400 51.98600 22.90800
H  27.41500 52.94300 22.12700
H  28.08500 51.43800 21.40500
H  23.84600 50.21700 23.64700
H  24.66000 50.04200 22.07200
H  22.15000 51.16900 22.62900
H  23.05200 51.51200 21.16400
H  23.09100 52.66400 22.47200
H  20.52800 52.98700 27.12700
H  21.32100 53.09300 25.51100
H  21.29200 54.54300 26.62900
H  22.54800 51.61600 31.44800
H  23.10200 55.59200 33.53400
H  23.56400 54.02400 34.45700
H  21.95700 54.68400 34.49700

