158

Mg 24.46600 -5.25900 45.99600
C  26.60600 -2.69300 44.33300
C  22.05700 -4.30400 43.83700
C  22.84000 -7.97500 46.98800
C  27.42100 -6.21700 47.66500
N  24.42300 -3.68700 44.25200
C  25.31400 -2.77500 43.78500
C  24.71200 -1.92600 42.67600
C  23.13500 -2.21100 42.76900
C  23.18600 -3.52600 43.63700
C  22.15700 -1.01800 43.25600
C  25.28600 -2.28400 41.28600
C  26.23900 -1.25500 40.55900
H  26.17000 -1.21200 39.02300
N  22.65300 -5.96400 45.53700
C  21.77600 -5.39700 44.69100
C  20.50900 -6.24100 44.71100
C  20.77500 -7.39100 45.56100
C  22.14200 -7.10400 46.12200
C  19.26200 -5.96500 43.84600
C  19.82800 -8.66000 45.83500
O  18.78600 -8.67700 45.22100
C  20.12200 -9.78300 46.69600
N  25.05900 -6.89700 47.13400
C  24.20400 -7.85100 47.43700
C  24.98300 -8.96100 48.38100
C  26.33500 -8.26800 48.65300
C  26.24700 -7.09600 47.72000
C  24.32300 -9.32000 49.72100
C  27.47900 -9.17400 48.21000
C  28.59200 -9.29800 49.16500
N  26.59100 -4.60400 46.08600
C  27.57500 -5.09500 46.86400
C  28.78800 -4.32700 46.57900
C  28.38700 -3.38300 45.66600
C  27.07300 -3.59300 45.34300
C  30.18900 -4.49300 47.11500
C  28.94500 -2.27800 44.85000
O  30.06500 -1.73000 44.81800
C  27.72100 -1.75600 44.08500
C  27.59700 -0.32800 44.49300
O  26.68000 0.07800 45.21000
O  28.37700 0.49300 43.76300
C  27.90400 1.86500 43.73900
H  21.23500 -3.96000 43.20500
H  22.37000 -8.90400 47.32000
H  28.34000 -6.49000 48.18800
H  24.84400 -0.86200 42.87400
H  22.77800 -2.48700 41.77700
H  21.44500 -1.38700 43.99400
H  21.67900 -0.65800 42.34500
H  22.76200 -0.21800 43.68100
H  24.44000 -2.44000 40.61600
H  25.89100 -3.18700 41.35700
H  27.28700 -1.25900 40.85800
H  25.93500 -0.29700 40.98200
H  19.34900 -5.09900 43.19000
H  18.43600 -5.86700 44.55000
H  19.05400 -6.77200 43.14400
H  19.21800 -10.38500 46.79900
H  20.21300 -9.35900 47.69600
H  20.93700 -10.44200 46.39700
H  24.93900 -9.85900 47.76300
H  26.59600 -7.84800 49.62500
H  23.76700 -10.23500 49.52000
H  23.62100 -8.58000 50.10400
H  25.03400 -9.47400 50.53200
H  27.80600 -8.81800 47.23300
H  27.13900 -10.19800 48.05700
H  28.87400 -8.29500 49.48400
H  29.43600 -9.73300 48.62800
H  28.16200 -9.86500 49.99000
H  30.26100 -4.64100 48.19200
H  30.79700 -3.59100 47.04900
H  30.64200 -5.27800 46.50900
H  27.75700 -1.65800 43.00000
H  27.99600 2.20500 44.77000
H  26.90600 1.97300 43.31300
H  28.53400 2.43300 43.05500
Mg 26.90700 50.66000 26.98400
C  24.78800 51.76200 29.59700
C  29.33500 49.82800 29.28300
C  28.87000 50.06100 24.42500
C  24.43900 51.99100 24.76100
N  27.03200 50.82600 29.10200
C  26.05800 51.21100 30.01100
C  26.44200 50.94300 31.45000
C  28.00600 50.68800 31.27800
C  28.11900 50.37000 29.82400
C  28.91900 51.85100 31.66900
C  25.66400 49.78600 32.16600
C  25.08100 50.26200 33.51800
H  26.08600 50.56800 34.59300
N  28.86600 49.99200 26.89300
C  29.70600 49.56500 27.89800
C  30.95100 49.00000 27.37100
C  30.87300 49.28900 25.89200
C  29.52300 49.83200 25.68000
C  31.91200 48.28600 28.24900
C  31.84000 48.90200 24.79200
O  31.62600 49.16700 23.61700
C  33.15100 48.16400 25.08600
N  26.71200 51.02900 24.95700
C  27.70400 50.72800 24.07300
C  27.28200 50.90400 22.54900
C  25.76300 51.27600 22.73300
C  25.65800 51.46300 24.29300
C  28.08700 51.77200 21.60700
C  24.79300 50.18500 22.04000
C  24.30000 49.08600 22.92200
N  25.00800 51.71100 27.11300
C  24.16800 52.08500 26.11100
C  23.05100 52.71100 26.70900
C  23.22500 52.63500 28.05800
C  24.44000 51.98000 28.30400
C  21.84800 53.32100 25.95400
C  22.72600 53.08800 29.26300
O  21.75500 53.84700 29.50500
C  23.69100 52.54100 30.40200
C  24.26200 53.69600 31.22500
O  25.23700 54.33500 30.90600
O  23.47400 53.78400 32.39600
C  23.73500 54.80100 33.40200
H  30.14100 49.55700 29.96800
H  29.54200 49.86700 23.58700
H  23.69300 52.42400 24.09100
H  26.16500 51.84400 31.99800
H  28.17800 49.80500 31.89400
H  29.06500 51.83100 32.74900
H  28.34500 52.72800 31.36800
H  29.86700 51.78800 31.13500
H  26.30700 48.92600 32.35200
H  24.87000 49.46500 31.49200
H  24.45300 49.43100 33.84000
H  24.38300 51.09400 33.41800
H  31.57500 47.25000 28.20700
H  31.98800 48.73000 29.24200
H  32.93100 48.34100 27.86600
H  33.04800 47.10000 25.30000
H  33.72100 48.62400 25.89300
H  33.74100 48.27200 24.17600
H  27.51700 49.90300 22.18700
H  25.60900 52.27500 22.32500
H  28.22800 51.29200 20.63800
H  29.08600 51.96100 21.99800
H  27.64900 52.73100 21.33100
H  25.17800 49.77800 21.10500
H  23.96500 50.82800 21.74200
H  24.92600 48.93700 23.80300
H  24.34800 48.14000 22.38200
H  23.24000 49.31000 23.03900
H  21.64200 52.87300 24.98200
H  21.91300 54.39800 25.80500
H  20.88900 53.09500 26.42000
H  23.12800 51.89100 31.07200
H  24.26600 55.53100 32.79100
H  24.36500 54.28500 34.12700
H  22.77000 55.06000 33.83700

