158

Mg 2.45800 -1.68300 44.17600
C  4.90500 0.75400 43.33000
C  0.03800 0.52500 42.80400
C  0.36200 -4.16200 44.25600
C  5.10100 -3.78600 45.21200
N  2.47900 0.34100 43.20300
C  3.64200 1.14400 42.96800
C  3.24600 2.45600 42.26200
C  1.67000 2.40400 42.22500
C  1.38400 0.95600 42.75300
C  1.04900 3.53400 43.14500
C  3.95100 2.55800 40.87500
C  4.66000 3.87200 40.58000
H  4.45900 4.34900 39.07800
N  0.42600 -1.78400 43.83000
C  -0.39700 -0.77400 43.34100
C  -1.77300 -1.28300 43.35700
C  -1.69800 -2.71900 43.64800
C  -0.25700 -2.94500 43.94500
C  -2.97400 -0.48000 43.17300
C  -2.94100 -3.62900 43.87400
O  -4.09500 -3.23600 43.64600
C  -2.77000 -5.08600 44.34900
N  2.70700 -3.72200 44.60600
C  1.65100 -4.57500 44.57600
C  2.07500 -5.97800 45.11600
C  3.64100 -5.81400 45.34500
C  3.89600 -4.38700 45.06800
C  1.20500 -6.56600 46.23900
C  4.54600 -6.76800 44.39300
C  5.36800 -7.91000 45.01200
N  4.67500 -1.59600 44.21800
C  5.55800 -2.51600 44.72400
C  6.83200 -1.89200 44.70800
C  6.62200 -0.56800 44.21500
C  5.26000 -0.40900 43.90900
C  8.10200 -2.54900 45.04100
C  7.25900 0.68900 43.90900
O  8.41700 1.04100 43.97100
C  6.15300 1.66400 43.37600
C  6.04400 2.76600 44.32200
O  5.54000 2.62400 45.45200
O  6.69100 3.89000 43.94400
C  6.64400 4.95700 44.96400
H  -0.79400 1.11600 42.41400
H  -0.29400 -5.03500 44.24800
H  5.81700 -4.53300 45.56200
H  3.69800 3.24200 42.86800
H  1.29100 2.52700 41.21000
H  1.73900 4.27500 43.54900
H  0.53100 3.09400 43.99700
H  0.36000 4.08700 42.50700
H  3.25300 2.42100 40.04900
H  4.74700 1.81600 40.80600
H  5.72600 3.75700 40.77100
H  4.25900 4.55500 41.32900
H  -3.30600 -0.81200 42.19000
H  -2.74800 0.57800 43.04100
H  -3.80800 -0.69600 43.84100
H  -3.69600 -5.62300 44.55200
H  -2.10900 -5.19000 45.21000
H  -2.29900 -5.68500 43.57000
H  2.02700 -6.66100 44.26800
H  3.80900 -5.95100 46.41300
H  0.54500 -5.82500 46.68900
H  1.71500 -6.85500 47.15700
H  0.66500 -7.37700 45.75000
H  5.23600 -6.22200 43.75100
H  3.90900 -7.24900 43.65100
H  5.36900 -8.10200 46.08500
H  6.39700 -7.63900 44.77800
H  5.18600 -8.87900 44.54900
H  8.47200 -3.09000 44.17000
H  7.84900 -3.34700 45.73900
H  8.79400 -1.84500 45.50300
H  6.43900 2.10300 42.42000
H  7.40500 4.71600 45.70700
H  5.68100 5.14300 45.43800
H  6.90500 5.85300 44.40100
Mg 48.15100 16.09200 29.01900
C  46.39100 15.50000 31.81200
C  50.49400 17.68500 30.90100
C  49.97200 16.67000 26.26500
C  45.53000 14.60400 27.05700
N  48.47400 16.40100 31.12000
C  47.53900 16.12600 32.10600
C  47.89700 16.72500 33.49100
C  49.19900 17.50000 33.08800
C  49.40400 17.24900 31.61200
C  49.13200 19.04000 33.45900
C  48.22600 15.60400 34.53100
C  47.53600 15.91000 35.85700
H  47.40000 17.34400 36.38000
N  49.99800 16.97700 28.64400
C  50.83400 17.56600 29.54400
C  52.09800 17.98000 28.92300
C  51.94600 17.72700 27.54800
C  50.63800 17.00700 27.44300
C  53.24800 18.48600 29.76600
C  52.88000 18.13500 26.37800
O  52.69000 17.65200 25.23200
C  53.95500 19.20400 26.51300
N  47.74000 15.77400 26.95500
C  48.62400 16.24600 26.03300
C  48.13000 15.94200 24.61500
C  46.73300 15.25900 24.89300
C  46.66600 15.18200 26.33700
C  48.31500 17.23300 23.68900
C  46.53700 13.84400 24.13400
C  46.86400 12.59400 24.94500
N  46.28600 15.22200 29.31500
C  45.42900 14.54200 28.43200
C  44.35500 13.89300 29.21800
C  44.62500 14.27800 30.56500
C  45.84900 15.09800 30.53600
C  43.13900 13.15000 28.78500
C  44.21000 14.25800 31.99300
O  43.29500 13.70000 32.63000
C  45.32500 15.11300 32.78000
C  44.52300 16.25700 33.25800
O  44.26600 17.32000 32.66700
O  43.98400 15.97500 34.51400
C  43.06600 16.91900 35.13900
H  51.20400 18.19000 31.55900
H  50.45300 16.87900 25.30800
H  44.71100 14.14200 26.50100
H  47.11100 17.42400 33.77600
H  49.99100 16.98700 33.63200
H  49.29900 19.80300 32.69900
H  49.90700 19.15200 34.21700
H  48.26000 19.27700 34.06800
H  49.26800 15.45800 34.81500
H  47.75200 14.67700 34.20700
H  48.05200 15.30300 36.60100
H  46.51000 15.61600 35.63700
H  52.92100 18.96400 30.69000
H  53.75500 19.25300 29.18100
H  53.97100 17.69500 29.96300
H  53.42800 19.94700 27.11100
H  54.36200 19.62300 25.59200
H  54.73100 18.74700 27.12800
H  48.69200 15.17100 24.08900
H  45.97400 15.98300 24.59900
H  49.02900 17.06800 22.88200
H  48.71900 18.07400 24.25300
H  47.31700 17.39800 23.28400
H  47.16600 13.87300 23.24400
H  45.54000 13.76700 23.70000
H  45.97200 12.34300 25.51900
H  47.68600 12.89700 25.59400
H  47.14800 11.68300 24.41800
H  42.27500 13.70800 28.42400
H  42.91600 12.44900 29.59000
H  43.49800 12.50900 27.97900
H  45.67600 14.40400 33.53000
H  42.60700 17.64700 34.47100
H  43.49800 17.51300 35.94500
H  42.22900 16.48800 35.68700

