158

Mg 17.18800 51.10500 26.58300
C  19.02200 49.49900 28.98100
C  14.97400 52.14400 29.01600
C  15.19800 52.29500 24.18900
C  19.24600 49.64800 24.11400
N  16.97400 50.76700 28.73500
C  17.89400 50.16100 29.51300
C  17.63900 50.48900 31.00000
C  16.18300 50.97100 30.96300
C  15.98600 51.30300 29.44900
C  15.13500 50.04100 31.50000
C  18.70200 51.49400 31.53900
C  19.16100 51.16600 32.92600
H  18.13600 50.54900 33.97800
N  15.38000 52.10200 26.59300
C  14.74000 52.56600 27.67400
C  13.79300 53.58300 27.30900
C  13.71700 53.60700 25.89900
C  14.71400 52.56500 25.45800
C  13.02300 54.50500 28.35000
C  12.92400 54.35300 24.84900
O  13.00300 54.14100 23.59800
C  11.99000 55.38500 25.40000
N  17.11300 50.76300 24.45500
C  16.35000 51.57200 23.70300
C  16.52300 51.33800 22.19700
C  17.94400 50.63600 22.20700
C  18.13600 50.36900 23.67600
C  15.35300 50.54800 21.53300
C  19.06000 51.50400 21.43500
C  19.84500 50.66700 20.37100
N  18.82200 49.85300 26.54900
C  19.54000 49.34300 25.47500
C  20.63800 48.54600 26.07000
C  20.47600 48.63600 27.41600
C  19.31500 49.37200 27.66600
C  21.82000 47.95400 25.27700
C  21.11200 48.25200 28.70600
O  22.08900 47.57900 29.00600
C  20.19500 48.83300 29.76800
C  19.83400 47.73700 30.73600
O  19.07200 46.84700 30.49500
O  20.45900 47.96800 31.98200
C  19.98300 47.10800 33.05600
H  14.47600 52.66600 29.83700
H  14.62000 52.67400 23.34400
H  19.98000 49.30900 23.38000
H  17.79700 49.52800 31.49000
H  16.14100 51.91700 31.50300
H  14.43300 50.53100 32.17500
H  15.62500 49.32100 32.15500
H  14.60800 49.53200 30.69300
H  18.16100 52.43700 31.62400
H  19.49700 51.77100 30.84700
H  19.56200 52.06000 33.40400
H  20.03900 50.52100 32.92500
H  13.02700 55.51400 27.93600
H  13.51000 54.45500 29.32300
H  11.99000 54.15900 28.39700
H  11.58400 55.97800 24.58000
H  12.65700 56.09300 25.89200
H  11.22700 55.01400 26.08400
H  16.59100 52.24700 21.60000
H  17.84500 49.68900 21.67700
H  15.82900 49.73700 20.98200
H  14.76700 51.14000 20.82900
H  14.81300 50.03800 22.33000
H  19.82000 51.90000 22.10900
H  18.55300 52.33400 20.94200
H  19.86400 49.59100 20.54500
H  20.91000 50.90000 20.36600
H  19.43700 50.91400 19.39100
H  22.28900 48.78700 24.75500
H  21.27700 47.27200 24.62300
H  22.49700 47.40600 25.93300
H  20.69000 49.65900 30.27700
H  20.13900 46.03100 32.99500
H  18.92900 47.38400 33.08700
H  20.46200 47.43700 33.97800
Mg -11.21700 38.42900 41.10300
C  -10.12600 35.18200 40.74900
C  -8.41800 39.55100 39.54200
C  -12.77500 41.42800 40.64900
C  -14.43900 36.94800 41.93500
N  -9.52300 37.45800 40.19800
C  -9.20000 36.14400 40.29200
C  -7.91400 35.88700 39.44300
C  -7.20800 37.27900 39.48600
C  -8.42800 38.14600 39.74800
C  -6.08500 37.54000 40.56100
C  -8.14200 35.30700 37.97000
C  -6.95000 34.74100 37.17000
H  -6.52300 35.48600 35.88200
N  -10.63000 40.34000 40.36200
C  -9.36100 40.59800 39.82300
C  -9.21800 41.99600 39.65700
C  -10.50600 42.60700 39.94800
C  -11.39100 41.49900 40.34500
C  -7.90200 42.63900 39.21600
C  -10.81800 44.10400 39.87100
O  -9.95000 44.81400 39.34000
C  -12.11900 44.64800 40.36800
N  -13.32800 39.07300 41.07800
C  -13.61800 40.34800 40.93800
C  -15.13000 40.62700 41.35700
C  -15.69000 39.17400 41.60400
C  -14.40600 38.31800 41.51300
C  -15.29900 41.51700 42.68100
C  -16.88700 38.65600 40.70200
C  -18.23200 39.49700 40.70500
N  -12.10100 36.54200 41.65000
C  -13.36800 36.11400 42.02000
C  -13.35400 34.69600 42.22300
C  -12.11300 34.30300 41.73000
C  -11.37000 35.40500 41.36100
C  -14.50300 33.87900 42.77000
C  -11.28300 33.11200 41.52400
O  -11.48000 31.91100 41.69100
C  -9.96800 33.64600 40.88800
C  -8.72300 33.21900 41.51600
O  -7.70100 32.92300 40.99300
O  -8.93800 33.23600 42.89600
C  -7.66300 32.99900 43.57500
H  -7.45600 39.88400 39.14600
H  -13.15100 42.45300 40.66000
H  -15.41600 36.49300 42.11100
H  -7.32700 35.10800 39.93000
H  -6.82000 37.58500 38.51500
H  -6.20800 36.84800 41.39400
H  -6.14100 38.53600 41.00100
H  -5.12700 37.37700 40.06700
H  -8.72500 36.01200 37.37900
H  -8.87700 34.52800 38.17700
H  -7.17800 33.77000 36.72900
H  -6.10900 34.58700 37.84700
H  -8.00700 43.06400 38.21700
H  -7.10500 41.90000 39.30300
H  -7.54600 43.51600 39.75600
H  -12.94400 44.35100 39.72000
H  -12.04800 45.73600 40.37900
H  -12.11800 44.33800 41.41300
H  -15.66500 41.08000 40.52200
H  -16.03700 39.19900 42.63600
H  -14.80900 41.00700 43.51200
H  -16.37700 41.62800 42.79000
H  -14.75300 42.43400 42.45900
H  -17.09000 37.60600 40.91600
H  -16.45600 38.64100 39.70200
H  -18.96700 38.98200 41.32400
H  -18.62800 39.60900 39.69600
H  -18.14600 40.50700 41.10400
H  -14.74200 34.16900 43.79300
H  -14.23700 32.82200 42.80100
H  -15.43500 33.88400 42.20400
H  -9.98200 33.22200 39.88500
H  -7.85900 32.67600 44.59700
H  -7.14800 33.96000 43.59000
H  -7.10400 32.16600 43.14800

