158

Mg 2.28900 -1.69200 44.23100
C  5.70100 -1.05600 43.98100
C  1.52600 1.17100 42.66100
C  -1.04200 -2.65600 44.37400
C  3.16600 -4.96900 45.25700
N  3.53000 -0.21800 43.33300
C  4.87600 -0.13400 43.35800
C  5.35000 1.13600 42.61600
C  4.02100 1.94000 42.32300
C  2.92000 0.87100 42.69400
C  3.83900 3.35100 43.01100
C  6.11800 0.71700 41.29000
C  7.28200 1.60300 40.96600
H  7.46200 2.12700 39.43700
N  0.50800 -0.87800 43.51600
C  0.43100 0.41200 43.03300
C  -0.97400 0.72000 42.79800
C  -1.73100 -0.44700 43.19700
C  -0.77000 -1.38900 43.77700
C  -1.40600 1.99600 42.12700
C  -3.26700 -0.62400 43.07800
O  -3.85400 0.24000 42.46400
C  -4.02800 -1.76400 43.55200
N  1.19100 -3.53700 44.61000
C  -0.18700 -3.70200 44.76800
C  -0.64700 -5.07500 45.25900
C  0.77100 -5.75400 45.62500
C  1.80200 -4.66200 45.13900
C  -1.62200 -5.05300 46.36900
C  0.87800 -7.06100 44.70100
C  0.11200 -8.35100 45.21300
N  4.02300 -2.84300 44.62700
C  4.21100 -4.09600 45.02000
C  5.54000 -4.32100 45.25300
C  6.16500 -3.13800 45.01700
C  5.20500 -2.25900 44.51400
C  6.14700 -5.57600 45.71000
C  7.43400 -2.48500 44.92400
O  8.57500 -2.82500 45.27800
C  7.17200 -1.12400 44.22300
C  7.62100 -0.01000 45.05800
O  7.39700 0.14600 46.22300
O  8.45400 0.76200 44.27700
C  8.84500 2.08500 44.84300
H  1.34800 2.21300 42.38600
H  -2.06200 -3.03600 44.45400
H  3.36300 -5.92300 45.75100
H  6.02500 1.77500 43.18500
H  3.99100 2.09200 41.24400
H  4.69100 3.58300 43.65100
H  2.88300 3.54000 43.50000
H  3.84400 4.00800 42.14200
H  5.36500 0.67800 40.50300
H  6.57000 -0.27400 41.33900
H  8.18800 1.03500 41.17900
H  7.41200 2.50500 41.56500
H  -2.12600 1.76000 41.34400
H  -0.59200 2.51000 41.61700
H  -1.80500 2.60900 42.93500
H  -5.00100 -1.97500 43.10800
H  -4.15300 -1.71300 44.63400
H  -3.62000 -2.73600 43.27700
H  -1.01400 -5.64200 44.40400
H  0.85000 -5.97500 46.68900
H  -2.23300 -4.15200 46.33100
H  -1.09300 -5.17800 47.31400
H  -2.26000 -5.91700 46.18200
H  1.94800 -7.25600 44.77200
H  0.56900 -6.80700 43.68800
H  0.79800 -9.08700 45.63200
H  -0.38300 -8.68700 44.30100
H  -0.52900 -7.98400 46.01400
H  6.38900 -6.28900 44.92200
H  5.53100 -6.11500 46.43000
H  7.07600 -5.30500 46.21300
H  7.73100 -1.17600 43.28900
H  8.57900 2.18100 45.89600
H  8.42500 2.83100 44.16900
H  9.91300 2.28900 44.76000
Mg 48.16200 46.01800 44.10800
C  44.96000 46.64900 42.91600
C  48.15900 42.94200 42.53900
C  51.46400 45.87900 44.68100
C  48.13000 49.40700 45.40900
N  46.65100 45.00800 42.84300
C  45.46800 45.41000 42.46600
C  44.83200 44.36400 41.57100
C  45.65800 43.04500 41.90000
C  46.94300 43.70100 42.44700
C  45.01100 42.23100 43.09700
C  44.78900 44.70800 40.02700
C  43.76300 44.05100 39.16800
H  44.18500 43.26700 37.92100
N  49.62000 44.50900 43.70400
C  49.39200 43.36500 43.04200
C  50.61700 42.67800 42.96300
C  51.67400 43.47600 43.58400
C  50.96600 44.69600 43.96000
C  50.68600 41.32100 42.31200
C  53.08100 42.94600 43.82700
O  53.44500 41.88300 43.35800
C  54.18300 43.72700 44.54200
N  49.57800 47.44300 44.89600
C  50.91400 47.11000 45.08100
C  51.67300 48.23500 45.80300
C  50.64200 49.38600 45.84600
C  49.32000 48.74900 45.44800
C  52.29600 47.94400 47.24000
C  51.02300 50.62100 44.92600
C  51.95100 51.66100 45.50600
N  46.86400 47.67700 44.17400
C  47.00700 48.97100 44.75600
C  45.78300 49.67400 44.62100
C  44.94700 48.80000 43.99000
C  45.64600 47.61300 43.72800
C  45.42600 51.02200 45.12100
C  43.67100 48.62900 43.39200
O  42.73600 49.40700 43.38100
C  43.57500 47.23300 42.72600
C  42.52800 46.38700 43.43000
O  42.75700 45.59900 44.31200
O  41.42400 46.38200 42.64300
C  40.50700 45.36300 43.06800
H  48.08200 41.89200 42.25000
H  52.54500 45.74900 44.77300
H  47.99200 50.36500 45.91600
H  43.79600 44.25100 41.88800
H  45.90800 42.40200 41.05600
H  43.96500 42.53400 43.14100
H  45.52500 42.42500 44.03800
H  45.08300 41.14900 42.99500
H  45.73000 44.51200 39.51400
H  44.70100 45.79400 39.99100
H  42.95300 44.69500 38.82500
H  43.30700 43.29300 39.80600
H  49.84600 41.06400 41.66700
H  50.66700 40.52900 43.06000
H  51.61000 41.31100 41.73300
H  53.73600 44.05300 45.48100
H  54.31100 44.59400 43.89400
H  55.16000 43.25000 44.62300
H  52.49400 48.49300 45.13400
H  50.59600 49.67700 46.89500
H  51.56700 47.82600 48.04200
H  53.07300 48.68200 47.43800
H  52.64900 46.93300 47.03800
H  50.09800 51.07700 44.57500
H  51.55400 50.30800 44.02700
H  51.48700 52.64600 45.44700
H  52.90600 51.60600 44.98400
H  52.23600 51.54300 46.55100
H  44.64800 51.43300 44.47900
H  46.30600 51.66500 45.09900
H  45.02800 50.94500 46.13300
H  43.25400 47.39500 41.69700
H  40.88500 44.34100 43.04800
H  39.60800 45.47900 42.46300
H  40.22900 45.45300 44.11800

