158

Mg 36.52700 49.68600 25.69300
C  36.23000 47.83800 28.73500
C  34.92000 52.35300 27.39200
C  35.91200 51.11900 22.77100
C  37.62000 46.81900 24.18100
N  35.57600 49.98600 27.80100
C  35.74900 49.13700 28.91300
C  35.21300 49.79700 30.13800
C  34.55100 51.19900 29.60600
C  35.05000 51.21100 28.20500
C  32.98600 51.34200 29.72700
C  36.30000 50.20600 31.17100
C  35.78900 49.97600 32.61200
H  34.32000 50.58700 32.83400
N  35.71200 51.61200 25.15400
C  35.19200 52.56900 25.98600
C  34.91400 53.70100 25.17700
C  34.98600 53.34500 23.79100
C  35.58400 51.97600 23.80700
C  34.42900 55.00900 25.74200
C  34.56400 54.03200 22.51900
O  34.76300 53.55300 21.45000
C  33.89000 55.40900 22.58900
N  36.64800 49.06100 23.70700
C  36.41700 49.82000 22.66900
C  36.73100 49.06300 21.35100
C  37.61500 47.83100 21.86000
C  37.35300 47.87900 23.35500
C  35.52400 48.74100 20.47900
C  39.16700 47.89800 21.43400
C  39.50700 46.73800 20.51800
N  36.94500 47.74200 26.30500
C  37.40700 46.66700 25.56600
C  37.55300 45.48400 26.46300
C  37.10000 45.93800 27.68900
C  36.71200 47.29000 27.54500
C  37.93800 44.09800 25.94000
C  36.97600 45.54000 29.15200
O  37.32100 44.51200 29.75900
C  36.46900 46.82200 29.86900
C  35.26200 46.40400 30.72100
O  34.04600 46.50200 30.37000
O  35.63500 46.12800 32.01200
C  34.67200 45.54500 32.95200
H  34.46400 53.23400 27.84800
H  35.83600 51.61700 21.80200
H  38.10100 46.02900 23.60100
H  34.40900 49.23800 30.61800
H  35.01400 52.04900 30.10800
H  32.45900 50.62000 30.34900
H  32.60500 51.56000 28.72900
H  32.81500 52.30100 30.21600
H  36.69900 51.21100 31.03900
H  37.19900 49.60500 31.03600
H  36.40400 50.52000 33.32900
H  35.83800 48.90000 32.78000
H  34.97000 55.88300 25.38100
H  34.47900 54.97200 26.83000
H  33.38600 55.19000 25.48000
H  34.36500 56.09000 23.29500
H  32.86800 55.11300 22.82500
H  33.86900 55.86100 21.59800
H  37.31600 49.69700 20.68600
H  37.18700 46.97100 21.34500
H  34.61000 49.33100 20.55600
H  35.22400 47.69400 20.50500
H  35.91500 48.96500 19.48700
H  39.75900 47.71600 22.33100
H  39.44400 48.84300 20.96600
H  39.17600 46.79800 19.48200
H  39.09600 45.87600 21.04500
H  40.59700 46.72200 20.51200
H  37.98800 43.42900 26.79900
H  38.92700 44.29000 25.52200
H  37.17700 43.70600 25.26700
H  37.13200 47.21400 30.64000
H  34.09000 46.36700 33.37000
H  35.10200 44.97600 33.77600
H  33.98500 44.86200 32.45300
Mg -0.71800 33.79000 25.87300
C  -2.67200 32.42000 28.31000
C  0.46000 36.19200 28.29900
C  0.78900 35.50600 23.41300
C  -2.34700 31.79600 23.50400
N  -1.07200 34.24000 28.08600
C  -1.91100 33.41900 28.85300
C  -1.72800 33.92900 30.33100
C  -0.93700 35.29300 30.27100
C  -0.48300 35.25900 28.79200
C  -1.77300 36.58800 30.56800
C  -1.23700 32.92600 31.32700
C  -1.86000 33.05300 32.74700
H  -0.87500 32.93800 33.92800
N  0.39100 35.50000 25.88200
C  0.81100 36.30900 26.90000
C  1.66300 37.37100 26.41700
C  1.76300 37.20000 25.02200
C  0.94700 36.02800 24.67400
C  2.24600 38.35700 27.35700
C  2.59900 38.01100 24.01300
O  2.43900 37.95200 22.79700
C  3.69100 38.91600 24.51300
N  -0.73000 33.60300 23.71200
C  -0.04800 34.41600 22.92300
C  -0.18500 34.06600 21.43000
C  -1.03100 32.81800 21.50400
C  -1.36500 32.66600 22.96900
C  -0.65100 35.27300 20.53100
C  -0.26400 31.56900 20.96900
C  0.49100 30.55300 21.86800
N  -2.16000 32.34700 25.84700
C  -2.75300 31.62900 24.80700
C  -3.81200 30.75200 25.43200
C  -3.71200 31.03800 26.78300
C  -2.74700 32.02000 26.96100
C  -4.58400 29.64500 24.79500
C  -4.37000 30.66300 27.99300
O  -5.27000 29.87700 28.19400
C  -3.67500 31.47600 29.06000
C  -4.60400 32.14800 29.90700
O  -5.18500 33.13400 29.55100
O  -4.96000 31.43500 31.05600
C  -5.85600 32.02600 32.05000
H  0.89100 36.88000 29.02900
H  1.29900 36.10700 22.65900
H  -2.91400 31.19100 22.79400
H  -2.74300 34.29100 30.49700
H  -0.03500 35.26200 30.88200
H  -2.60500 36.28900 31.20500
H  -2.16000 36.95300 29.61700
H  -1.19400 37.42400 30.96200
H  -0.16100 33.07300 31.42300
H  -1.28700 31.90300 30.95400
H  -2.55200 32.21300 32.80100
H  -2.46700 33.95700 32.78500
H  2.96200 37.85100 28.00500
H  1.45900 38.59800 28.07100
H  2.69500 39.22500 26.87400
H  4.19500 38.39300 25.32600
H  3.43500 39.89300 24.92200
H  4.40200 39.07700 23.70200
H  0.86400 33.89800 21.18500
H  -1.93000 32.87800 20.89100
H  -1.57300 35.01400 20.00900
H  0.17700 35.55400 19.88000
H  -0.95800 36.08200 21.19300
H  0.41000 31.82500 20.15100
H  -0.94800 30.84200 20.53200
H  1.46900 30.27500 21.47400
H  -0.04100 29.60200 21.90900
H  0.70500 30.92900 22.86900
H  -4.61000 29.93000 23.74400
H  -5.61200 29.60000 25.15700
H  -4.12000 28.66200 24.88300
H  -3.10700 30.88300 29.77600
H  -5.22700 32.61100 32.72100
H  -6.24300 31.18400 32.62300
H  -6.76500 32.51900 31.70500

