158

Mg 3.79400 -0.55300 43.41700
C  7.20300 0.04100 43.10400
C  3.12400 2.22800 41.59300
C  0.50600 -1.59200 43.07000
C  4.52600 -3.73700 44.67500
N  5.06500 0.87600 42.52200
C  6.45900 1.02000 42.48000
C  6.95600 2.24500 41.77400
C  5.56600 3.07300 41.76800
C  4.47200 2.01900 41.96800
C  5.39400 4.20200 42.82800
C  7.61000 1.99300 40.39700
C  7.27500 0.71200 39.60000
H  6.25200 0.78900 38.47000
N  2.03900 0.29000 42.46800
C  1.96600 1.49000 41.88900
C  0.63000 1.79900 41.56300
C  -0.23400 0.73800 42.02900
C  0.76600 -0.29700 42.55600
C  0.18300 3.08100 40.99900
C  -1.75700 0.65800 42.02200
O  -2.44100 1.56400 41.55900
C  -2.57700 -0.44900 42.49600
N  2.65900 -2.37500 43.82600
C  1.34900 -2.53000 43.58200
C  0.88100 -4.00300 43.95900
C  2.25500 -4.72200 44.29300
C  3.23600 -3.53300 44.25500
C  -0.11900 -4.10600 45.21000
C  2.67900 -5.91300 43.28700
C  2.89300 -7.19300 44.05200
N  5.42700 -1.60300 44.06100
C  5.58200 -2.84200 44.60200
C  6.99400 -3.13300 45.03700
C  7.66900 -2.04100 44.45400
C  6.69200 -1.11400 43.87300
C  7.51400 -4.31900 45.75200
C  9.02000 -1.46600 44.12200
O  10.16400 -1.80000 44.37400
C  8.75100 -0.11400 43.28000
C  9.37800 1.07000 43.92700
O  9.86000 2.02400 43.29700
O  9.21900 1.12000 45.28600
C  9.55900 2.32100 45.98800
H  3.03900 3.16200 41.03300
H  -0.51400 -1.92200 43.27600
H  4.66400 -4.71100 45.15000
H  7.70900 2.70700 42.41200
H  5.54200 3.62300 40.82700
H  5.20400 5.19400 42.41700
H  6.36500 4.36200 43.29900
H  4.57300 4.08100 43.53400
H  8.69700 1.92200 40.43500
H  7.48200 2.83100 39.71100
H  6.73700 0.05900 40.28800
H  8.22500 0.23000 39.36900
H  1.00100 3.46900 40.39100
H  0.08300 3.84400 41.77100
H  -0.66500 3.08300 40.31500
H  -2.47800 -0.73000 43.54500
H  -2.19400 -1.27200 41.89300
H  -3.63900 -0.30000 42.30300
H  0.49000 -4.48800 43.06500
H  2.28300 -5.09200 45.31800
H  0.14500 -5.03900 45.70900
H  -1.17800 -4.12200 44.95500
H  0.02500 -3.27700 45.90200
H  3.49700 -5.62700 42.62500
H  1.84500 -6.06800 42.60200
H  3.31400 -7.95900 43.40100
H  1.99400 -7.47600 44.60100
H  3.68300 -7.05500 44.79100
H  8.57600 -4.35700 45.99100
H  7.23700 -5.14900 45.10200
H  6.90600 -4.46100 46.64500
H  9.27400 -0.06200 42.32500
H  9.24100 2.10500 47.00800
H  8.88500 3.11300 45.66200
H  10.61700 2.55000 45.85700
Mg 46.93900 34.74800 27.73200
C  45.47200 33.11000 30.48600
C  46.94500 37.50400 29.72400
C  47.83300 36.34100 25.12000
C  46.31200 31.79900 25.81100
N  46.28800 35.21400 29.94500
C  45.86300 34.36900 30.89200
C  45.97700 34.96800 32.27500
C  46.03000 36.46000 31.90700
C  46.41800 36.44300 30.41600
C  44.78900 37.35600 32.16600
C  47.22000 34.52600 33.04300
C  46.98600 34.39800 34.61300
H  45.87800 35.11900 35.36600
N  47.50600 36.57100 27.50100
C  47.54000 37.59200 28.44200
C  48.23700 38.74900 27.86400
C  48.41000 38.42200 26.48000
C  47.91200 37.09200 26.30300
C  48.61600 40.05300 28.63900
C  49.03400 39.33100 25.45900
O  49.15300 39.00300 24.28600
C  49.55900 40.74500 25.83600
N  47.09800 34.11400 25.75200
C  47.49900 35.01000 24.81700
C  47.58900 34.33600 23.44300
C  47.31400 32.83000 23.76300
C  46.92200 32.87000 25.19500
C  46.78800 35.06300 22.35300
C  48.36900 31.64400 23.55300
C  47.78000 30.35000 23.00300
N  46.14600 32.78100 28.02100
C  45.92900 31.70500 27.17600
C  45.31000 30.59000 27.85500
C  45.06300 31.12600 29.14900
C  45.66400 32.41100 29.22700
C  45.14200 29.18100 27.31700
C  44.48900 30.90300 30.47500
O  43.81100 29.98500 30.81200
C  44.55400 32.17100 31.30300
C  44.92200 31.71700 32.75800
O  46.00000 31.25500 33.10100
O  43.67200 31.54200 33.42300
C  43.87900 30.88400 34.69800
H  46.85800 38.43400 30.29000
H  48.08600 36.88200 24.20500
H  46.05600 30.94700 25.17900
H  45.08100 34.76300 32.86100
H  46.82400 36.89900 32.51100
H  44.68000 38.08500 31.36400
H  44.86600 37.85100 33.13400
H  43.86300 36.78200 32.21000
H  48.06400 35.18700 32.84700
H  47.44800 33.50500 32.74000
H  47.88200 34.53900 35.21700
H  46.84600 33.32400 34.73300
H  47.94000 40.89600 28.49800
H  49.62300 40.42200 28.44400
H  48.52300 39.90200 29.71500
H  50.35600 40.79400 26.57800
H  48.72600 41.40400 26.08400
H  49.97400 41.23200 24.95400
H  48.62100 34.44400 23.10900
H  46.44100 32.45200 23.23000
H  46.21000 35.87200 22.79800
H  46.17600 34.40900 21.73200
H  47.40400 35.53700 21.58900
H  48.86500 31.30100 24.46100
H  49.13600 32.08000 22.91300
H  48.36400 30.18900 22.09700
H  46.70100 30.26000 22.88500
H  47.92600 29.57300 23.75400
H  45.30000 28.40000 28.06000
H  45.88400 29.01400 26.53600
H  44.16100 28.95300 26.90000
H  43.52700 32.53500 31.31500
H  42.89800 30.82900 35.16800
H  44.51500 31.50500 35.32900
H  44.37800 29.92500 34.83500

