158

Mg -1.67600 17.76500 27.94000
C  -2.00100 15.62700 30.64300
C  -2.19900 20.44600 30.05900
C  -1.26900 19.89000 25.34700
C  -1.47000 15.03900 25.82200
N  -2.10100 17.96200 30.08500
C  -2.15600 16.94200 30.98700
C  -2.52800 17.41800 32.42500
C  -2.57100 18.97900 32.18500
C  -2.37800 19.15100 30.62400
C  -3.84600 19.66400 32.76900
C  -1.57300 17.01100 33.65800
C  -1.53800 17.82700 34.99300
H  -0.39000 17.40800 35.99000
N  -1.77000 19.86100 27.63600
C  -1.91700 20.78300 28.72300
C  -1.84300 22.09600 28.19400
C  -1.75000 21.98800 26.78400
C  -1.57600 20.54300 26.51800
C  -2.09800 23.36400 29.01500
C  -1.81800 23.10000 25.70500
O  -1.64000 22.87900 24.47500
C  -2.13800 24.51600 26.19600
N  -1.42500 17.48800 25.87000
C  -1.33900 18.51300 24.97100
C  -1.20200 17.96600 23.53300
C  -0.98600 16.39800 23.75100
C  -1.30100 16.26100 25.21800
C  -2.46400 18.41900 22.70500
C  0.27800 15.72200 23.29900
C  1.49500 15.85100 24.22500
N  -1.83200 15.77500 28.14300
C  -1.68300 14.77600 27.17900
C  -1.66900 13.58900 27.86300
C  -1.74200 13.81800 29.22100
C  -1.88400 15.20100 29.33000
C  -1.42500 12.27600 27.24800
C  -1.78900 13.19100 30.55200
O  -1.72400 11.97900 30.91200
C  -2.00400 14.37200 31.52100
C  -0.80200 14.30200 32.45600
O  0.27800 14.75100 32.25400
O  -1.29100 13.58900 33.57600
C  -0.23800 13.08700 34.54100
H  -2.46900 21.21300 30.78800
H  -1.00700 20.45700 24.45100
H  -1.27600 14.18900 25.16500
H  -3.52900 17.06200 32.67000
H  -1.69400 19.34300 32.71900
H  -3.72800 20.63700 33.24700
H  -4.43800 18.97900 33.37500
H  -4.47100 19.84200 31.89400
H  -0.58200 16.92900 33.21000
H  -1.76400 16.03600 34.10700
H  -2.40400 17.42300 35.51600
H  -1.76900 18.89200 35.01200
H  -2.33800 23.08800 30.04100
H  -2.92300 23.89500 28.54000
H  -1.20200 23.98400 28.99400
H  -3.18500 24.47300 26.49400
H  -2.13400 25.22800 25.37100
H  -1.36600 24.88300 26.87300
H  -0.35300 18.33800 22.96100
H  -1.71900 15.83900 23.16900
H  -2.94800 19.27900 23.16900
H  -3.17100 17.58900 22.70200
H  -2.07000 18.64800 21.71500
H  0.49000 15.98300 22.26200
H  -0.00800 14.68100 23.15100
H  1.38900 16.21200 25.24800
H  1.98200 16.62400 23.63200
H  2.15800 14.99100 24.12300
H  -0.73400 12.31600 26.40500
H  -2.41700 12.02300 26.87400
H  -1.01500 11.53700 27.93600
H  -2.98000 14.33500 32.00400
H  -0.24800 11.99800 34.51500
H  -0.49300 13.37900 35.56000
H  0.71700 13.57100 34.33600
Mg 26.62000 49.29700 26.95800
C  24.49600 50.52100 29.26200
C  28.85700 48.37000 29.50800
C  28.92100 48.20700 24.61800
C  24.64000 50.61400 24.42100
N  26.68200 49.48000 29.15200
C  25.62400 49.87400 29.89500
C  25.83800 49.57800 31.39100
C  27.36100 49.09800 31.38500
C  27.68400 48.93400 29.93000
C  28.24500 50.16600 32.09100
C  24.85400 48.60300 31.91700
C  24.11000 49.03900 33.21400
H  24.95600 49.78700 34.26700
N  28.54400 48.26900 27.12500
C  29.25100 48.00300 28.26500
C  30.44300 47.24600 27.93300
C  30.53100 47.31000 26.49100
C  29.30700 47.96600 26.02700
C  31.46800 46.75700 29.02000
C  31.55900 46.65600 25.61400
O  31.42700 46.45000 24.37800
C  32.80200 45.95400 26.33800
N  26.79300 49.45100 24.83900
C  27.76000 48.85500 24.16600
C  27.54900 48.99100 22.62300
C  26.18300 49.70100 22.48100
C  25.84100 50.00100 23.98500
C  28.76800 49.78700 21.91700
C  25.18800 48.80000 21.75100
C  24.54000 47.66700 22.62100
N  24.99100 50.44200 26.85500
C  24.28000 50.87100 25.75600
C  23.14100 51.64500 26.21800
C  23.20200 51.57300 27.60900
C  24.33500 50.78900 27.95800
C  22.08000 52.31500 25.37400
C  22.48700 51.87400 28.81000
O  21.43100 52.44500 29.00500
C  23.21900 51.16900 29.90000
C  23.75800 52.31400 30.71300
O  24.67500 53.07700 30.52200
O  22.87400 52.46000 31.66800
C  23.27200 53.31200 32.80300
H  29.58400 48.08800 30.27300
H  29.67000 47.77700 23.95000
H  24.01000 50.98500 23.61000
H  25.71600 50.57800 31.80700
H  27.60100 48.16100 31.88900
H  28.73200 49.79500 32.99300
H  27.73000 51.10400 32.29800
H  29.09700 50.37000 31.44300
H  25.22200 47.63400 32.25400
H  24.02600 48.45900 31.22400
H  23.70300 48.13000 33.65800
H  23.26800 49.65000 32.88700
H  31.62400 45.68600 28.88500
H  31.08800 46.77500 30.04100
H  32.40000 47.32200 28.98800
H  33.52000 45.46300 25.68000
H  32.32600 45.13700 26.87900
H  33.24700 46.69300 27.00400
H  27.53800 48.04700 22.07800
H  26.24000 50.67800 22.00200
H  29.60900 49.78700 22.61100
H  28.54500 50.82200 21.65500
H  29.15500 49.26700 21.04100
H  25.74400 48.34400 20.93200
H  24.33600 49.39500 21.42000
H  23.47500 47.84000 22.77500
H  25.06000 47.53300 23.57000
H  24.59100 46.70300 22.11500
H  21.12100 52.19400 25.87600
H  22.01300 51.85600 24.38700
H  22.34300 53.36600 25.24700
H  22.69000 50.42200 30.49100
H  24.35700 53.31800 32.90800
H  22.95300 53.13300 33.83000
H  22.93400 54.32500 32.58200

