158

Mg 17.53100 -2.33900 27.25200
C  16.46200 -0.27200 29.81500
C  19.45500 -4.04400 29.48000
C  19.06600 -3.80500 24.56000
C  15.83700 -0.19900 24.89000
N  17.81900 -2.24400 29.45000
C  17.22300 -1.42400 30.26100
C  17.68400 -1.70700 31.71100
C  18.85200 -2.69300 31.54700
C  18.66000 -3.03000 30.08600
C  20.23700 -2.15200 31.90600
C  16.47400 -2.16800 32.59000
C  16.25600 -1.43100 33.95900
H  17.41400 -0.78900 34.66700
N  18.93000 -3.82100 27.03300
C  19.57000 -4.45000 28.12400
C  20.38100 -5.51600 27.56100
C  20.29800 -5.44000 26.14200
C  19.39600 -4.37700 25.80900
C  20.93800 -6.55300 28.50300
C  20.99200 -6.31400 25.07200
O  20.64100 -6.19200 23.87600
C  21.98600 -7.29500 25.40800
N  17.52400 -2.00100 25.07900
C  18.22700 -2.77500 24.19400
C  18.07100 -2.26500 22.80800
C  16.90600 -1.20900 22.81500
C  16.69400 -1.11400 24.36500
C  19.45800 -1.84400 22.32300
C  15.66600 -1.62100 21.93700
C  14.78000 -0.41400 21.59800
N  16.35600 -0.60900 27.22000
C  15.67800 0.11700 26.23500
C  14.94600 1.17100 26.83400
C  15.24700 1.08800 28.18800
C  16.06300 -0.03900 28.42500
C  14.06500 2.24400 26.11600
C  14.98700 1.72400 29.59500
O  14.25800 2.67100 29.93900
C  15.76500 0.90800 30.57300
C  16.69300 1.94200 31.21100
O  17.66200 2.43000 30.65200
O  16.27800 2.21100 32.52500
C  17.17000 3.21400 33.11200
H  20.16000 -4.52900 30.15800
H  19.56500 -4.20200 23.67300
H  15.31300 0.47700 24.21000
H  18.10700 -0.79000 32.12000
H  18.70900 -3.53000 32.23100
H  20.95000 -2.18200 31.08100
H  20.67100 -2.86300 32.61000
H  20.06300 -1.23100 32.46200
H  16.47200 -3.25000 32.71700
H  15.56800 -1.90800 32.04200
H  15.85700 -2.13700 34.68800
H  15.48100 -0.66700 33.88600
H  22.02200 -6.46600 28.58600
H  20.67100 -7.48900 28.01200
H  20.54300 -6.55000 29.51800
H  21.60100 -8.20900 25.86000
H  22.73000 -6.83800 26.06000
H  22.42600 -7.73700 24.51500
H  17.80200 -3.09700 22.15700
H  17.28800 -0.24400 22.48400
H  20.23200 -1.83000 23.08900
H  19.46000 -0.85500 21.86400
H  19.91600 -2.51900 21.60000
H  15.02500 -2.34800 22.43600
H  16.05700 -2.08700 21.03200
H  14.88700 -0.16000 20.54300
H  14.96100 0.53100 22.10900
H  13.73000 -0.54000 21.86200
H  14.51600 2.39800 25.13600
H  13.93700 3.19700 26.62900
H  13.07500 1.81400 25.95900
H  15.05200 0.46800 31.27100
H  18.08100 2.68000 33.38400
H  16.61700 3.58900 33.97300
H  17.31100 4.05400 32.43300
Mg 46.41300 24.84200 28.43600
C  47.29900 26.87900 31.20300
C  45.84100 22.33300 30.67200
C  46.01700 22.83800 25.78700
C  47.71900 27.36300 26.34700
N  46.57200 24.66400 30.69000
C  46.78200 25.65000 31.57600
C  46.45700 25.22000 33.02800
C  46.18200 23.62300 32.82100
C  46.21800 23.53800 31.27200
C  47.16800 22.68500 33.52200
C  45.24400 25.99600 33.69500
C  45.45500 26.87700 35.03000
H  44.52700 26.63300 36.24600
N  45.94200 22.89300 28.28700
C  45.69700 22.01700 29.32100
C  45.24900 20.76400 28.77200
C  45.19500 20.90000 27.39900
C  45.71600 22.25800 27.09200
C  45.14200 19.51900 29.67300
C  44.75700 19.81700 26.45700
O  44.90000 19.94400 25.21100
C  44.22600 18.58100 26.92200
N  46.98600 24.97800 26.44800
C  46.55400 24.09500 25.50000
C  46.91300 24.43600 24.08900
C  47.08100 26.01500 24.24500
C  47.33400 26.18900 25.78500
C  48.11600 23.59900 23.41500
C  45.85100 26.83800 23.73300
C  44.46000 26.19900 23.98300
N  47.28600 26.74300 28.66300
C  47.80400 27.58700 27.71400
C  48.33300 28.76100 28.39500
C  48.10400 28.56400 29.78100
C  47.52900 27.29100 29.88200
C  49.02400 29.99400 27.85200
C  48.27100 29.22400 31.11400
O  48.76300 30.32900 31.41900
C  47.72900 28.08000 32.08300
C  48.82700 27.71000 33.04500
O  49.74500 26.89300 32.79500
O  48.52500 28.33500 34.25400
C  49.35700 27.91400 35.35800
H  45.42400 21.64500 31.41000
H  45.93300 22.14300 24.95000
H  47.90000 28.27800 25.78000
H  47.38800 25.21200 33.59400
H  45.12800 23.50500 33.07500
H  47.65600 23.21800 34.33900
H  47.95000 22.36300 32.83400
H  46.45400 21.92400 33.83800
H  44.52500 25.20200 33.89900
H  44.88300 26.65900 32.90900
H  45.29200 27.92900 34.79200
H  46.51200 26.86000 35.29300
H  44.13200 19.15900 29.86800
H  45.74700 19.49100 30.58000
H  45.71000 18.72900 29.18100
H  44.92800 17.90400 27.40900
H  43.76500 18.06700 26.07800
H  43.46900 18.87700 27.64900
H  45.99800 24.12400 23.58500
H  48.01400 26.32500 23.77500
H  48.87800 24.28400 23.04300
H  47.66600 23.06500 22.57800
H  48.47200 22.87500 24.14800
H  45.95100 26.94500 22.65300
H  45.84200 27.86300 24.10300
H  44.19600 25.61900 23.09900
H  43.76200 27.00900 24.19500
H  44.40400 25.47600 24.79700
H  48.49000 30.91700 28.07700
H  49.35800 29.93900 26.81600
H  49.93500 30.09000 28.44300
H  46.80700 28.30100 32.62000
H  48.92000 27.05700 35.87000
H  49.36800 28.75600 36.04900
H  50.41200 27.78000 35.11800

