158

Mg 49.50100 44.16900 42.94200
C  46.06300 44.52200 41.80300
C  49.32400 40.85200 42.10000
C  52.88700 43.99400 42.82400
C  49.60300 47.63000 43.16100
N  47.88100 42.90900 42.00200
C  46.58700 43.24900 41.70500
C  45.89000 42.10800 41.00600
C  46.78000 40.89100 41.38500
C  48.09600 41.55600 41.87900
C  46.14000 39.95700 42.51700
C  45.76900 42.47900 39.50300
C  44.57400 41.94900 38.80000
H  44.78800 41.32000 37.37800
N  50.88300 42.57400 42.68900
C  50.67300 41.29700 42.34400
C  51.84400 40.50600 42.41900
C  52.90500 41.47900 42.69000
C  52.25000 42.78600 42.69000
C  51.99000 38.97600 42.19500
C  54.38600 41.11400 42.82200
O  54.76300 39.95800 42.69300
C  55.49000 42.02800 43.20400
N  51.00600 45.54000 42.99700
C  52.38000 45.27500 43.05300
C  53.27000 46.54500 43.17800
C  52.20200 47.62700 43.35100
C  50.85200 46.91900 43.21900
C  54.36800 46.52000 44.34500
C  52.28500 48.79400 42.26400
C  51.88300 50.19400 42.71600
N  48.13400 45.78100 42.69300
C  48.32600 47.13700 42.87500
C  47.07200 47.83800 42.67000
C  46.18300 46.85400 42.30100
C  46.89400 45.59600 42.29100
C  46.73800 49.29200 42.69600
C  44.83100 46.69700 41.74700
O  43.97800 47.52600 41.45200
C  44.69600 45.17800 41.43500
C  43.50200 44.54100 42.16000
O  42.57400 43.97100 41.52900
O  43.52700 44.83300 43.47100
C  42.24800 44.58000 44.15400
H  49.20500 39.77600 41.95700
H  53.96800 43.99000 42.98000
H  49.65500 48.71700 43.24400
H  44.88800 42.07700 41.43200
H  46.77000 40.23700 40.51300
H  45.69400 39.09900 42.01500
H  45.34000 40.48200 43.03800
H  46.79900 39.49900 43.25500
H  46.55800 42.04700 38.88700
H  45.82200 43.53300 39.23000
H  43.81600 42.72100 38.66700
H  44.19400 41.15100 39.43800
H  52.44500 38.73900 41.23400
H  51.01800 38.48500 42.24000
H  52.60700 38.42400 42.90500
H  56.39600 41.53000 43.55100
H  55.27800 42.51300 44.15700
H  55.71900 42.73900 42.41000
H  53.90300 46.76300 42.31700
H  52.16700 48.18500 44.28600
H  55.34600 46.88000 44.02400
H  54.62900 45.55800 44.78500
H  54.03700 47.23800 45.09500
H  51.54300 48.64900 41.47800
H  53.21500 48.81100 41.69500
H  52.54400 51.02700 42.47600
H  51.54800 50.25800 43.75100
H  51.01900 50.43600 42.09700
H  47.48200 49.95300 42.25200
H  46.61000 49.60100 43.73300
H  45.90800 49.31300 41.98900
H  44.45900 45.03000 40.38100
H  42.05100 43.53000 44.37000
H  41.37100 45.06900 43.72900
H  42.28200 44.96000 45.17600
Mg 47.99600 34.80400 26.82200
C  46.33900 33.39800 29.64400
C  48.22000 37.73900 28.77500
C  49.07500 36.28200 24.19100
C  47.49200 31.80400 25.13500
N  47.53400 35.45900 29.02900
C  46.89200 34.64600 29.95100
C  46.94600 35.29700 31.31100
C  47.10200 36.77700 30.95000
C  47.62200 36.71000 29.51400
C  45.84600 37.68000 31.10500
C  48.12200 34.65200 32.10100
C  48.09700 34.79100 33.64800
H  47.05000 35.68000 34.40200
N  48.67900 36.68500 26.53800
C  48.75700 37.70900 27.46300
C  49.36600 38.80900 26.77900
C  49.62600 38.49000 25.40300
C  49.14800 37.11900 25.31500
C  49.79800 40.15100 27.49700
C  50.39100 39.19300 24.27400
O  50.52800 38.74100 23.13100
C  50.91000 40.58800 24.53300
N  48.33200 34.10400 24.94500
C  48.75400 34.97700 23.96700
C  48.82000 34.17300 22.65100
C  48.70800 32.68500 23.02100
C  48.07200 32.87900 24.41200
C  47.77000 34.68400 21.61600
C  50.07300 31.86100 22.88500
C  51.16100 31.89300 24.04200
N  47.03400 32.99400 27.18300
C  46.94400 31.84700 26.44900
C  46.18900 30.81700 27.18800
C  45.89100 31.44400 28.41800
C  46.42800 32.73400 28.38600
C  45.75500 29.40100 26.71300
C  45.13900 31.28800 29.64500
O  44.42400 30.32800 29.99800
C  45.29600 32.59700 30.44000
C  45.47900 32.40100 31.89900
O  46.50400 32.05200 32.50700
O  44.25500 32.36600 32.56300
C  44.08400 32.01000 33.97400
H  48.16600 38.73100 29.22900
H  49.48300 36.74200 23.28800
H  47.47100 30.89300 24.53200
H  46.01500 35.13200 31.85400
H  47.84100 37.28200 31.57200
H  45.89400 38.28100 32.01300
H  45.00300 37.00100 31.23300
H  45.60500 38.28300 30.22900
H  49.01300 35.21400 31.81900
H  48.31500 33.60700 31.86200
H  49.14300 35.03800 33.83000
H  48.00400 33.75200 33.96600
H  50.87400 40.31600 27.55600
H  49.24800 40.09100 28.43700
H  49.40700 40.98100 26.91000
H  50.22300 41.24800 25.06400
H  50.93400 41.02800 23.53500
H  51.87600 40.54000 25.03500
H  49.74600 34.31000 22.09200
H  47.95100 32.26500 22.35900
H  48.10200 34.61500 20.58000
H  47.41400 35.71100 21.69200
H  46.83600 34.12200 21.65800
H  50.43000 32.19900 21.91200
H  49.56600 30.90800 22.73100
H  50.98300 30.96300 24.58100
H  50.88500 32.75100 24.65600
H  52.15900 32.08500 23.64700
H  45.90400 29.38600 25.63300
H  44.68200 29.34800 26.89900
H  46.16400 28.54900 27.25500
H  44.46000 33.29500 30.38200
H  43.10700 31.55800 34.14200
H  44.26900 32.85500 34.63800
H  44.87100 31.30000 34.23100

