158

Mg -1.71600 17.89700 27.38600
C  -2.53600 15.81000 29.99700
C  -2.61100 20.61900 29.37600
C  -1.19400 19.94100 24.77200
C  -1.32000 15.16000 25.28600
N  -2.37700 18.16900 29.50400
C  -2.74100 17.20400 30.35400
C  -3.10500 17.79100 31.72000
C  -3.44200 19.29700 31.29100
C  -2.80500 19.38700 29.98000
C  -4.90200 19.72500 31.25400
C  -1.95300 17.69700 32.71500
C  -2.19800 17.14000 34.12200
H  -1.01500 16.98400 35.05100
N  -1.62700 19.93300 27.20800
C  -1.97600 20.93300 28.14600
C  -1.78200 22.25000 27.56400
C  -1.40100 22.09700 26.19400
C  -1.36300 20.62400 26.02500
C  -2.19900 23.47900 28.33100
C  -1.23300 23.16600 25.03500
O  -0.81800 22.79600 23.94600
C  -1.29600 24.55300 25.45300
N  -1.40700 17.61300 25.25900
C  -1.16700 18.58000 24.39900
C  -0.97400 18.09900 23.01400
C  -0.80700 16.57700 23.22500
C  -1.21000 16.38600 24.69900
C  -2.08700 18.47800 21.97600
C  0.66600 16.00400 22.89800
C  1.85400 16.67600 23.65900
N  -1.94400 15.90100 27.53300
C  -1.72500 14.89300 26.64900
C  -1.80100 13.62900 27.34400
C  -2.09300 13.89600 28.66700
C  -2.16900 15.37100 28.72400
C  -1.85100 12.28800 26.73900
C  -2.37500 13.30000 29.92900
O  -2.34900 12.13900 30.31000
C  -2.67300 14.53400 30.82800
C  -1.65100 14.34600 31.90100
O  -0.49600 14.70000 31.78800
O  -2.16900 13.69700 32.95500
C  -1.22600 13.04600 33.88400
H  -2.88200 21.41200 30.07700
H  -0.88900 20.58000 23.94000
H  -1.11900 14.27800 24.67300
H  -3.97000 17.30300 32.16900
H  -3.00400 19.99000 32.01000
H  -5.51500 18.86200 31.51100
H  -5.17500 20.11400 30.27200
H  -5.11900 20.42400 32.06200
H  -1.66000 18.71100 32.98700
H  -1.13700 17.14100 32.25400
H  -2.50900 16.12100 33.89200
H  -2.97300 17.74400 34.59300
H  -1.35500 24.16700 28.38000
H  -2.50700 23.29600 29.36000
H  -3.06300 23.88400 27.80300
H  -2.30300 24.85100 25.74600
H  -0.98000 25.19000 24.62700
H  -0.51600 24.69800 26.20000
H  -0.02100 18.55200 22.74300
H  -1.44500 16.01500 22.54300
H  -2.80800 19.14600 22.44800
H  -2.57800 17.73000 21.35400
H  -1.52200 19.10600 21.28700
H  0.90500 16.32000 21.88300
H  0.69700 14.91500 22.88500
H  1.54100 17.20000 24.56200
H  2.56100 17.29100 23.10300
H  2.45000 15.81700 23.96900
H  -2.73800 11.76500 27.09500
H  -0.92500 11.76800 26.98500
H  -2.02500 12.45900 25.67700
H  -3.65100 14.49900 31.30900
H  -1.27900 11.97400 33.69200
H  -1.56200 13.17200 34.91300
H  -0.17700 13.31300 33.75600
Mg 23.77500 -5.72500 45.05700
C  25.84500 -3.30700 43.68900
C  21.15700 -4.50800 43.11900
C  22.08800 -8.56100 45.57800
C  26.53700 -7.16400 46.51900
N  23.62700 -4.22400 43.35000
C  24.57200 -3.24900 43.09500
C  23.99200 -2.12800 42.14300
C  22.41500 -2.40900 42.18100
C  22.38400 -3.82900 42.90000
C  21.36500 -1.40800 42.83200
C  24.57900 -2.41000 40.69200
C  25.10300 -1.11400 40.02600
H  24.75100 -0.95000 38.46000
N  21.78200 -6.38000 44.57100
C  20.88500 -5.70200 43.79400
C  19.60400 -6.35200 43.99200
C  19.83500 -7.65300 44.51000
C  21.27000 -7.63200 44.87400
C  18.31500 -5.81600 43.40500
C  18.83500 -8.68600 44.74400
O  17.66300 -8.40100 44.49700
C  19.12800 -10.01600 45.39000
N  24.23300 -7.61600 45.84500
C  23.32900 -8.57700 46.06600
C  23.82700 -9.68000 46.91900
C  25.29200 -9.10500 47.28300
C  25.34500 -7.91700 46.45100
C  22.95800 -10.15400 48.13300
C  26.48900 -10.11200 47.04400
C  27.37500 -10.43500 48.26800
N  25.75600 -5.40900 45.12200
C  26.78300 -6.02500 45.79600
C  27.99800 -5.22700 45.74100
C  27.66100 -4.23800 44.83200
C  26.30700 -4.31500 44.53000
C  29.31800 -5.64100 46.37700
C  28.19800 -3.14800 44.08600
O  29.33600 -2.69900 44.09100
C  27.02700 -2.55700 43.23000
C  26.82500 -1.09700 43.45600
O  26.20400 -0.52000 44.39700
O  27.51500 -0.41000 42.51100
C  27.46300 1.08200 42.50100
H  20.25300 -3.98100 42.80500
H  21.69000 -9.54100 45.84700
H  27.40000 -7.48100 47.10900
H  24.14600 -1.17900 42.65700
H  22.05800 -2.60400 41.16900
H  20.96400 -0.72500 42.08300
H  21.95100 -0.83100 43.54800
H  20.52800 -1.91000 43.31600
H  23.79400 -2.78800 40.03700
H  25.31600 -3.21300 40.67300
H  26.13700 -1.05300 40.36400
H  24.65300 -0.22800 40.47600
H  18.31100 -6.08300 42.34800
H  18.29300 -4.72700 43.40300
H  17.44600 -6.13600 43.98100
H  18.28300 -10.70200 45.33700
H  19.45000 -9.82900 46.41400
H  19.98800 -10.46800 44.89500
H  23.85100 -10.54800 46.26000
H  25.36600 -8.61600 48.25400
H  23.54000 -10.28600 49.04500
H  22.59000 -11.12400 47.79800
H  22.15800 -9.41800 48.22100
H  27.18400 -9.57000 46.40300
H  26.14200 -11.06200 46.63800
H  28.34000 -9.96000 48.09400
H  27.51800 -11.48700 48.51700
H  26.93900 -10.08600 49.20400
H  29.05000 -5.97900 47.37800
H  30.07600 -4.86900 46.24600
H  29.62900 -6.46300 45.73200
H  27.21200 -2.82600 42.19000
H  28.31600 1.61100 42.92500
H  26.70300 1.39000 43.21900
H  27.18000 1.46700 41.52200

