158

Mg 30.35100 57.59300 41.16400
C  27.34200 55.89800 40.21200
C  32.07200 54.81900 40.16800
C  32.95500 59.53100 41.42600
C  28.23500 60.50700 41.64100
N  29.74200 55.57800 40.27800
C  28.48500 55.16200 39.92500
C  28.58800 53.95100 39.15200
C  30.01600 53.35500 39.46900
C  30.68100 54.61000 40.08200
C  30.07500 52.21200 40.53200
C  28.26300 54.18700 37.61700
C  27.00800 53.50200 36.96400
H  26.47700 54.22200 35.65700
N  32.29000 57.24500 40.84200
C  32.83700 56.02300 40.45900
C  34.24400 56.16400 40.60900
C  34.52400 57.49700 41.14600
C  33.25600 58.13800 41.20100
C  35.33200 55.18500 40.06100
C  35.89700 58.04900 41.51000
O  36.87400 57.37800 41.30900
C  36.16100 59.40400 42.09400
N  30.53000 59.77000 41.54500
C  31.79500 60.27200 41.57300
C  31.76700 61.87300 41.60500
C  30.20500 62.16500 41.80600
C  29.62800 60.75000 41.66400
C  32.78100 62.58300 42.61500
C  29.50800 63.23000 40.87000
C  28.81600 64.43600 41.56100
N  28.24600 58.09300 41.15500
C  27.57000 59.26300 41.42200
C  26.12600 59.06700 41.48700
C  26.00200 57.72300 40.99000
C  27.33300 57.23700 40.78300
C  25.07200 60.09400 41.90000
C  25.04200 56.62400 40.60200
O  23.82900 56.55400 40.65400
C  25.82500 55.49500 39.98000
C  25.49100 54.16000 40.54600
O  25.96400 53.78400 41.64900
O  24.43800 53.49300 39.91300
C  24.21000 52.15800 40.44900
H  32.72500 53.96100 39.99200
H  33.79900 60.22200 41.47500
H  27.70700 61.43400 41.87500
H  27.90700 53.15000 39.43900
H  30.66500 53.00600 38.66600
H  30.94300 51.56600 40.40500
H  29.21200 51.55200 40.43700
H  30.16600 52.61100 41.54200
H  29.12900 53.71900 37.14700
H  28.31100 55.27400 37.56300
H  26.24900 53.50900 37.74600
H  27.28900 52.46600 36.77700
H  34.88500 54.45000 39.39300
H  35.95900 54.64300 40.76900
H  36.05300 55.71800 39.44100
H  35.41000 59.63000 42.85100
H  36.10100 60.18000 41.33100
H  37.17200 59.52700 42.48000
H  32.07100 62.13800 40.59300
H  29.99700 62.42100 42.84500
H  32.57000 62.36000 43.66100
H  32.65900 63.66600 42.59300
H  33.78100 62.23400 42.35700
H  28.77900 62.69000 40.26500
H  30.32100 63.61600 40.25600
H  27.74700 64.23000 41.50400
H  28.95500 65.39400 41.06000
H  29.12700 64.53200 42.60200
H  24.53000 60.51700 41.05400
H  25.55900 60.99200 42.28000
H  24.37200 59.63700 42.60000
H  25.67100 55.34800 38.91100
H  23.14000 52.11800 40.24600
H  24.23000 52.02000 41.53000
H  24.71900 51.40600 39.84700
Mg -11.15000 16.76900 42.67400
C  -7.71500 17.83800 43.19400
C  -12.15300 19.96800 42.37700
C  -14.24000 15.46700 42.34600
C  -9.83100 13.49600 42.67900
N  -9.96300 18.61900 42.51200
C  -8.65000 18.91700 42.90600
C  -8.46600 20.39900 42.63100
C  -9.85900 21.00200 42.90700
C  -10.75300 19.76200 42.59900
C  -9.99600 21.65100 44.31000
C  -7.94400 20.56600 41.14500
C  -6.49700 21.03800 41.01200
H  -5.48900 20.35900 40.06300
N  -12.93300 17.61400 42.26600
C  -13.18600 19.00300 42.13600
C  -14.54400 19.26400 41.90200
C  -15.11500 18.00100 41.86700
C  -14.14200 16.92000 42.26800
C  -15.14700 20.66700 41.89600
C  -16.59600 17.80600 41.70100
O  -17.35000 18.76000 41.57600
C  -17.25800 16.45100 41.76300
N  -11.89500 14.83200 42.50000
C  -13.20900 14.52300 42.42200
C  -13.56000 13.00800 42.47400
C  -12.12100 12.36500 42.66100
C  -11.21700 13.67400 42.54400
C  -14.65100 12.59700 43.50500
C  -11.83600 11.21300 41.62900
C  -12.34500 9.78900 41.87400
N  -9.23800 15.85800 42.94900
C  -8.91800 14.48600 42.88500
C  -7.48900 14.37600 43.07000
C  -7.00600 15.62400 43.35800
C  -8.09900 16.54700 43.11300
C  -6.55100 13.14500 42.86900
C  -5.86700 16.40600 43.65400
O  -4.67000 16.08900 43.87800
C  -6.32300 17.88500 43.59400
C  -6.03200 18.61400 44.86700
O  -6.50600 18.42700 45.99000
O  -4.92900 19.33200 44.64400
C  -4.13000 19.89100 45.73700
H  -12.69200 20.91600 42.43300
H  -15.23500 15.05000 42.17500
H  -9.52200 12.46600 42.48900
H  -7.78000 20.90100 43.31300
H  -10.10500 21.70500 42.11200
H  -10.79900 21.18700 44.88300
H  -10.34800 22.66700 44.13200
H  -9.10000 21.75000 44.92400
H  -8.47700 21.21800 40.45300
H  -7.97200 19.61400 40.61500
H  -6.01200 20.96500 41.98500
H  -6.55000 22.10200 40.77800
H  -15.93000 20.82600 42.63800
H  -15.71600 20.84300 40.98300
H  -14.53700 21.57000 41.90600
H  -18.34600 16.48700 41.80700
H  -17.04700 15.95300 42.70900
H  -16.99900 15.92500 40.84400
H  -14.00300 12.87700 41.48700
H  -12.01100 11.97300 43.67200
H  -15.12400 13.54900 43.74400
H  -14.13600 12.33700 44.43000
H  -15.41600 11.92300 43.11900
H  -10.84200 11.14000 41.18800
H  -12.34300 11.62400 40.75600
H  -12.93700 9.85300 42.78700
H  -11.62300 8.97400 41.92900
H  -13.02800 9.38200 41.12900
H  -5.50100 13.31600 42.63300
H  -6.96600 12.43100 42.15700
H  -6.55000 12.67600 43.85200
H  -5.64100 18.28900 42.84600
H  -3.18800 20.38000 45.48800
H  -3.95000 18.97200 46.29400
H  -4.66600 20.56600 46.40300

