158

Mg 0.84800 8.41700 26.59300
C  1.45200 10.32700 29.45300
C  1.09100 5.52200 28.50400
C  0.72900 6.50700 23.80900
C  0.93500 11.29300 24.74400
N  1.30200 7.96800 28.79200
C  1.30000 8.96800 29.74800
C  1.22300 8.32000 31.15300
C  1.22300 6.79400 30.80000
C  1.31800 6.66800 29.26000
C  2.22400 6.01200 31.68800
C  -0.11400 8.64400 31.91200
C  -0.01500 8.95500 33.39500
H  1.12800 8.37500 34.19200
N  0.96400 6.28100 26.17300
C  1.05700 5.29900 27.09100
C  1.04200 3.97700 26.43900
C  0.81800 4.16500 25.02700
C  0.88500 5.69700 24.90800
C  1.16800 2.70000 27.32400
C  0.54900 3.09400 23.94800
O  0.56700 3.41900 22.75900
C  0.67600 1.58300 24.32800
N  0.80600 8.82100 24.61400
C  0.79800 7.89200 23.61700
C  0.67400 8.54200 22.22300
C  0.62400 10.10400 22.58200
C  0.69900 10.12200 24.07500
C  1.96200 8.11500 21.41700
C  -0.58300 10.83800 22.00700
C  -1.16900 10.42600 20.54600
N  1.17400 10.44900 26.92100
C  1.22200 11.51500 26.07500
C  1.59300 12.69400 26.79600
C  1.73100 12.24100 28.09100
C  1.40100 10.92200 28.17500
C  1.64800 14.07300 26.34600
C  2.10000 12.67900 29.44500
O  2.44800 13.78500 29.88700
C  1.64500 11.50700 30.35000
C  2.78600 11.27700 31.27100
O  3.94900 11.12600 30.95400
O  2.33400 11.46600 32.58200
C  3.27900 11.81500 33.59100
H  0.80700 4.67000 29.12500
H  0.68600 5.93300 22.88100
H  0.94700 12.17000 24.09500
H  2.17500 8.52300 31.64100
H  0.25600 6.33200 30.99700
H  3.04200 6.70100 31.90100
H  2.71700 5.23500 31.10400
H  1.75700 5.59800 32.58200
H  -0.89900 7.92200 31.68800
H  -0.54300 9.50600 31.40100
H  -0.95300 8.63300 33.84700
H  0.13000 10.02900 33.50900
H  1.20900 2.77500 28.41100
H  2.13000 2.27600 27.03400
H  0.32900 2.01100 27.22600
H  0.72600 0.94600 23.44500
H  -0.19700 1.49800 24.97500
H  1.60700 1.38000 24.85700
H  -0.24500 8.15700 21.78200
H  1.55800 10.50300 22.18700
H  2.19500 8.97700 20.79200
H  1.74100 7.31300 20.71400
H  2.78000 7.90900 22.10800
H  -0.30400 11.88600 21.90500
H  -1.49300 10.70600 22.59200
H  -2.12200 9.91400 20.67700
H  -0.47400 9.66700 20.18400
H  -1.22600 11.27700 19.86700
H  2.00200 14.13500 25.31700
H  2.36000 14.64800 26.93800
H  0.66000 14.52500 26.43600
H  0.69700 11.72000 30.84500
H  3.90600 12.70100 33.49900
H  4.07000 11.08300 33.75600
H  2.78000 12.00400 34.54200
Mg 35.58100 1.94600 29.38700
C  33.68300 3.04200 31.90000
C  38.31700 1.91100 31.69800
C  37.76500 1.20200 26.90300
C  33.22700 2.86800 27.13400
N  36.02300 2.60400 31.50700
C  34.99900 2.85300 32.35000
C  35.49700 2.92700 33.82200
C  36.99500 2.78700 33.77500
C  37.12900 2.43900 32.21300
C  37.85400 4.07800 34.11000
C  34.76200 1.88100 34.68900
C  34.34100 2.24800 36.15100
H  34.73800 3.63000 36.70200
N  37.71100 1.49600 29.32300
C  38.59700 1.48500 30.34000
C  39.83100 0.93200 29.80100
C  39.67000 0.55000 28.47000
C  38.35000 1.07000 28.15900
C  41.08000 0.79200 30.66000
C  40.71500 -0.11400 27.43700
O  40.35100 -0.37100 26.28600
C  42.14900 -0.44700 27.93700
N  35.47000 2.02500 27.30600
C  36.51000 1.61800 26.49800
C  36.22900 1.95400 25.02700
C  34.69600 2.34300 25.08900
C  34.40800 2.41600 26.60300
C  37.14600 3.12100 24.47800
C  33.79800 1.33800 24.34700
C  33.57800 -0.04700 25.03100
N  33.79500 2.91800 29.43000
C  32.83000 3.09000 28.42700
C  31.61800 3.63900 29.01300
C  31.86600 3.54000 30.41600
C  33.27000 3.16400 30.55000
C  30.30400 3.98100 28.37100
C  31.22900 3.64700 31.70800
O  30.07300 3.87500 32.10000
C  32.47700 3.51800 32.70800
C  32.73100 4.87100 33.39500
O  33.57500 5.77300 33.07600
O  31.79600 5.08100 34.34900
C  31.75800 6.31500 35.04300
H  39.09400 1.72200 32.44100
H  38.47900 1.03300 26.09400
H  32.48200 3.19300 26.40400
H  35.34500 3.93800 34.20200
H  37.38600 1.98600 34.40300
H  38.38100 4.27700 33.17700
H  38.57500 3.89900 34.90700
H  37.27500 4.96100 34.38400
H  35.43700 1.02500 34.68900
H  33.90000 1.46100 34.17000
H  34.66200 1.51300 36.88900
H  33.25900 2.12100 36.19200
H  41.33100 -0.23100 30.94000
H  40.88100 1.22400 31.64000
H  41.95700 1.35100 30.33400
H  42.67900 -0.97300 27.14300
H  42.03600 -1.11700 28.79000
H  42.59200 0.51700 28.18600
H  36.52700 1.02600 24.54000
H  34.42100 3.29100 24.62700
H  36.57300 3.99900 24.18000
H  37.72100 2.75400 23.62800
H  37.82800 3.35500 25.29600
H  34.17000 1.14400 23.34100
H  32.80700 1.77400 24.22200
H  33.22900 -0.79000 24.31400
H  32.95300 0.05400 25.91800
H  34.55400 -0.35000 25.41100
H  30.26600 3.45400 27.41800
H  30.34600 5.04400 28.13500
H  29.45600 3.76700 29.02200
H  32.30100 2.76400 33.47600
H  32.76800 6.60000 35.33700
H  31.21900 6.13400 35.97200
H  31.27900 7.09000 34.44400

