158

Mg 16.32000 51.51900 25.62900
C  18.09200 50.12900 28.44200
C  13.92800 52.43500 27.91400
C  14.28100 51.87200 23.06600
C  18.83800 50.35600 23.55100
N  16.16900 51.33200 27.98000
C  17.03300 50.85700 28.90900
C  16.58800 51.16000 30.31800
C  15.12300 51.65600 30.11300
C  15.07800 51.86900 28.59100
C  13.96300 50.73300 30.54600
C  17.55600 52.10100 31.05800
C  18.16800 51.61900 32.41500
H  17.30100 50.81500 33.37900
N  14.42600 52.12200 25.45500
C  13.58000 52.59800 26.51200
C  12.32600 52.99700 25.97600
C  12.34300 52.63700 24.57900
C  13.71600 52.21600 24.30100
C  11.20800 53.58900 26.87600
C  11.19600 52.75900 23.58400
O  11.31100 52.41000 22.42100
C  9.90100 53.44000 23.97000
N  16.64000 51.21900 23.58800
C  15.61600 51.47000 22.71300
C  16.12200 51.28900 21.25300
C  17.65300 51.11500 21.43800
C  17.72200 50.86300 22.97900
C  15.45000 50.15400 20.42400
C  18.61200 52.21100 21.03600
C  18.34900 53.67400 21.59800
N  18.14000 50.46700 25.94800
C  19.04300 50.07000 24.94200
C  20.16900 49.41500 25.58400
C  19.78900 49.43100 26.98400
C  18.54400 50.04500 27.08700
C  21.44800 48.96200 25.02200
C  20.29700 49.02900 28.29600
O  21.37700 48.56800 28.66600
C  19.16300 49.49500 29.29100
C  18.67200 48.28400 30.16800
O  17.62700 47.68200 30.03300
O  19.51100 48.11000 31.27500
C  19.09100 47.00800 32.19500
H  13.21500 52.62500 28.71800
H  13.70200 52.20400 22.20100
H  19.69900 49.93500 23.02700
H  16.47600 50.31200 30.99200
H  15.03800 52.56900 30.70100
H  14.31500 49.85300 31.08400
H  13.23000 50.32400 29.85100
H  13.36000 51.21000 31.31800
H  17.10700 53.08200 31.21200
H  18.42300 52.27500 30.42100
H  18.40300 52.43700 33.09700
H  18.99800 50.97200 32.13300
H  10.47800 52.78800 26.99400
H  10.76200 54.42900 26.34300
H  11.74600 54.02100 27.71900
H  9.09000 53.14100 23.30600
H  10.19700 54.48900 23.93700
H  9.71300 53.00800 24.95300
H  16.00400 52.20400 20.67400
H  18.00500 50.22300 20.92000
H  14.37800 49.96400 20.47600
H  15.83400 49.16300 20.66800
H  15.66000 50.27300 19.36100
H  18.55600 52.32600 19.95400
H  19.65000 51.90700 21.17700
H  18.36100 54.44900 20.83200
H  19.14300 53.91700 22.30400
H  17.34300 53.66500 22.01800
H  21.85700 49.60700 24.24300
H  21.29800 47.97200 24.59200
H  22.24600 48.88300 25.76100
H  19.67700 50.27100 29.85900
H  18.50100 46.19800 31.76600
H  18.43500 47.30700 33.01200
H  20.00100 46.53400 32.56400
Mg -11.11700 16.54600 43.25900
C  -7.61000 17.47600 42.83400
C  -11.76300 19.94300 42.88200
C  -14.27500 15.70500 42.65600
C  -10.16700 13.21200 43.04400
N  -9.84800 18.41000 42.82300
C  -8.47300 18.56600 42.69200
C  -7.98500 19.94200 42.52700
C  -9.23800 20.68700 42.99700
C  -10.38300 19.64100 42.92000
C  -9.09600 21.46200 44.33700
C  -7.54400 20.24100 41.07200
C  -6.19000 20.63400 40.90100
H  -5.15800 19.72800 40.18600
N  -12.81800 17.66600 42.98400
C  -12.86000 18.99000 42.77600
C  -14.20800 19.45600 42.65100
C  -15.01300 18.24600 42.62200
C  -14.06000 17.11400 42.69400
C  -14.69000 20.80900 42.41500
C  -16.48300 18.20900 42.42800
O  -17.14800 19.23800 42.27800
C  -17.23300 16.82900 42.41000
N  -12.07400 14.73500 42.77100
C  -13.42800 14.60700 42.71300
C  -13.95500 13.12700 42.66900
C  -12.60300 12.35100 42.88900
C  -11.56400 13.45600 42.93200
C  -14.93800 12.80900 43.89700
C  -12.39600 11.26400 41.79600
C  -11.66300 11.68700 40.52600
N  -9.34100 15.51500 43.12800
C  -9.13300 14.19700 43.17200
C  -7.71000 13.89800 43.08900
C  -7.07100 15.14200 43.05500
C  -8.07400 16.12400 43.01800
C  -7.08800 12.54200 43.05400
C  -5.79300 15.83600 42.92000
O  -4.67400 15.38600 42.89800
C  -6.14600 17.40600 42.86500
C  -5.54400 18.00400 44.09500
O  -5.37600 17.39700 45.13900
O  -5.06900 19.25700 43.91000
C  -4.46600 19.86700 45.06500
H  -11.94700 21.02000 42.88600
H  -15.29700 15.32100 42.65800
H  -9.88800 12.15600 43.05700
H  -7.20600 20.14800 43.26100
H  -9.51800 21.51500 42.34500
H  -8.33100 21.14000 45.04400
H  -10.00800 21.15800 44.85000
H  -9.02300 22.54300 44.22000
H  -8.13500 21.00100 40.56200
H  -7.62800 19.31900 40.49700
H  -5.71000 20.89700 41.84300
H  -6.05400 21.57700 40.37100
H  -13.84800 21.36400 42.00000
H  -15.01900 21.26400 43.34800
H  -15.41600 20.84800 41.60300
H  -18.25800 17.14100 42.20800
H  -17.03800 16.35800 43.37300
H  -16.78200 16.23500 41.61600
H  -14.38700 12.92800 41.68800
H  -12.45300 11.95500 43.89300
H  -15.30700 13.77500 44.24300
H  -14.59400 12.20100 44.73400
H  -15.78400 12.27900 43.46000
H  -13.35300 10.78300 41.59000
H  -11.81000 10.46200 42.24500
H  -11.62000 12.77400 40.45000
H  -12.12600 11.39000 39.58500
H  -10.65500 11.28300 40.43100
H  -6.10100 12.55400 43.51600
H  -7.02100 12.14900 42.04000
H  -7.77100 11.87100 43.57700
H  -5.80500 17.86100 41.93500
H  -3.92900 20.76700 44.76500
H  -3.66500 19.22000 45.42300
H  -5.17300 20.18200 45.83300

