158

Mg 47.39200 16.76500 29.56900
C  45.33200 15.94200 32.36800
C  49.57700 18.23800 31.87300
C  49.12300 17.72500 26.99400
C  44.75100 15.69400 27.46900
N  47.40500 16.98000 31.87300
C  46.53200 16.55200 32.79300
C  46.90800 16.94000 34.20600
C  48.13900 17.86700 33.97000
C  48.42900 17.71500 32.44600
C  47.93300 19.31400 34.26400
C  47.25400 15.71000 35.05600
C  47.20300 15.80900 36.50300
H  47.14700 17.20900 37.18400
N  49.11900 17.82000 29.49600
C  49.93700 18.29500 30.52200
C  51.16000 18.83100 29.93400
C  51.03800 18.75400 28.50100
C  49.68000 18.14600 28.25100
C  52.31400 19.34600 30.83400
C  51.96600 19.17100 27.38200
O  51.60000 19.17400 26.22400
C  53.34700 19.90100 27.76700
N  46.91100 16.84300 27.49000
C  47.92400 17.14300 26.66000
C  47.48800 16.93700 25.17700
C  46.23800 16.02700 25.35400
C  45.89300 16.21900 26.83200
C  47.28500 18.25600 24.32700
C  46.41200 14.59900 24.84300
C  46.73300 13.50200 25.89800
N  45.49800 15.94200 29.80200
C  44.58400 15.53400 28.87600
C  43.33600 15.05700 29.53900
C  43.58700 15.24000 30.88900
C  44.94800 15.74300 31.03900
C  42.13000 14.47500 28.90600
C  42.97000 15.07700 32.23500
O  41.89400 14.69000 32.54500
C  44.12200 15.52600 33.27800
C  43.48200 16.69900 34.01700
O  43.05100 17.73700 33.45700
O  43.53000 16.39500 35.37900
C  43.05500 17.45800 36.26200
H  50.20400 18.59300 32.69400
H  49.78900 17.80600 26.13300
H  43.94500 15.33800 26.82400
H  46.14600 17.55200 34.68800
H  48.99100 17.48600 34.53300
H  46.99300 19.57000 34.75300
H  47.87200 19.82600 33.30300
H  48.79000 19.77000 34.76000
H  48.22400 15.34200 34.72200
H  46.50400 14.92900 34.92900
H  48.07800 15.35000 36.96300
H  46.38600 15.20700 36.90100
H  51.85500 19.50900 31.80900
H  52.72000 20.32000 30.55900
H  53.11000 18.60200 30.85300
H  53.92100 20.09400 26.86100
H  53.89000 19.36500 28.54500
H  52.92800 20.81600 28.18600
H  48.35100 16.38100 24.81100
H  45.37700 16.47300 24.85700
H  46.42400 17.97600 23.72000
H  48.11700 18.41400 23.64100
H  47.04700 19.16800 24.87400
H  47.29900 14.70400 24.21700
H  45.63900 14.19300 24.19000
H  46.63300 13.91200 26.90300
H  47.74300 13.16300 25.66800
H  46.13200 12.59500 25.95500
H  42.44400 13.88600 28.04400
H  41.40100 15.19900 28.54300
H  41.63700 13.94500 29.72100
H  44.25300 14.74200 34.02400
H  43.08400 17.06400 37.27800
H  42.01300 17.68100 36.03100
H  43.70100 18.32400 36.12000
Mg 6.76200 52.82100 40.98700
C  6.05100 49.31900 41.03300
C  9.79900 52.24600 39.58600
C  7.14200 56.06200 40.53200
C  3.46900 53.32000 42.10000
N  7.70100 50.98500 40.31500
C  7.28500 49.66100 40.50400
C  8.41800 48.68900 39.91300
C  9.62200 49.60600 39.75800
C  9.03700 51.06100 39.91300
C  10.79700 49.46500 40.82000
C  7.99600 47.97300 38.63600
C  7.16200 48.73600 37.58400
H  7.83000 49.35600 36.32200
N  8.29500 53.97400 40.21300
C  9.48800 53.56600 39.72200
C  10.39800 54.67500 39.45600
C  9.70700 55.87200 39.73400
C  8.28100 55.38700 40.13500
C  11.85500 54.48600 39.01300
C  10.23700 57.24200 39.50500
O  11.40700 57.50600 39.06100
C  9.34200 58.46400 39.76700
N  5.45100 54.33600 40.97700
C  5.88400 55.65400 40.83400
C  4.85800 56.68100 41.24500
C  3.68500 55.77200 41.73000
C  4.20900 54.34300 41.50400
C  5.27300 57.75100 42.29300
C  2.39000 56.10900 40.99800
C  1.07600 55.69300 41.68600
N  5.03600 51.64600 41.45500
C  3.84700 52.01000 42.10000
C  3.12300 50.85900 42.63600
C  3.94700 49.77600 42.16200
C  5.04500 50.36500 41.43100
C  1.79400 50.85100 43.38600
C  4.08700 48.32600 42.15000
O  3.28800 47.48900 42.54600
C  5.42900 48.01700 41.47600
C  5.06400 47.18400 40.31000
O  4.59100 47.53700 39.19700
O  5.44500 45.91200 40.57100
C  5.32800 44.98000 39.41500
H  10.78100 51.92300 39.23300
H  7.27200 57.13700 40.39200
H  2.51200 53.42900 42.61500
H  8.58800 48.02700 40.76200
H  10.18600 49.54400 38.82800
H  10.92100 50.34800 41.44600
H  11.75100 49.22500 40.35100
H  10.60100 48.70700 41.57900
H  7.58900 46.99200 38.88200
H  8.98000 47.79000 38.20400
H  6.56800 49.54700 38.00600
H  6.55400 47.91700 37.20000
H  12.05700 55.06900 38.11400
H  12.21500 53.47400 38.82800
H  12.36600 54.86200 39.89900
H  9.84800 59.39000 39.49500
H  9.03900 58.38200 40.81100
H  8.51700 58.28600 39.07700
H  4.54400 57.33400 40.43000
H  3.55800 55.82500 42.81100
H  6.30200 57.61800 42.62700
H  4.66100 57.77800 43.19400
H  5.25700 58.70400 41.76400
H  2.27100 55.77200 39.96900
H  2.23600 57.16500 40.77900
H  1.13200 55.63900 42.77300
H  0.89900 54.69700 41.28000
H  0.28700 56.42100 41.49800
H  1.02200 50.63000 42.64900
H  1.69600 51.84600 43.81900
H  1.92500 50.19700 44.24800
H  6.10200 47.54300 42.19000
H  6.14800 45.03800 38.70000
H  4.43100 45.13400 38.81600
H  5.29300 43.97500 39.83400

