158

Mg 54.20100 23.45400 44.32600
C  51.40700 25.25600 43.35000
C  52.92300 20.63700 42.95600
C  57.30700 21.97400 44.58700
C  55.55000 26.49800 45.38200
N  52.44800 23.07900 43.26500
C  51.37900 23.93800 43.01600
C  50.36400 23.30200 42.09700
C  50.64300 21.75600 42.34700
C  52.14600 21.80800 42.91100
C  49.70700 21.12100 43.37000
C  50.71200 23.52400 40.62800
C  49.58300 23.99000 39.68200
H  49.51500 23.27700 38.33300
N  55.06500 21.52700 43.83000
C  54.29400 20.45500 43.43100
C  55.21600 19.31000 43.27700
C  56.56800 19.66900 43.64000
C  56.33500 21.11500 44.02900
C  54.71900 17.95800 42.80700
C  57.83800 18.82300 43.55900
O  57.78700 17.65500 43.16700
C  59.20500 19.38800 43.91300
N  56.19100 24.20600 44.82800
C  57.33000 23.37900 44.87000
C  58.53000 24.17200 45.35900
C  57.95400 25.62000 45.59500
C  56.49600 25.43000 45.21200
C  59.50300 23.62900 46.49400
C  58.70500 26.72800 44.69800
C  58.90400 28.13900 45.21600
N  53.62400 25.50900 44.51400
C  54.22000 26.64900 45.08100
C  53.26500 27.74300 45.15900
C  52.16400 27.23300 44.43000
C  52.41700 25.90800 44.01500
C  53.51900 29.05200 45.87900
C  50.88300 27.66800 43.89000
O  50.26600 28.75300 44.02800
C  50.40000 26.37700 43.09700
C  50.48700 26.81800 41.67600
O  51.45300 26.93400 41.02500
O  49.13600 27.16300 41.32200
C  49.05400 27.72300 39.92800
H  52.43800 19.75000 42.54400
H  58.26100 21.56700 44.93000
H  56.02300 27.43600 45.68000
H  49.32500 23.58700 42.26700
H  50.64100 21.14600 41.44400
H  50.09000 21.25100 44.38300
H  49.53400 20.05500 43.21800
H  48.72500 21.57200 43.22800
H  50.93900 22.59000 40.11400
H  51.52400 24.25100 40.62200
H  49.60200 25.00100 39.27400
H  48.58700 23.86600 40.10500
H  54.00000 18.09400 41.99900
H  54.29500 17.44800 43.67200
H  55.53900 17.39500 42.36200
H  59.32800 20.20400 43.20000
H  60.03000 18.68000 43.83600
H  59.22400 19.80900 44.91800
H  59.15800 24.11700 44.46900
H  58.05200 25.89600 46.64600
H  59.51200 22.54100 46.42300
H  59.15800 23.94900 47.47800
H  60.51200 23.98100 46.28100
H  58.15700 26.75800 43.75600
H  59.68300 26.28200 44.51900
H  58.92600 28.71300 44.29000
H  59.82600 28.33000 45.76600
H  58.00600 28.40700 45.77300
H  54.59200 29.19600 45.99700
H  53.01600 29.20800 46.83300
H  53.21100 29.82400 45.17400
H  49.36400 26.10900 43.30200
H  49.98100 27.78900 39.35800
H  48.80300 28.75800 40.15900
H  48.31100 27.23400 39.29900
Mg 41.30000 40.42400 26.72100
C  40.11400 42.78100 29.12200
C  41.83600 38.24200 29.37600
C  42.21000 38.04100 24.45900
C  40.86000 42.69600 24.36500
N  41.20800 40.60000 28.92800
C  40.58700 41.57600 29.63800
C  40.44200 41.17200 31.09800
C  41.06100 39.72900 31.19000
C  41.37200 39.49100 29.73000
C  42.12800 39.45500 32.28600
C  39.03900 41.24700 31.78900
C  39.05500 42.10500 33.09200
H  38.32800 41.57600 34.33700
N  41.98300 38.47500 26.88300
C  42.17900 37.78500 28.06700
C  42.83200 36.52000 27.72700
C  42.71500 36.36300 26.31600
C  42.30800 37.66700 25.80500
C  43.41000 35.59000 28.76300
C  42.91900 35.12900 25.41800
O  42.72200 35.10000 24.18100
C  43.50700 33.76700 25.91800
N  41.44100 40.35200 24.65800
C  41.84200 39.28600 23.94500
C  42.07700 39.57900 22.45400
C  41.71100 41.07700 22.41800
C  41.23200 41.44700 23.90700
C  43.46500 39.28900 21.90200
C  40.59200 41.47900 21.42500
C  39.29700 40.60400 21.43800
N  40.72200 42.38000 26.69500
C  40.53000 43.16000 25.59000
C  39.93000 44.46600 26.02700
C  39.72100 44.30700 27.42600
C  40.29300 43.08600 27.79100
C  39.38700 45.53400 25.07400
C  39.16600 44.97500 28.56000
O  38.66200 46.04000 28.57200
C  39.61300 44.03800 29.78100
C  40.54500 44.70800 30.65300
O  41.75100 44.72400 30.45000
O  39.90000 45.35400 31.73000
C  40.93200 45.80000 32.76600
H  42.16500 37.51200 30.11900
H  42.62700 37.36100 23.71400
H  40.69700 43.45200 23.59400
H  41.16000 41.82700 31.59000
H  40.31200 38.99700 31.49200
H  42.97400 38.95300 31.81500
H  41.72700 38.70000 32.96200
H  42.41300 40.38700 32.77400
H  38.68900 40.23600 31.99900
H  38.33600 41.62600 31.04700
H  38.36900 42.90900 32.82700
H  40.00900 42.58800 33.29900
H  42.56900 35.22800 29.35400
H  44.14100 36.09200 29.39600
H  44.03200 34.75000 28.45400
H  44.58500 33.82800 26.06900
H  43.33800 33.05800 25.10700
H  43.05800 33.44600 26.85800
H  41.39000 38.97600 21.86000
H  42.57800 41.73500 22.36300
H  43.86400 40.18600 21.42800
H  43.35900 38.50400 21.15300
H  44.19900 38.89700 22.60600
H  40.96900 41.35600 20.41000
H  40.34400 42.53300 21.55200
H  38.51800 41.26300 21.82300
H  39.45800 39.73300 22.07300
H  39.07900 40.37300 20.39500
H  38.70700 46.19600 25.60900
H  38.75800 45.08500 24.30500
H  40.19600 46.05700 24.56300
H  38.75100 43.82800 30.41500
H  41.97300 45.63100 32.49300
H  40.74400 45.14700 33.61800
H  40.70100 46.84100 32.99400

