158

Mg 0.54100 7.97700 25.08200
C  1.04500 10.01500 27.80400
C  0.74900 5.26400 27.10800
C  0.14700 6.00000 22.38900
C  0.69200 10.78400 22.93200
N  0.85500 7.71300 27.22900
C  0.99500 8.65600 28.17400
C  1.10500 8.10100 29.55600
C  1.23100 6.51600 29.29300
C  0.95900 6.46600 27.77400
C  2.58600 5.82900 29.69000
C  -0.11000 8.48500 30.40400
C  0.00100 8.63300 31.93600
H  1.20200 8.04900 32.61700
N  0.42600 5.86900 24.78400
C  0.45600 4.98100 25.79000
C  0.18200 3.66500 25.20800
C  0.19200 3.80900 23.79500
C  0.21200 5.23200 23.58400
C  0.12600 2.35900 26.08800
C  -0.02700 2.67200 22.66300
O  0.03600 2.84900 21.47800
C  -0.19600 1.21000 23.03600
N  0.43300 8.37300 23.00500
C  0.18600 7.33600 22.14000
C  -0.17000 7.90600 20.83000
C  -0.11500 9.45500 20.96200
C  0.32900 9.58000 22.36800
C  0.71300 7.21200 19.77300
C  -1.54000 10.13400 20.75900
C  -1.61500 11.61200 20.22700
N  0.88100 10.02600 25.25800
C  0.81900 11.03900 24.34500
C  1.06100 12.33700 25.06300
C  1.15900 11.95200 26.43200
C  0.98600 10.53500 26.48300
C  1.05700 13.70700 24.47100
C  1.36700 12.46600 27.80500
O  1.74800 13.56300 28.16800
C  1.21300 11.26300 28.66900
C  2.39900 11.19700 29.47600
O  3.47700 10.68200 29.18900
O  2.06300 11.57200 30.74700
C  3.11100 11.54900 31.80000
H  0.69100 4.37700 27.74200
H  -0.04200 5.50000 21.43700
H  0.72000 11.68700 22.31900
H  2.02500 8.54900 29.93100
H  0.43500 5.99500 29.82500
H  3.05700 5.59200 28.73600
H  2.48400 4.87300 30.20300
H  3.14600 6.45800 30.38200
H  -0.88500 7.73100 30.27000
H  -0.53600 9.46300 30.18000
H  -0.86200 8.24400 32.47700
H  0.15300 9.67000 32.23700
H  1.02100 1.74100 26.01200
H  -0.74600 1.87300 25.65100
H  0.08100 2.53900 27.16300
H  0.72500 0.87900 23.51500
H  -0.16500 0.65400 22.09900
H  -1.03900 1.02400 23.70100
H  -1.19700 7.58700 20.65300
H  0.50300 9.98100 20.23400
H  1.61000 6.80300 20.23800
H  0.96600 7.81000 18.89800
H  0.21600 6.37500 19.28300
H  -2.07400 10.12500 21.70900
H  -2.13800 9.49600 20.10800
H  -1.96800 11.54700 19.19800
H  -0.60300 12.01800 20.21200
H  -2.18300 12.21100 20.94000
H  1.08100 13.69400 23.38200
H  1.97700 14.13800 24.86600
H  0.18900 14.32600 24.69800
H  0.29000 11.38800 29.23500
H  3.92100 10.84700 31.60000
H  2.70400 11.08600 32.69900
H  3.33100 12.60000 31.98500
Mg 47.57100 24.67400 28.89000
C  48.52400 27.25400 31.21200
C  46.87400 22.85300 31.71300
C  46.94700 22.18100 26.85500
C  49.28200 26.41000 26.44000
N  47.68100 25.16400 31.25700
C  47.88400 26.24000 31.91600
C  47.50000 26.11200 33.41100
C  47.26700 24.61800 33.58000
C  47.20600 24.17600 32.06400
C  48.35100 23.87300 34.44300
C  46.25900 27.02500 33.71900
C  46.15100 27.75500 35.06200
H  46.94100 27.09100 36.23400
N  46.92800 22.78800 29.22100
C  46.70600 22.15700 30.44600
C  46.18600 20.81500 30.20700
C  46.11000 20.60500 28.80100
C  46.60700 21.91800 28.18800
C  45.81700 19.89000 31.39700
C  45.76000 19.35000 28.07300
O  45.86300 19.27100 26.87900
C  45.31900 18.12700 28.91800
N  48.05900 24.30000 26.95400
C  47.56900 23.28500 26.24200
C  47.89200 23.32500 24.79000
C  48.54200 24.74400 24.54700
C  48.75800 25.15200 26.06700
C  48.74300 22.14000 24.25800
C  47.68300 25.70500 23.64400
C  46.47300 26.31900 24.37700
N  48.49800 26.43300 28.81800
C  49.10500 27.03800 27.73100
C  49.57400 28.36900 28.06000
C  49.29000 28.52100 29.45700
C  48.79700 27.27200 29.86100
C  50.30900 29.26900 27.05900
C  49.36200 29.44300 30.59000
O  49.65000 30.63100 30.66900
C  48.99400 28.54500 31.79300
C  50.24600 28.42200 32.55600
O  51.28800 28.05100 32.01600
O  49.99900 28.75700 33.84300
C  51.09700 28.45500 34.83200
H  46.50200 22.25500 32.54800
H  46.60300 21.34700 26.24000
H  49.61300 27.13800 25.69700
H  48.36000 26.38800 34.02100
H  46.29000 24.37500 33.99800
H  49.01000 24.50300 35.04000
H  48.94800 23.20700 33.82000
H  47.78200 23.25900 35.14200
H  45.35000 26.42800 33.63600
H  46.23700 27.73300 32.89100
H  45.11700 27.81600 35.40200
H  46.39300 28.80700 34.91100
H  44.77300 19.57800 31.35300
H  45.94300 20.32800 32.38700
H  46.40700 18.99300 31.58100
H  44.36200 18.32200 29.40100
H  46.06400 17.87500 29.67300
H  45.16300 17.29100 28.23600
H  46.91300 23.37900 24.31500
H  49.57200 24.72000 24.19100
H  49.54800 22.47800 23.60500
H  48.07400 21.45500 23.73800
H  49.14800 21.51300 25.05300
H  47.36100 25.13000 22.77600
H  48.42500 26.43200 23.31300
H  46.42400 27.39400 24.20000
H  46.47500 26.10200 25.44500
H  45.53700 25.96700 23.94200
H  50.58700 30.24500 27.45600
H  49.75700 29.48100 26.14300
H  51.25800 28.76600 26.87600
H  48.11100 28.89100 32.33000
H  51.54800 27.47600 34.67300
H  50.65300 28.50200 35.82600
H  51.81900 29.25400 34.66000

