158

Mg 25.83800 -8.15200 47.36100
C  27.86400 -5.51400 46.23400
C  23.59800 -7.54900 44.89300
C  24.05200 -10.86900 48.52000
C  28.58200 -9.20300 49.33800
N  25.92400 -6.88100 45.56700
C  26.72700 -5.76700 45.40000
C  26.19500 -4.84200 44.28200
C  24.70900 -5.37100 44.07400
C  24.69200 -6.69400 44.85400
C  23.59700 -4.35200 44.43900
C  27.13800 -4.93200 43.03800
C  27.90300 -3.60900 42.60200
H  27.66000 -3.28100 41.13000
N  24.04400 -8.93100 46.89900
C  23.29900 -8.55200 45.83000
C  22.19500 -9.37300 45.74100
C  22.25500 -10.35400 46.81000
C  23.49200 -10.09100 47.47300
C  21.19100 -9.38200 44.64600
C  21.16600 -11.44400 47.05300
O  20.15700 -11.70400 46.39900
C  21.21300 -12.28900 48.21700
N  26.26400 -9.87400 48.64700
C  25.37600 -10.79800 49.05500
C  25.94200 -11.67400 50.25600
C  27.45500 -11.25800 50.27200
C  27.47800 -10.06500 49.35400
C  25.29900 -11.31700 51.67800
C  28.43300 -12.38600 49.83700
C  29.75300 -12.57300 50.73600
N  27.82800 -7.58100 47.73000
C  28.76100 -7.97800 48.63700
C  29.93600 -7.09100 48.57900
C  29.61500 -6.10800 47.70500
C  28.32200 -6.42700 47.17900
C  31.25100 -7.32900 49.29500
C  30.06200 -4.80100 47.26200
O  31.03300 -4.15700 47.63300
C  28.85700 -4.33400 46.27600
C  28.20600 -3.05700 46.54100
O  28.35200 -2.02700 45.98000
O  27.37100 -3.23000 47.64300
C  26.76100 -1.97700 48.11300
H  22.86600 -7.35600 44.10600
H  23.44300 -11.65900 48.96400
H  29.41500 -9.58600 49.93200
H  26.22600 -3.78500 44.54700
H  24.54400 -5.63200 43.02900
H  23.06600 -4.12300 43.51500
H  24.08700 -3.50500 44.92000
H  22.94600 -4.68100 45.24900
H  26.60500 -5.47600 42.25800
H  28.00200 -5.50800 43.36800
H  28.95100 -3.63300 42.90100
H  27.53300 -2.77000 43.19100
H  20.31500 -8.78500 44.90300
H  20.94700 -10.39900 44.34200
H  21.71400 -9.04800 43.75000
H  21.97500 -13.06700 48.17100
H  20.31400 -12.90000 48.29800
H  21.22200 -11.73700 49.15600
H  25.73800 -12.71600 50.01100
H  27.79000 -10.93900 51.26000
H  24.50600 -12.04100 51.86600
H  24.95200 -10.28400 51.71100
H  25.98200 -11.56700 52.49000
H  28.87800 -12.13200 48.87600
H  27.91700 -13.34700 49.85600
H  29.55000 -13.28400 51.53700
H  30.08600 -11.56300 50.97300
H  30.54000 -12.96600 50.09300
H  31.67200 -8.21200 48.81500
H  31.06900 -7.51500 50.35400
H  31.94700 -6.50400 49.14500
H  29.35900 -4.11600 45.33300
H  26.20000 -1.45500 47.33700
H  27.53400 -1.23600 48.31600
H  26.14600 -2.26100 48.96600
Mg 47.06700 24.70100 28.71200
C  47.64000 27.01900 31.24500
C  45.99300 22.44700 31.15500
C  46.51400 22.44000 26.38500
C  48.69600 26.69600 26.37800
N  46.84100 24.75900 31.01200
C  47.06700 25.81400 31.80700
C  46.69100 25.49300 33.28500
C  46.32600 23.98300 33.24000
C  46.38500 23.67900 31.73000
C  47.17000 23.10100 34.17200
C  45.53800 26.43100 33.71400
C  45.92800 27.27000 34.94000
H  46.55000 26.54500 36.28000
N  46.25900 22.80800 28.77900
C  45.85100 22.05600 29.86000
C  45.24500 20.77300 29.38200
C  45.43200 20.74800 27.97600
C  46.00000 22.04400 27.60600
C  44.90400 19.64300 30.26500
C  45.18900 19.55000 26.98600
O  45.41600 19.58800 25.82100
C  44.80200 18.15700 27.44400
N  47.53100 24.60900 26.59700
C  47.24200 23.46000 25.93100
C  47.61400 23.64000 24.47900
C  48.35500 25.01300 24.51800
C  48.30400 25.43600 25.91900
C  48.33900 22.48000 23.71700
C  47.77900 26.13600 23.56700
C  46.35800 26.74300 23.88700
N  47.95800 26.47000 28.73200
C  48.57400 27.24800 27.70800
C  48.98200 28.53800 28.28700
C  48.72900 28.44000 29.64600
C  48.03400 27.19800 29.87700
C  49.66700 29.64000 27.50400
C  48.85700 29.15900 30.91100
O  49.36300 30.24200 31.22600
C  48.15000 28.27500 31.92900
C  49.22700 27.88900 32.96900
O  50.00600 26.90300 32.80600
O  49.16800 28.70200 34.08600
C  49.97300 28.18300 35.25400
H  45.67900 21.75800 31.94200
H  46.31400 21.73400 25.57700
H  49.27300 27.27200 25.65100
H  47.67200 25.66300 33.72800
H  45.31500 23.60200 33.38300
H  47.69700 22.22600 33.79100
H  46.46800 22.76200 34.93400
H  47.89500 23.75600 34.65400
H  44.50100 26.09600 33.71900
H  45.46800 27.16700 32.91300
H  44.95600 27.71800 35.14600
H  46.54500 28.12900 34.67800
H  45.62000 18.85000 30.05200
H  43.84500 19.40400 30.16200
H  45.12600 19.84300 31.31300
H  44.66200 17.43400 26.64000
H  43.85400 18.18900 27.98000
H  45.59200 17.77400 28.09000
H  46.69600 23.90100 23.95200
H  49.39400 24.91800 24.20100
H  49.14500 22.88600 23.10600
H  47.64900 22.01200 23.01600
H  48.77600 21.80800 24.45600
H  47.65700 25.63500 22.60700
H  48.58400 26.86700 23.48900
H  45.87900 26.51900 24.84000
H  45.73200 26.55300 23.01500
H  46.41800 27.82800 23.80900
H  50.70200 29.76300 27.82500
H  49.14500 30.55500 27.78300
H  49.59700 29.49800 26.42500
H  47.43900 28.88100 32.49000
H  49.58100 27.21600 35.56700
H  50.13200 28.95200 36.01000
H  50.95300 27.88900 34.87700

