158

Mg 35.54300 3.17700 30.23300
C  32.90900 4.38200 32.33500
C  37.60800 3.46800 32.93800
C  38.07300 2.30900 28.22000
C  33.30900 3.01000 27.52300
N  35.27400 3.90400 32.40400
C  34.13900 4.27000 33.08300
C  34.36900 4.29500 34.60600
C  35.92900 4.40700 34.70200
C  36.30300 3.88500 33.28300
C  36.50600 5.83400 34.90200
C  33.73400 3.12400 35.35400
C  33.22700 3.45000 36.77900
H  33.82700 4.58700 37.55500
N  37.60300 2.89500 30.55200
C  38.25800 2.96200 31.75500
C  39.64600 2.49900 31.60400
C  39.86500 2.16800 30.22900
C  38.50500 2.49400 29.59000
C  40.73300 2.56200 32.69800
C  41.11600 1.62000 29.55800
O  41.22100 1.42600 28.35700
C  42.35000 1.33100 30.37500
N  35.74900 3.09300 28.09300
C  36.84300 2.54200 27.57100
C  36.58000 2.04800 26.11600
C  35.05800 2.05700 26.07500
C  34.68100 2.80600 27.25700
C  37.35300 3.04900 25.14300
C  34.41400 0.66200 25.90800
C  33.98300 0.31600 24.47200
N  33.59600 3.61100 29.92400
C  32.75200 3.46100 28.76800
C  31.50100 4.00800 29.01700
C  31.46600 4.27400 30.40100
C  32.74900 4.06200 30.94500
C  30.34800 3.96100 28.03100
C  30.61400 4.74100 31.56600
O  29.43900 5.07000 31.62000
C  31.52100 4.61600 32.81600
C  31.42700 5.77800 33.73800
O  32.09400 6.79400 33.70500
O  30.42700 5.53100 34.65800
C  30.38000 6.46300 35.83700
H  38.27500 3.47100 33.80300
H  38.74700 1.68300 27.63100
H  32.50200 2.91700 26.79300
H  33.80400 5.14100 34.99800
H  36.24200 3.81900 35.56500
H  37.08100 6.09800 34.01500
H  37.15800 5.89300 35.77400
H  35.72300 6.58300 35.01900
H  34.39100 2.27400 35.53300
H  32.90500 2.91800 34.67700
H  33.37700 2.63000 37.48100
H  32.14100 3.54600 36.74200
H  41.12800 1.57900 32.95200
H  40.35800 2.95100 33.64500
H  41.53800 3.27600 32.51800
H  43.14500 0.95800 29.73000
H  42.04900 0.52300 31.04200
H  42.78200 2.13800 30.96700
H  36.99200 1.04600 25.99200
H  34.80400 2.75100 25.27400
H  38.12900 3.56300 25.71000
H  36.78200 3.89000 24.75100
H  37.93700 2.48000 24.42000
H  33.54700 0.47900 26.54300
H  35.11200 -0.15000 26.11100
H  34.07400 1.19600 23.83500
H  32.92400 0.06000 24.44300
H  34.56100 -0.49900 24.03700
H  30.18200 2.96700 27.61500
H  30.64700 4.69400 27.28100
H  29.46100 4.21700 28.61000
H  31.17700 3.74400 33.37300
H  29.74600 7.32100 35.61300
H  31.38500 6.71800 36.17200
H  29.93700 5.96400 36.69900
Mg 9.57900 48.17500 25.40900
C  7.48800 48.20200 28.28300
C  12.17600 49.49400 27.25100
C  11.50700 47.90700 22.70200
C  6.56900 47.72000 23.44200
N  9.71200 48.85300 27.49600
C  8.83500 48.73600 28.55200
C  9.45700 49.16700 29.89900
C  10.71200 49.80400 29.42200
C  10.95600 49.32700 27.96200
C  10.80100 51.32200 29.51600
C  9.55000 48.09000 31.01300
C  9.12500 48.51900 32.38300
H  9.01200 47.44700 33.41800
N  11.57900 48.68400 25.02700
C  12.46700 49.11900 25.96900
C  13.80400 49.00200 25.35300
C  13.68200 48.49000 24.07100
C  12.20100 48.35500 23.86900
C  15.04400 49.44000 26.07100
C  14.81600 48.17900 23.06300
O  14.63600 47.85700 21.93100
C  16.17800 48.24300 23.53500
N  9.06600 47.97300 23.34200
C  10.10800 47.64800 22.47000
C  9.56500 47.13300 21.09500
C  8.01000 47.46400 21.30400
C  7.81600 47.79100 22.75900
C  10.18300 47.73100 19.81400
C  6.92300 46.59500 20.58900
C  5.94700 47.37300 19.73500
N  7.49800 47.85700 25.74000
C  6.39800 47.74300 24.86000
C  5.19300 47.56400 25.60700
C  5.64700 47.60300 26.92100
C  6.98700 47.88700 26.99800
C  3.78100 47.51500 24.96600
C  5.18400 47.45700 28.26000
O  4.07000 47.03600 28.62200
C  6.37300 47.91700 29.21000
C  6.46800 46.72900 30.11200
O  6.90200 45.62100 29.84700
O  5.87700 47.01400 31.31700
C  5.85900 46.07000 32.39300
H  12.97800 49.85100 27.90000
H  12.09300 47.65500 21.81600
H  5.61700 47.56500 22.93000
H  8.82100 49.90700 30.38400
H  11.52700 49.45000 30.05500
H  10.13700 51.77000 30.25500
H  10.60700 51.73000 28.52400
H  11.77100 51.76400 29.74500
H  10.59500 47.85100 31.21300
H  9.09900 47.20700 30.56100
H  8.08200 48.83600 32.38600
H  9.77500 49.36800 32.59200
H  14.74200 50.01200 26.94800
H  15.55300 50.18600 25.46100
H  15.77500 48.70000 26.39600
H  16.89100 47.65800 22.95300
H  16.31200 47.74700 24.49600
H  16.43500 49.30000 23.61300
H  9.57200 46.04800 20.99800
H  7.86400 48.44800 20.85700
H  10.84500 48.52900 20.14900
H  9.49100 48.08400 19.04900
H  10.81600 46.97400 19.35100
H  6.52500 45.87900 21.30800
H  7.29300 45.98000 19.76800
H  4.94500 46.96900 19.87700
H  6.13500 47.25100 18.66900
H  5.91900 48.43900 19.96100
H  2.95800 47.63200 25.67100
H  3.65900 46.68400 24.27100
H  3.72900 48.51800 24.54300
H  6.24100 48.86300 29.73500
H  4.81200 45.86600 32.61900
H  6.36400 46.54900 33.23100
H  6.42300 45.18100 32.10900

