158

Mg 24.37000 -4.66200 45.73000
C  26.56900 -2.36700 44.12200
C  21.91300 -3.54700 43.65100
C  22.47400 -7.29500 46.57600
C  27.01500 -5.84500 47.43000
N  24.23100 -2.99500 44.21400
C  25.16700 -2.21900 43.67200
C  24.71900 -1.42800 42.45900
C  23.18000 -1.66500 42.54000
C  23.04500 -2.80900 43.57300
C  22.36100 -0.33700 42.83900
C  25.38700 -1.88200 41.12800
C  26.10000 -0.83700 40.28300
H  25.84300 -0.81000 38.80000
N  22.44700 -5.30600 45.23500
C  21.60900 -4.66900 44.39300
C  20.35200 -5.41500 44.35200
C  20.53700 -6.59300 45.09800
C  21.86200 -6.39500 45.67800
C  19.17400 -5.10800 43.55400
C  19.51400 -7.69700 45.25700
O  18.35200 -7.61600 44.87500
C  19.80100 -8.92000 46.00500
N  24.65000 -6.34000 46.81300
C  23.72700 -7.28800 47.11000
C  24.25300 -8.36600 48.03100
C  25.61700 -7.79000 48.46200
C  25.79600 -6.58900 47.50300
C  23.35700 -8.79800 49.17200
C  26.74600 -8.86100 48.39200
C  27.49800 -8.96000 49.68200
N  26.37500 -4.19800 45.80700
C  27.37000 -4.77800 46.57900
C  28.53000 -3.97800 46.54900
C  28.26600 -3.15600 45.45200
C  26.94600 -3.25500 45.06600
C  29.81600 -4.08500 47.35100
C  28.87600 -2.18700 44.58400
O  30.00600 -1.75000 44.60500
C  27.80800 -1.66200 43.65000
C  27.66200 -0.16000 43.72000
O  26.94000 0.44600 44.50600
O  28.50600 0.39500 42.83000
C  28.80500 1.77800 43.23900
H  21.00100 -3.21400 43.15200
H  21.90700 -8.13000 46.99300
H  27.79300 -6.21600 48.10000
H  24.94900 -0.38400 42.67300
H  22.60700 -2.09800 41.72000
H  22.92400 0.57600 42.64600
H  21.94100 -0.25800 43.84200
H  21.70000 -0.31100 41.97300
H  24.67800 -2.45900 40.53600
H  26.14700 -2.59500 41.44800
H  27.17400 -1.02500 40.29700
H  26.03600 0.17300 40.68600
H  19.05200 -5.77900 42.70400
H  19.17800 -4.07900 43.19300
H  18.30300 -5.24300 44.19500
H  19.78600 -8.52000 47.01900
H  20.79100 -9.27000 45.71100
H  18.98700 -9.63500 45.88500
H  24.38100 -9.22600 47.37400
H  25.57300 -7.46600 49.50200
H  23.95600 -9.01400 50.05700
H  22.86000 -9.72400 48.88000
H  22.70200 -7.95100 49.37400
H  27.46100 -8.66100 47.59300
H  26.36900 -9.87400 48.25400
H  26.84000 -9.05600 50.54500
H  28.11900 -8.08400 49.87400
H  28.15600 -9.82900 49.66300
H  30.49100 -3.32300 46.96100
H  30.23800 -5.08400 47.24400
H  29.60700 -3.84900 48.39500
H  28.14900 -1.90900 42.64500
H  29.74700 1.97300 42.72700
H  28.87800 1.96500 44.31100
H  28.00200 2.40400 42.85200
Mg 0.90000 43.56000 25.78100
C  2.99800 43.78000 28.63600
C  -1.68700 42.77700 27.83100
C  -0.87600 42.91700 23.11600
C  3.73100 44.06400 23.82400
N  0.78200 43.10800 27.95500
C  1.64900 43.44500 28.99100
C  0.97400 43.27600 30.36400
C  -0.45500 42.84900 30.00500
C  -0.43500 42.83200 28.48100
C  -0.98700 41.57000 30.71600
C  1.14000 44.47300 31.24000
C  1.55100 44.20800 32.73700
H  1.04400 42.85800 33.27800
N  -1.03700 43.15600 25.50800
C  -1.94500 42.90600 26.51500
C  -3.23600 42.64500 25.93400
C  -3.05300 42.52900 24.47800
C  -1.60900 42.87600 24.29600
C  -4.53600 42.55300 26.76400
C  -4.07100 42.34300 23.32400
O  -3.77400 42.15100 22.16000
C  -5.54900 42.11300 23.62400
N  1.32800 43.62800 23.73400
C  0.45600 43.20900 22.83700
C  1.00900 43.13400 21.44200
C  2.37300 43.94100 21.60300
C  2.52300 43.88100 23.16900
C  1.10400 41.63800 20.83700
C  2.37700 45.39400 21.00600
C  2.57000 45.52900 19.49500
N  2.94300 43.87100 26.12800
C  3.92400 44.14100 25.21600
C  5.21500 44.29900 25.84500
C  4.86700 44.09300 27.21400
C  3.49400 43.92000 27.30500
C  6.47900 44.55800 25.22700
C  5.41700 44.02400 28.53900
O  6.56600 44.11400 28.95200
C  4.23200 44.00100 29.52200
C  4.35200 42.81800 30.39700
O  4.22500 41.67000 29.95600
O  4.86600 43.04800 31.67800
C  5.43800 41.95000 32.45500
H  -2.49700 42.64300 28.55100
H  -1.50100 42.62800 22.26800
H  4.53400 44.39700 23.16400
H  1.51900 42.40300 30.72400
H  -1.16200 43.65800 30.18200
H  -1.22800 40.72700 30.07000
H  -1.82400 41.76400 31.38700
H  -0.19800 41.20200 31.37200
H  0.18900 44.98700 31.38000
H  1.72900 45.30500 30.85500
H  1.15800 45.08200 33.25800
H  2.63900 44.15100 32.72600
H  -4.37000 43.14600 27.66300
H  -4.72300 41.51600 27.04100
H  -5.39100 42.97200 26.23300
H  -5.64200 41.28700 24.32900
H  -6.16600 41.89400 22.75300
H  -5.74800 43.06100 24.12500
H  0.25700 43.66500 20.85700
H  3.19700 43.47300 21.06500
H  0.58200 40.84500 21.37300
H  2.16600 41.40500 20.92100
H  0.70600 41.62800 19.82300
H  3.16800 45.99300 21.45800
H  1.38800 45.76200 21.27900
H  1.66600 45.93300 19.04000
H  2.64200 44.56800 18.98500
H  3.41000 46.16700 19.22200
H  7.36900 44.17900 25.72800
H  6.61400 45.63900 25.19400
H  6.49700 44.09800 24.23900
H  4.21000 44.91600 30.11400
H  5.92500 42.36900 33.33600
H  6.20200 41.45700 31.85400
H  4.65900 41.36200 32.94000

