158

Mg 44.27800 5.23700 47.35300
C  42.16600 8.20700 47.34700
C  41.33500 3.50600 47.14400
C  46.11300 2.77000 46.90700
C  47.00200 7.50200 47.16500
N  42.06100 5.87100 47.24800
C  41.42200 7.06800 47.19100
C  39.88200 6.94700 47.02500
C  39.68500 5.39700 46.94800
C  41.15300 4.86900 47.18300
C  38.64900 4.81400 47.91300
C  39.09800 7.73100 45.88900
C  39.85100 8.09700 44.57100
H  39.07700 7.59900 43.28400
N  43.78700 3.38200 47.01400
C  42.57900 2.82900 47.05700
C  42.77000 1.43900 46.75600
C  44.13300 1.14600 46.64000
C  44.78000 2.46200 46.78400
C  41.55500 0.48700 46.75300
C  44.81700 -0.21200 46.37700
O  44.11500 -1.21000 46.35800
C  46.16500 -0.37100 46.16800
N  46.30100 5.18500 46.97600
C  46.84500 3.93800 47.00100
C  48.40800 3.94500 46.97600
C  48.62200 5.48800 47.17300
C  47.22500 6.14900 47.11400
C  49.00900 3.09600 48.07300
C  49.44800 6.01400 45.97300
C  50.96600 5.78700 46.09700
N  44.59000 7.39700 47.38600
C  45.75900 8.11300 47.28700
C  45.50000 9.51600 47.30200
C  44.09200 9.57300 47.35700
C  43.55300 8.30100 47.43900
C  46.50100 10.63800 46.95800
C  42.96900 10.55100 47.37800
O  42.91500 11.74200 47.26500
C  41.67300 9.65500 47.19000
C  40.55100 10.02100 48.15000
O  40.41200 9.67400 49.27700
O  39.80300 11.07700 47.64200
C  38.86800 11.76100 48.57300
H  40.45200 2.88000 47.00000
H  46.80500 1.92900 46.82100
H  47.82100 8.22500 47.16300
H  39.52700 7.39200 47.95400
H  39.50600 5.19600 45.89200
H  37.88100 5.58800 47.91900
H  39.09000 4.75400 48.90800
H  38.24500 3.88000 47.52300
H  38.72900 8.66100 46.32200
H  38.21600 7.13300 45.66200
H  40.89900 7.80300 44.63100
H  39.80400 9.17800 44.43600
H  41.63400 -0.37400 46.09000
H  40.76000 0.95700 46.17500
H  41.26800 0.30200 47.78800
H  46.56300 0.25800 45.37200
H  46.51900 -1.37100 45.91800
H  46.81300 -0.18100 47.02400
H  48.62900 3.59300 45.96800
H  49.09300 5.65300 48.14200
H  48.21100 2.70500 48.70400
H  49.61900 3.69500 48.75000
H  49.45500 2.18800 47.66800
H  49.26400 7.08000 45.83800
H  49.13700 5.50100 45.06300
H  51.30700 4.99100 45.43400
H  51.30100 5.51900 47.09900
H  51.49100 6.72700 45.93200
H  46.04300 11.57500 47.27200
H  46.69400 10.58300 45.88700
H  47.43400 10.50000 47.50400
H  41.21900 9.89000 46.22700
H  39.50700 11.96900 49.43100
H  38.03200 11.17900 48.96100
H  38.47600 12.64800 48.07600
Mg 49.68300 35.38700 26.68100
C  47.61000 34.16400 29.28400
C  50.06400 38.24600 28.60700
C  51.21700 36.85600 24.06900
C  48.92900 32.56900 24.80100
N  48.92200 36.11000 28.68300
C  48.22000 35.37400 29.57700
C  48.26200 35.99000 30.88200
C  48.67800 37.44600 30.60000
C  49.24000 37.32800 29.15300
C  47.50100 38.49500 30.77900
C  49.28400 35.30500 31.79600
C  49.14600 35.42100 33.29600
H  47.95500 36.19500 33.89800
N  50.53900 37.30300 26.38400
C  50.65400 38.28200 27.30200
C  51.38700 39.37200 26.75100
C  51.88600 38.90100 25.45800
C  51.19800 37.59400 25.25400
C  51.77700 40.48200 27.56500
C  52.76700 39.54600 24.42700
O  53.15100 38.94600 23.41500
C  53.30900 40.98600 24.62700
N  49.85700 34.85900 24.63300
C  50.72600 35.58900 23.78900
C  51.00700 34.73800 22.51400
C  50.42500 33.31300 22.92700
C  49.65200 33.62400 24.17800
C  50.31500 35.39500 21.21400
C  51.45100 32.07700 22.92400
C  50.96700 30.76500 22.19700
N  48.58400 33.70000 27.00300
C  48.32000 32.60000 26.12900
C  47.55500 31.59200 26.73700
C  47.21800 32.14000 27.95900
C  47.84600 33.40900 28.05400
C  47.08900 30.27400 26.17800
C  46.44700 31.86400 29.19200
O  45.80200 30.86200 29.56800
C  46.57800 33.24800 30.01900
C  47.06100 32.82800 31.38200
O  48.08300 32.26300 31.57500
O  46.09300 32.86000 32.36100
C  46.41600 32.23400 33.66600
H  50.22800 39.04700 29.33100
H  51.61000 37.35200 23.17900
H  48.80900 31.67100 24.19200
H  47.24600 35.89400 31.26700
H  49.54400 37.68300 31.21800
H  47.23000 38.86200 29.78900
H  47.74000 39.37400 31.37700
H  46.66500 37.99600 31.26900
H  50.27400 35.69500 31.55900
H  49.33300 34.25100 31.52500
H  50.05600 35.93300 33.60900
H  49.08600 34.43100 33.74600
H  51.62900 40.38400 28.64000
H  51.24100 41.36000 27.20500
H  52.85100 40.56600 27.39400
H  52.59400 41.61500 25.15700
H  53.49700 41.26300 23.58900
H  54.27100 40.99000 25.14000
H  52.07000 34.61500 22.30600
H  49.74900 33.06600 22.10800
H  49.72000 36.24400 21.54900
H  49.68200 34.67300 20.69800
H  51.04600 35.88600 20.57200
H  51.59500 31.81200 23.97100
H  52.36200 32.49000 22.49200
H  49.93100 30.85700 21.87100
H  51.04600 29.92200 22.88300
H  51.55800 30.52400 21.31300
H  47.69600 29.38300 26.33400
H  46.78100 30.46400 25.15000
H  46.18400 30.00300 26.72300
H  45.65100 33.80600 30.15000
H  45.82600 32.57400 34.51700
H  47.46600 32.26800 33.95500
H  46.28600 31.17000 33.46900

