158

Mg 34.95900 3.17200 30.01700
C  32.54000 4.03000 32.38600
C  37.26500 3.42100 32.63600
C  37.38200 2.57100 27.71800
C  32.57300 3.35200 27.58500
N  34.79800 3.51100 32.26200
C  33.77600 3.91200 32.96500
C  34.04300 3.87700 34.44300
C  35.59100 4.06600 34.50200
C  35.90800 3.60900 33.05600
C  36.06400 5.50500 34.99200
C  33.46200 2.67800 35.18800
C  32.99600 2.87200 36.60500
H  33.54400 4.07500 37.42100
N  37.01300 3.09800 30.11400
C  37.78300 3.13100 31.32400
C  39.10800 2.79700 31.01100
C  39.26300 2.53000 29.60800
C  37.82600 2.73800 29.07100
C  40.26400 2.78500 32.06400
C  40.51000 2.05100 28.76300
O  40.35400 1.90500 27.58300
C  41.92100 1.83600 29.40400
N  34.91700 2.89200 27.95100
C  36.06500 2.60300 27.21000
C  35.74000 2.37700 25.70800
C  34.23000 2.78000 25.65200
C  33.88000 3.11700 27.17100
C  36.64200 3.16500 24.79200
C  33.37700 1.60300 25.00500
C  32.47000 2.00100 23.78100
N  32.90300 3.56300 29.96100
C  32.05800 3.60200 28.86900
C  30.75000 3.90600 29.32700
C  30.83800 4.09600 30.70500
C  32.23200 3.83600 31.02200
C  29.58400 4.24200 28.47400
C  30.15500 4.47500 31.92300
O  28.98600 4.77800 32.12100
C  31.22200 4.36300 33.11000
C  31.29800 5.59700 33.90900
O  31.73200 6.65200 33.43200
O  30.75300 5.43700 35.22500
C  30.16700 6.62600 35.86400
H  38.03600 3.46000 33.40800
H  38.16900 2.35900 26.99200
H  31.72100 3.44100 26.90800
H  33.55600 4.76800 34.83800
H  36.00600 3.39400 35.25200
H  36.22100 5.49100 36.07100
H  35.29000 6.24800 34.79700
H  36.95800 5.79000 34.43800
H  34.15600 1.83800 35.21500
H  32.55100 2.38200 34.66800
H  33.25100 1.97300 37.16600
H  31.90800 2.93600 36.62200
H  40.04000 3.17100 33.05800
H  41.06700 3.36500 31.60700
H  40.69300 1.79700 32.22900
H  42.47200 2.76600 29.53700
H  42.54600 1.34500 28.65800
H  41.85100 1.21300 30.29600
H  35.85200 1.31100 25.50800
H  34.22000 3.69700 25.06300
H  36.94800 4.06900 25.31700
H  36.06400 3.55600 23.95500
H  37.40900 2.50200 24.39100
H  32.65200 1.30100 25.76100
H  33.95500 0.76900 24.60600
H  32.60200 1.35700 22.91200
H  32.87500 2.93700 23.39500
H  31.43800 2.20100 24.07200
H  29.12800 5.09700 28.97400
H  28.87400 3.41800 28.41200
H  29.90700 4.53500 27.47500
H  30.96800 3.53200 33.76900
H  29.98800 7.29100 35.01900
H  30.66200 7.11100 36.70600
H  29.19900 6.25700 36.20100
Mg 46.65000 16.66200 28.23900
C  44.76000 16.62800 31.06700
C  48.99100 18.78100 29.86900
C  48.10100 17.37800 25.26400
C  44.03400 15.17200 26.54700
N  46.77900 17.73400 30.19000
C  45.97400 17.30800 31.25200
C  46.55800 17.74600 32.61900
C  47.65100 18.79400 32.12400
C  47.88500 18.42000 30.69500
C  47.34800 20.30300 32.31700
C  47.06700 16.50500 33.38100
C  47.13200 16.56500 34.91200
H  47.16600 17.91000 35.62200
N  48.38200 17.72000 27.69000
C  49.18600 18.48000 28.51200
C  50.33300 18.88300 27.74200
C  49.95700 18.72100 26.39500
C  48.80600 17.87100 26.40400
C  51.62000 19.46800 28.35100
C  50.63200 19.19100 25.12300
O  50.24700 18.95100 23.98200
C  51.78900 20.15700 25.26800
N  46.28500 16.04500 26.17700
C  46.99600 16.51400 25.16400
C  46.29400 16.28000 23.81400
C  45.14100 15.28100 24.29600
C  45.14300 15.52300 25.80200
C  45.89800 17.46900 22.95800
C  45.40400 13.86600 23.83400
C  44.80900 13.40000 22.51400
N  44.78600 15.92300 28.67100
C  43.86000 15.27000 27.94500
C  42.65400 14.93400 28.75100
C  42.93800 15.47900 30.01800
C  44.25000 16.06800 29.90400
C  41.57100 14.08400 28.27400
C  42.49200 15.62100 31.33200
O  41.44100 15.21400 31.79200
C  43.68200 16.29600 32.14200
C  43.11300 17.55400 32.73500
O  42.95000 18.62000 32.19800
O  42.64000 17.16500 33.96900
C  41.55900 17.94900 34.52400
H  49.84200 19.32200 30.28900
H  48.33600 17.60000 24.22100
H  43.20400 14.81100 25.93600
H  45.70500 18.11200 33.19000
H  48.56100 18.77400 32.72300
H  46.34100 20.40900 32.72100
H  47.42100 20.93300 31.43000
H  47.99500 20.67200 33.11300
H  48.05400 16.37200 32.93700
H  46.52200 15.63000 33.02700
H  48.00700 15.96600 35.16500
H  46.35100 16.01200 35.43500
H  52.42000 18.74000 28.21700
H  51.52600 19.73100 29.40400
H  51.75100 20.43500 27.86500
H  51.44100 21.14400 25.57100
H  52.26900 20.22600 24.29200
H  52.52900 19.80900 25.99000
H  46.94600 15.62100 23.24000
H  44.17500 15.56700 23.87900
H  46.50200 18.36300 23.11000
H  44.88700 17.72200 23.28000
H  45.99600 17.23100 21.89900
H  44.93000 13.26800 24.61200
H  46.45700 13.58600 23.86500
H  45.69400 13.29600 21.88600
H  44.06000 14.02400 22.02700
H  44.42600 12.40400 22.73500
H  40.65600 14.66300 28.15100
H  41.37300 13.27000 28.97200
H  41.89000 13.74800 27.28700
H  43.94000 15.51800 32.86100
H  40.85000 18.21900 33.74200
H  41.98800 18.87600 34.90600
H  41.09100 17.48800 35.39400

