158

Mg 35.12900 2.50000 29.74700
C  32.76900 3.16600 32.07200
C  37.58900 2.73000 32.23900
C  37.37700 1.84900 27.32500
C  32.63300 2.74900 27.27700
N  35.10700 2.90800 31.89700
C  34.09000 3.09600 32.68500
C  34.40400 3.15300 34.16800
C  35.96400 3.31100 34.04200
C  36.26200 2.90500 32.64200
C  36.45000 4.74600 34.43600
C  34.04600 1.88600 34.94900
C  33.83200 2.07500 36.45800
H  34.25600 3.42400 37.02500
N  37.18700 2.18900 29.79600
C  38.04800 2.30400 30.89600
C  39.35900 1.97000 30.53500
C  39.32000 1.63900 29.07400
C  37.91200 1.84700 28.63700
C  40.51600 2.06000 31.39800
C  40.46200 1.18200 28.11900
O  40.20800 0.80500 26.96600
C  41.90700 1.23600 28.61400
N  35.07700 2.34400 27.62800
C  36.13300 2.08900 26.85100
C  35.82400 2.09400 25.35700
C  34.28000 2.39500 25.34800
C  33.95000 2.41400 26.84300
C  36.62000 3.11900 24.41600
C  33.40700 1.49700 24.38800
C  32.46200 0.46000 25.01300
N  32.99100 2.87600 29.65600
C  32.11700 2.97700 28.60800
C  30.86200 3.25200 29.13400
C  31.03300 3.40500 30.52000
C  32.36300 3.10500 30.78100
C  29.61000 3.44000 28.34500
C  30.36600 3.72800 31.81400
O  29.16900 4.05400 32.04900
C  31.54500 3.48300 32.90600
C  31.67100 4.70400 33.72700
O  32.15100 5.75900 33.30100
O  30.96800 4.54600 34.90800
C  31.05200 5.76500 35.64500
H  38.31300 2.72500 33.05600
H  38.07000 1.64900 26.50600
H  31.88300 2.75900 26.48500
H  33.94300 4.04500 34.59300
H  36.45900 2.61000 34.71400
H  37.08400 4.63100 35.31500
H  35.65100 5.43200 34.71800
H  37.13500 5.15900 33.69700
H  34.82900 1.14900 34.77200
H  33.23700 1.45500 34.35900
H  34.39600 1.29100 36.96300
H  32.77000 2.03300 36.70000
H  40.15900 2.41100 32.36600
H  41.17300 2.80400 30.94700
H  40.91000 1.05100 31.52000
H  42.51000 1.32400 27.71100
H  42.16300 0.34400 29.18600
H  42.01500 2.19600 29.12000
H  35.98200 1.09500 24.95300
H  34.15100 3.42700 25.02300
H  37.31100 3.63200 25.08400
H  35.93700 3.87200 24.02300
H  37.13100 2.80100 23.50600
H  34.02400 0.92300 23.69700
H  32.74800 2.21400 23.89900
H  32.34400 -0.38500 24.33500
H  31.47400 0.89500 25.17000
H  32.97500 -0.01000 25.85200
H  29.64800 2.90700 27.39500
H  29.62300 4.46900 27.98600
H  28.64900 3.20900 28.80500
H  31.24900 2.60200 33.47600
H  30.47800 6.61200 35.26700
H  32.08700 6.07400 35.79300
H  30.62900 5.59600 36.63500
Mg 53.63000 23.67900 44.33900
C  51.25900 26.25300 43.86200
C  51.51600 21.49600 42.71600
C  56.16300 21.40100 44.39700
C  55.86000 26.24500 45.40800
N  51.70500 23.91700 43.26200
C  50.92500 25.06000 43.21800
C  49.70700 24.87500 42.30900
C  49.51700 23.29300 42.54600
C  50.97100 22.84200 42.84400
C  48.60400 22.97900 43.73500
C  50.01900 25.23800 40.78200
C  51.42700 25.39200 40.28600
H  51.74900 26.14100 39.02200
N  53.74400 21.65500 43.72400
C  52.74800 20.94900 43.17100
C  53.15100 19.55600 43.07400
C  54.50600 19.47300 43.46600
C  54.86800 20.85000 43.94000
C  52.25200 18.50400 42.58700
C  55.30700 18.18200 43.51400
O  54.82800 17.15800 43.06200
C  56.66500 18.02700 44.02200
N  55.75500 23.83200 44.58600
C  56.54600 22.74200 44.72300
C  57.98100 23.08400 45.14500
C  57.83200 24.63400 45.45400
C  56.37300 24.95300 45.10200
C  58.49700 22.28900 46.31100
C  58.77000 25.46000 44.60500
C  59.19500 26.86700 45.03700
N  53.66900 25.88000 44.54000
C  54.56000 26.71400 45.05900
C  53.98700 28.07100 45.16200
C  52.65200 27.94600 44.73600
C  52.53400 26.59200 44.33700
C  54.62300 29.37600 45.70600
C  51.40500 28.64500 44.55900
O  51.09100 29.79200 44.89100
C  50.46100 27.59100 43.92700
C  50.07600 28.20800 42.55500
O  50.82500 28.33900 41.59000
O  48.75900 28.46500 42.58900
C  48.03300 28.56200 41.35900
H  50.67500 20.89400 42.36600
H  56.99700 20.69900 44.33300
H  56.45600 26.97500 45.96000
H  48.87500 25.44700 42.72100
H  49.24400 22.85600 41.58500
H  48.17200 23.91400 44.09000
H  49.38000 22.82100 44.48400
H  48.01700 22.12100 43.40700
H  49.40900 26.09500 40.49600
H  49.60600 24.49100 40.10400
H  51.71500 24.34100 40.25300
H  52.08500 25.74400 41.08100
H  52.84200 17.79000 42.01100
H  51.48900 18.90900 41.92300
H  51.85400 17.99200 43.46300
H  57.03000 17.04200 44.31300
H  56.51500 18.47500 45.00400
H  57.39800 18.41800 43.31600
H  58.57500 22.91700 44.24700
H  57.94100 24.80700 46.52400
H  59.50600 21.92600 46.11300
H  57.88400 21.39200 46.21900
H  58.42600 22.74500 47.29800
H  58.36100 25.66800 43.61600
H  59.63800 24.82900 44.41500
H  58.92000 27.57800 44.25800
H  60.27400 27.02300 45.03600
H  58.90300 27.10400 46.06000
H  55.65500 29.23700 45.38500
H  54.58600 29.28800 46.79200
H  54.02300 30.17000 45.26200
H  49.65800 27.52100 44.66100
H  48.42700 28.03400 40.49100
H  47.86800 29.59700 41.06000
H  47.06400 28.13000 41.60600

