158

Mg 45.45200 4.32300 47.55600
C  43.37800 7.03800 47.51400
C  42.61400 2.26800 47.11900
C  47.54600 1.71400 46.74400
C  48.25100 6.44100 47.42700
N  43.28100 4.63400 47.18600
C  42.66600 5.85600 47.19400
C  41.12400 5.82800 47.00600
C  40.90600 4.25100 47.07600
C  42.35000 3.66100 47.08400
C  39.94600 3.78100 48.22500
C  40.52100 6.38500 45.65000
C  41.43400 6.22000 44.48900
H  40.65200 5.57300 43.31000
N  45.12800 2.33800 47.07500
C  43.85300 1.66800 47.10700
C  44.13700 0.23100 47.05200
C  45.52100 0.04700 46.84500
C  46.12100 1.42300 46.83800
C  42.97700 -0.76700 47.14800
C  46.18300 -1.38900 46.63500
O  45.62800 -2.42400 46.87600
C  47.71700 -1.53100 46.32500
N  47.62700 4.16000 47.07100
C  48.20700 2.88900 47.01900
C  49.69600 2.92300 47.09200
C  49.86600 4.47100 47.39200
C  48.53600 5.07800 47.27700
C  50.22000 1.95600 48.21300
C  50.88600 5.20100 46.52200
C  52.31600 4.84000 46.97400
N  45.83900 6.37200 47.44200
C  47.04200 7.10700 47.47400
C  46.72200 8.50700 47.51400
C  45.31600 8.52800 47.58400
C  44.83400 7.19700 47.44600
C  47.70000 9.61600 47.55500
C  44.21700 9.34800 47.74500
O  44.20900 10.55200 47.82000
C  42.95000 8.51400 47.62000
C  42.09200 8.74100 48.74300
O  42.40600 8.52200 49.88800
O  40.90500 9.17200 48.34400
C  39.81600 9.26700 49.35100
H  41.70000 1.72400 46.86900
H  48.19700 0.83800 46.69100
H  49.10700 7.11600 47.48800
H  40.59000 6.17700 47.89000
H  40.40200 3.81300 46.21500
H  40.52500 3.27300 48.99600
H  39.24000 3.11700 47.72500
H  39.36500 4.58100 48.68500
H  40.35500 7.46100 45.71500
H  39.52700 6.03600 45.37200
H  42.25300 5.52800 44.68600
H  41.92700 7.14100 44.17800
H  42.04400 -0.35400 47.53000
H  43.18400 -1.68900 47.69000
H  42.61400 -1.05300 46.16100
H  47.87600 -2.50700 45.86700
H  48.29500 -1.40700 47.24100
H  47.96300 -0.85200 45.50900
H  50.12100 2.57800 46.14900
H  50.16800 4.59600 48.43200
H  50.71600 1.12600 47.71000
H  49.41000 1.57100 48.83200
H  50.93600 2.53100 48.80000
H  50.90100 6.29000 46.53900
H  50.92500 4.89400 45.47600
H  52.33900 3.96500 47.62400
H  52.81200 5.72100 47.37900
H  52.90000 4.61900 46.08100
H  48.16300 9.75200 48.53200
H  47.27200 10.60100 47.36900
H  48.51400 9.45200 46.84900
H  42.42100 8.78300 46.70500
H  40.20400 10.10600 49.92800
H  39.86900 8.34700 49.93200
H  38.80300 9.44800 48.99100
Mg 54.07200 24.54400 44.88300
C  51.43600 26.77100 44.37600
C  51.96100 21.93500 44.20200
C  56.86100 22.53800 44.61100
C  56.15700 27.13300 45.62000
N  51.95100 24.41500 44.20700
C  51.01800 25.43500 44.17500
C  49.54400 24.84900 44.06700
C  49.79500 23.35500 44.45900
C  51.35700 23.21200 44.27400
C  49.43400 23.00200 45.90700
C  48.73700 25.03500 42.71200
C  49.45300 25.03400 41.33800
H  49.72000 23.57100 40.87300
N  54.38100 22.50600 44.41700
C  53.34500 21.59300 44.24200
C  54.02500 20.28800 44.08000
C  55.44600 20.47000 44.07400
C  55.64500 21.90200 44.38200
C  53.24200 19.01700 43.87000
C  56.46200 19.31900 43.83200
O  56.08800 18.18700 43.75300
C  57.91800 19.58800 43.62500
N  56.22700 24.86400 44.92100
C  57.15000 23.88400 44.88900
C  58.60800 24.39200 45.07300
C  58.37500 25.93200 45.41700
C  56.84400 26.00400 45.20500
C  59.30700 23.53900 46.21700
C  59.23400 26.91600 44.53300
C  58.61200 27.48100 43.18100
N  53.88800 26.56000 44.96900
C  54.79700 27.50500 45.41800
C  54.21300 28.78400 45.56900
C  52.93100 28.62300 45.03400
C  52.77800 27.21700 44.70400
C  54.78200 29.98800 46.23400
C  51.60800 29.14200 44.70900
O  51.22900 30.29100 44.86000
C  50.61500 27.97700 44.27200
C  50.09000 28.39200 42.93100
O  50.73900 28.64800 41.91800
O  48.73100 28.61300 43.09000
C  47.95800 28.75200 41.83100
H  51.28000 21.14300 43.88600
H  57.79000 21.96700 44.54700
H  56.81700 27.92400 45.98200
H  48.83100 25.28600 44.76600
H  49.36800 22.71700 43.68500
H  49.69600 21.94500 45.93400
H  48.37400 23.20300 46.06500
H  50.08100 23.60600 46.54300
H  48.11100 25.92600 42.74200
H  48.06900 24.18000 42.60100
H  50.44000 25.49700 41.32700
H  48.78800 25.50700 40.61500
H  53.01800 18.93400 42.80700
H  52.33100 19.06200 44.46600
H  53.80500 18.10400 44.06300
H  57.98800 20.51000 43.04900
H  58.19500 18.70600 43.04800
H  58.50000 19.66800 44.54300
H  59.07600 24.36200 44.09000
H  58.46700 26.03500 46.49800
H  59.57300 24.20100 47.04200
H  60.20000 23.06600 45.80900
H  58.61100 22.86200 46.71300
H  60.22200 26.46900 44.41900
H  59.38500 27.77100 45.19200
H  59.13300 27.15700 42.28000
H  58.65800 28.57000 43.13700
H  57.57400 27.17200 43.05800
H  55.71100 30.37600 45.81700
H  54.92900 29.78800 47.29500
H  53.99700 30.74300 46.17300
H  49.83800 28.02300 45.03600
H  48.52600 29.22300 41.02900
H  46.96900 29.18100 41.99300
H  47.81200 27.77100 41.38000

