158

Mg -2.54000 17.61200 26.36500
C  -2.81200 14.92600 28.89800
C  -2.85200 19.83100 28.92400
C  -2.30700 19.92400 24.03800
C  -2.94400 15.03900 23.96000
N  -2.82400 17.34400 28.62600
C  -2.91400 16.22400 29.42700
C  -2.94800 16.61300 30.95300
C  -3.23600 18.18100 30.85000
C  -2.94300 18.47400 29.41900
C  -4.72000 18.56900 31.28600
C  -1.67100 16.14000 31.78100
C  -1.10100 16.94200 32.97500
H  -0.69100 16.23200 34.27600
N  -2.61500 19.62700 26.44800
C  -2.74300 20.37000 27.61600
C  -2.67700 21.73400 27.22900
C  -2.40700 21.82100 25.79400
C  -2.39000 20.41900 25.37300
C  -2.69800 22.85300 28.19200
C  -2.24900 23.02700 24.88200
O  -2.15600 22.90100 23.64600
C  -2.00500 24.32300 25.49200
N  -2.58700 17.43200 24.25300
C  -2.47300 18.57000 23.48200
C  -2.32100 18.20700 21.95100
C  -2.68700 16.65300 21.98500
C  -2.73400 16.32500 23.49900
C  -3.08700 19.06100 20.93900
C  -1.97400 15.64800 21.04800
C  -2.82500 14.72700 20.15400
N  -2.84500 15.44000 26.38100
C  -2.97000 14.56500 25.30300
C  -2.97900 13.22000 25.77800
C  -3.01600 13.36200 27.18400
C  -2.84200 14.65900 27.48400
C  -3.00000 11.93700 24.99500
C  -3.09800 12.56200 28.38800
O  -3.19300 11.36300 28.50400
C  -3.01100 13.60500 29.54600
C  -1.92000 13.11800 30.35300
O  -0.74600 13.48700 30.33900
O  -2.44100 12.22900 31.25300
C  -1.40400 11.61900 32.20300
H  -2.85100 20.56700 29.73100
H  -2.30400 20.70900 23.27900
H  -3.07300 14.30200 23.16500
H  -3.75100 16.04300 31.41900
H  -2.51100 18.60800 31.54300
H  -4.71700 18.83400 32.34300
H  -5.43300 17.76500 31.10400
H  -5.11200 19.40700 30.70900
H  -0.85500 15.93300 31.08900
H  -1.98200 15.22200 32.27900
H  -1.80300 17.64400 33.42600
H  -0.27400 17.57700 32.65700
H  -2.99300 22.59000 29.20800
H  -3.43300 23.57100 27.82800
H  -1.74400 23.37800 28.14800
H  -1.68900 25.04800 24.74200
H  -1.13500 24.09000 26.10600
H  -2.85800 24.56800 26.12600
H  -1.24100 18.25100 21.81100
H  -3.72000 16.63200 21.63600
H  -3.75600 19.63200 21.58300
H  -3.75000 18.48400 20.29400
H  -2.45800 19.70500 20.32400
H  -1.37900 15.06600 21.75300
H  -1.32500 16.17200 20.34700
H  -2.46800 14.64900 19.12700
H  -3.88000 14.99600 20.20900
H  -2.76000 13.74600 20.62500
H  -2.19200 11.93200 24.26300
H  -4.01800 11.86300 24.61300
H  -2.81300 11.14400 25.72000
H  -3.97200 13.54800 30.05800
H  -1.83700 10.85300 32.84600
H  -1.10900 12.45500 32.83800
H  -0.50700 11.21200 31.73600
Mg -11.37700 16.00100 41.29700
C  -8.17500 14.59800 41.08600
C  -10.14300 18.81600 39.73000
C  -14.52400 17.24200 41.04000
C  -12.47800 12.93000 42.34500
N  -9.42200 16.60900 40.51800
C  -8.28600 15.91100 40.52200
C  -7.11300 16.65100 39.74500
C  -7.77500 18.10700 39.51000
C  -9.22600 17.76400 39.84000
C  -7.15900 19.05800 40.52400
C  -6.74000 15.97300 38.44400
C  -5.26400 15.85700 38.00500
H  -4.87300 16.72700 36.87900
N  -12.23400 17.71500 40.38000
C  -11.52300 18.79800 39.88100
C  -12.41100 19.88700 39.52900
C  -13.73900 19.54400 39.94200
C  -13.57900 18.10500 40.46700
C  -12.00600 21.23200 39.06900
C  -15.04400 20.39100 39.90600
O  -14.95600 21.54400 39.56500
C  -16.35200 19.92400 40.40800
N  -13.29600 15.12000 41.50600
C  -14.39900 15.94100 41.57400
C  -15.64100 15.16100 42.08700
C  -14.97000 13.83300 42.65100
C  -13.52300 13.92900 42.07000
C  -16.48500 16.06900 43.11000
C  -15.69900 12.54700 42.35100
C  -16.56300 11.89200 43.46200
N  -10.52800 14.11400 41.65900
C  -11.12600 12.95900 42.12100
C  -10.12800 11.94100 42.31300
C  -8.99900 12.53000 41.87900
C  -9.26500 13.85100 41.51000
C  -10.32100 10.61600 42.83600
C  -7.56400 12.32600 41.73600
O  -6.94400 11.33100 41.88400
C  -6.91100 13.72700 41.24300
C  -5.95200 14.34600 42.18600
O  -6.21100 15.03700 43.16500
O  -4.72500 13.79600 41.90900
C  -3.63400 14.28600 42.67500
H  -9.79600 19.67300 39.14900
H  -15.55600 17.57900 41.16000
H  -12.78500 12.01600 42.85800
H  -6.18600 16.68300 40.31600
H  -7.71300 18.43100 38.47100
H  -7.98300 19.44700 41.12200
H  -6.63600 19.89400 40.05900
H  -6.54900 18.52500 41.25300
H  -7.24800 16.44200 37.60100
H  -7.07900 14.93800 38.48200
H  -4.93900 14.82400 37.88200
H  -4.63500 16.35100 38.74500
H  -11.85100 21.94500 39.87900
H  -12.70800 21.78200 38.44200
H  -11.08300 21.12700 38.50000
H  -17.11300 20.67600 40.19900
H  -16.20700 19.70400 41.46600
H  -16.65600 18.98100 39.95400
H  -16.33500 14.88800 41.29100
H  -14.81700 13.96300 43.72200
H  -17.50000 16.24000 42.75300
H  -16.10900 17.09200 43.12900
H  -16.44000 15.51200 44.04700
H  -14.93500 11.85700 41.99400
H  -16.28300 12.80500 41.46700
H  -16.22900 10.87000 43.64000
H  -17.56900 11.78000 43.05800
H  -16.47200 12.33400 44.45400
H  -11.35400 10.29300 42.70300
H  -10.23900 10.70400 43.91900
H  -9.58600 9.89200 42.48400
H  -6.39200 13.58700 40.29500
H  -3.22700 15.14200 42.13700
H  -2.93800 13.47500 42.89100
H  -3.92200 14.58700 43.68300

