158

Mg 55.29000 23.59400 44.66600
C  53.14400 26.19200 43.71700
C  52.93300 21.23200 43.67400
C  57.65600 21.23200 44.73400
C  57.75900 26.14300 45.32500
N  53.32900 23.76500 43.73200
C  52.61700 24.94100 43.45400
C  51.25200 24.57800 42.82100
C  51.11600 23.02800 43.19900
C  52.55300 22.60600 43.59700
C  50.03800 22.72700 44.32600
C  51.04900 24.82400 41.29100
C  49.73300 25.37500 40.90200
H  49.00900 24.61600 39.86000
N  55.25300 21.47600 44.31500
C  54.21200 20.70400 43.96200
C  54.59700 19.28200 43.95600
C  55.98100 19.23900 44.31200
C  56.34200 20.67900 44.51900
C  53.69000 18.15300 43.57400
C  56.71900 18.01200 44.53300
O  56.19700 16.96000 44.35400
C  58.20300 17.98600 45.00100
N  57.42500 23.68900 44.93400
C  58.13800 22.58400 44.86200
C  59.64600 22.87200 45.10800
C  59.63100 24.40700 45.51900
C  58.18300 24.78900 45.15300
C  60.46200 21.95800 46.15900
C  60.84800 25.25500 44.95700
C  61.70700 26.00800 46.00000
N  55.38400 25.71200 44.73800
C  56.42100 26.60600 45.05100
C  55.88000 27.95400 45.08100
C  54.63100 27.83700 44.48800
C  54.40800 26.47700 44.28600
C  56.57300 29.21800 45.58900
C  53.44100 28.56100 44.18600
O  53.28300 29.75600 44.40000
C  52.47700 27.58200 43.48900
C  52.34400 27.94500 42.05000
O  53.06300 27.70700 41.14400
O  51.19700 28.68600 41.90500
C  50.89200 29.04700 40.53600
H  52.13100 20.53200 43.43200
H  58.34500 20.40600 44.55100
H  58.51600 26.86900 45.63000
H  50.49500 25.14800 43.36000
H  50.82200 22.39400 42.36200
H  49.16300 22.27000 43.86400
H  49.57700 23.62700 44.73200
H  50.55200 22.08900 45.04500
H  50.99300 23.82400 40.86100
H  51.94100 25.29100 40.87500
H  49.89200 26.43800 40.71900
H  49.07400 25.53600 41.75400
H  54.24600 17.40800 43.00500
H  52.98700 18.49400 42.81400
H  53.30900 17.72700 44.50200
H  58.85300 18.42500 44.24300
H  58.57700 17.01400 45.32000
H  58.26800 18.64100 45.87000
H  60.09500 22.61600 44.14800
H  59.58100 24.51500 46.60200
H  59.85900 21.19200 46.64600
H  60.91400 22.61400 46.90300
H  61.22700 21.58600 45.47700
H  60.58100 25.91500 44.13200
H  61.44100 24.56200 44.36000
H  62.70500 25.57000 45.98300
H  61.22900 25.92900 46.97700
H  61.74200 27.06300 45.72800
H  56.77500 29.83500 44.71300
H  57.51000 29.01900 46.11100
H  55.78000 29.72200 46.14200
H  51.48000 27.56400 43.92800
H  50.22200 29.90300 40.60800
H  50.50900 28.23500 39.91700
H  51.78500 29.44200 40.05100
Mg 26.45400 50.09700 26.44800
C  24.66200 51.56500 29.03300
C  28.90100 49.15000 28.62700
C  28.25000 49.12200 23.79400
C  24.28600 51.84900 24.25200
N  26.77900 50.33600 28.55200
C  25.80700 50.86400 29.44200
C  26.28100 50.58500 30.88100
C  27.71800 49.94100 30.71000
C  27.84500 49.79400 29.21300
C  28.93500 50.76900 31.21700
C  25.31800 49.62600 31.64400
C  25.10100 49.94500 33.08100
H  25.97300 50.82400 33.87500
N  28.27000 49.14200 26.23400
C  29.12500 48.83600 27.24900
C  30.26400 48.11700 26.73000
C  30.02900 47.94400 25.31800
C  28.85500 48.81500 25.04600
C  31.37500 47.58300 27.63300
C  30.77000 47.17600 24.29900
O  30.65000 47.36200 23.12500
C  31.67500 46.21800 24.81400
N  26.30600 50.57200 24.30600
C  27.06500 49.76700 23.49800
C  26.63800 49.86900 22.07500
C  25.41200 50.84200 22.14400
C  25.27200 51.16000 23.63600
C  27.74300 50.26700 21.01200
C  24.16500 50.05900 21.68800
C  23.09900 50.87500 20.80100
N  24.77200 51.26300 26.59200
C  24.03800 51.96800 25.64600
C  22.95900 52.74500 26.32100
C  23.12700 52.55200 27.63500
C  24.27300 51.78400 27.74900
C  21.86600 53.52300 25.61200
C  22.60800 52.82600 28.95500
O  21.66000 53.57700 29.23800
C  23.59900 52.11200 30.03400
C  23.99600 53.25900 30.94700
O  24.87400 54.06900 30.73800
O  23.21200 53.26100 32.11500
C  23.74200 54.22100 33.13300
H  29.61500 48.86900 29.40400
H  28.77600 48.75500 22.91000
H  23.60200 52.31700 23.54200
H  26.30300 51.56400 31.35900
H  27.80000 49.05300 31.33700
H  29.53100 51.12900 30.37800
H  29.46500 50.09500 31.88900
H  28.64400 51.68100 31.73900
H  25.64000 48.58500 31.66000
H  24.28300 49.58100 31.30800
H  24.81800 49.05400 33.64100
H  24.15100 50.47700 33.10600
H  31.41000 48.03200 28.62600
H  32.33000 48.04400 27.38100
H  31.31800 46.49500 27.67300
H  31.16800 45.52200 25.48300
H  32.56800 46.67200 25.24300
H  32.02700 45.58800 23.99800
H  26.34000 48.85900 21.79400
H  25.54700 51.75500 21.56400
H  28.47300 50.96700 21.41800
H  27.26100 50.65900 20.11600
H  28.38300 49.41400 20.79000
H  23.86000 49.49500 22.57000
H  24.42200 49.28100 20.96800
H  23.65600 51.72700 20.41100
H  22.22600 51.07900 21.42100
H  22.78300 50.33900 19.90600
H  21.85200 53.44500 24.52500
H  22.04400 54.57700 25.82700
H  20.91100 53.11400 25.94000
H  23.09100 51.26000 30.48700
H  24.70900 53.95000 33.55800
H  23.10200 54.24000 34.01500
H  23.80600 55.21500 32.69200

