158

Mg 52.90200 23.25800 44.66200
C  50.57100 25.73000 43.73000
C  50.98300 20.90000 43.10400
C  55.53000 21.23600 44.78700
C  55.01000 25.90700 45.73000
N  51.15300 23.33200 43.29700
C  50.30700 24.47100 43.03700
C  49.28600 24.05200 42.04600
C  49.13300 22.57800 42.36600
C  50.53000 22.19400 42.94600
C  47.99300 22.16200 43.22700
C  49.75300 24.27600 40.59700
C  48.67600 24.44500 39.52200
H  49.06400 25.33300 38.35000
N  53.10500 21.24600 44.18500
C  52.19900 20.46400 43.57300
C  52.73900 19.10700 43.60500
C  54.05100 19.15900 44.05400
C  54.31300 20.62500 44.42800
C  51.96400 18.03400 43.06400
C  54.96400 18.03400 44.12000
O  54.67500 16.96900 43.59500
C  56.26100 18.08900 44.78100
N  54.94800 23.58300 45.06900
C  55.84300 22.56000 45.09900
C  57.24900 22.95500 45.61200
C  57.04300 24.47200 45.91000
C  55.59700 24.67100 45.51500
C  57.84800 22.11100 46.79200
C  58.04600 25.45300 45.30200
C  57.81000 26.05200 43.94800
N  52.81800 25.41500 44.77200
C  53.72900 26.26300 45.41500
C  53.15500 27.58100 45.54400
C  51.85800 27.43100 44.92900
C  51.75500 26.10200 44.42800
C  53.71600 28.81600 46.22600
C  50.66200 28.08000 44.57800
O  50.39400 29.30100 44.67600
C  49.72800 27.05100 43.81800
C  49.51500 27.63000 42.55200
O  50.41300 28.10500 41.88300
O  48.13900 27.58800 42.30100
C  47.70900 28.11300 41.04500
H  50.39300 20.13900 42.58900
H  56.39200 20.60700 45.01900
H  55.65000 26.69600 46.13000
H  48.37800 24.60900 42.27600
H  48.97000 22.10300 41.39800
H  47.42200 23.03700 43.54000
H  48.21200 21.55700 44.10700
H  47.25800 21.67800 42.58400
H  50.45700 23.49400 40.31400
H  50.38600 25.16300 40.59000
H  47.69200 24.72900 39.89600
H  48.45200 23.43600 39.17500
H  52.21800 17.84000 42.02200
H  50.89800 18.23300 43.17700
H  52.10400 17.10800 43.62100
H  56.14100 18.62500 45.72200
H  56.98000 18.52000 44.08400
H  56.55200 17.08500 45.08900
H  57.81300 22.87200 44.68300
H  57.11900 24.56000 46.99400
H  58.52300 21.33900 46.42200
H  56.97600 21.52000 47.07500
H  58.13100 22.70200 47.66300
H  58.97100 24.87900 45.25000
H  58.16000 26.31100 45.96500
H  56.92800 25.62300 43.47300
H  58.65500 25.84600 43.29200
H  57.48700 27.09200 43.99600
H  53.29100 28.63200 47.21300
H  53.39300 29.79700 45.87700
H  54.80200 28.86000 46.30500
H  48.76700 26.97100 44.32700
H  47.35400 29.14300 41.06000
H  47.04400 27.44200 40.50100
H  48.60200 28.16100 40.42300
Mg -10.63400 16.64600 43.11600
C  -7.12800 17.23600 42.86700
C  -11.14800 19.94400 42.58900
C  -13.76100 15.97800 43.32500
C  -9.94700 13.20400 43.58600
N  -9.23000 18.42100 42.60100
C  -7.91500 18.42800 42.63600
C  -7.36600 19.83900 42.31400
C  -8.61200 20.76500 42.56100
C  -9.72600 19.70800 42.49000
C  -8.62600 21.56000 43.91700
C  -6.82100 20.04500 40.89900
C  -5.47200 20.84000 40.91700
H  -4.28800 20.08300 40.26500
N  -12.25400 17.73800 42.77100
C  -12.30300 19.11100 42.55400
C  -13.65600 19.52000 42.47400
C  -14.45900 18.40100 42.87300
C  -13.50400 17.32400 43.08000
C  -14.06900 20.91700 42.02000
C  -16.03700 18.36800 42.94000
O  -16.64300 19.28600 42.42400
C  -16.81100 17.21400 43.49800
N  -11.77000 14.72100 43.14700
C  -12.97300 14.83500 43.49800
C  -13.59800 13.46100 43.76700
C  -12.38600 12.50100 43.65500
C  -11.28200 13.49500 43.43100
C  -14.43400 13.41000 45.09400
C  -12.36700 11.48400 42.43400
C  -12.49500 10.00100 42.73400
N  -8.91100 15.37700 43.15700
C  -8.80900 14.02300 43.40100
C  -7.36500 13.72200 43.51400
C  -6.68200 14.89400 43.25300
C  -7.64200 15.94800 43.10000
C  -6.86900 12.31400 43.86300
C  -5.36000 15.51200 43.11700
O  -4.22900 15.00500 43.22700
C  -5.58600 17.01400 43.01000
C  -5.06800 17.50400 44.29500
O  -5.62900 17.35300 45.40100
O  -3.90600 18.15600 44.05500
C  -3.34800 18.65700 45.30400
H  -11.37600 20.97800 42.32400
H  -14.83200 15.77400 43.26200
H  -9.81000 12.20200 43.99900
H  -6.65900 20.25500 43.03200
H  -8.72200 21.52900 41.79200
H  -7.91500 21.08200 44.59100
H  -9.61600 21.62900 44.36800
H  -8.32600 22.58900 43.71900
H  -7.53700 20.66500 40.36000
H  -6.66600 19.03300 40.52600
H  -5.07200 21.09000 41.90000
H  -5.68200 21.79800 40.44100
H  -14.88300 21.28800 42.64300
H  -14.41000 20.69800 41.00800
H  -13.33200 21.71500 41.93300
H  -17.81900 17.47800 43.82100
H  -16.32700 16.85100 44.40500
H  -16.90800 16.42100 42.75700
H  -14.23700 13.30700 42.89800
H  -12.26200 12.02400 44.62700
H  -15.28400 14.07100 44.92600
H  -13.89400 13.82100 45.94700
H  -14.61900 12.35900 45.31800
H  -11.35200 11.61200 42.05700
H  -13.03100 11.80700 41.63200
H  -13.47900 9.75300 43.13100
H  -11.56500 9.80100 43.26700
H  -12.37300 9.52600 41.76000
H  -6.06900 12.40800 44.59700
H  -6.53200 11.73100 43.00500
H  -7.71300 11.83500 44.35800
H  -5.01600 17.42700 42.17800
H  -2.33900 19.04700 45.17700
H  -3.23000 17.82000 45.99100
H  -4.01000 19.46400 45.61700

