158

Mg 10.01200 48.65000 26.26200
C  7.95000 48.69100 29.10100
C  12.56700 49.63000 28.23000
C  11.95000 48.82300 23.45300
C  7.13700 48.30200 24.23100
N  10.20700 49.19300 28.37600
C  9.26300 49.11200 29.35100
C  9.84800 49.67600 30.66400
C  11.20100 50.27000 30.22200
C  11.36600 49.58600 28.89200
C  11.27200 51.82100 30.15300
C  9.97000 48.70300 31.88500
C  9.01000 49.01700 33.06800
H  9.63200 49.57900 34.29600
N  12.06400 49.08300 25.85900
C  12.95700 49.31400 26.82500
C  14.28800 49.46900 26.23200
C  14.10400 49.21400 24.83500
C  12.62900 49.09200 24.63300
C  15.52400 49.92400 27.02800
C  15.15800 49.10700 23.73600
O  14.88300 49.05600 22.57800
C  16.60800 49.23800 24.05600
N  9.56400 48.69700 24.09800
C  10.63300 48.61900 23.18300
C  10.03400 48.56900 21.73700
C  8.47000 48.17900 22.02800
C  8.34900 48.46800 23.51900
C  10.25900 49.81500 20.89100
C  8.10200 46.73500 21.67900
C  8.66300 45.61000 22.56300
N  7.94300 48.48200 26.56200
C  6.92500 48.31900 25.65400
C  5.65000 48.28100 26.37100
C  6.00500 48.32900 27.73600
C  7.41600 48.54000 27.75000
C  4.31000 48.01500 25.78700
C  5.52400 48.36900 29.12800
O  4.43800 48.29500 29.62100
C  6.76300 48.60900 30.06900
C  6.87000 47.32100 30.77700
O  7.60900 46.39400 30.45000
O  6.00600 47.26500 31.86100
C  6.28100 46.11500 32.78400
H  13.42800 50.00100 28.79000
H  12.66300 48.70000 22.63500
H  6.23900 48.34700 23.61200
H  9.21400 50.49200 31.01000
H  12.11400 49.93700 30.71400
H  10.28800 52.27400 30.03200
H  11.97900 52.11500 29.37700
H  11.67000 52.19700 31.09500
H  10.99100 48.79900 32.25400
H  9.82700 47.65300 31.62900
H  8.48100 48.09700 33.31700
H  8.18100 49.70900 32.92300
H  15.25400 50.10100 28.06900
H  15.93300 50.86800 26.66700
H  16.29500 49.16500 26.90100
H  16.91700 48.61200 24.89400
H  16.88000 50.25000 24.35400
H  17.16500 48.93500 23.16900
H  10.60000 47.73400 21.32600
H  7.84000 48.88600 21.49000
H  10.62200 50.52500 21.63400
H  9.35400 50.17000 20.39700
H  10.95400 49.63900 20.07000
H  8.46100 46.61800 20.65600
H  7.02100 46.60100 21.71100
H  7.95800 44.79000 22.69800
H  8.90100 46.00900 23.54900
H  9.51100 45.12700 22.07900
H  3.48600 47.80700 26.47000
H  4.51200 47.11400 25.20800
H  4.14200 48.77400 25.02300
H  6.69700 49.42700 30.78700
H  5.32900 45.58900 32.85600
H  6.56200 46.53500 33.75000
H  7.09400 45.45200 32.49100
Mg -10.38400 17.83500 40.85200
C  -6.90600 17.20000 40.86700
C  -9.68200 21.17800 40.11100
C  -13.60900 18.34800 40.25700
C  -10.98600 14.42200 41.40300
N  -8.49600 18.97000 40.32500
C  -7.23000 18.54100 40.45600
C  -6.25200 19.73000 40.15800
C  -7.16200 21.00200 40.35500
C  -8.53800 20.34700 40.25600
C  -6.96900 21.71000 41.74900
C  -5.81900 19.60400 38.67300
C  -4.29800 19.49400 38.48300
H  -3.80200 18.10800 37.96200
N  -11.49900 19.56900 40.28400
C  -11.04000 20.78100 39.91200
C  -12.06300 21.64900 39.48800
C  -13.29900 20.83900 39.67900
C  -12.84100 19.49700 40.12900
C  -11.87700 23.02400 39.01100
C  -14.70800 21.29600 39.28600
O  -14.93200 22.40900 38.92600
C  -15.91200 20.32600 39.40400
N  -11.95600 16.50800 40.71600
C  -13.25900 17.05600 40.58700
C  -14.32700 15.88200 40.49200
C  -13.45900 14.62200 40.78500
C  -12.08500 15.23400 41.04500
C  -15.69600 16.21200 41.16900
C  -13.46000 13.65700 39.57400
C  -14.34300 12.41900 39.74500
N  -9.19900 16.12400 41.06600
C  -9.63700 14.81600 41.34300
C  -8.41500 13.97100 41.45100
C  -7.35600 14.91100 41.38200
C  -7.84100 16.17700 41.08400
C  -8.43700 12.56200 41.85000
C  -5.90100 15.02400 41.44700
O  -4.95500 14.23100 41.68000
C  -5.55300 16.51200 41.07500
C  -4.81800 17.13700 42.21700
O  -5.38600 17.76900 43.10900
O  -3.44300 17.05600 42.05600
C  -2.62700 17.84100 43.00700
H  -9.52600 22.25900 40.10700
H  -14.67200 18.29000 40.01700
H  -11.13800 13.34900 41.54000
H  -5.42700 19.63800 40.86400
H  -7.11400 21.69400 39.51400
H  -6.08900 21.29000 42.23600
H  -7.80700 21.60100 42.43700
H  -6.90400 22.76300 41.47500
H  -6.06200 20.51300 38.12200
H  -6.29200 18.75400 38.18200
H  -3.77400 19.57800 39.43500
H  -3.88300 20.26100 37.82900
H  -11.00900 23.11500 38.35800
H  -11.72000 23.62700 39.90600
H  -12.67200 23.51500 38.44900
H  -15.81500 19.60500 38.59200
H  -16.86500 20.85500 39.39800
H  -15.97100 19.73100 40.31600
H  -14.54900 15.92900 39.42600
H  -13.93400 14.21300 41.67700
H  -16.47000 16.28800 40.40400
H  -15.61100 17.16700 41.68700
H  -15.87400 15.44500 41.92300
H  -12.45300 13.25900 39.45100
H  -13.78000 14.18600 38.67600
H  -13.80300 11.47500 39.81100
H  -14.94000 12.39800 38.83300
H  -14.94100 12.47800 40.65500
H  -7.52600 12.27800 42.37600
H  -8.70200 11.94500 40.99100
H  -9.28100 12.56400 42.54000
H  -4.95400 16.49600 40.16400
H  -1.66000 17.34400 43.08400
H  -3.03000 17.86300 44.01900
H  -2.39600 18.86800 42.72300

