158

Mg 46.67000 24.77100 28.28400
C  47.55700 27.11600 30.87200
C  45.24200 22.85000 30.71500
C  46.64900 22.23500 25.94200
C  48.42800 26.73000 26.03200
N  46.49600 24.92500 30.56100
C  46.90500 25.99300 31.34600
C  46.38800 25.89100 32.75400
C  45.79300 24.36200 32.76700
C  45.84000 23.97400 31.25800
C  46.52400 23.27500 33.69600
C  45.39800 26.98600 33.08900
C  45.28200 27.23800 34.67100
H  43.92500 27.80400 35.20800
N  46.02300 22.85900 28.24800
C  45.38800 22.26200 29.38000
C  44.80000 20.98600 28.89600
C  45.14100 20.82600 27.53000
C  45.98300 22.00000 27.17500
C  44.13700 20.12100 29.91900
C  44.82200 19.72300 26.61300
O  45.09800 19.70900 25.36400
C  44.18600 18.41300 27.25200
N  47.60400 24.42700 26.37800
C  47.39700 23.34700 25.56800
C  48.29500 23.49500 24.31000
C  48.26600 25.06000 24.16700
C  48.10800 25.44300 25.59700
C  49.71500 22.89500 24.50300
C  47.16200 25.49700 23.23700
C  47.62800 26.22500 21.95600
N  47.70900 26.57600 28.35500
C  48.25300 27.26100 27.28200
C  48.63000 28.60200 27.77000
C  48.39500 28.53500 29.13600
C  47.86200 27.30600 29.49300
C  49.40200 29.62700 27.04800
C  48.64800 29.23600 30.38700
O  49.18600 30.35600 30.53700
C  48.06500 28.38200 31.54700
C  49.09600 28.23000 32.66500
O  50.13400 27.60700 32.52200
O  48.68700 28.76800 33.88500
C  49.47300 28.43500 35.08800
H  44.66100 22.48300 31.56400
H  46.63300 21.46100 25.17200
H  48.91500 27.37100 25.29400
H  47.22100 25.89600 33.45700
H  44.77400 24.45000 33.14300
H  46.70100 22.36000 33.13000
H  46.03900 23.08000 34.65200
H  47.46700 23.72500 34.00500
H  44.38300 26.72800 32.78800
H  45.51200 27.92200 32.54100
H  46.06200 27.93300 34.98200
H  45.56300 26.33200 35.20900
H  43.27000 19.53500 29.61500
H  43.64200 20.71600 30.68600
H  44.87800 19.59400 30.52100
H  43.12900 18.50000 27.50300
H  44.84200 18.18500 28.09200
H  44.26800 17.54300 26.60100
H  47.81400 23.02700 23.45100
H  49.24600 25.37600 23.81100
H  49.64300 22.33300 25.43400
H  50.53700 23.60700 24.57700
H  50.01800 22.12400 23.79400
H  46.59600 26.29100 23.72600
H  46.60000 24.58400 23.04100
H  47.33300 27.27200 22.01800
H  47.07100 25.76900 21.13700
H  48.70600 26.21800 21.79600
H  49.73900 30.37700 27.76300
H  48.70400 30.13800 26.38400
H  50.29300 29.20900 26.57900
H  47.30800 28.86200 32.16800
H  49.57500 29.29000 35.75600
H  50.48100 28.08000 34.87000
H  49.04300 27.64400 35.70200
Mg 28.64800 59.25500 41.47900
C  26.16100 57.19600 39.91300
C  31.10000 57.25100 39.95100
C  30.65000 61.72600 42.05600
C  25.95200 61.11900 42.74500
N  28.56200 57.32500 40.19700
C  27.44600 56.78600 39.54300
C  27.83800 55.61200 38.59600
C  29.35900 55.47300 38.98300
C  29.68100 56.74400 39.72800
C  29.67200 54.29800 39.87500
C  27.71600 55.94900 37.09200
C  27.22600 54.70700 36.25300
H  26.44100 54.86300 34.97900
N  30.62000 59.41800 41.21700
C  31.46300 58.45900 40.64700
C  32.75300 58.94200 40.61100
C  32.76600 60.28100 41.17300
C  31.36200 60.56200 41.51100
C  33.90100 58.02800 40.13400
C  34.00300 61.11300 41.33500
O  35.10900 60.61800 41.06600
C  33.97300 62.47000 41.94200
N  28.26200 61.16700 42.22900
C  29.30300 61.94100 42.48000
C  28.95700 63.27600 43.10100
C  27.57400 62.94300 43.61800
C  27.18900 61.69100 42.78500
C  29.96300 63.78500 44.11100
C  26.48600 64.11600 43.47000
C  25.93200 64.75200 44.74400
N  26.42900 59.20000 41.36100
C  25.54400 59.97900 42.02200
C  24.26000 59.47700 41.86000
C  24.43700 58.32900 41.04300
C  25.79900 58.21600 40.76400
C  22.92000 59.94300 42.52800
C  23.69200 57.33700 40.39500
O  22.45600 57.21300 40.24000
C  24.81100 56.49900 39.65400
C  24.72200 55.23500 40.32500
O  24.83000 55.15600 41.49300
O  24.52700 54.19700 39.40500
C  24.34700 52.85400 40.05100
H  31.74900 56.50900 39.48000
H  31.27800 62.58500 42.30100
H  25.22100 61.76800 43.23100
H  27.23200 54.74300 38.84800
H  30.01900 55.47400 38.11600
H  30.63200 53.81700 39.68500
H  28.88500 53.55200 39.98800
H  29.81800 54.62200 40.90500
H  28.71800 56.05600 36.67500
H  27.08700 56.79100 36.80500
H  26.57500 54.03500 36.81300
H  28.14100 54.17200 35.99900
H  33.93500 57.80700 39.06800
H  33.71300 57.02100 40.50600
H  34.89500 58.31900 40.47400
H  33.04700 62.98900 41.69600
H  34.91100 62.97000 41.70100
H  33.93300 62.45800 43.03100
H  28.82500 63.99200 42.29000
H  27.62500 62.69600 44.67800
H  29.51500 64.07200 45.06200
H  30.53300 64.65800 43.79400
H  30.74500 63.06700 44.35600
H  25.58700 63.82600 42.92500
H  27.01700 64.92500 42.96800
H  24.88800 64.45000 44.82600
H  26.03700 65.83700 44.76800
H  26.43200 64.38400 45.64000
H  22.07700 59.50700 41.99100
H  22.93100 60.98400 42.20200
H  22.95800 59.66400 43.58100
H  24.67400 56.32300 38.58700
H  23.27300 52.66900 40.07700
H  24.84600 52.73900 41.01300
H  24.58800 52.02200 39.38900

