158

Mg 17.31200 -2.09700 27.61800
C  16.37400 -0.43000 30.50300
C  19.33500 -4.02700 29.54500
C  18.28500 -3.78500 24.73800
C  15.57800 0.22600 25.74900
N  17.85400 -2.14100 29.71900
C  17.25700 -1.44900 30.74000
C  17.69500 -1.96900 32.11900
C  18.90800 -2.90100 31.80000
C  18.76100 -3.05200 30.26500
C  20.37000 -2.63900 32.23200
C  16.54200 -2.64700 32.87300
C  16.42300 -2.16600 34.34900
H  17.74600 -1.93000 35.13900
N  18.65500 -3.64700 27.22000
C  19.26500 -4.33700 28.19800
C  19.99600 -5.43100 27.58200
C  19.67800 -5.48000 26.11800
C  18.85300 -4.24000 25.92700
C  20.78600 -6.45700 28.38500
C  20.16900 -6.44700 25.05100
O  19.81700 -6.32800 23.87500
C  21.30200 -7.47300 25.34000
N  16.98400 -1.89700 25.53100
C  17.41600 -2.72000 24.53400
C  17.00500 -2.17400 23.16100
C  15.88700 -1.04800 23.53200
C  16.24400 -0.83300 25.03300
C  18.20300 -1.77400 22.19800
C  14.37900 -1.24900 23.34400
C  13.90100 -0.84800 21.95200
N  16.13500 -0.52000 27.89400
C  15.49300 0.36400 27.08500
C  14.77000 1.41000 27.83700
C  15.13300 1.16400 29.19800
C  15.90900 -0.02000 29.18600
C  14.01200 2.56900 27.21100
C  15.07100 1.69800 30.48100
O  14.51600 2.73700 30.79000
C  15.64100 0.61200 31.43200
C  16.62300 1.32100 32.39800
O  17.80100 1.55300 32.18300
O  15.91800 1.70700 33.54700
C  16.68600 2.52100 34.45200
H  19.74700 -4.77200 30.23000
H  18.52700 -4.38500 23.85800
H  15.01100 0.96100 25.17400
H  18.06200 -1.08700 32.64400
H  18.65300 -3.85300 32.26500
H  20.39400 -1.58900 32.52600
H  21.06400 -2.68000 31.39200
H  20.72800 -3.16700 33.11500
H  16.65700 -3.72800 32.78600
H  15.66900 -2.32400 32.30600
H  16.04500 -3.00300 34.93500
H  15.69600 -1.36800 34.50200
H  21.03900 -6.16300 29.40400
H  21.67400 -6.95300 27.99500
H  20.05100 -7.25700 28.47200
H  21.59100 -8.04600 24.45900
H  21.02800 -8.18800 26.11600
H  22.22800 -6.98200 25.64000
H  16.48800 -3.00900 22.68700
H  16.10400 -0.09500 23.05000
H  19.16400 -1.77700 22.71200
H  18.12200 -0.88200 21.57700
H  18.19900 -2.57100 21.45400
H  13.75400 -1.02100 24.20700
H  14.21900 -2.32700 23.31100
H  12.83300 -1.01700 22.09200
H  14.26800 -1.54100 21.19500
H  13.96600 0.19600 21.64400
H  13.95700 3.47700 27.81100
H  13.00200 2.16400 27.13800
H  14.48900 2.79100 26.25600
H  14.85200 0.13800 32.01500
H  17.69900 2.24400 34.74300
H  16.09600 2.53600 35.36800
H  16.70400 3.55500 34.10800
Mg 17.47600 53.42200 25.65600
C  19.04400 52.13400 28.50900
C  14.85300 54.23300 27.71200
C  15.57800 53.97700 22.96600
C  19.98600 52.00000 23.69300
N  17.08700 53.21400 27.86800
C  17.86700 52.83200 28.83100
C  17.30300 53.05200 30.24500
C  15.90000 53.60800 29.92100
C  15.94600 53.73100 28.40200
C  14.65800 52.74300 30.43200
C  18.21700 54.00000 30.99000
C  18.39300 53.66600 32.44000
H  17.51900 54.36000 33.43900
N  15.61800 54.26400 25.39700
C  14.59100 54.42500 26.35700
C  13.36800 54.85300 25.69800
C  13.62200 54.82500 24.29800
C  14.97300 54.38200 24.18100
C  12.12600 55.10800 26.49700
C  12.65600 55.28800 23.19600
O  13.10500 55.42600 22.05700
C  11.19800 55.46800 23.54600
N  17.70600 52.87700 23.69800
C  16.82500 53.39900 22.75400
C  17.38700 53.16300 21.31400
C  18.81800 52.57700 21.54200
C  18.87700 52.53200 23.06200
C  16.53900 52.25200 20.40400
C  19.98700 53.37400 20.85000
C  20.89600 52.47200 20.01100
N  19.18700 52.26200 26.00200
C  20.16900 51.79700 25.11500
C  21.19400 51.18000 25.86800
C  20.74500 51.16200 27.21700
C  19.52000 51.92600 27.17800
C  22.47500 50.70700 25.39500
C  21.00200 50.74600 28.61500
O  22.00100 50.17300 29.01600
C  19.97100 51.40000 29.47000
C  19.30400 50.34600 30.30600
O  18.67200 49.35200 29.94900
O  19.50800 50.66400 31.64000
C  18.87100 49.83400 32.70300
H  14.07300 54.59300 28.38600
H  15.06500 54.14800 22.01700
H  20.72200 51.52900 23.03900
H  17.31200 52.08200 30.74300
H  15.83200 54.60300 30.36000
H  14.83000 52.25500 31.39100
H  14.28200 52.05800 29.67300
H  14.00900 53.54200 30.79100
H  17.93100 55.05000 30.92900
H  19.23600 54.02400 30.60300
H  19.42700 53.89200 32.70000
H  18.31700 52.62700 32.76100
H  12.08300 54.47200 27.38100
H  11.12600 55.01200 26.07400
H  12.29100 56.09100 26.93900
H  11.06400 56.33100 24.19900
H  10.85300 54.58500 24.08500
H  10.62300 55.49700 22.62000
H  17.36300 54.12400 20.80100
H  18.83000 51.52900 21.24600
H  16.41400 51.25400 20.82400
H  17.13700 52.21000 19.49400
H  15.60200 52.75100 20.15600
H  20.69700 53.78700 21.56700
H  19.47600 54.14500 20.27500
H  21.77000 52.97700 19.59900
H  20.41500 52.03600 19.13500
H  21.23200 51.63300 20.62000
H  22.74500 51.13700 24.43100
H  22.47900 49.62600 25.25300
H  23.13600 51.12700 26.15400
H  20.42500 52.17000 30.09300
H  17.81700 49.75200 32.43700
H  19.03000 50.43200 33.60000
H  19.38500 48.88000 32.81900

