158

Mg 24.57100 1.01000 29.01600
C  26.51700 0.83000 31.92900
C  21.77700 1.57600 31.11600
C  22.70900 1.05800 26.26100
C  27.42200 0.27200 27.08200
N  24.23700 0.99100 31.27000
C  25.19600 1.07500 32.20400
C  24.60900 1.43800 33.60700
C  23.08100 1.30700 33.33400
C  22.99700 1.28900 31.78000
C  22.34600 0.03900 33.99500
C  25.08400 2.85000 34.10400
C  24.68300 3.26400 35.48600
H  25.74500 3.61800 36.57700
N  22.52600 1.29400 28.76900
C  21.53300 1.47100 29.70200
C  20.26000 1.46500 29.00300
C  20.51400 1.16600 27.64400
C  21.95900 1.18300 27.54000
C  19.01100 1.73300 29.66300
C  19.47800 1.05400 26.50600
O  19.82400 0.96300 25.29600
C  17.98500 0.92700 26.73900
N  25.02700 0.72500 26.99400
C  24.10300 0.81100 26.02400
C  24.62200 0.76300 24.57600
C  26.18100 0.86100 24.86600
C  26.22100 0.53000 26.38600
C  24.12700 -0.55200 23.79600
C  26.83300 2.14700 24.45300
C  26.20000 3.42000 24.90100
N  26.54300 0.58000 29.31700
C  27.55500 0.28100 28.48500
C  28.78500 0.15900 29.25300
C  28.37700 0.36100 30.58400
C  27.01600 0.57700 30.60600
C  30.12900 -0.22900 28.64000
C  28.92500 0.46100 31.95800
O  30.07400 0.44600 32.38000
C  27.70300 0.82500 32.88800
C  27.58800 -0.21000 33.93200
O  27.55500 -1.45400 33.83600
O  27.67400 0.46300 35.12200
C  27.39400 -0.35900 36.34100
H  20.84800 1.79500 31.64700
H  22.21300 1.24900 25.30700
H  28.31200 0.15000 26.46200
H  24.74300 0.72400 34.41900
H  22.48700 2.18000 33.60600
H  23.01200 -0.62200 34.55000
H  21.92100 -0.60300 33.22300
H  21.50500 0.26900 34.64900
H  24.64000 3.63300 33.48900
H  26.14000 3.03800 33.91300
H  24.05600 2.49200 35.93200
H  24.17400 4.22700 35.44200
H  18.37200 0.85400 29.75100
H  18.53700 2.54300 29.10900
H  19.06300 2.24000 30.62700
H  17.51700 0.99800 25.75700
H  17.57900 1.67800 27.41700
H  17.77000 -0.10500 27.01700
H  24.18700 1.64700 24.11000
H  26.79700 0.03600 24.50700
H  23.78300 -0.28800 22.79600
H  23.27600 -1.01900 24.29200
H  24.87600 -1.33700 23.68600
H  26.68000 2.21400 23.37600
H  27.90700 2.15800 24.63600
H  25.62400 3.87100 24.09300
H  27.04500 3.96900 25.31700
H  25.56900 3.24700 25.77200
H  30.09700 -0.46300 27.57600
H  30.62500 -0.98100 29.25500
H  30.69900 0.69300 28.75400
H  27.77900 1.83400 33.29500
H  26.43100 -0.85900 36.23500
H  27.46100 0.19600 37.27700
H  28.18500 -1.10200 36.23300
Mg -2.31800 33.74400 26.32600
C  -3.99900 32.13200 29.02100
C  -0.87200 35.81700 28.57600
C  -1.45900 35.60700 23.73800
C  -4.27400 31.73200 24.15400
N  -2.46700 34.04800 28.60400
C  -3.23000 33.25300 29.40500
C  -2.92000 33.62000 30.86500
C  -1.97600 34.87900 30.73700
C  -1.68100 34.86500 29.23100
C  -2.59900 36.22600 31.37100
C  -2.25500 32.34800 31.59800
C  -2.96100 31.92300 32.89500
H  -2.16800 31.82300 34.27400
N  -1.23300 35.42200 26.16100
C  -0.65200 36.15800 27.20300
C  0.12200 37.15400 26.67400
C  0.15300 37.01100 25.27200
C  -0.98300 36.06200 24.98400
C  0.82000 38.21500 27.57000
C  0.96700 37.58800 24.19900
O  0.87800 37.32500 23.02800
C  2.18100 38.44600 24.52200
N  -2.87000 33.72400 24.26100
C  -2.20200 34.49900 23.35800
C  -2.71300 34.12600 21.93700
C  -3.23600 32.74300 22.08400
C  -3.45800 32.67300 23.59400
C  -3.75800 35.19800 21.33200
C  -2.37900 31.68100 21.35100
C  -1.08000 31.23600 21.97600
N  -3.78300 32.34500 26.50700
C  -4.47700 31.58300 25.55700
C  -5.24500 30.51300 26.19200
C  -5.03300 30.78500 27.51500
C  -4.22900 31.91900 27.68000
C  -5.99200 29.44200 25.54100
C  -5.47000 30.19400 28.83400
O  -6.14800 29.21500 29.04700
C  -4.76200 31.14500 29.88700
C  -5.86300 31.77900 30.77600
O  -6.84500 32.41700 30.38400
O  -5.88300 31.21800 32.01500
C  -6.99800 31.57800 32.95500
H  -0.40400 36.51100 29.27800
H  -1.16700 36.26900 22.92000
H  -4.59800 30.86700 23.57000
H  -3.79400 33.98700 31.40300
H  -1.09200 34.76500 31.36400
H  -3.51600 35.95500 31.89400
H  -2.93100 36.88700 30.57000
H  -1.95100 36.77200 32.05600
H  -1.24800 32.64500 31.89200
H  -2.13100 31.54200 30.87400
H  -3.40100 30.96900 32.60500
H  -3.74300 32.62400 33.18700
H  1.69500 37.76200 28.03700
H  0.10900 38.55800 28.32200
H  1.23600 39.10100 27.09000
H  2.83900 38.52000 23.65700
H  2.71200 37.94600 25.33200
H  1.91500 39.46300 24.81000
H  -1.93900 34.17900 21.17100
H  -4.24600 32.59400 21.70000
H  -4.00900 35.93700 22.09300
H  -4.73100 34.72600 21.19300
H  -3.43000 35.70000 20.42200
H  -2.17800 31.93500 20.31000
H  -3.09000 30.85500 21.34400
H  -1.13400 30.16700 22.18100
H  -1.11600 31.72000 22.95200
H  -0.18300 31.37600 21.37200
H  -5.88300 29.37100 24.45900
H  -7.02700 29.64000 25.81800
H  -5.71400 28.47000 25.94800
H  -4.09600 30.49200 30.45100
H  -7.70800 32.27300 32.50800
H  -6.45300 32.07300 33.75900
H  -7.48700 30.66700 33.30100

