158

Mg 7.88200 3.45100 27.25700
C  9.34300 1.85200 30.02600
C  6.10100 5.45200 29.37300
C  6.68400 5.02600 24.46300
C  9.06000 0.80200 25.18600
N  7.81100 3.65300 29.46300
C  8.63200 3.02500 30.39500
C  8.44700 3.55300 31.89200
C  7.37300 4.73000 31.62100
C  7.09100 4.66900 30.04800
C  6.10000 4.42200 32.44300
C  9.78200 3.89800 32.54000
C  9.74400 4.83400 33.72500
H  10.56600 4.57400 34.96600
N  6.55600 5.03800 26.98300
C  5.98100 5.72300 27.97100
C  5.18300 6.78200 27.39400
C  5.57500 6.82200 25.97000
C  6.29000 5.58400 25.73200
C  4.35600 7.77400 28.12300
C  5.29600 7.85300 24.93000
O  5.76200 7.78500 23.79400
C  4.67400 9.14500 25.35800
N  7.95500 3.07700 25.13800
C  7.36200 3.82700 24.20800
C  7.39500 3.26900 22.81500
C  7.96600 1.89200 23.03800
C  8.39300 1.93100 24.52700
C  5.93900 3.21500 22.15600
C  9.19800 1.48700 22.13300
C  8.97900 0.16700 21.39600
N  8.94400 1.67300 27.51600
C  9.36200 0.74800 26.59000
C  10.15900 -0.19800 27.31300
C  10.19400 0.12800 28.63000
C  9.45100 1.33500 28.71200
C  10.93000 -1.29600 26.70600
C  10.73500 -0.16700 29.91100
O  11.37300 -1.15400 30.30700
C  10.23800 0.99500 30.84700
C  9.55100 0.29300 31.93300
O  8.50600 -0.33700 31.94000
O  10.39800 0.41400 33.02900
C  9.85600 -0.05900 34.28200
H  5.45200 6.07100 29.99600
H  6.19300 5.50200 23.61100
H  9.27200 -0.07500 24.57200
H  8.04800 2.73700 32.49500
H  7.79100 5.67000 31.98300
H  6.08800 3.43800 32.91300
H  5.22500 4.42400 31.79300
H  5.97100 5.27600 33.10800
H  10.40400 4.37300 31.78000
H  10.18100 2.95400 32.91000
H  8.73500 5.10100 34.04100
H  10.07400 5.75200 33.23900
H  4.10200 7.45400 29.13300
H  3.39500 8.00100 27.66100
H  4.85800 8.74000 28.17100
H  3.71700 9.03000 25.86800
H  4.51600 9.64000 24.40000
H  5.42000 9.69600 25.93200
H  7.95500 3.96500 22.19000
H  7.17300 1.14500 22.99100
H  5.70900 2.23300 21.74200
H  5.78800 4.05800 21.48200
H  5.27100 3.39600 22.99700
H  10.13600 1.49400 22.68900
H  9.22300 2.24700 21.35100
H  8.21500 -0.47400 21.83600
H  9.88700 -0.40100 21.59900
H  8.88700 0.38400 20.33200
H  11.85900 -1.43400 27.25900
H  11.19500 -1.19300 25.65300
H  10.31200 -2.18000 26.86300
H  11.12000 1.55400 31.16000
H  9.70900 0.84000 34.88000
H  10.53500 -0.67900 34.86700
H  8.90400 -0.58900 34.29600
Mg 16.63400 51.30400 26.41200
C  18.89900 49.94800 28.76500
C  14.53500 52.10400 28.99200
C  14.69800 52.43900 24.12500
C  19.05600 50.28800 23.99200
N  16.64600 50.95900 28.56900
C  17.78300 50.58100 29.32800
C  17.61500 50.96000 30.76700
C  16.05800 51.23400 30.83000
C  15.66700 51.48000 29.38100
C  15.23000 50.10700 31.37400
C  18.51800 52.08900 31.30600
C  18.84700 51.98900 32.82800
H  17.87100 51.31200 33.79800
N  14.75900 52.06200 26.54600
C  14.04200 52.36300 27.71600
C  12.80100 52.92200 27.32400
C  12.80200 53.07200 25.93700
C  14.10300 52.50700 25.46900
C  11.64400 53.18100 28.38100
C  11.75100 53.54900 24.91900
O  11.98800 53.59000 23.72400
C  10.38900 53.94900 25.38400
N  16.75900 51.15200 24.31200
C  15.81100 51.82300 23.59700
C  16.25900 51.95400 22.13300
C  17.74500 51.35600 22.11400
C  17.84700 50.83100 23.55400
C  15.28200 51.14100 21.15800
C  18.80700 52.42100 21.72200
C  19.53800 52.17800 20.48700
N  18.52300 50.28100 26.27900
C  19.41200 49.91300 25.27000
C  20.53600 49.22600 25.75500
C  20.41200 49.30600 27.09900
C  19.10700 49.84600 27.37300
C  21.75800 48.63700 25.00400
C  21.02700 48.85500 28.33400
O  22.03300 48.18000 28.60500
C  20.14300 49.39000 29.44400
C  19.84200 48.40500 30.55100
O  19.44500 47.25400 30.38100
O  20.45400 48.88300 31.67100
C  20.65400 47.82000 32.64400
H  13.93900 52.54000 29.79600
H  14.13400 53.07500 23.43900
H  19.84200 50.01800 23.28300
H  17.83300 49.98500 31.20300
H  15.86400 52.16700 31.35900
H  15.85200 49.28100 31.71900
H  14.63100 49.66600 30.57700
H  14.67900 50.44700 32.25100
H  17.99800 53.03800 31.17900
H  19.41100 52.02400 30.68500
H  19.14400 53.00300 33.09300
H  19.74900 51.37900 32.86500
H  11.33400 54.22600 28.35800
H  12.04400 52.87900 29.34900
H  10.71400 52.63600 28.22000
H  9.71000 54.01300 24.53300
H  10.51100 54.96000 25.77200
H  10.01300 53.20900 26.09100
H  16.09400 53.02600 22.03100
H  17.73100 50.50500 21.43300
H  15.01300 50.23200 21.69600
H  15.91300 50.90700 20.30100
H  14.42000 51.73600 20.85500
H  19.47300 52.80400 22.49500
H  18.23300 53.34300 21.61700
H  19.39700 52.97000 19.75100
H  19.22200 51.23500 20.04100
H  20.58700 52.07800 20.76400
H  21.70800 47.63100 24.58800
H  22.66700 48.68500 25.60400
H  21.85600 49.31400 24.15600
H  20.71900 50.19200 29.90600
H  21.18500 48.14000 33.54000
H  21.18300 46.98800 32.17800
H  19.71900 47.42500 33.04100

