158

Mg 1.67400 -0.73100 44.42900
C  4.96600 0.21900 44.07300
C  0.59600 2.24500 43.20000
C  -1.60900 -1.84300 44.33700
C  2.72000 -3.96400 45.49400
N  2.67000 0.94700 43.62000
C  4.08200 1.23900 43.65600
C  4.37400 2.73400 43.22200
C  2.93700 3.30900 42.98400
C  2.01500 2.10100 43.34000
C  2.54700 4.60200 43.78600
C  5.38100 2.79500 42.08200
C  5.75600 4.19600 41.65700
H  5.64000 4.63900 40.17100
N  -0.32300 0.11000 43.92100
C  -0.45500 1.32200 43.29300
C  -1.87000 1.47200 42.99100
C  -2.57600 0.29800 43.33000
C  -1.52700 -0.55800 43.86800
C  -2.52200 2.73000 42.36700
C  -4.01700 -0.01800 43.15200
O  -4.75600 0.80200 42.64400
C  -4.71200 -1.17800 43.79600
N  0.67100 -2.57200 44.73900
C  -0.67300 -2.75400 44.73300
C  -1.06500 -4.19800 44.88900
C  0.27300 -4.82900 45.46500
C  1.32800 -3.73900 45.25700
C  -2.26300 -4.51700 45.81000
C  0.65000 -6.24600 44.79000
C  0.78100 -7.38600 45.85800
N  3.41600 -1.76200 44.69400
C  3.73800 -3.04100 45.12000
C  5.22200 -3.17600 45.26000
C  5.70600 -1.94700 44.79800
C  4.61300 -1.13600 44.48900
C  5.95700 -4.41600 45.62100
C  6.99300 -1.17400 44.60400
O  8.15500 -1.56400 44.73700
C  6.58900 0.26400 44.15100
C  6.96400 1.35800 45.13200
O  6.46600 1.52100 46.21900
O  8.01200 2.04700 44.53300
C  8.40100 3.21000 45.38900
H  0.29100 3.24300 42.87700
H  -2.58000 -2.33600 44.26200
H  3.04800 -4.93700 45.86600
H  4.82500 3.17800 44.10900
H  2.92300 3.46600 41.90600
H  3.39300 4.93500 44.38700
H  1.75300 4.39700 44.50400
H  2.32200 5.43200 43.11500
H  5.04400 2.24700 41.20200
H  6.33600 2.41600 42.44700
H  6.72400 4.44400 42.09500
H  5.02000 4.87900 42.08300
H  -1.70200 3.43500 42.23100
H  -3.28700 3.12600 43.03500
H  -2.84300 2.38000 41.38600
H  -5.79300 -1.05200 43.85300
H  -4.26300 -1.26700 44.78500
H  -4.42300 -2.10000 43.29200
H  -1.19000 -4.58500 43.87800
H  0.02100 -4.81500 46.52500
H  -2.03600 -5.30400 46.53000
H  -3.14400 -4.88900 45.28800
H  -2.61900 -3.60200 46.28300
H  1.66900 -6.12800 44.42100
H  0.06100 -6.61400 43.94900
H  1.80200 -7.68100 46.10000
H  0.25800 -8.28800 45.54300
H  0.35300 -6.93700 46.75500
H  5.44700 -4.77400 46.51500
H  7.02300 -4.26100 45.78800
H  5.73300 -5.15000 44.84800
H  7.01400 0.47600 43.17000
H  9.32300 3.67800 45.04500
H  8.60100 2.92500 46.42200
H  7.56600 3.90900 45.34200
Mg 16.65000 -0.33900 28.26200
C  15.59400 1.76100 30.97300
C  18.51800 -2.10400 30.53600
C  18.16000 -1.88700 25.78700
C  15.26200 2.04600 26.08200
N  16.94500 -0.27100 30.56400
C  16.35000 0.68800 31.41100
C  16.70300 0.35300 32.90600
C  17.84400 -0.74300 32.63700
C  17.76700 -1.08900 31.15400
C  19.35200 -0.46000 33.05000
C  15.57700 -0.03200 33.91000
C  15.58200 0.74000 35.23400
H  16.95500 1.15400 35.84400
N  17.89000 -1.96500 28.18400
C  18.63600 -2.56500 29.17800
C  19.44800 -3.65000 28.64900
C  19.14000 -3.72800 27.29800
C  18.33100 -2.49200 26.99000
C  20.40000 -4.57000 29.41500
C  19.48600 -4.73600 26.27500
O  18.96900 -4.78700 25.13300
C  20.38800 -6.03900 26.59700
N  16.58400 -0.08100 26.21500
C  17.36600 -0.79900 25.38900
C  17.32800 -0.33300 23.91500
C  16.25700 0.90000 24.03300
C  15.97400 0.94900 25.57400
C  18.81200 0.17000 23.49500
C  14.98000 0.67800 23.17800
C  14.34300 1.91000 22.46200
N  15.58200 1.50700 28.40800
C  15.04100 2.32400 27.43700
C  14.26800 3.35900 28.03700
C  14.46000 3.22700 29.44400
C  15.28100 2.05400 29.63700
C  13.47000 4.45700 27.36600
C  14.14900 3.70600 30.80300
O  13.54600 4.65200 31.15700
C  14.81200 2.71000 31.82000
C  15.77700 3.49600 32.52600
O  16.88800 3.83500 32.22600
O  15.15200 3.87500 33.70000
C  15.87700 4.86600 34.53200
H  19.18500 -2.72600 31.13600
H  18.71700 -2.40200 25.00100
H  14.76700 2.74200 25.40100
H  17.10400 1.29900 33.26800
H  17.54000 -1.64300 33.17000
H  19.52000 0.48600 33.56600
H  20.01400 -0.47200 32.18400
H  19.73000 -1.31500 33.61100
H  15.84600 -1.04600 34.20700
H  14.60100 -0.12900 33.43500
H  15.20700 0.01800 35.95800
H  14.92000 1.60500 35.25000
H  19.90300 -5.48500 29.73500
H  20.67700 -4.10300 30.36000
H  21.32800 -4.81400 28.89700
H  19.99300 -6.53200 27.48500
H  21.37300 -5.62900 26.82100
H  20.35600 -6.79300 25.81000
H  16.99800 -1.20200 23.34600
H  16.72200 1.85200 23.77900
H  19.50300 0.38200 24.31000
H  18.70100 1.10500 22.94600
H  19.25400 -0.60800 22.87300
H  14.24100 0.29100 23.88000
H  15.21200 0.03800 22.32700
H  14.90900 2.74500 22.87500
H  13.29200 2.06400 22.70700
H  14.48200 1.87100 21.38200
H  12.40000 4.26800 27.29000
H  13.92200 4.68200 26.40000
H  13.55800 5.40200 27.90000
H  14.06100 2.31300 32.50300
H  16.45900 5.66300 34.06900
H  16.52500 4.53600 35.34400
H  15.08500 5.42000 35.03700

