158

Mg 53.38600 23.38000 44.91500
C  50.70800 25.65200 43.74500
C  51.35900 20.83800 43.77400
C  56.06900 21.53300 44.81500
C  55.18500 26.28700 45.57200
N  51.22000 23.36600 43.84900
C  50.34100 24.32900 43.46900
C  49.13300 23.69900 42.84000
C  49.18800 22.23200 43.38900
C  50.68600 22.10400 43.68500
C  48.24400 22.05500 44.57500
C  49.17900 23.93900 41.32400
C  47.88200 24.46900 40.55200
H  47.56700 23.65800 39.22000
N  53.63000 21.38300 44.48500
C  52.74000 20.54900 43.92600
C  53.37800 19.25000 43.77900
C  54.70200 19.41600 44.11000
C  54.83700 20.82900 44.46300
C  52.66200 17.95900 43.49600
C  55.70900 18.31400 44.08100
O  55.40100 17.35200 43.42700
C  57.12000 18.49800 44.74400
N  55.38400 23.86500 44.95800
C  56.25600 22.84800 45.16600
C  57.60500 23.44100 45.69500
C  57.27400 24.94900 45.97300
C  55.85200 25.05900 45.54300
C  58.33000 22.62200 46.79500
C  58.17500 26.02700 45.22300
C  58.53600 27.36400 45.90500
N  52.98500 25.52600 44.86600
C  53.83000 26.53300 45.29300
C  53.12100 27.79600 45.31000
C  51.89100 27.49400 44.73700
C  51.86700 26.09300 44.44600
C  53.78300 29.16600 45.51700
C  50.58200 28.04800 44.40000
O  50.14300 29.21100 44.51300
C  49.80700 26.94200 43.62400
C  49.51700 27.38500 42.23700
O  50.29800 27.48500 41.31000
O  48.09800 27.56000 42.07700
C  47.58200 28.18100 40.87200
H  50.60000 20.08400 43.55600
H  57.03200 21.01900 44.81400
H  55.76100 27.17600 45.84100
H  48.33300 24.28500 43.29100
H  48.97800 21.51200 42.59800
H  48.07000 22.98400 45.11800
H  48.75200 21.47600 45.34700
H  47.30100 21.55100 44.36500
H  49.38600 22.94900 40.91800
H  50.04100 24.53400 41.02300
H  47.98500 25.49500 40.20100
H  47.00100 24.36000 41.18500
H  51.59400 18.01200 43.70900
H  53.04100 17.07000 43.99900
H  52.74500 17.83300 42.41600
H  56.84900 19.00900 45.66800
H  57.78400 18.99100 44.03400
H  57.49700 17.47800 44.81600
H  58.40100 23.29600 44.96500
H  57.28200 25.16900 47.04000
H  58.72000 23.30100 47.55300
H  59.10500 21.95200 46.42400
H  57.70800 21.87500 47.28800
H  57.63600 26.38300 44.34500
H  59.10400 25.47900 45.06600
H  59.60200 27.33200 46.13100
H  58.04600 27.52400 46.86500
H  58.42300 28.21800 45.23700
H  53.40400 29.55900 46.46100
H  53.48500 29.86600 44.73600
H  54.85800 28.98400 45.51200
H  48.81600 26.81500 44.06100
H  47.70800 29.26200 40.92200
H  46.53600 27.89000 40.96500
H  48.00500 27.76400 39.95800
Mg -1.67600 34.68600 26.62500
C  -3.24700 32.73200 29.11300
C  -0.60900 36.79800 29.07800
C  -0.57600 36.53400 24.27200
C  -3.29100 32.50300 24.19300
N  -1.94200 34.86200 28.84100
C  -2.54900 33.86000 29.67200
C  -2.34100 34.12500 31.15300
C  -1.58200 35.50800 31.13100
C  -1.33400 35.74100 29.59200
C  -2.14100 36.71300 31.90400
C  -1.64300 32.91900 31.92000
C  -2.30300 32.44700 33.20900
H  -1.35000 32.31100 34.32800
N  -0.67000 36.40500 26.69900
C  -0.31800 37.15100 27.76500
C  0.37200 38.35800 27.30200
C  0.41900 38.27100 25.90500
C  -0.30800 37.05900 25.55100
C  0.94200 39.37200 28.31200
C  0.98800 39.26400 24.94400
O  1.07900 39.16000 23.69900
C  1.38600 40.65800 25.53200
N  -1.93900 34.54800 24.51200
C  -1.32200 35.47800 23.78200
C  -1.55200 35.15400 22.22900
C  -2.23500 33.75600 22.28800
C  -2.52000 33.58800 23.78300
C  -2.44700 36.08300 21.41400
C  -1.53800 32.48600 21.75300
C  -0.31100 31.98900 22.60200
N  -2.96100 32.90300 26.55100
C  -3.56600 32.17700 25.53700
C  -4.41600 31.21300 26.17000
C  -4.29000 31.41400 27.56500
C  -3.37400 32.41300 27.70000
C  -5.15800 30.13100 25.44500
C  -4.76000 30.83500 28.79400
O  -5.56400 29.94000 28.98000
C  -4.16000 31.71100 29.88100
C  -5.29300 32.33700 30.69700
O  -6.00000 33.27200 30.32600
O  -5.43000 31.64300 31.86600
C  -6.63100 32.03800 32.59600
H  -0.23400 37.43100 29.88600
H  -0.24300 37.21600 23.48700
H  -3.77900 31.85700 23.46100
H  -3.34800 34.29000 31.53800
H  -0.56000 35.33100 31.46500
H  -1.49000 37.10300 32.68600
H  -3.09600 36.49200 32.38200
H  -2.22900 37.56200 31.22600
H  -0.68600 33.27500 32.30400
H  -1.54900 32.17500 31.12900
H  -2.65500 31.42600 33.05900
H  -3.14700 33.09000 33.45800
H  0.12600 40.08000 28.45300
H  1.87600 39.89100 28.09300
H  1.25900 38.80400 29.18600
H  2.25200 40.50400 26.17700
H  0.48800 41.04300 26.01400
H  1.70300 41.38200 24.78100
H  -0.61700 35.04300 21.68100
H  -3.28600 33.72200 22.00300
H  -3.20500 35.60200 20.79700
H  -1.89100 36.55200 20.60200
H  -2.94900 36.88100 21.96100
H  -1.19500 32.81500 20.77300
H  -2.24200 31.65700 21.67100
H  -0.78400 31.54700 23.47900
H  0.23600 32.87000 22.93700
H  0.40100 31.30500 22.14000
H  -6.07000 30.55900 25.02900
H  -5.48000 29.36200 26.14800
H  -4.63300 29.71300 24.58500
H  -3.61000 31.09600 30.59300
H  -7.47300 32.39900 32.00600
H  -6.41900 32.87800 33.25700
H  -6.88500 31.16600 33.19900

