158

Mg 49.44200 34.99100 28.16800
C  47.28600 33.49900 30.44300
C  49.62600 37.83600 30.13700
C  51.24200 36.46300 25.77300
C  49.14100 32.09100 26.24200
N  48.53600 35.57200 29.97900
C  47.84300 34.73300 30.87100
C  47.97400 35.25600 32.35500
C  48.26200 36.81400 32.07500
C  48.81400 36.75400 30.65700
C  47.01800 37.76100 32.32800
C  49.18000 34.56700 33.12500
C  49.27400 34.69000 34.69200
H  48.24600 35.49600 35.40600
N  50.37900 36.88300 27.99300
C  50.28400 37.90600 28.89800
C  51.14100 38.96400 28.45800
C  51.65800 38.61100 27.12100
C  51.10300 37.25400 26.85000
C  51.32700 40.25500 29.29200
C  52.61300 39.33200 26.23200
O  53.00100 38.86800 25.18400
C  52.98400 40.73000 26.57000
N  49.95700 34.43300 26.13300
C  50.82400 35.16700 25.39300
C  51.32000 34.31600 24.20100
C  50.76200 32.88900 24.50600
C  49.87400 33.16400 25.69100
C  50.98700 34.91500 22.85800
C  51.88000 31.83200 24.79000
C  51.83900 30.58800 23.86000
N  48.29400 33.23100 28.17700
C  48.30800 32.16700 27.36500
C  47.57100 31.13300 27.90500
C  47.05500 31.61800 29.06200
C  47.50600 32.92700 29.21400
C  47.43600 29.74600 27.39900
C  46.16000 31.38500 30.13400
O  45.50200 30.44100 30.45600
C  46.17700 32.65700 31.14800
C  46.53600 32.25500 32.52500
O  47.47900 31.58800 32.84500
O  45.47200 32.60900 33.36500
C  45.69000 32.45200 34.80100
H  49.68200 38.74800 30.73500
H  51.89300 36.80200 24.96400
H  49.42900 31.15800 25.75300
H  47.01900 35.02600 32.82600
H  49.09100 37.20600 32.66500
H  46.56800 38.11000 31.39900
H  47.18300 38.68900 32.87500
H  46.28200 37.10400 32.79200
H  50.12000 35.02000 32.81000
H  49.15800 33.53000 32.78900
H  50.20900 35.21200 34.89400
H  49.27700 33.69100 35.12800
H  52.38900 40.49800 29.33700
H  50.93900 40.33500 30.30700
H  50.93400 41.08400 28.70400
H  51.99100 41.16300 26.68900
H  53.47800 41.13800 25.68800
H  53.70400 40.69500 27.38700
H  52.40300 34.42400 24.24800
H  50.20100 32.47500 23.66800
H  51.97000 35.03100 22.40200
H  50.41100 35.82000 23.05200
H  50.40800 34.23300 22.23500
H  51.90400 31.57000 25.84700
H  52.83800 32.32100 24.61300
H  51.44900 29.82600 24.53500
H  52.80500 30.30100 23.44200
H  51.10500 30.75600 23.07200
H  48.08100 29.05400 27.94000
H  47.91800 29.79500 26.42200
H  46.40900 29.38400 27.35900
H  45.18500 33.10300 31.22300
H  46.76900 32.43200 34.95200
H  45.25500 31.55500 35.24200
H  45.40000 33.34900 35.34900
Mg 7.10400 54.04300 41.11500
C  5.85000 50.67800 40.72900
C  9.97200 52.99900 39.81700
C  7.95200 57.32100 40.97800
C  3.82000 54.88700 42.08600
N  7.77300 52.06100 40.16500
C  7.13900 50.81200 40.16600
C  8.19800 49.75200 39.72800
C  9.58800 50.49000 39.82600
C  9.08600 51.94400 39.93300
C  10.40900 50.01800 41.06300
C  7.94600 49.20100 38.37600
C  7.45900 50.09800 37.22000
H  8.20200 50.18200 35.80700
N  8.82300 55.03700 40.54100
C  9.86800 54.39400 39.94600
C  10.86000 55.48800 39.62700
C  10.26500 56.72900 40.00700
C  8.93600 56.39300 40.52800
C  12.18400 55.13700 39.00100
C  10.84000 58.10600 39.80800
O  11.97900 58.23900 39.40000
C  10.18400 59.36200 40.02300
N  6.06000 55.84600 41.62300
C  6.68900 57.07900 41.51800
C  5.74300 58.16300 41.99900
C  4.42600 57.44700 42.45500
C  4.77200 55.95300 42.05200
C  6.40000 59.12100 42.99300
C  3.16500 58.06500 41.68800
C  2.08200 58.43000 42.69300
N  5.20200 53.02500 41.43500
C  4.01900 53.49000 41.88400
C  3.00500 52.47900 42.13600
C  3.81900 51.34600 41.79400
C  5.10900 51.69900 41.32500
C  1.51200 52.55400 42.45600
C  3.77300 49.93900 41.68400
O  2.91800 49.18400 41.94700
C  5.02200 49.45400 41.00600
C  4.70100 48.61600 39.79700
O  4.13400 49.00700 38.80700
O  5.04700 47.34000 40.04200
C  4.76000 46.30300 39.05300
H  10.95800 52.64700 39.50900
H  8.15800 58.39300 41.01400
H  2.87900 55.15000 42.57400
H  8.23800 48.95700 40.47300
H  10.24500 50.37600 38.96300
H  10.59600 50.89200 41.68700
H  11.40500 49.70600 40.74800
H  9.95700 49.23400 41.67000
H  7.28500 48.33700 38.45200
H  8.91000 48.81700 38.04200
H  7.29600 51.10800 37.59500
H  6.51100 49.65700 36.91300
H  12.18900 54.65100 38.02600
H  12.56500 54.39300 39.70000
H  12.86400 55.98400 39.08900
H  10.87100 60.14800 39.70700
H  10.07100 59.57800 41.08500
H  9.21700 59.37500 39.52200
H  5.48000 58.75800 41.12500
H  4.40000 57.47100 43.54400
H  7.45200 58.84100 43.05400
H  5.96500 59.24100 43.98500
H  6.38000 60.07700 42.47000
H  2.81600 57.39200 40.90500
H  3.44100 59.01600 41.23300
H  2.23700 57.99600 43.68000
H  1.11200 57.99200 42.45800
H  1.98900 59.51600 42.66500
H  0.99100 51.60000 42.53700
H  0.99900 53.18800 41.73300
H  1.39900 53.07900 43.40400
H  5.50500 48.83400 41.76200
H  5.05700 46.72500 38.09300
H  3.68900 46.09900 39.04400
H  5.30500 45.43400 39.42000

