158

Mg 36.32900 49.30200 26.43900
C  36.34700 46.94700 29.03800
C  35.47300 51.74300 28.62900
C  35.98300 51.34500 23.84600
C  36.85900 46.62800 24.19700
N  36.07600 49.37900 28.62400
C  36.12800 48.30300 29.47300
C  35.88000 48.73400 30.87700
C  35.48500 50.18600 30.63000
C  35.60100 50.49000 29.20300
C  34.17800 50.51700 31.26300
C  37.09700 48.61100 31.88800
C  36.63000 48.26400 33.33700
H  36.64100 49.39600 34.39700
N  35.77100 51.25000 26.29900
C  35.45600 52.13600 27.29000
C  35.35600 53.47000 26.75300
C  35.63100 53.46000 25.35500
C  35.83600 51.96900 25.14000
C  35.14500 54.56300 27.72300
C  35.60200 54.62200 24.38100
O  36.03800 54.39300 23.25100
C  35.37900 56.10400 24.76500
N  36.31600 48.95800 24.29000
C  36.08600 50.01700 23.45800
C  36.34300 49.64900 21.92400
C  37.03700 48.22600 22.16500
C  36.71800 47.91300 23.62500
C  35.16400 49.59200 20.91000
C  38.57300 48.09700 21.71000
C  38.90800 47.37800 20.39900
N  36.58500 47.22100 26.50500
C  36.85700 46.25900 25.53000
C  37.23600 45.09000 26.21600
C  36.98000 45.26400 27.57600
C  36.55600 46.59900 27.72100
C  37.85900 43.90700 25.54400
C  36.98900 44.61800 28.88100
O  37.38100 43.48300 29.17200
C  36.50600 45.64500 29.92700
C  35.23500 45.25100 30.65800
O  34.21900 44.85500 30.10400
O  35.40300 45.60400 31.96500
C  34.36900 45.09300 32.82400
H  35.18100 52.59200 29.25000
H  35.91300 52.03800 23.00500
H  37.11000 45.79100 23.54200
H  34.98800 48.22900 31.24800
H  36.24700 50.89300 30.95800
H  33.30200 50.20600 30.69300
H  33.96900 51.58700 31.28800
H  34.24500 50.25700 32.31900
H  37.55300 49.58300 32.07600
H  37.87900 47.89000 31.65000
H  37.14700 47.35400 33.64200
H  35.56500 48.03200 33.33600
H  36.07800 54.74400 28.25800
H  34.43300 54.22400 28.47600
H  34.78800 55.51600 27.33400
H  36.22000 56.66000 25.18100
H  34.53500 56.12100 25.45500
H  34.93200 56.57300 23.88900
H  37.08000 50.30100 21.45700
H  36.48600 47.44900 21.63500
H  35.07200 48.68600 20.31200
H  35.21500 50.39800 20.17800
H  34.30200 49.65100 21.57500
H  39.15500 47.69200 22.53700
H  39.01300 49.09000 21.61200
H  38.06200 47.43200 19.71400
H  39.11100 46.33300 20.63300
H  39.79900 47.91300 20.07000
H  38.86200 44.30700 25.39200
H  37.41900 43.62200 24.58900
H  37.85200 43.00500 26.15600
H  37.27300 45.87600 30.66600
H  34.61600 44.04400 32.98900
H  33.43500 45.23100 32.28000
H  34.37800 45.63000 33.77300
Mg -1.93600 34.53600 27.05300
C  -3.50300 32.56900 29.67800
C  -0.58000 36.42500 29.51100
C  -0.23100 36.03600 24.76600
C  -3.67200 32.49100 24.83400
N  -2.37700 34.66900 29.30200
C  -2.86100 33.69400 30.15200
C  -2.67700 34.09900 31.63000
C  -1.75800 35.34000 31.46500
C  -1.55300 35.57000 29.96700
C  -2.16100 36.56200 32.23500
C  -1.90700 32.89700 32.34900
C  -1.23800 33.16100 33.73700
H  -1.74700 32.31000 34.90600
N  -0.49500 36.02200 27.13500
C  -0.09300 36.73000 28.18800
C  1.03600 37.59300 27.86200
C  1.14600 37.54300 26.47900
C  0.08900 36.57900 26.05600
C  1.83000 38.41000 28.83400
C  1.98900 38.37100 25.49800
O  1.94600 38.18100 24.25300
C  3.00300 39.42600 25.95000
N  -2.09500 34.44700 25.06800
C  -1.13500 35.07400 24.33700
C  -1.32400 34.77700 22.88400
C  -2.57400 33.80600 22.79500
C  -2.85000 33.52500 24.29300
C  -1.51300 35.98300 21.85000
C  -2.46400 32.51000 21.89800
C  -1.22000 31.64400 22.24000
N  -3.34400 32.87800 27.19600
C  -3.88000 32.10700 26.15700
C  -4.69600 31.03900 26.72400
C  -4.52300 31.14500 28.09500
C  -3.67400 32.25800 28.32900
C  -5.56900 30.03600 26.01400
C  -4.90400 30.54400 29.38400
O  -5.54300 29.54700 29.62100
C  -4.30700 31.50100 30.48400
C  -5.41800 32.08600 31.31800
O  -5.98900 33.15800 31.08300
O  -5.49600 31.35100 32.43200
C  -6.20800 31.95000 33.59800
H  -0.08300 36.88500 30.36800
H  0.42900 36.50700 24.03500
H  -4.16400 31.87900 24.07500
H  -3.62700 34.34800 32.10200
H  -0.82700 35.07700 31.96600
H  -2.81600 37.04200 31.50800
H  -1.28000 37.15200 32.48800
H  -2.72300 36.37200 33.14900
H  -1.14100 32.48300 31.69200
H  -2.64000 32.15800 32.67100
H  -1.34300 34.23200 33.90800
H  -0.20600 32.83700 33.60200
H  2.83900 38.02000 28.70100
H  1.39500 38.15800 29.80100
H  1.75200 39.48800 28.69800
H  3.56300 39.67700 25.04900
H  3.61400 38.89300 26.67800
H  2.49800 40.17500 26.55900
H  -0.49900 34.14100 22.56200
H  -3.47400 34.29900 22.42700
H  -0.71500 35.95800 21.10900
H  -1.38900 36.93900 22.35800
H  -2.46800 35.87500 21.33400
H  -2.38900 32.82000 20.85600
H  -3.42900 32.00400 21.93300
H  -1.00600 31.71700 23.30600
H  -0.32300 32.03000 21.75500
H  -1.32500 30.56800 22.09700
H  -5.46500 30.15800 24.93500
H  -6.55400 30.43800 26.25100
H  -5.52600 28.98400 26.29700
H  -3.63400 30.93000 31.12400
H  -6.78500 32.83700 33.33300
H  -5.43500 32.31700 34.27400
H  -6.91700 31.28400 34.09000

