158

Mg 24.59900 -4.83400 46.64700
C  26.29400 -2.06300 45.32000
C  21.84500 -3.98200 44.65500
C  23.29800 -7.90700 47.15600
C  27.61300 -5.99700 48.01800
N  24.22400 -3.22000 45.16400
C  25.02500 -2.16900 44.80400
C  24.32600 -1.26100 43.81000
C  22.79900 -1.58400 44.05500
C  22.94400 -3.05000 44.61700
C  21.95300 -0.67500 45.03000
C  24.81700 -1.58700 42.37300
C  25.36500 -0.52100 41.45300
H  24.85500 -0.60700 39.99400
N  22.76600 -5.74900 46.06700
C  21.75700 -5.18300 45.35300
C  20.71100 -6.10800 45.37200
C  21.11600 -7.28200 46.09800
C  22.44800 -7.04600 46.44600
C  19.39100 -5.82400 44.69800
C  20.18900 -8.51700 46.29400
O  19.08700 -8.61400 45.70000
C  20.55800 -9.78300 47.08800
N  25.30100 -6.75200 47.37400
C  24.59000 -7.86600 47.56600
C  25.25700 -8.81400 48.60100
C  26.73600 -8.33400 48.62000
C  26.59600 -6.95300 47.90500
C  24.62000 -8.95600 50.03300
C  27.72700 -9.26000 47.94800
C  28.70600 -10.00800 48.78900
N  26.60100 -4.15800 46.70800
C  27.67400 -4.70700 47.37600
C  28.79500 -3.69200 47.38200
C  28.34600 -2.65600 46.53500
C  27.01400 -2.98200 46.12800
C  30.08300 -3.77100 48.16300
C  28.68700 -1.33800 45.94600
O  29.72000 -0.67500 46.06100
C  27.37600 -0.90100 45.06400
C  26.86000 0.49900 45.42200
O  27.15300 1.55400 44.87200
O  25.94600 0.32200 46.45400
C  25.30200 1.53600 46.90600
H  21.02200 -3.51300 44.11200
H  22.84400 -8.79400 47.60300
H  28.48800 -6.21500 48.63500
H  24.55400 -0.23900 44.11100
H  22.32800 -1.60800 43.07200
H  21.00200 -0.38900 44.58000
H  22.40100 0.27100 45.33100
H  21.69600 -1.15800 45.97300
H  24.08900 -2.18100 41.82000
H  25.66600 -2.25800 42.50700
H  26.44300 -0.68000 41.47800
H  25.07700 0.47200 41.79700
H  19.20100 -4.77200 44.91200
H  18.54800 -6.38000 45.10900
H  19.36400 -6.05200 43.63300
H  20.75500 -9.43700 48.10300
H  21.42900 -10.32000 46.71300
H  19.66000 -10.39700 47.15300
H  25.16300 -9.80300 48.15300
H  27.13800 -8.27600 49.63100
H  25.10700 -8.36100 50.80600
H  24.35500 -9.96500 50.35000
H  23.74200 -8.33700 49.85200
H  28.34900 -8.62600 47.31600
H  27.22200 -9.90600 47.23000
H  29.68100 -9.52400 48.74000
H  28.75300 -11.04400 48.45200
H  28.45400 -9.92500 49.84600
H  30.89100 -3.16200 47.75700
H  30.35500 -4.78700 48.45100
H  29.88700 -3.23300 49.09100
H  27.58800 -0.78500 44.00200
H  24.78600 2.00000 46.06600
H  25.88300 2.26700 47.47000
H  24.49300 1.30500 47.59800
Mg -13.53600 38.03600 41.89100
C  -11.10700 35.63900 41.24700
C  -11.40600 40.46900 40.56300
C  -15.84900 40.28900 42.40600
C  -15.83600 35.41900 42.30200
N  -11.55200 37.92600 40.71200
C  -10.69300 36.89300 40.67900
C  -9.34900 37.27600 40.13600
C  -9.36200 38.82300 40.38400
C  -10.89800 39.11500 40.53600
C  -8.53100 39.28700 41.65200
C  -9.12100 36.84000 38.67400
C  -7.91900 35.92900 38.34800
H  -6.91100 36.55700 37.37800
N  -13.63200 40.19400 41.49100
C  -12.66400 41.01200 41.00400
C  -13.13400 42.37100 41.14600
C  -14.39400 42.31000 41.71800
C  -14.66600 40.89200 41.91700
C  -12.37100 43.58600 40.60800
C  -15.24300 43.49900 42.00900
O  -14.89600 44.60700 41.65200
C  -16.37900 43.29400 42.95600
N  -15.63300 37.89500 41.97200
C  -16.33700 38.94300 42.42100
C  -17.73800 38.54200 42.93100
C  -17.70600 36.99300 42.87700
C  -16.32400 36.71300 42.29300
C  -18.01500 39.06800 44.38700
C  -18.93000 36.34700 42.03600
C  -18.69100 36.14800 40.57700
N  -13.51300 35.94500 42.02200
C  -14.48900 35.03800 42.27900
C  -13.88000 33.77100 42.43400
C  -12.55000 33.88200 42.03300
C  -12.39800 35.29000 41.79500
C  -14.59100 32.41700 42.67600
C  -11.29300 33.24500 41.68900
O  -10.89200 32.09200 41.60000
C  -10.29700 34.34200 41.36500
C  -9.23600 34.37900 42.37700
O  -9.42600 34.18800 43.55600
O  -7.99000 34.46000 41.78600
C  -6.81600 34.16300 42.63800
H  -10.57200 41.14900 40.37900
H  -16.65800 40.86300 42.86400
H  -16.46300 34.59400 42.64600
H  -8.65600 36.77200 40.80900
H  -9.08400 39.38100 39.49100
H  -8.11600 38.39700 42.12600
H  -9.07200 39.82000 42.43300
H  -7.73400 39.89500 41.22400
H  -9.17500 37.73900 38.06100
H  -9.87400 36.15500 38.28400
H  -8.31200 34.97600 37.99300
H  -7.29300 35.79300 39.23000
H  -11.42200 43.22100 40.21300
H  -11.98500 44.20900 41.41500
H  -12.89100 44.14600 39.83000
H  -17.17000 42.78100 42.40900
H  -16.84100 44.25800 43.16900
H  -15.94300 42.81900 43.83500
H  -18.51000 38.85900 42.23000
H  -17.74600 36.57600 43.88300
H  -17.16600 39.65600 44.73400
H  -18.05600 38.31100 45.16900
H  -18.88600 39.71800 44.47400
H  -19.82300 36.94400 42.22000
H  -19.30100 35.40300 42.43500
H  -18.64300 35.06300 40.48300
H  -17.72400 36.50600 40.22500
H  -19.50200 36.56900 39.98200
H  -13.78300 31.89200 43.18600
H  -14.78000 31.94500 41.71200
H  -15.47900 32.42600 43.30900
H  -9.83900 34.19900 40.38600
H  -5.96800 34.00400 41.97200
H  -6.93900 33.26600 43.24500
H  -6.57600 35.05700 43.21400

