158

Mg 55.82900 22.63100 44.87900
C  53.73200 25.15700 43.90500
C  53.61200 20.34600 43.78300
C  58.44400 20.34200 44.59400
C  58.30000 24.96500 45.47100
N  53.95500 22.77500 43.87500
C  53.20200 23.84900 43.61400
C  51.69700 23.47500 43.28800
C  51.63800 21.96400 43.60100
C  53.15900 21.69400 43.79000
C  50.75500 21.44300 44.81400
C  51.06700 23.89200 41.89000
C  49.77100 24.67300 42.07400
H  48.83200 24.57100 40.88100
N  56.00900 20.53400 44.45800
C  54.95200 19.80600 43.88400
C  55.41600 18.43800 43.77600
C  56.77100 18.38700 44.03200
C  57.12100 19.73900 44.43400
C  54.53100 17.35800 43.40700
C  57.71900 17.16800 43.91100
O  57.35400 16.08300 43.40500
C  59.18000 17.18600 44.34800
N  58.11500 22.66300 44.99600
C  58.89700 21.58100 44.91200
C  60.37000 21.90300 45.12500
C  60.27800 23.45700 45.23900
C  58.81200 23.71200 45.26500
C  61.03800 21.26200 46.40400
C  61.06100 24.20400 44.12200
C  62.16500 25.19600 44.64200
N  55.94800 24.64400 44.90200
C  57.01100 25.42500 45.20000
C  56.58400 26.79800 45.30900
C  55.23900 26.81800 44.79300
C  54.95600 25.40100 44.56200
C  57.35300 27.97300 45.82900
C  54.06400 27.55300 44.40300
O  53.78300 28.77500 44.51900
C  53.12000 26.53600 43.69100
C  53.11200 26.95800 42.26300
O  54.01500 26.68100 41.44000
O  51.88100 27.56200 41.95200
C  51.78700 27.75900 40.58100
H  52.83700 19.58500 43.67700
H  59.25000 19.60600 44.55100
H  58.95900 25.79600 45.73200
H  51.16700 24.00700 44.07800
H  51.18000 21.45100 42.75600
H  50.05900 22.22900 45.11100
H  51.34500 21.16600 45.68700
H  50.20500 20.64700 44.31300
H  50.92800 22.99900 41.28100
H  51.74600 24.55800 41.35700
H  50.05000 25.69400 42.33600
H  49.25000 24.23100 42.92200
H  54.73600 16.81100 42.48700
H  53.48600 17.62200 43.24400
H  54.54900 16.58700 44.17800
H  59.81100 17.65800 43.59500
H  59.44500 16.14500 44.53100
H  59.28500 17.68700 45.31000
H  60.92500 21.59200 44.24000
H  60.69500 23.78800 46.19000
H  61.91100 20.64800 46.18600
H  60.23300 20.63200 46.78200
H  61.35400 22.08700 47.04300
H  60.31000 24.70800 43.51400
H  61.46700 23.47600 43.42000
H  62.38600 25.07200 45.70200
H  61.91600 26.21600 44.35100
H  63.11100 24.97800 44.14600
H  56.68200 28.56900 46.44700
H  57.61200 28.64200 45.00900
H  58.24500 27.67000 46.37700
H  52.13600 26.70600 44.12800
H  50.92500 28.39000 40.36500
H  51.71700 26.84100 39.99700
H  52.65500 28.25200 40.14500
Mg 9.69600 48.65300 25.59600
C  8.01400 48.79400 28.50400
C  12.55000 50.03600 27.15900
C  11.37300 48.50000 22.73800
C  6.75000 47.99600 23.89000
N  10.08700 49.47100 27.54000
C  9.32400 49.21200 28.66900
C  10.01900 49.62000 29.93700
C  11.22300 50.50400 29.34000
C  11.32800 49.98000 27.88100
C  11.13100 52.05000 29.38400
C  10.44500 48.48600 30.85700
C  9.85600 48.43700 32.28500
H  10.77700 48.98100 33.34900
N  11.71000 49.19400 25.01500
C  12.70900 49.56400 25.88200
C  13.94800 49.61300 25.18800
C  13.69400 49.21800 23.80300
C  12.22900 48.88200 23.76500
C  15.40500 49.97200 25.84300
C  14.59900 49.02300 22.65100
O  14.27100 48.55900 21.56100
C  15.95600 49.48300 22.86800
N  9.04700 48.39300 23.48800
C  10.01400 48.23800 22.56500
C  9.35200 48.07800 21.12900
C  7.80400 47.98500 21.50200
C  7.85600 48.14100 23.01600
C  9.60500 49.25400 20.14800
C  7.22400 46.65700 21.09900
C  6.21100 46.77700 19.90800
N  7.76100 48.34500 26.08000
C  6.65300 48.13800 25.28600
C  5.51300 47.90300 26.11800
C  6.00300 48.13200 27.43700
C  7.36500 48.42500 27.34800
C  4.16200 47.67600 25.57400
C  5.69600 48.10300 28.83000
O  4.67000 47.86000 29.39900
C  6.93200 48.56400 29.61100
C  7.18800 47.43800 30.48900
O  7.86000 46.46900 30.23200
O  6.52600 47.68300 31.63400
C  6.50800 46.62600 32.64900
H  13.41800 50.42800 27.69200
H  11.86500 48.32700 21.77800
H  5.79700 47.86500 23.37300
H  9.42900 50.27900 30.57300
H  12.20900 50.28800 29.75200
H  11.84800 52.44900 30.10200
H  10.18100 52.53700 29.60600
H  11.47600 52.44300 28.42800
H  11.51900 48.64200 30.95100
H  10.33000 47.56200 30.29000
H  9.64000 47.39700 32.53000
H  8.94000 49.01700 32.40200
H  15.38100 50.27400 26.89000
H  15.86100 50.79400 25.29200
H  16.08000 49.11800 25.77900
H  16.42600 49.03700 23.74400
H  15.88000 50.55300 23.05600
H  16.52300 49.22800 21.97200
H  9.78300 47.17000 20.70800
H  7.23200 48.80800 21.07400
H  9.03300 49.18500 19.22200
H  10.65900 49.43000 19.93600
H  9.31800 50.15900 20.68200
H  6.83100 46.00200 21.87700
H  7.96700 46.08900 20.53900
H  6.54500 46.13600 19.09300
H  6.18100 47.76500 19.44800
H  5.18600 46.57600 20.22000
H  3.85900 48.64000 25.16600
H  3.38400 47.48500 26.31300
H  4.21000 46.82500 24.89400
H  6.79700 49.51200 30.13200
H  6.90500 45.69200 32.25000
H  5.48100 46.59400 33.01200
H  7.18200 46.98000 33.42800

