158

Mg 41.00900 9.38400 30.12500
C  42.72900 10.89000 33.00100
C  38.63500 8.38700 32.21400
C  39.68700 7.79800 27.48500
C  43.80300 10.32000 28.26800
N  40.80600 9.57400 32.34200
C  41.52800 10.27300 33.39000
C  40.92600 10.10500 34.78300
C  39.65100 9.25800 34.41000
C  39.69100 9.06600 32.88300
C  39.51600 7.92500 35.31000
C  40.68700 11.47500 35.44200
C  40.83200 11.47200 37.01100
H  41.30500 12.77300 37.73500
N  39.35900 8.26200 29.84200
C  38.45000 8.01600 30.80300
C  37.31100 7.35400 30.15500
C  37.59900 7.17000 28.78300
C  38.94400 7.72300 28.65300
C  36.07300 7.00800 30.99500
C  36.76000 6.51400 27.63800
O  37.23800 6.34900 26.55100
C  35.35200 6.11400 27.94900
N  41.63000 9.19100 28.15300
C  40.85400 8.54500 27.17800
C  41.46100 8.73400 25.78100
C  42.70100 9.50700 26.06300
C  42.72800 9.64600 27.59900
C  41.59100 7.33100 25.02200
C  43.06500 10.84700 25.26200
C  42.43000 12.18300 25.76400
N  42.89400 10.32700 30.47600
C  43.87600 10.72500 29.62500
C  44.86400 11.54400 30.30300
C  44.39900 11.56800 31.61700
C  43.24100 10.82400 31.66600
C  46.11100 12.13800 29.70800
C  44.79600 12.16000 32.87000
O  45.73500 12.82100 33.13700
C  43.65600 11.63400 33.92000
C  44.27700 10.79600 34.96900
O  45.05100 9.79700 34.81500
O  44.05600 11.37100 36.24800
C  44.71000 10.75600 37.45700
H  37.84000 8.04100 32.87700
H  39.22800 7.29000 26.63400
H  44.68200 10.62400 27.69600
H  41.65600 9.48800 35.30700
H  38.85400 9.91700 34.75600
H  40.48300 7.45700 35.49700
H  39.01700 7.14800 34.73000
H  38.96000 8.06500 36.23700
H  39.64300 11.73800 35.27600
H  41.26600 12.29800 35.02300
H  41.64400 10.80100 37.29200
H  39.94800 11.17100 37.57300
H  35.87700 5.93600 31.03600
H  35.24700 7.40700 30.40700
H  36.02400 7.35700 32.02700
H  34.97000 5.77100 26.98800
H  34.87700 7.06300 28.19700
H  35.36300 5.43200 28.79900
H  40.67700 9.29600 25.27300
H  43.55000 8.83700 25.93000
H  40.89500 7.23600 24.18800
H  41.37000 6.54200 25.74200
H  42.59500 7.14500 24.64300
H  42.81500 10.72800 24.20700
H  44.15500 10.85900 25.25800
H  41.75300 12.50400 24.97300
H  43.17900 12.97100 25.84500
H  41.72600 12.01100 26.57900
H  46.62500 12.64000 30.52800
H  45.83200 12.86700 28.94600
H  46.73000 11.37900 29.22900
H  43.18700 12.52900 34.32900
H  45.68000 11.21100 37.65900
H  44.93300 9.70300 37.28900
H  44.11100 10.75300 38.36800
Mg 41.98100 41.32300 26.44100
C  41.00100 43.61800 28.92600
C  43.54300 39.32100 28.75000
C  42.79100 39.03900 24.01100
C  40.93600 43.52200 23.95900
N  42.27600 41.55800 28.50600
C  41.69100 42.43100 29.46600
C  41.98100 42.16300 30.90900
C  42.92400 40.85700 30.73600
C  42.94400 40.52400 29.19800
C  44.41100 40.98900 31.24200
C  40.73500 41.88300 31.80700
C  40.43600 42.86400 32.93200
H  40.07900 42.27800 34.29700
N  43.05000 39.43500 26.42100
C  43.65100 38.82500 27.52700
C  44.22200 37.60800 27.17500
C  43.92600 37.43800 25.76900
C  43.25100 38.68100 25.31800
C  44.84500 36.59500 28.10400
C  44.43000 36.31800 24.86200
O  44.15900 36.41700 23.68300
C  45.29500 35.06700 25.33400
N  41.94300 41.32600 24.29300
C  42.26600 40.25600 23.52500
C  41.93800 40.49800 22.01400
C  41.18100 41.82700 22.09800
C  41.29600 42.24300 23.52800
C  43.17600 40.52700 21.10900
C  39.76800 41.92200 21.65400
C  39.68600 41.81900 20.15300
N  41.12900 43.20400 26.42200
C  40.77400 43.98100 25.29900
C  40.16000 45.19400 25.74400
C  40.17900 45.16200 27.14800
C  40.81700 43.91400 27.50300
C  39.56400 46.24000 24.94300
C  39.91500 45.79000 28.42100
O  39.36600 46.81800 28.64000
C  40.46200 44.83700 29.59400
C  41.48000 45.63600 30.27900
O  42.63700 45.75600 30.03400
O  40.97500 46.02300 31.46200
C  41.84500 46.81600 32.38600
H  44.01500 38.82700 29.60100
H  43.09300 38.33900 23.22900
H  40.55600 44.20800 23.19900
H  42.40800 43.08800 31.29800
H  42.49100 40.10600 31.39800
H  44.48400 40.32400 32.10300
H  44.52300 42.03900 31.51300
H  45.07500 40.61000 30.46500
H  40.81300 40.88500 32.23800
H  39.95900 41.97100 31.04600
H  39.64800 43.58600 32.71500
H  41.28700 43.52300 33.10300
H  45.92300 36.74300 28.03100
H  44.39600 35.62300 27.90000
H  44.53800 36.75800 29.13700
H  45.62300 34.45500 24.49300
H  44.54400 34.51200 25.89700
H  46.10600 35.31200 26.01900
H  41.30700 39.66600 21.70300
H  41.81200 42.52000 21.54100
H  43.05900 41.25700 20.30800
H  43.20100 39.53200 20.66400
H  44.12800 40.73900 21.59400
H  39.31000 42.77400 22.15600
H  39.37000 41.00500 22.08800
H  40.52400 42.30200 19.65000
H  38.78800 42.30500 19.77000
H  39.53900 40.77300 19.88300
H  38.95000 45.71000 24.21600
H  40.31800 46.83800 24.43100
H  38.90000 46.88300 25.52100
H  39.81100 44.63600 30.44400
H  42.39800 46.18000 33.07700
H  41.27900 47.42200 33.09400
H  42.57200 47.46800 31.90200

