158

Mg 25.38300 2.44400 29.58400
C  27.44600 2.26200 32.24000
C  22.68800 2.92400 31.81300
C  23.15000 2.07700 27.04000
C  27.86100 1.04400 27.53200
N  25.09300 2.48600 31.75900
C  26.10500 2.60800 32.56100
C  25.69100 3.01300 34.00800
C  24.13000 3.07300 33.88400
C  23.94700 2.78300 32.39300
C  23.51900 1.98100 34.72500
C  26.39400 4.32800 34.50700
C  27.28500 4.19500 35.80700
H  26.91300 5.11900 36.91800
N  23.21100 2.61600 29.44600
C  22.25600 2.78400 30.47900
C  20.96900 2.97800 29.89600
C  21.04500 2.66500 28.54600
C  22.48300 2.40500 28.23500
C  19.78500 3.36700 30.76200
C  19.94400 2.60000 27.41200
O  20.10200 2.30100 26.24900
C  18.62200 3.00200 27.87200
N  25.48700 1.60400 27.53300
C  24.46200 1.82500 26.66500
C  24.90200 1.52500 25.17700
C  26.40400 1.18400 25.39000
C  26.60300 1.27400 26.90600
C  24.04000 0.45400 24.47900
C  27.46600 1.86400 24.54800
C  27.85000 3.27500 25.11100
N  27.32600 1.75800 29.79000
C  28.19500 1.26700 28.87000
C  29.49500 1.09700 29.53700
C  29.23600 1.50500 30.88700
C  27.89800 1.83700 30.97900
C  30.70700 0.44600 29.00700
C  29.78400 1.69000 32.25100
O  30.93400 1.41100 32.67700
C  28.63600 2.09700 33.16100
C  28.50300 1.06800 34.27100
O  27.79800 0.06700 34.26000
O  29.35400 1.37600 35.33800
C  29.25900 0.43700 36.43600
H  21.89400 3.10100 32.54200
H  22.44700 1.98800 26.20900
H  28.61900 0.72500 26.81300
H  25.84100 2.28300 34.80300
H  23.64100 4.01200 34.14700
H  24.07500 1.29000 35.35800
H  22.87400 1.33900 34.12600
H  22.86700 2.60000 35.34100
H  25.67300 5.12400 34.69000
H  27.20500 4.57800 33.82300
H  28.29200 4.34100 35.41600
H  27.16200 3.19100 36.21100
H  19.11400 4.07200 30.27100
H  20.07900 3.69100 31.76000
H  19.17500 2.46600 30.83300
H  17.78700 2.90700 27.17700
H  18.62400 4.01800 28.26700
H  18.46600 2.38100 28.75400
H  24.74400 2.47600 24.66900
H  26.46200 0.13200 25.11100
H  23.41300 0.89000 23.70100
H  23.30500 -0.01900 25.13000
H  24.63100 -0.30400 23.96400
H  27.08500 2.08800 23.55100
H  28.38600 1.28100 24.52600
H  27.52100 3.63100 26.08700
H  27.46200 4.00100 24.39700
H  28.94000 3.25300 25.08000
H  30.75600 -0.48000 29.58000
H  31.56300 1.01900 29.36400
H  30.68600 0.30600 27.92600
H  28.93000 2.98800 33.71600
H  30.28400 0.34700 36.79600
H  29.05700 -0.62200 36.28000
H  28.65600 0.75000 37.28800
Mg 16.68600 51.58700 26.81000
C  18.72100 49.62900 28.92900
C  14.52100 51.94100 29.37700
C  14.72600 52.99800 24.60900
C  18.97100 50.54700 24.20000
N  16.75900 51.06600 28.92900
C  17.71600 50.28900 29.55400
C  17.47800 50.29100 31.09100
C  15.94300 50.73400 31.14600
C  15.66500 51.27000 29.70800
C  15.01200 49.68800 31.77900
C  18.47100 51.28400 31.76400
C  18.77000 50.97200 33.20200
H  17.84700 51.49300 34.19200
N  14.88300 52.45300 27.04000
C  14.20600 52.59200 28.14600
C  13.06100 53.38600 27.92300
C  13.02400 53.59300 26.46000
C  14.24600 53.03600 25.98200
C  12.01800 53.77600 29.04500
C  11.97600 54.20500 25.54500
O  12.08900 54.26000 24.33400
C  10.77300 54.79300 26.11800
N  16.87700 51.77100 24.71700
C  15.87000 52.43200 24.06600
C  16.26300 52.51300 22.57800
C  17.65200 51.85700 22.50600
C  17.84900 51.36800 23.95000
C  15.12400 51.98600 21.68900
C  18.87900 52.84800 22.18400
C  19.60800 52.52200 20.87400
N  18.45700 50.37700 26.51400
C  19.27500 50.05300 25.45800
C  20.34400 49.23200 25.85700
C  20.18400 49.03800 27.19900
C  19.00300 49.81000 27.57800
C  21.46100 48.65200 24.94600
C  20.74100 48.35400 28.33800
O  21.65900 47.57400 28.37700
C  19.84100 48.89700 29.55900
C  19.51900 47.79400 30.43800
O  18.77200 46.88600 30.18800
O  20.16200 47.94700 31.64700
C  19.78700 46.97700 32.72100
H  13.93900 52.16400 30.27400
H  14.09600 53.48500 23.86200
H  19.60600 50.40600 23.32300
H  17.57700 49.30200 31.53800
H  15.82800 51.60900 31.78600
H  14.01300 50.04500 32.03000
H  15.48000 49.35800 32.70700
H  14.99100 48.85100 31.08200
H  18.02800 52.28000 31.79900
H  19.46300 51.31100 31.31500
H  19.79400 51.24200 33.45900
H  18.86400 49.91400 33.44700
H  11.71000 54.80800 28.87500
H  12.59900 53.82600 29.96600
H  11.13600 53.13600 29.08400
H  10.32000 54.02200 26.74300
H  10.15500 55.11600 25.28000
H  10.99700 55.64400 26.76100
H  16.39600 53.59400 22.63000
H  17.69000 50.98500 21.85400
H  14.43000 52.80100 21.48200
H  14.57200 51.14500 22.11100
H  15.54900 51.58100 20.77100
H  19.59900 52.94800 22.99700
H  18.43100 53.83900 22.11100
H  19.34400 51.54200 20.47700
H  20.68900 52.49300 21.00900
H  19.34900 53.31800 20.17600
H  21.63300 49.48500 24.26400
H  21.18100 47.75800 24.38900
H  22.34300 48.51300 25.57300
H  20.50300 49.62700 30.02300
H  19.83000 47.51200 33.67000
H  20.48200 46.13900 32.78000
H  18.81300 46.49600 32.63300

