158

Mg 47.63500 45.15500 42.71600
C  44.17300 45.10000 42.74200
C  47.65700 41.76600 42.31200
C  51.02700 45.25100 42.22200
C  47.48100 48.63800 42.12100
N  46.10800 43.65700 42.66300
C  44.74900 43.81900 42.64600
C  44.02200 42.54800 42.63000
C  45.09900 41.44200 42.55800
C  46.42600 42.34900 42.41900
C  45.17800 40.34300 43.77100
C  42.88800 42.45500 41.51200
C  43.06600 43.35500 40.21700
H  43.69800 42.66400 38.98500
N  49.16300 43.73700 42.53200
C  48.92500 42.37200 42.32200
C  50.18300 41.65300 42.16100
C  51.20100 42.59200 42.22100
C  50.52900 43.94700 42.35100
C  50.33100 40.24200 41.76900
C  52.68600 42.38500 41.96000
O  53.06100 41.29400 41.64500
C  53.71400 43.48600 42.14200
N  49.07900 46.78500 42.21700
C  50.37200 46.54000 42.25000
C  51.13100 47.85600 42.35000
C  50.08200 48.97600 41.92700
C  48.78200 48.11300 42.12900
C  51.94100 48.11100 43.70200
C  50.08100 49.48400 40.48400
C  50.64900 50.89100 40.25100
N  46.18900 46.60100 42.58800
C  46.28200 47.97700 42.35000
C  44.92700 48.50100 42.31700
C  44.08900 47.39400 42.59900
C  44.93400 46.28400 42.69700
C  44.47400 49.97100 42.13400
C  42.69600 47.02800 42.72700
O  41.67600 47.71000 42.57700
C  42.68600 45.45200 42.89400
C  42.03300 45.06100 44.12700
O  40.94600 44.53100 44.14500
O  42.81800 45.24000 45.23800
C  42.22800 44.50700 46.41000
H  47.54800 40.68700 42.18800
H  52.10100 45.35800 42.05200
H  47.49900 49.72500 42.01600
H  43.62700 42.55000 43.64600
H  44.92900 40.79900 41.69400
H  46.10700 40.54900 44.30200
H  45.17400 39.37200 43.27500
H  44.35000 40.53900 44.45200
H  41.92400 42.76500 41.91500
H  42.74900 41.39800 41.28400
H  43.74000 44.20900 40.29000
H  42.05100 43.66600 39.96800
H  49.43500 40.01300 41.19200
H  50.47300 39.48400 42.54000
H  51.16500 40.04400 41.09600
H  53.71500 44.16100 41.28600
H  54.69400 43.01500 42.22800
H  53.47000 44.00700 43.06800
H  51.84500 47.87600 41.52600
H  49.93200 49.78800 42.63800
H  51.64700 49.00600 44.25000
H  52.99200 48.28100 43.46500
H  51.90600 47.33000 44.46200
H  49.14300 49.47000 39.92900
H  50.77700 48.80000 39.99800
H  51.08400 51.28700 41.16800
H  49.83300 51.47400 39.82200
H  51.40500 50.78300 39.47300
H  45.29200 50.63200 41.84700
H  44.11800 50.26000 43.12200
H  43.71700 50.12000 41.36400
H  42.09200 45.01800 42.08900
H  42.36000 43.43200 46.29000
H  41.20000 44.80700 46.61000
H  42.74000 44.82500 47.31800
Mg 25.80400 51.76600 26.16400
C  23.67200 52.75900 28.66100
C  28.21000 50.96900 28.70000
C  28.15200 51.28200 23.82100
C  23.61000 52.88500 23.82300
N  25.95900 51.90700 28.37600
C  24.87300 52.27100 29.16500
C  25.22000 52.03300 30.61300
C  26.64200 51.51500 30.67100
C  26.96800 51.46000 29.17000
C  27.69800 52.35600 31.50200
C  24.12400 51.12200 31.35800
C  23.39300 51.69800 32.65000
H  23.17900 50.80100 33.85900
N  27.87100 51.14800 26.21700
C  28.71000 50.91600 27.38100
C  29.98600 50.44700 26.87700
C  29.97600 50.43100 25.46200
C  28.66900 51.01600 25.10600
C  31.16300 49.98800 27.78400
C  31.10700 50.05400 24.47400
O  30.94100 50.24500 23.29300
C  32.40000 49.57000 24.87200
N  25.83700 52.01000 24.08800
C  26.88000 51.72300 23.31100
C  26.59800 51.86600 21.82200
C  25.05500 52.23700 21.90300
C  24.80100 52.36900 23.36300
C  27.58200 52.84800 21.16900
C  24.16800 51.39400 21.04100
C  23.28600 52.11400 19.95800
N  24.01400 52.64500 26.16700
C  23.23000 53.09200 25.15100
C  22.08000 53.80500 25.60300
C  22.13100 53.63300 27.03900
C  23.37800 52.96700 27.30800
C  21.03400 54.31100 24.76100
C  21.41800 53.83700 28.30700
O  20.31800 54.33100 28.56600
C  22.36700 53.13000 29.39200
C  22.64900 54.16600 30.38100
O  23.62100 54.94400 30.33300
O  21.80500 54.01900 31.47100
C  22.20900 54.98600 32.53500
H  28.97200 50.68600 29.42900
H  28.86600 51.13900 23.00700
H  22.80200 53.09900 23.12000
H  25.27000 53.02500 31.06100
H  26.55300 50.49400 31.04100
H  27.07400 53.12700 31.95400
H  28.38400 52.78400 30.77200
H  28.16300 51.72500 32.26000
H  24.60100 50.17100 31.59500
H  23.38400 50.94200 30.57800
H  22.38200 51.94600 32.32500
H  23.76700 52.68400 32.92700
H  31.51300 48.96300 27.66500
H  30.91100 50.15600 28.83100
H  31.99000 50.62400 27.46800
H  32.12500 48.84300 25.63600
H  32.88300 50.41200 25.36800
H  32.83600 49.12800 23.97600
H  26.76900 50.92500 21.29900
H  24.98100 53.24800 21.50200
H  28.37000 53.20300 21.83400
H  27.07600 53.74200 20.80500
H  27.90600 52.40000 20.22900
H  23.50700 50.86200 21.72500
H  24.82100 50.68800 20.52700
H  22.45700 52.71100 20.33800
H  22.87800 51.37400 19.26900
H  23.84900 52.88900 19.43800
H  20.60900 55.23500 25.15100
H  20.32300 53.48800 24.68600
H  21.42300 54.48100 23.75700
H  21.86900 52.30400 29.90000
H  22.96300 54.51300 33.16300
H  21.35400 55.16000 33.18800
H  22.47400 55.96700 32.14000

