158

Mg 47.48200 16.44800 28.61100
C  45.43300 16.67500 31.34900
C  50.05400 17.85500 30.53100
C  49.31800 17.07300 25.76500
C  44.90900 15.27200 26.66600
N  47.64500 17.25300 30.66400
C  46.72100 17.04400 31.64100
C  47.31000 17.27100 33.02300
C  48.76900 17.83300 32.76100
C  48.82300 17.71400 31.18300
C  48.81400 19.32900 33.23900
C  47.21600 16.05900 33.99000
C  47.08700 16.48100 35.46400
H  47.15800 17.97800 35.95400
N  49.44300 17.33000 28.18100
C  50.34500 17.72800 29.14200
C  51.58000 18.22100 28.46800
C  51.32500 18.17600 27.05800
C  49.94100 17.55200 26.95200
C  52.72200 18.83900 29.31200
C  52.10800 18.66900 25.87100
O  51.71300 18.54400 24.74900
C  53.45400 19.20500 26.05300
N  47.28600 15.86000 26.53000
C  48.13900 16.22000 25.53200
C  47.60800 15.78700 24.14300
C  46.19800 15.18300 24.45600
C  46.09300 15.46700 25.95300
C  47.40600 16.92000 23.12800
C  45.88000 13.79300 23.95000
C  45.26900 13.67600 22.59600
N  45.58600 16.12700 28.83700
C  44.60000 15.57800 28.01000
C  43.29300 15.43700 28.71500
C  43.59400 15.85600 30.07100
C  44.94300 16.30900 30.05300
C  42.01200 14.88000 28.09400
C  43.12400 15.96700 31.45000
O  42.01700 15.71600 31.97000
C  44.30300 16.46300 32.35200
C  43.98100 17.67100 33.02700
O  43.97500 18.83500 32.70400
O  43.57700 17.30100 34.29100
C  42.77800 18.26300 35.10900
H  50.83100 18.26000 31.18200
H  49.75100 17.20400 24.77100
H  44.14300 14.82500 26.03000
H  46.70100 18.08700 33.41300
H  49.52100 17.25900 33.30200
H  48.42000 19.37200 34.25400
H  48.21400 19.85400 32.49500
H  49.87300 19.58700 33.28400
H  48.13500 15.47800 33.90600
H  46.37400 15.42000 33.72400
H  47.74100 15.82500 36.03900
H  46.07000 16.17200 35.70600
H  52.63700 18.59800 30.37200
H  52.55000 19.91100 29.21100
H  53.69900 18.55000 28.92400
H  54.01000 18.42100 26.56700
H  53.41100 20.14800 26.59800
H  54.11100 19.38000 25.20000
H  48.33100 15.08100 23.73600
H  45.39800 15.80300 24.05100
H  46.38300 17.24400 22.93400
H  47.67300 16.38700 22.21600
H  48.03300 17.80800 23.20200
H  45.28200 13.32400 24.73100
H  46.78700 13.19400 23.86600
H  45.36100 14.60100 22.02800
H  44.18300 13.73900 22.66300
H  45.65100 12.82800 22.02800
H  41.91900 15.35900 27.11900
H  41.19300 15.28500 28.68900
H  41.95300 13.79900 27.96600
H  44.40300 15.66200 33.08400
H  43.45100 19.05800 35.43300
H  42.50200 17.71800 36.01200
H  41.94100 18.73200 34.59200
Mg 48.52100 25.39400 27.87200
C  49.20200 27.64800 30.49600
C  47.38200 23.26900 30.20400
C  48.31400 23.17200 25.39100
C  50.04800 27.65800 25.64400
N  48.23900 25.49100 30.09200
C  48.64800 26.43300 30.93800
C  48.47300 26.07700 32.41100
C  47.93400 24.62100 32.34500
C  47.78300 24.41700 30.80200
C  48.79500 23.51400 33.02800
C  47.65800 27.11600 33.24100
C  46.68000 26.73900 34.27200
H  46.46400 27.70500 35.43400
N  47.80300 23.48700 27.83800
C  47.33200 22.79000 28.87800
C  46.98300 21.47500 28.39900
C  47.20000 21.44600 26.96200
C  47.74600 22.74500 26.65100
C  46.41000 20.37500 29.28800
C  46.86600 20.30700 25.91100
O  47.06800 20.50800 24.73600
C  46.26300 18.97600 26.41700
N  49.19200 25.32900 25.81700
C  49.03800 24.30100 24.98500
C  49.49400 24.50400 23.49600
C  49.64900 26.05100 23.60900
C  49.60100 26.42200 25.14000
C  50.83600 23.79800 23.10300
C  48.56100 26.89100 22.81200
C  49.17500 27.68600 21.60500
N  49.38900 27.27700 27.95700
C  49.93200 28.11300 26.99800
C  50.50000 29.29000 27.61900
C  50.15500 29.17000 28.97300
C  49.44500 27.99700 29.10200
C  51.48200 30.29800 26.96400
C  50.29600 29.82000 30.25100
O  50.85000 30.87700 30.57000
C  49.64700 28.85300 31.29200
C  50.64000 28.66400 32.31600
O  51.52600 27.82500 32.25100
O  50.38200 29.37400 33.43600
C  51.20800 29.03900 34.65200
H  47.23300 22.53100 30.99500
H  48.33000 22.45700 24.56600
H  50.31200 28.37600 24.86400
H  49.45700 26.01900 32.87600
H  46.88500 24.54000 32.63100
H  49.44900 24.10100 33.67300
H  49.44300 22.89700 32.40700
H  48.20600 22.91700 33.72500
H  47.02200 27.59900 32.49900
H  48.32100 27.83900 33.71700
H  46.90400 25.76600 34.71000
H  45.68700 26.61100 33.84100
H  47.03400 19.48700 29.18600
H  45.45900 19.99000 28.92000
H  46.23700 20.74000 30.30000
H  46.97900 18.54200 27.11600
H  46.07300 18.49300 25.45800
H  45.31600 19.11600 26.93700
H  48.70900 24.05700 22.88600
H  50.60200 26.31800 23.15300
H  51.24600 23.18400 23.90500
H  51.53800 24.52000 22.68600
H  50.54100 23.10800 22.31300
H  48.05900 27.56200 23.50900
H  47.80500 26.23800 22.37700
H  48.89500 28.72800 21.75900
H  48.93400 27.31000 20.61000
H  50.25800 27.62200 21.70700
H  52.18400 29.76100 26.32600
H  52.05300 30.80700 27.74000
H  51.08800 31.16900 26.44100
H  48.87700 29.50200 31.71000
H  50.75100 28.15000 35.08600
H  51.12700 29.89300 35.32400
H  52.25900 28.88800 34.40600

