158

Mg 50.22700 45.66600 42.74600
C  46.80700 46.39400 41.82800
C  49.73700 42.51000 41.59500
C  53.49500 45.17000 43.27000
C  50.65000 49.12600 43.41400
N  48.48000 44.67100 41.72100
C  47.17300 45.05500 41.57300
C  46.25900 43.97400 40.97700
C  47.21600 42.69100 41.12200
C  48.59900 43.32000 41.50800
C  46.84300 41.64100 42.23800
C  45.96900 44.33200 39.45600
C  44.46400 44.15900 39.03100
H  44.29900 43.16800 37.91200
N  51.38800 44.01700 42.54300
C  51.04000 42.81000 42.03100
C  52.17600 41.92000 41.97500
C  53.26100 42.68500 42.49300
C  52.75200 44.00400 42.73900
C  52.08400 40.49500 41.40900
C  54.69800 42.22200 42.66800
O  54.95200 41.04300 42.53500
C  55.87300 43.05200 43.13600
N  51.90700 47.05300 43.15300
C  53.11300 46.51800 43.46000
C  54.08700 47.60900 43.84400
C  53.20100 48.88800 43.73700
C  51.83100 48.36500 43.40100
C  54.80800 47.39000 45.19500
C  53.53700 50.13400 42.81200
C  55.03200 50.43200 42.65000
N  49.03200 47.37900 42.62400
C  49.35700 48.72700 42.94400
C  48.14800 49.55400 42.83900
C  47.14000 48.65100 42.44500
C  47.69800 47.35000 42.30800
C  48.09500 51.04000 43.13500
C  45.70800 48.56200 42.11500
O  44.75100 49.37100 42.14400
C  45.44300 47.02400 41.68200
C  44.38300 46.45500 42.54400
O  44.59900 46.02200 43.67700
O  43.17800 46.45200 41.86800
C  42.09100 45.84200 42.70400
H  49.60000 41.43500 41.45800
H  54.55300 45.06700 43.52100
H  50.65200 50.19100 43.65500
H  45.33700 43.81200 41.53600
H  47.25700 42.13600 40.18500
H  46.90800 40.74300 41.62300
H  45.83900 41.81300 42.62400
H  47.43500 41.66900 43.15300
H  46.52100 43.65000 38.80900
H  46.27600 45.35100 39.22200
H  43.98600 45.12100 38.84400
H  43.81400 43.70600 39.77900
H  51.31300 40.43200 40.64100
H  51.90400 39.78600 42.21600
H  53.05400 40.17700 41.02700
H  55.77000 43.42400 44.15500
H  56.10100 43.82900 42.40700
H  56.80000 42.49800 42.98700
H  54.85100 47.56700 43.06800
H  53.21500 49.28600 44.75100
H  55.68500 46.75100 45.08600
H  54.28700 46.74400 45.90200
H  55.00300 48.25700 45.82600
H  53.04000 51.02100 43.20500
H  53.17300 50.03500 41.79000
H  55.17800 50.44000 41.57000
H  55.71300 49.81100 43.23200
H  55.16100 51.47300 42.94600
H  48.78800 51.57400 42.48500
H  48.46000 51.02300 44.16200
H  47.08200 51.44300 43.13000
H  45.09900 46.95800 40.65000
H  41.11400 46.25700 42.45400
H  42.24300 45.88000 43.78300
H  42.09300 44.81400 42.34300
Mg 1.04600 43.68200 25.18900
C  2.39200 43.46100 28.40800
C  -2.09000 42.56300 26.50700
C  -0.24000 42.95200 22.08500
C  4.08300 44.34600 23.81600
N  0.27800 43.13500 27.18300
C  0.95000 43.30500 28.39300
C  0.08600 43.07700 29.59700
C  -1.32600 42.62200 28.96700
C  -1.05300 42.78700 27.47100
C  -1.77900 41.18200 29.40000
C  -0.04500 44.50700 30.26300
C  -0.13500 44.44200 31.80500
H  -0.47900 43.19200 32.62400
N  -0.92900 43.00100 24.42300
C  -2.02300 42.71900 25.14800
C  -3.14500 42.50800 24.22500
C  -2.60200 42.49200 22.91700
C  -1.23400 42.80000 23.07700
C  -4.47700 42.21000 24.80000
C  -3.20300 42.20800 21.58000
O  -2.59300 42.27400 20.54300
C  -4.73600 41.88900 21.46500
N  1.86100 43.34000 23.17100
C  1.13000 43.26600 22.06800
C  1.89900 43.60900 20.85000
C  3.11300 44.43600 21.42500
C  3.03400 44.02700 22.91800
C  2.33200 42.43500 19.94400
C  2.87000 45.99300 21.22900
C  4.02000 46.66100 20.63400
N  2.95300 43.85000 25.96000
C  4.10800 44.14400 25.27700
C  5.14700 44.32000 26.25900
C  4.52300 43.94600 27.46500
C  3.17700 43.71400 27.28000
C  6.53800 44.77700 25.95300
C  4.66400 43.93400 28.93200
O  5.61000 44.23900 29.59300
C  3.32300 43.59900 29.59200
C  3.54500 42.46700 30.57200
O  3.25000 41.31100 30.35900
O  4.07000 42.95300 31.73900
C  4.04600 42.02900 32.90100
H  -3.06800 42.43500 26.97700
H  -0.57600 42.89200 21.04700
H  4.95400 44.84000 23.38000
H  0.60100 42.33800 30.21100
H  -2.03700 43.41400 29.20300
H  -2.76000 41.30500 29.85900
H  -1.08900 40.78000 30.14200
H  -1.90000 40.52100 28.54200
H  -0.91300 45.06600 29.91300
H  0.74200 45.21000 29.99200
H  -0.83700 45.14000 32.26100
H  0.83700 44.73900 32.19800
H  -5.07200 42.09200 23.89500
H  -4.72000 42.86400 25.63800
H  -4.54300 41.20900 25.22600
H  -5.38300 42.74300 21.66900
H  -4.95500 40.94600 21.96700
H  -4.84600 41.84000 20.38200
H  1.28300 44.17000 20.14700
H  4.04300 44.05200 21.00600
H  1.70800 42.40500 19.05100
H  2.22600 41.53500 20.55000
H  3.32100 42.55900 19.50100
H  2.51800 46.48100 22.13800
H  2.08500 46.10800 20.48100
H  3.74800 46.96700 19.62400
H  4.99300 46.17000 20.64600
H  4.12800 47.60400 21.17000
H  7.28200 44.09500 26.36400
H  6.64400 45.78900 26.34400
H  6.69100 44.69200 24.87800
H  3.03200 44.43700 30.22400
H  4.05800 42.76300 33.70700
H  4.88300 41.33200 32.86200
H  3.10600 41.50000 33.05600

