158

Mg 44.76700 5.03200 47.85000
C  42.47600 7.58500 47.69300
C  42.21200 2.76500 47.78000
C  46.97500 2.64600 47.33300
C  47.35700 7.49400 47.25600
N  42.67300 5.22500 47.50800
C  41.87400 6.36000 47.56900
C  40.34800 6.05600 47.28100
C  40.35100 4.46100 47.58400
C  41.85900 4.10900 47.63800
C  39.34200 3.93400 48.70900
C  39.81300 6.43900 45.89500
C  40.72800 7.06400 44.78500
H  40.39000 6.56200 43.33400
N  44.59600 2.92200 47.58900
C  43.46400 2.21300 47.65700
C  43.82700 0.81900 47.51400
C  45.25900 0.69100 47.58900
C  45.68600 2.12000 47.49000
C  42.84300 -0.21600 47.37500
C  45.97700 -0.68800 47.56900
O  45.37700 -1.76200 47.53700
C  47.49800 -0.80900 47.60400
N  46.91800 5.06800 47.53500
C  47.57300 3.88200 47.35000
C  49.05700 4.16600 47.12500
C  49.19900 5.72600 46.95100
C  47.77300 6.16100 47.33100
C  49.95900 3.68700 48.20700
C  49.64200 6.14200 45.51400
C  48.92000 5.45700 44.33500
N  44.96000 7.15900 47.65500
C  46.04600 8.00800 47.50100
C  45.61700 9.32800 47.45700
C  44.19900 9.25600 47.63000
C  43.89500 7.89400 47.68600
C  46.51700 10.47400 47.12900
C  42.99500 10.02800 47.68300
O  42.69400 11.24300 47.62100
C  41.81700 8.94100 47.75800
C  40.96400 9.26000 48.97600
O  40.93800 8.67600 50.07700
O  40.10700 10.25100 48.58900
C  38.98400 10.46900 49.48100
H  41.35800 2.09900 47.63500
H  47.77600 1.90600 47.26500
H  48.13100 8.21700 46.99300
H  39.73300 6.53800 48.04100
H  39.94700 3.92700 46.72300
H  38.49500 4.58600 48.92000
H  39.90800 3.64300 49.59400
H  39.02800 2.98200 48.28100
H  39.05500 7.19200 46.11100
H  39.39900 5.52300 45.47500
H  41.69200 6.66500 45.10100
H  40.70000 8.15400 44.79400
H  42.76800 -0.85300 48.25600
H  43.12100 -1.04500 46.72400
H  41.79700 0.00100 47.15700
H  47.86000 -0.26200 48.47500
H  47.88000 -0.34500 46.69400
H  47.79300 -1.85800 47.57000
H  49.29600 3.67300 46.18300
H  49.92900 6.12600 47.65400
H  49.36800 3.58100 49.11700
H  50.70100 4.38400 48.59500
H  50.38400 2.71200 47.97100
H  50.72200 5.99100 45.52300
H  49.53500 7.21300 45.34600
H  47.95000 5.02100 44.57200
H  49.42900 4.60300 43.88800
H  48.67200 6.09300 43.48500
H  47.23900 10.10400 46.40000
H  47.00700 10.79100 48.04900
H  45.92000 11.28300 46.70900
H  41.17300 8.96800 46.87900
H  39.28400 10.64600 50.51400
H  38.28600 9.63300 49.44200
H  38.35200 11.31100 49.19600
Mg 49.89100 44.61400 41.46600
C  46.66700 45.09500 40.17200
C  49.92700 41.48200 40.01400
C  53.26000 44.40800 41.82100
C  50.06900 48.05500 42.14300
N  48.44800 43.42800 40.31600
C  47.20000 43.78900 39.96500
C  46.50000 42.72500 39.07000
C  47.49500 41.44200 39.35500
C  48.68600 42.13600 39.88700
C  46.91600 40.39000 40.32900
C  46.47200 43.14900 37.57000
C  45.16200 43.15500 36.69900
H  45.34000 42.55500 35.34600
N  51.38400 43.04500 41.17700
C  51.20000 41.87100 40.54000
C  52.42500 41.09800 40.66500
C  53.44400 42.00000 41.09100
C  52.67600 43.22600 41.39600
C  52.40600 39.66100 40.15700
C  54.87800 41.64100 41.28300
O  55.22400 40.49100 41.03400
C  55.93000 42.56400 41.77800
N  51.38000 46.08000 41.94900
C  52.65200 45.66100 42.08000
C  53.54400 46.83300 42.55000
C  52.60700 48.08500 42.40000
C  51.27800 47.38100 42.21700
C  54.30000 46.62400 43.87600
C  52.95400 49.05700 41.17400
C  53.17800 50.53600 41.53600
N  48.56900 46.20500 41.42800
C  48.77200 47.57000 41.74400
C  47.57300 48.35400 41.41100
C  46.77100 47.37100 40.73900
C  47.38200 46.16500 40.80600
C  47.39600 49.86200 41.50800
C  45.54800 47.24400 39.94700
O  44.79600 48.11100 39.51200
C  45.39300 45.75500 39.52700
C  44.19600 45.23700 40.08600
O  44.10500 44.59500 41.13200
O  43.18600 45.51800 39.19600
C  41.90800 45.00900 39.51300
H  49.93600 40.44000 39.69000
H  54.33800 44.48900 41.97900
H  50.15000 49.12800 42.32800
H  45.50200 42.61100 39.49500
H  47.68600 40.88300 38.43900
H  47.31300 39.40500 40.08100
H  45.84200 40.56800 40.28400
H  47.21400 40.54400 41.36600
H  47.29000 42.60700 37.09500
H  46.93700 44.13300 37.51800
H  44.84500 44.17400 36.47900
H  44.33500 42.67500 37.22300
H  53.30500 39.12800 40.46800
H  52.61000 39.63600 39.08600
H  51.45700 39.17000 40.37200
H  55.62700 43.13300 42.65700
H  56.00800 43.21600 40.90900
H  56.89400 42.08100 41.93900
H  54.36200 46.73800 41.83600
H  52.51800 48.61800 43.34600
H  55.34800 46.78400 43.62200
H  54.00300 45.65800 44.28300
H  53.86500 47.32800 44.58500
H  52.12100 48.93900 40.48000
H  53.86300 48.62400 40.75500
H  54.11200 50.93700 41.14100
H  53.12900 50.69500 42.61300
H  52.33100 51.11700 41.17000
H  47.03300 49.99800 42.52600
H  46.76900 50.32000 40.74200
H  48.35400 50.37300 41.40600
H  45.42400 45.65000 38.44300
H  41.83700 44.77600 40.57600
H  41.59600 44.04400 39.11600
H  41.22100 45.80500 39.22800

