158

Mg 6.85000 53.01500 40.23500
C  6.00800 49.59600 40.07600
C  10.02800 52.18400 39.57300
C  7.43700 56.25700 39.93200
C  3.39200 53.61700 40.64000
N  7.82400 51.11400 39.78800
C  7.37400 49.81500 39.82200
C  8.49300 48.77800 39.69900
C  9.73700 49.67500 39.79100
C  9.18600 51.06800 39.65300
C  10.65100 49.54100 41.02200
C  8.52200 47.99100 38.33900
C  8.41300 48.90800 37.15400
H  7.49800 48.56100 35.98000
N  8.44500 54.05000 39.74800
C  9.73100 53.55700 39.61600
C  10.64700 54.62300 39.30700
C  9.92600 55.84600 39.28900
C  8.58000 55.44200 39.68300
C  12.12100 54.36000 38.97900
C  10.46700 57.24700 38.88500
O  11.64100 57.43000 38.50100
C  9.53600 58.37200 38.62600
N  5.59600 54.70200 40.17300
C  6.08300 55.97300 40.23500
C  5.08700 57.00300 40.43600
C  3.72900 56.19000 40.43000
C  4.26200 54.72200 40.42500
C  5.35500 57.83100 41.74400
C  2.77000 56.30700 39.17200
C  1.42500 56.81800 39.44500
N  5.07100 51.89600 40.44000
C  3.70600 52.28200 40.62200
C  2.89200 51.18400 40.80400
C  3.74500 50.03300 40.59300
C  5.07300 50.59100 40.37200
C  1.40200 51.16600 41.06500
C  3.74500 48.52900 40.44500
O  2.86200 47.63800 40.49900
C  5.24300 48.23100 40.19800
C  5.24700 47.40400 38.94100
O  4.98900 47.75400 37.80200
O  5.54700 46.14100 39.32900
C  5.71400 45.07800 38.32200
H  11.04400 51.91400 39.27700
H  7.57600 57.33900 39.90200
H  2.34000 53.89200 40.74200
H  8.40700 48.12100 40.56500
H  10.33400 49.52200 38.89200
H  10.48400 50.37500 41.70400
H  11.67800 49.60100 40.66100
H  10.37800 48.60400 41.50800
H  7.69000 47.29100 38.26000
H  9.51200 47.53700 38.31000
H  9.40700 49.00800 36.71900
H  8.10800 49.91900 37.42300
H  12.30600 54.16200 37.92300
H  12.32400 53.44200 39.53100
H  12.81400 55.08600 39.40300
H  10.04700 59.27000 38.27900
H  9.10700 58.59300 39.60300
H  8.71000 58.12700 37.95700
H  5.01500 57.70600 39.60600
H  3.17000 56.41800 41.33700
H  6.15800 57.43400 42.36500
H  4.45000 57.98700 42.33100
H  5.78000 58.75900 41.36300
H  2.61200 55.36600 38.64500
H  3.20200 57.01900 38.46800
H  1.33600 57.40600 40.35900
H  0.67800 56.02700 39.36900
H  1.14700 57.39900 38.56500
H  0.90200 51.64700 40.22400
H  1.17000 51.55600 42.05600
H  1.05300 50.13500 41.11300
H  5.69900 47.66700 41.01100
H  4.73300 44.71700 38.01000
H  6.25100 44.19900 38.67800
H  6.27100 45.41400 37.44700
Mg 10.45100 46.87200 25.29500
C  8.24500 47.07600 27.95700
C  12.75900 48.54900 27.19000
C  12.56600 46.57900 22.73200
C  7.70100 46.19500 23.08700
N  10.49000 47.63800 27.33000
C  9.53300 47.56600 28.28300
C  10.10300 48.18200 29.61500
C  11.30100 49.12500 29.15700
C  11.48000 48.42700 27.80800
C  10.92600 50.64000 29.15400
C  10.47400 47.06700 30.67100
C  9.74400 47.18100 32.03900
H  9.74300 45.99700 32.94800
N  12.50500 47.40300 25.00700
C  13.26100 48.05400 25.98800
C  14.59500 47.96400 25.50000
C  14.60900 47.33600 24.19900
C  13.17500 46.97800 23.98800
C  15.76200 48.49700 26.26600
C  15.66500 47.10700 23.30100
O  15.46700 46.60300 22.22300
C  17.07900 47.43300 23.65400
N  10.09000 46.61700 23.10900
C  11.19800 46.47900 22.31400
C  10.79600 46.04000 20.93900
C  9.25600 45.72100 21.02700
C  8.97600 46.18200 22.48800
C  11.21000 46.97500 19.79800
C  8.90000 44.26100 20.62300
C  8.81800 43.31100 21.84100
N  8.38800 46.65700 25.42700
C  7.40900 46.44200 24.45000
C  6.10900 46.55900 25.06800
C  6.39800 46.68600 26.44800
C  7.76900 46.79000 26.65000
C  4.72600 46.46500 24.36600
C  5.80200 46.77100 27.83200
O  4.58900 46.71100 28.08800
C  6.96600 47.03500 28.84500
C  7.06300 45.89100 29.76000
O  7.78600 44.95700 29.67000
O  6.22800 46.12900 30.82900
C  6.22300 45.13400 31.94400
H  13.42200 49.10600 27.85500
H  13.18500 46.39900 21.85000
H  6.87900 45.92800 22.41900
H  9.31700 48.85300 29.96100
H  12.20700 48.97600 29.74500
H  9.89400 50.81000 29.46200
H  11.05200 51.08700 28.16800
H  11.67400 51.04000 29.83700
H  11.53200 47.13500 30.92400
H  10.27000 46.07400 30.27100
H  8.71400 47.53800 32.02600
H  10.27000 47.96700 32.58200
H  16.43200 47.65500 26.43900
H  15.42600 48.77500 27.26400
H  16.13300 49.38500 25.75400
H  17.73200 47.19300 22.81500
H  17.29700 46.71400 24.44400
H  17.19000 48.44700 24.03600
H  11.42700 45.17700 20.72400
H  8.62600 46.36600 20.41600
H  11.77400 47.78800 20.25500
H  10.25900 47.17800 19.30400
H  11.96100 46.41000 19.24600
H  9.57300 43.93200 19.83200
H  7.95200 44.37600 20.09600
H  9.22500 42.36500 21.48600
H  7.79800 43.17900 22.20200
H  9.38100 43.71100 22.68500
H  4.58000 46.99600 23.42600
H  3.96100 46.56500 25.13600
H  4.67100 45.39200 24.18200
H  6.80200 47.91100 29.47300
H  6.17000 45.61200 32.92300
H  6.97400 44.34700 32.00300
H  5.28700 44.61300 31.74200

