158

Mg 34.57700 48.98600 26.25700
C  35.02000 46.62200 28.85000
C  33.85600 51.25300 28.62300
C  33.86600 50.96500 23.80000
C  34.89000 46.23500 24.01200
N  34.65500 48.99000 28.52700
C  34.78700 47.90700 29.31400
C  34.76800 48.36400 30.81200
C  34.20400 49.79100 30.77300
C  34.25900 50.05200 29.19900
C  32.78800 49.93700 31.27100
C  36.17700 48.27200 31.43100
C  36.15000 47.78800 32.89000
H  36.06800 48.87300 33.94300
N  34.00500 50.89700 26.18200
C  33.83000 51.71900 27.24000
C  33.61800 53.09500 26.83400
C  33.58000 53.02800 25.36900
C  33.83500 51.59100 25.06000
C  33.36400 54.28600 27.74400
C  33.20400 54.08800 24.40800
O  33.22100 53.85800 23.21100
C  32.81500 55.45000 24.82000
N  34.27100 48.57600 24.24500
C  34.09300 49.62400 23.42200
C  33.89600 49.16100 21.97800
C  34.31000 47.65900 22.04500
C  34.59000 47.50500 23.52000
C  32.43800 49.27600 21.38100
C  35.55500 47.41500 21.18000
C  36.98100 48.09300 21.41500
N  34.93200 46.89500 26.36000
C  35.00800 45.94200 25.34000
C  35.39200 44.66700 25.90500
C  35.40300 44.90500 27.34500
C  35.10300 46.25400 27.58400
C  35.59100 43.49300 25.03800
C  35.57500 44.24100 28.57500
O  35.77600 43.04700 28.91400
C  35.40900 45.41300 29.63000
C  34.37600 45.07100 30.65600
O  33.16900 45.01300 30.49700
O  35.00000 44.68000 31.84800
C  34.01300 44.28200 32.84300
H  33.78000 52.10100 29.30600
H  33.70200 51.63900 22.95700
H  34.95500 45.36900 23.35100
H  34.04700 47.73100 31.33000
H  34.97800 50.37900 31.26600
H  32.47600 49.06800 31.84900
H  31.97500 50.05800 30.55500
H  32.63800 50.81800 31.89600
H  36.60000 49.27500 31.38100
H  36.86000 47.61900 30.88900
H  37.10700 47.28700 33.03900
H  35.35100 47.07600 33.09800
H  32.38000 54.68900 27.50100
H  34.03600 55.11300 27.51000
H  33.26900 54.12900 28.81800
H  31.91200 55.58700 25.41500
H  32.65200 56.03700 23.91600
H  33.67100 55.84200 25.36900
H  34.64800 49.76500 21.47100
H  33.46100 47.00200 21.85500
H  32.07500 48.27500 21.14600
H  32.52400 49.87300 20.47400
H  31.79700 49.73900 22.13100
H  35.32400 47.60100 20.13100
H  35.76900 46.35300 21.29200
H  37.36700 48.46700 20.46700
H  37.62500 47.27600 21.74200
H  36.96100 48.82500 22.22200
H  34.74500 43.22700 24.40500
H  35.75100 42.69700 25.76500
H  36.56300 43.60800 24.55700
H  36.40800 45.49600 30.05900
H  33.62700 45.13900 33.39500
H  34.35600 43.61200 33.63100
H  33.21500 43.67200 32.41800
Mg -2.09600 34.74000 27.01600
C  -3.91900 32.60200 29.21300
C  -1.40800 36.81200 29.57100
C  -0.52800 36.76600 24.86700
C  -3.03800 32.67100 24.41300
N  -2.80900 34.81100 29.15900
C  -3.28600 33.73600 29.87300
C  -3.02000 33.93400 31.34400
C  -2.54600 35.44400 31.44800
C  -2.26700 35.76600 29.99400
C  -3.35600 36.47200 32.29900
C  -2.00900 32.90200 31.93600
C  -2.12600 32.61100 33.48100
H  -3.03400 33.52500 34.34700
N  -1.11200 36.59800 27.17300
C  -0.86200 37.30900 28.36400
C  -0.11500 38.47600 28.05500
C  0.07600 38.48200 26.65100
C  -0.60100 37.28000 26.16100
C  0.30800 39.52300 29.11000
C  0.80600 39.46100 25.76400
O  0.76400 39.44600 24.53600
C  1.62400 40.54600 26.41900
N  -1.71500 34.63500 25.03800
C  -0.91700 35.57400 24.37600
C  -0.65200 35.19300 22.88000
C  -1.47700 33.85800 22.78100
C  -2.08800 33.67200 24.18000
C  -0.90500 36.26100 21.75500
C  -0.56700 32.61400 22.33400
C  0.62100 32.17600 23.29900
N  -3.30500 33.12600 26.80600
C  -3.59300 32.40700 25.67600
C  -4.63000 31.38700 25.89300
C  -4.72900 31.37700 27.30800
C  -3.95600 32.47700 27.79600
C  -5.23600 30.48800 24.87300
C  -5.30100 30.71000 28.50800
O  -6.18700 29.87700 28.56600
C  -4.72000 31.43000 29.80400
C  -5.85000 31.93800 30.68100
O  -6.69000 32.74500 30.28000
O  -5.85000 31.26400 31.84800
C  -6.93700 31.60800 32.80700
H  -1.01200 37.38200 30.41400
H  0.16500 37.28100 24.19900
H  -3.33900 32.13100 23.51300
H  -4.00000 33.86800 31.81700
H  -1.60100 35.49300 31.99000
H  -4.24700 36.14300 32.83300
H  -3.70100 37.28500 31.66000
H  -2.65700 36.90200 33.01700
H  -0.96800 33.20300 31.81900
H  -2.09100 32.02500 31.29500
H  -1.18500 32.60200 34.03200
H  -2.57500 31.61900 33.52400
H  1.39500 39.51700 29.19500
H  -0.00400 39.18400 30.09700
H  -0.06600 40.53800 28.98200
H  0.95500 41.30100 26.83200
H  2.27100 41.11400 25.75000
H  2.26300 40.13500 27.20000
H  0.41500 34.97500 22.93200
H  -2.27000 34.00500 22.04800
H  -1.18700 37.22700 22.17500
H  -1.64100 35.98200 21.00200
H  -0.01400 36.38200 21.13800
H  -0.01600 32.94600 21.45400
H  -1.21700 31.79400 22.02700
H  1.62400 32.17100 22.87200
H  0.40300 31.16000 23.62900
H  0.64700 32.76000 24.21900
H  -4.63500 30.15300 24.02800
H  -6.08000 30.95000 24.35900
H  -5.55500 29.62500 25.45700
H  -3.98600 30.85700 30.37100
H  -7.77900 32.15900 32.38900
H  -6.50900 32.27300 33.55800
H  -7.22300 30.68500 33.31200

