158

Mg -1.74800 17.51400 26.96000
C  -2.53300 15.43400 29.84500
C  -2.21800 20.12000 29.06000
C  -1.18900 19.36100 24.36800
C  -2.19700 14.70200 25.00200
N  -2.11300 17.65000 29.30100
C  -2.45000 16.73100 30.26400
C  -2.65700 17.35000 31.63200
C  -2.79400 18.88600 31.21000
C  -2.35900 18.92100 29.74000
C  -4.15800 19.49500 31.63200
C  -1.56000 17.15900 32.70800
C  -2.02700 16.75100 34.15400
H  -1.29900 17.25700 35.40000
N  -1.68300 19.52400 26.75400
C  -1.90400 20.51300 27.71000
C  -1.66100 21.78200 27.18600
C  -1.24800 21.56000 25.81300
C  -1.35900 20.13000 25.57500
C  -1.82600 23.02600 27.99300
C  -0.77300 22.52100 24.75700
O  -0.33300 22.20300 23.61200
C  -0.74200 24.04700 24.98100
N  -1.68200 17.09900 24.98900
C  -1.45000 18.01800 24.06400
C  -1.48200 17.46600 22.60000
C  -1.84900 15.98100 22.83000
C  -1.86600 15.88700 24.39400
C  -2.46000 18.12800 21.71700
C  -0.81800 15.10600 22.15800
C  0.63800 15.25500 22.68800
N  -2.17100 15.46400 27.28300
C  -2.33700 14.45400 26.35700
C  -2.54100 13.20500 27.03800
C  -2.69800 13.58600 28.40800
C  -2.46900 14.94000 28.49600
C  -2.73000 11.86100 26.35100
C  -2.96900 13.01300 29.71800
O  -3.31200 11.89400 30.01600
C  -2.72800 14.19000 30.67600
C  -1.49300 13.84400 31.47600
O  -0.35600 14.03800 31.14000
O  -1.81000 13.22000 32.66400
C  -0.64100 12.57200 33.38000
H  -2.52800 20.99500 29.63600
H  -1.07400 20.00100 23.49100
H  -2.39800 13.77900 24.45400
H  -3.58400 17.00200 32.08700
H  -2.10100 19.59000 31.67100
H  -4.53400 20.12700 30.82700
H  -4.05500 20.20600 32.45200
H  -4.79300 18.66900 31.95300
H  -0.87000 18.00300 32.73200
H  -0.86300 16.39500 32.36400
H  -2.00700 15.66200 34.20800
H  -3.06600 17.08000 34.14500
H  -0.99500 23.27500 28.65300
H  -2.69900 22.98600 28.64500
H  -1.98500 23.96000 27.45400
H  -0.33600 24.16600 25.98600
H  -1.78200 24.26800 24.74200
H  -0.03000 24.61300 24.38200
H  -0.48400 17.46100 22.16300
H  -2.81000 15.61500 22.47100
H  -3.30700 18.31700 22.37700
H  -2.64400 17.57900 20.79400
H  -1.97900 19.06200 21.42600
H  -0.80800 15.26800 21.08100
H  -1.18200 14.08100 22.23600
H  0.65000 16.01300 23.47200
H  1.20400 15.71800 21.87800
H  1.02800 14.35000 23.15400
H  -3.04300 11.10200 27.06800
H  -1.80700 11.49400 25.90100
H  -3.54900 11.93500 25.63500
H  -3.49100 14.27500 31.45000
H  -0.67600 12.78900 34.44800
H  0.38900 12.82900 33.13100
H  -0.74400 11.48900 33.30600
Mg 49.24700 36.08500 27.58800
C  47.48300 34.25400 30.06200
C  49.97400 38.53900 30.05900
C  51.13100 37.67000 25.30500
C  48.26300 33.81600 25.26100
N  48.69100 36.33300 29.81800
C  48.08000 35.41300 30.61500
C  48.09100 35.90300 32.10400
C  48.54400 37.37100 31.92700
C  49.03900 37.47400 30.45000
C  47.38700 38.39400 32.41800
C  49.19600 34.95500 32.87100
C  49.08000 34.72600 34.39500
H  48.29600 35.64300 35.24700
N  50.33400 37.86900 27.63300
C  50.52700 38.71000 28.75000
C  51.41900 39.80300 28.41700
C  51.72300 39.61300 26.98600
C  51.06300 38.36000 26.56100
C  51.55200 40.94900 29.37500
C  52.47400 40.53200 26.05100
O  52.65000 40.35300 24.88200
C  53.27700 41.72300 26.67300
N  49.57400 35.84500 25.53400
C  50.42800 36.60400 24.81000
C  50.35900 36.31500 23.32500
C  49.44200 35.08400 23.23600
C  49.08800 34.83500 24.77800
C  49.86500 37.44400 22.48400
C  50.05800 33.79100 22.59600
C  49.51300 33.42000 21.19100
N  48.21700 34.30800 27.59200
C  47.83600 33.56900 26.56900
C  46.80000 32.58300 27.00400
C  46.67100 32.81200 28.35000
C  47.53000 33.89800 28.68700
C  46.16900 31.57300 26.15500
C  46.05600 32.35700 29.51900
O  45.27800 31.43800 29.68300
C  46.48600 33.34500 30.61900
C  46.85300 32.63700 31.92300
O  47.83700 31.93800 32.05100
O  45.85000 32.89200 32.81500
C  45.91600 31.98400 34.00800
H  50.18800 39.30500 30.80800
H  51.62000 38.16300 24.46200
H  47.81400 33.10800 24.56200
H  47.12500 35.77800 32.59300
H  49.49700 37.55900 32.42100
H  46.42600 37.88400 32.48400
H  47.30300 39.27400 31.78100
H  47.69200 38.70700 33.41700
H  50.22600 35.15700 32.57700
H  49.20400 33.95500 32.43500
H  50.10100 34.65100 34.76900
H  48.83300 33.68500 34.60100
H  52.19500 41.76300 29.04100
H  52.08600 40.63500 30.27200
H  50.62300 41.49200 29.54900
H  53.85900 41.44300 27.55100
H  52.59100 42.53200 26.92300
H  53.89000 42.07800 25.84400
H  51.36600 36.00200 23.05000
H  48.45600 35.20100 22.78700
H  49.10800 37.96000 23.07500
H  49.34700 37.06800 21.60200
H  50.71900 38.06900 22.22200
H  49.82800 32.90400 23.18700
H  51.13800 33.93200 22.58700
H  48.78800 34.13900 20.81100
H  49.06500 32.42800 21.24700
H  50.30100 33.51500 20.44300
H  45.25800 32.02300 25.76000
H  45.86600 30.76200 26.81700
H  46.82000 31.26400 25.33700
H  45.58000 33.92900 30.78000
H  45.32200 32.49300 34.76700
H  46.89200 31.72300 34.41700
H  45.36700 31.07800 33.75000

