158

Mg 2.76000 -1.09800 44.19200
C  6.07600 -0.63700 43.45600
C  1.98100 1.39800 41.88400
C  -0.52500 -2.01400 44.54000
C  3.64600 -4.23100 45.71000
N  3.89300 0.10200 42.75200
C  5.24000 0.26600 42.79600
C  5.70600 1.54800 42.05600
C  4.38300 2.07200 41.41100
C  3.32200 1.15100 42.09000
C  4.16600 3.52800 41.75800
C  6.77900 1.30600 40.84500
C  7.67200 2.56600 40.52200
H  7.37800 3.39200 39.23900
N  0.99500 -0.17500 43.49000
C  0.88800 0.69600 42.53000
C  -0.59300 0.89500 42.26400
C  -1.28600 0.11200 43.10000
C  -0.31400 -0.75600 43.76500
C  -1.05900 1.87200 41.19800
C  -2.80600 -0.05100 43.19600
O  -3.60400 0.58800 42.50600
C  -3.50200 -1.06400 43.96600
N  1.70800 -2.84000 45.03700
C  0.34400 -2.93200 45.11000
C  -0.14200 -4.24300 45.66300
C  1.20300 -5.11800 45.84400
C  2.30000 -4.04200 45.49200
C  -0.95100 -4.01800 46.93100
C  1.35600 -6.37500 44.90700
C  2.33400 -7.50600 45.27800
N  4.44400 -2.20700 44.58900
C  4.65800 -3.37200 45.22800
C  6.08500 -3.60800 45.40300
C  6.69600 -2.53800 44.81000
C  5.64900 -1.74500 44.22900
C  6.81700 -4.75800 46.08500
C  7.94600 -1.83100 44.54800
O  9.06100 -2.13100 44.87700
C  7.59200 -0.58900 43.67000
C  7.97100 0.57600 44.41000
O  7.56100 0.69800 45.54300
O  8.68700 1.47500 43.67800
C  9.08700 2.75100 44.40900
H  1.71800 2.16700 41.15500
H  -1.55500 -2.37400 44.51100
H  3.82400 -5.19000 46.20000
H  6.19300 2.31400 42.66000
H  4.45600 1.95000 40.33000
H  4.99000 4.12200 41.36200
H  4.10400 3.63300 42.84100
H  3.23100 3.82600 41.28300
H  6.26100 0.92500 39.96500
H  7.48100 0.52500 41.13600
H  8.66200 2.11200 40.48200
H  7.75300 3.25300 41.36500
H  -0.50600 1.58500 40.30400
H  -0.88000 2.88100 41.57000
H  -2.11100 1.85000 40.91400
H  -4.52000 -0.76300 44.21300
H  -3.16400 -1.10600 45.00100
H  -3.43000 -2.07700 43.57100
H  -0.74000 -4.67700 44.86100
H  1.34500 -5.44200 46.87600
H  -2.01800 -4.15300 46.75800
H  -0.82900 -2.95700 47.14900
H  -0.70900 -4.73900 47.71200
H  1.79400 -5.98800 43.98700
H  0.34100 -6.71300 44.69900
H  1.77000 -8.42300 45.11100
H  2.42800 -7.53100 46.36400
H  3.33800 -7.46800 44.85500
H  6.21500 -5.29600 46.81800
H  7.50200 -4.16300 46.68900
H  7.31200 -5.47600 45.43200
H  7.99100 -0.67700 42.65900
H  9.03000 3.57700 43.70000
H  10.13500 2.68200 44.70000
H  8.32200 2.99800 45.14500
Mg 53.85700 23.92900 43.73700
C  51.06600 26.07200 43.24100
C  51.93300 21.29700 42.71900
C  56.64500 21.91100 44.04600
C  55.69600 26.62900 44.82500
N  51.77000 23.78700 42.89800
C  50.81800 24.79800 42.65700
C  49.54900 24.18000 42.01200
C  49.78500 22.66300 42.26300
C  51.30100 22.55500 42.64700
C  48.95900 22.03600 43.41200
C  49.28600 24.61300 40.57200
C  50.48400 24.61600 39.63600
H  50.13600 24.93400 38.17300
N  54.26100 21.91400 43.34300
C  53.30700 21.00000 42.99100
C  53.95200 19.71700 42.83100
C  55.23900 19.85400 43.21500
C  55.43900 21.26900 43.48400
C  53.20300 18.43100 42.42400
C  56.23300 18.69000 43.16900
O  55.83400 17.54600 43.07400
C  57.67300 19.00400 42.97100
N  55.83300 24.25100 44.22100
C  56.79700 23.28000 44.26200
C  58.11800 23.76000 44.94200
C  57.83100 25.30100 45.07800
C  56.38300 25.43700 44.60000
C  58.54700 23.12100 46.29900
C  58.84300 26.30900 44.37200
C  59.80200 27.13300 45.28000
N  53.47800 25.87000 44.18000
C  54.31800 26.88500 44.64900
C  53.59900 28.06600 44.89700
C  52.34200 27.83600 44.29400
C  52.30700 26.46000 43.90100
C  54.12200 29.31300 45.43400
C  50.93900 28.34800 44.11200
O  50.34500 29.40200 44.38000
C  50.22300 27.30700 43.19400
C  50.00800 27.90400 41.87000
O  50.91300 28.21100 41.14700
O  48.68400 28.13300 41.61700
C  48.30500 28.68100 40.31800
H  51.39500 20.40400 42.39400
H  57.54300 21.37800 44.36500
H  56.43100 27.36900 45.14600
H  48.63500 24.51000 42.50700
H  49.71500 21.96200 41.43100
H  48.36900 22.78500 43.94100
H  49.60300 21.51800 44.12200
H  48.38300 21.25800 42.91000
H  48.81500 25.58500 40.42600
H  48.58900 23.89300 40.14200
H  50.84900 23.59000 39.66900
H  51.16000 25.35500 40.06500
H  53.23700 17.61600 43.14700
H  53.63500 18.15500 41.46200
H  52.14700 18.56900 42.18700
H  58.25900 18.99600 43.89000
H  57.89900 19.88300 42.36800
H  57.97400 18.24500 42.24900
H  58.89600 23.65000 44.18600
H  57.70900 25.59800 46.12000
H  57.83200 22.35300 46.59300
H  58.61500 23.84200 47.11400
H  59.52000 22.67600 46.09000
H  58.28700 26.92500 43.66500
H  59.39600 25.62000 43.73400
H  59.94600 28.17900 45.00800
H  60.73800 26.58300 45.18700
H  59.51200 27.01300 46.32300
H  53.49400 30.13800 45.09900
H  55.16300 29.49700 45.16900
H  54.10300 29.32500 46.52300
H  49.34100 27.24000 43.83200
H  49.12900 28.92400 39.64700
H  47.60300 29.50700 40.43400
H  47.69200 27.83300 40.01300

