158

Mg 9.25500 4.12100 27.94400
C  10.28400 2.45100 30.89400
C  7.46300 6.29700 29.91600
C  8.06500 5.34800 25.20300
C  11.16100 1.75600 26.09900
N  8.75400 4.19300 30.09700
C  9.41100 3.51400 31.15700
C  9.00700 4.08000 32.58800
C  8.06000 5.26800 32.17100
C  8.06500 5.27000 30.61300
C  6.60000 5.35200 32.76700
C  10.29700 4.38300 33.38500
C  10.12800 5.26500 34.63400
H  10.70600 4.78600 35.93700
N  8.04100 5.70700 27.57400
C  7.34800 6.49700 28.47800
C  6.42600 7.38900 27.83700
C  6.66200 7.16000 26.43100
C  7.62200 6.02100 26.32400
C  5.37300 8.29000 28.56400
C  6.13200 7.89600 25.28100
O  6.23800 7.62700 24.08900
C  5.39900 9.19700 25.63100
N  9.56500 3.54700 25.97600
C  8.94400 4.32400 25.08600
C  9.29600 3.82300 23.66000
C  10.53300 2.84500 23.90400
C  10.43700 2.71100 25.39300
C  8.05600 3.09800 23.03500
C  11.86400 3.54000 23.51000
C  12.84200 2.60600 22.79100
N  10.41100 2.36500 28.35700
C  11.08900 1.51200 27.45700
C  11.61600 0.47000 28.23300
C  11.42100 0.83100 29.55000
C  10.67400 1.98400 29.63100
C  12.34800 -0.68700 27.59200
C  11.80800 0.47400 30.88700
O  12.47000 -0.47200 31.29000
C  11.07500 1.55100 31.81500
C  10.22100 0.90100 32.81000
O  9.08600 0.46400 32.62500
O  10.91700 0.77800 33.99200
C  10.31000 -0.05300 34.98300
H  6.97200 7.11200 30.45200
H  7.66500 5.77000 24.27900
H  11.71500 0.97700 25.57300
H  8.44400 3.23400 32.98500
H  8.43900 6.23800 32.49300
H  6.21500 4.34100 32.63400
H  5.97400 6.16600 32.40300
H  6.59200 5.37700 33.85600
H  10.82900 4.98300 32.64600
H  10.76400 3.43900 33.66500
H  9.08300 5.53700 34.77900
H  10.65700 6.19800 34.44000
H  5.40500 7.93500 29.59400
H  4.39700 8.08600 28.12200
H  5.54100 9.36500 28.51300
H  4.37200 8.96200 25.91100
H  5.45600 9.78300 24.71400
H  5.88500 9.62000 26.51000
H  9.61700 4.62700 22.99900
H  10.41600 1.86800 23.43500
H  7.16200 3.15300 23.65600
H  8.38300 2.08200 22.81300
H  7.79000 3.56900 22.08900
H  12.47700 4.00100 24.28500
H  11.59300 4.35700 22.84100
H  13.54600 2.45100 23.60900
H  13.40500 2.99200 21.94100
H  12.37700 1.69500 22.41500
H  12.22100 -1.50600 28.29900
H  13.43300 -0.61600 27.66300
H  11.87100 -0.87100 26.62900
H  11.87100 2.10600 32.31200
H  9.74300 0.64000 35.60600
H  11.09100 -0.49600 35.60000
H  9.68200 -0.87800 34.64700
Mg 36.73400 2.45700 30.19800
C  33.90300 3.22300 32.37100
C  38.66100 2.48000 32.87800
C  39.15200 1.54400 28.13500
C  34.48500 2.70600 27.38700
N  36.30500 2.87300 32.36000
C  35.10000 3.02600 33.07700
C  35.29400 2.88800 34.62100
C  36.89100 2.90100 34.70400
C  37.30400 2.77100 33.20900
C  37.38700 4.23600 35.39100
C  34.56000 1.68000 35.22800
C  34.25200 1.66500 36.80300
H  34.88300 2.80200 37.72900
N  38.75600 2.20800 30.41600
C  39.33000 2.23500 31.60900
C  40.76400 1.88600 31.46600
C  40.96700 1.50100 30.09700
C  39.59500 1.78200 29.46400
C  41.66200 1.87100 32.68900
C  42.14500 0.82300 29.33400
O  42.07300 0.69600 28.08800
C  43.34200 0.25100 30.09300
N  36.81700 2.32600 28.00200
C  37.94000 1.79800 27.46700
C  37.76900 1.54000 25.97200
C  36.25100 1.75900 25.73700
C  35.81500 2.30600 27.09600
C  38.74800 2.41400 25.12400
C  35.49600 0.48600 25.22700
C  35.04800 -0.57200 26.25200
N  34.63500 2.78900 29.84100
C  33.92000 2.94300 28.67400
C  32.55800 3.28400 28.98600
C  32.55000 3.40300 30.38100
C  33.82500 3.11300 30.87800
C  31.47300 3.39100 27.97600
C  31.69700 3.79800 31.53400
O  30.50100 4.21300 31.56000
C  32.50000 3.62000 32.84400
C  32.51500 4.83100 33.75200
O  32.72200 6.01800 33.40100
O  32.02500 4.56100 35.02400
C  32.23700 5.61600 35.97700
H  39.32500 2.66200 33.72600
H  39.72600 0.91200 27.45400
H  33.89000 2.95000 26.50500
H  34.89300 3.68000 35.25500
H  37.17900 2.07700 35.35700
H  37.52500 4.25600 36.47200
H  36.78200 5.09900 35.11300
H  38.28800 4.56600 34.87400
H  35.10400 0.77800 34.94700
H  33.65000 1.55500 34.64000
H  34.52600 0.64200 37.06100
H  33.19200 1.64900 37.05900
H  41.27300 1.18100 33.43800
H  41.70600 2.88300 33.09300
H  42.67100 1.58900 32.39200
H  43.04000 -0.18000 31.04800
H  44.05600 1.07300 30.13800
H  43.78300 -0.48900 29.42400
H  38.07800 0.50600 25.81800
H  36.07900 2.55600 25.01300
H  39.38900 3.13300 25.63400
H  38.29800 2.96500 24.29800
H  39.39600 1.77100 24.52800
H  36.07300 -0.09400 24.50600
H  34.72300 0.85000 24.55100
H  35.51400 -1.54800 26.12200
H  34.01100 -0.71400 25.94700
H  35.04800 -0.20200 27.27700
H  31.17400 2.42100 27.57900
H  31.64900 4.10700 27.17400
H  30.50300 3.56800 28.44300
H  32.00600 2.89600 33.49400
H  33.23600 6.01000 35.78800
H  32.30000 5.33000 37.02700
H  31.54000 6.41000 35.70700

