158

Mg 49.20000 35.36400 27.63800
C  46.84700 34.08000 30.09100
C  49.78100 38.03500 29.74200
C  51.16100 36.71000 25.30000
C  48.22400 32.85000 25.52800
N  48.45300 35.91900 29.70900
C  47.48400 35.26900 30.47300
C  47.28200 36.07400 31.80400
C  48.05300 37.44200 31.51100
C  48.80100 37.17600 30.15400
C  47.23200 38.76900 31.56500
C  47.64300 35.47400 33.18800
C  48.85300 34.56700 33.26000
H  50.15400 35.22700 33.80500
N  50.30700 37.08300 27.54300
C  50.50600 38.06100 28.56200
C  51.24300 39.16100 28.05700
C  51.80800 38.77500 26.76700
C  51.10400 37.52400 26.49600
C  51.40700 40.49400 28.80700
C  52.87900 39.39100 26.04300
O  53.28900 38.88400 25.04500
C  53.39300 40.74400 26.43400
N  49.65800 34.85700 25.76000
C  50.45900 35.56300 24.94900
C  50.87900 34.86100 23.73700
C  49.76100 33.73600 23.76100
C  49.21200 33.72600 25.12900
C  50.74200 35.67900 22.39600
C  50.34100 32.37500 23.41000
C  49.58900 31.58700 22.24000
N  48.00600 33.65900 27.82000
C  47.63000 32.83900 26.82600
C  46.69800 31.80000 27.39800
C  46.38900 32.28200 28.68000
C  47.17800 33.38600 28.87000
C  46.03100 30.62500 26.65900
C  45.60200 31.98500 29.83000
O  44.85600 31.02100 30.05200
C  45.77600 33.20900 30.82900
C  45.95400 32.67200 32.23900
O  46.98800 32.10300 32.62300
O  44.87300 32.91000 33.04300
C  44.76300 32.41400 34.40900
H  49.88600 38.87800 30.42900
H  51.80200 37.08200 24.49700
H  47.94000 32.09100 24.79600
H  46.22100 36.32200 31.77300
H  48.77900 37.67000 32.29100
H  47.59800 39.43500 32.34600
H  46.17700 38.60800 31.78300
H  47.26600 39.22500 30.57600
H  46.78600 35.00700 33.67300
H  47.78600 36.32400 33.85400
H  49.06400 34.09200 32.30200
H  48.71900 33.73500 33.95200
H  50.68800 40.66300 29.60800
H  51.22600 41.26900 28.06200
H  52.43600 40.51800 29.16500
H  54.02800 40.74400 27.31900
H  52.59400 41.48500 26.39500
H  54.09200 41.14800 25.70100
H  51.88000 34.43300 23.78600
H  48.97600 34.07800 23.08700
H  51.54100 36.41000 22.27300
H  49.79100 36.21000 22.41200
H  50.91500 34.95900 21.59500
H  50.20700 31.71100 24.26400
H  51.38200 32.46400 23.09900
H  48.92700 30.85000 22.69500
H  50.29900 31.02200 21.63500
H  49.00500 32.23900 21.59000
H  46.84500 29.92400 26.47300
H  45.62100 31.08900 25.76200
H  45.18700 30.25700 27.24400
H  44.88900 33.83700 30.74500
H  44.14300 31.52400 34.52100
H  44.39200 33.20200 35.06500
H  45.78500 32.15000 34.68100
Mg 16.76700 51.59600 26.76200
C  18.65100 50.32300 29.33900
C  14.29500 52.45500 28.91700
C  14.98100 52.67400 24.11200
C  19.33300 50.57100 24.43400
N  16.43400 51.24500 28.80400
C  17.36500 50.72400 29.72400
C  16.86500 50.91600 31.16700
C  15.37200 51.33100 30.99200
C  15.34300 51.74600 29.49600
C  14.32100 50.17800 31.29200
C  17.66500 52.07700 31.79000
C  18.12600 51.80700 33.28000
H  17.24500 52.31300 34.37000
N  14.85100 52.52500 26.55200
C  14.01500 52.83200 27.55800
C  12.86600 53.54500 27.05100
C  13.12600 53.69300 25.64000
C  14.33600 52.90600 25.39400
C  11.70700 53.99100 27.91000
C  12.28300 54.36400 24.55500
O  12.56800 54.23900 23.35200
C  11.00800 55.14800 24.86600
N  17.21400 51.79000 24.53700
C  16.18500 52.10600 23.75900
C  16.62900 51.95400 22.27100
C  18.04900 51.44400 22.34600
C  18.22600 51.18400 23.80300
C  15.60700 51.01400 21.48900
C  19.11200 52.35800 21.68300
C  19.60800 51.94200 20.28100
N  18.60200 50.65500 26.79600
C  19.53900 50.30400 25.80800
C  20.65200 49.75300 26.39900
C  20.42600 49.75300 27.86200
C  19.13000 50.30700 27.98900
C  21.88000 49.27500 25.71000
C  20.81800 49.32000 29.16400
O  21.84900 48.83500 29.55600
C  19.68800 49.72800 30.21500
C  19.24400 48.55600 31.05500
O  18.51300 47.66700 30.66900
O  19.78500 48.63400 32.28100
C  19.43000 47.60300 33.27600
H  13.53300 52.59300 29.68800
H  14.46300 52.84900 23.16600
H  19.94300 50.06700 23.68200
H  16.93400 50.00200 31.75700
H  14.99900 52.19300 31.54400
H  13.32100 50.42500 30.93600
H  14.25100 50.07900 32.37600
H  14.66200 49.24100 30.85200
H  17.04200 52.97000 31.83800
H  18.59000 52.24500 31.23800
H  19.11600 52.25400 33.37200
H  18.33300 50.73900 33.34300
H  10.74300 53.59900 27.58700
H  11.69100 55.07700 28.00400
H  11.81400 53.68600 28.95100
H  11.30000 56.00700 25.47100
H  10.42600 54.46400 25.48400
H  10.55000 55.31100 23.89100
H  16.53500 52.93700 21.80900
H  18.14400 50.59500 21.66900
H  15.20300 51.62200 20.68000
H  14.81500 50.56400 22.08800
H  16.18300 50.34500 20.85100
H  19.96700 52.54800 22.33100
H  18.69700 53.36600 21.67200
H  19.47900 52.66600 19.47600
H  19.26200 50.96000 19.95600
H  20.65500 51.97000 20.58200
H  21.59000 48.36800 25.18000
H  22.53900 48.94700 26.51400
H  22.50300 49.91700 25.08800
H  20.02200 50.48200 30.92700
H  18.41300 47.21300 33.31600
H  19.60100 48.02700 34.26500
H  20.10800 46.76500 33.11200

