158

Mg 16.94800 -1.74400 27.76500
C  15.70900 0.64300 30.29000
C  18.74100 -3.21800 30.12200
C  18.60800 -3.31200 25.24700
C  15.47300 0.48000 25.38100
N  17.24400 -1.22700 29.91300
C  16.59500 -0.36200 30.79600
C  17.07600 -0.57400 32.26400
C  18.03800 -1.83000 32.19000
C  18.07100 -2.07300 30.61900
C  19.49000 -1.74700 32.86400
C  15.86500 -0.64200 33.16200
C  15.97900 -0.07600 34.56700
H  17.35700 0.31600 35.17500
N  18.44700 -3.12900 27.71400
C  19.04000 -3.65600 28.84500
C  19.88800 -4.74800 28.45200
C  19.82700 -4.83800 27.04100
C  18.90400 -3.75800 26.60600
C  20.59400 -5.64000 29.43900
C  20.31500 -5.89500 26.15500
O  20.18000 -5.83600 24.90600
C  21.04300 -7.13300 26.74100
N  16.93600 -1.54700 25.66200
C  17.70900 -2.32200 24.87000
C  17.70800 -1.82100 23.44600
C  16.53300 -0.71800 23.39300
C  16.30400 -0.56900 24.91300
C  19.16900 -1.35900 23.00800
C  15.29400 -1.14000 22.46000
C  14.09700 -1.78100 23.18200
N  15.67000 -0.00100 27.77400
C  15.17000 0.71200 26.74800
C  14.34300 1.85100 27.22500
C  14.58200 1.80800 28.63100
C  15.32800 0.68400 28.91000
C  13.47100 2.81600 26.43100
C  14.38400 2.49300 29.83500
O  13.79100 3.58600 29.99500
C  15.02600 1.77600 30.98400
C  16.07400 2.59300 31.68200
O  17.17800 2.78600 31.24400
O  15.49700 3.09800 32.87000
C  16.50000 3.93500 33.56600
H  19.02200 -3.79800 31.00400
H  19.26000 -3.66000 24.44300
H  15.06400 1.23200 24.70300
H  17.63600 0.35100 32.40300
H  17.59200 -2.71400 32.64400
H  19.48600 -0.81700 33.43100
H  20.25200 -1.59400 32.10000
H  19.64300 -2.53800 33.59900
H  15.53600 -1.65800 33.37800
H  15.00500 -0.18800 32.66900
H  15.57900 -0.80200 35.27500
H  15.32800 0.79700 34.61900
H  20.20800 -6.65900 29.39500
H  20.36300 -5.19300 30.40600
H  21.66200 -5.64000 29.22300
H  21.21200 -7.76600 25.87000
H  20.29400 -7.59500 27.38500
H  21.99800 -6.79100 27.13900
H  17.51300 -2.62800 22.73900
H  16.78400 0.21800 22.89400
H  19.90100 -1.44900 23.81000
H  19.14500 -0.30500 22.73000
H  19.59600 -2.00200 22.23900
H  15.56500 -1.76600 21.60900
H  14.86100 -0.21800 22.06900
H  13.28200 -1.07000 23.31400
H  14.48800 -2.08400 24.15300
H  13.79500 -2.70500 22.69000
H  13.03100 3.53000 27.12800
H  12.61400 2.28700 26.01500
H  14.03700 3.27200 25.61900
H  14.16100 1.46900 31.57200
H  16.73400 4.81300 32.96400
H  17.43200 3.42100 33.80500
H  16.06500 4.27000 34.50800
Mg 42.66500 41.61500 26.45000
C  41.91300 43.86500 29.18500
C  43.63000 39.35200 28.84700
C  44.01500 39.70400 24.06800
C  42.02300 44.07400 24.13900
N  42.76800 41.66700 28.71700
C  42.40500 42.61800 29.60200
C  42.42100 42.06500 31.05700
C  43.16500 40.70500 30.92500
C  43.16700 40.53900 29.39000
C  44.52800 40.66000 31.60300
C  41.08200 41.98800 31.75000
C  41.16300 41.78700 33.27300
H  40.53000 42.84900 34.14000
N  43.75100 39.72700 26.44600
C  43.81700 38.97800 27.52900
C  44.35300 37.66900 27.11400
C  44.55900 37.74800 25.70700
C  44.15300 39.09700 25.32300
C  44.56600 36.49500 28.05100
C  45.13000 36.80100 24.81500
O  45.42300 37.06900 23.65700
C  45.33700 35.35700 25.27400
N  43.15100 41.88900 24.45000
C  43.59500 40.91900 23.64800
C  43.53900 41.30400 22.18700
C  42.85700 42.63900 22.19900
C  42.66500 42.90600 23.66300
C  44.95900 41.24500 21.49900
C  41.39700 42.54700 21.49200
C  40.32100 41.72900 22.18700
N  41.98900 43.58700 26.51200
C  41.74900 44.45600 25.51400
C  41.35900 45.67500 26.05500
C  41.44200 45.55900 27.52400
C  41.74600 44.22300 27.73600
C  41.08800 46.89100 25.23200
C  41.31700 46.20200 28.80400
O  40.97500 47.33700 28.99400
C  41.50900 45.07800 29.92700
C  42.55100 45.62300 30.89700
O  43.78000 45.73500 30.60000
O  42.03700 46.02700 32.07100
C  43.03300 46.62800 32.98200
H  44.01200 38.65700 29.59700
H  44.49700 39.13600 23.27000
H  41.88300 44.84500 23.37800
H  42.99100 42.88700 31.49000
H  42.58500 39.97100 31.48300
H  44.56400 39.66200 32.03900
H  44.67500 41.27800 32.48900
H  45.36700 40.83400 30.92900
H  40.61200 41.07700 31.38100
H  40.49700 42.89700 31.60700
H  42.14600 41.58600 33.69900
H  40.64500 40.89100 33.61800
H  44.21600 35.57100 27.59200
H  44.08500 36.62000 29.02100
H  45.64600 36.43100 28.18000
H  45.87800 35.39300 26.21900
H  46.00200 34.96500 24.50400
H  44.39200 34.82500 25.17000
H  42.88600 40.49300 21.86500
H  43.53700 43.29800 21.65900
H  45.73300 40.94800 22.20600
H  45.28300 42.19000 21.06200
H  44.84900 40.45700 20.75300
H  41.55200 42.16300 20.48400
H  41.04600 43.55100 21.25400
H  39.50500 42.37900 22.50300
H  40.69900 41.13600 23.02000
H  39.89300 41.02400 21.47400
H  40.29800 47.48000 25.69700
H  40.78200 46.56500 24.23800
H  41.97400 47.52500 25.18300
H  40.59200 44.92300 30.49600
H  42.83300 46.24400 33.98200
H  43.01400 47.71300 33.08100
H  44.04700 46.24800 32.85700

