158

Mg 17.30600 -1.43900 27.90900
C  16.40700 0.57000 30.55800
C  19.14500 -3.41900 30.20900
C  18.65700 -3.09700 25.36500
C  16.07800 0.92100 25.80900
N  17.80300 -1.35200 30.10800
C  17.26100 -0.47900 31.01000
C  17.63800 -0.80100 32.40800
C  18.65900 -1.96400 32.20600
C  18.52400 -2.27700 30.74000
C  20.09900 -1.60500 32.57700
C  16.58000 -1.05300 33.53500
C  16.80200 -0.37800 34.90200
H  18.12600 0.02200 35.38000
N  18.48100 -3.09200 27.82900
C  19.18800 -3.74500 28.81300
C  19.81800 -4.88700 28.28400
C  19.59300 -4.86500 26.91200
C  18.90000 -3.59700 26.65200
C  20.71100 -5.82100 29.09800
C  20.00200 -5.95900 25.85100
O  19.77900 -5.86200 24.66300
C  20.69500 -7.27100 26.37700
N  17.23000 -1.19900 25.82400
C  17.96500 -1.97200 25.00800
C  17.98200 -1.28500 23.58700
C  16.84900 -0.19800 23.61000
C  16.70300 -0.12200 25.13400
C  19.38000 -0.85000 23.07000
C  15.47600 -0.52800 22.91300
C  15.41000 -0.19300 21.38200
N  16.43800 0.34400 28.09700
C  15.94000 1.16800 27.18100
C  15.38100 2.42700 27.76300
C  15.55000 2.16700 29.11500
C  16.16500 0.90600 29.30500
C  14.61500 3.58000 27.10700
C  15.21900 2.72300 30.42000
O  14.55500 3.71000 30.73300
C  15.78300 1.70300 31.39000
C  16.77500 2.52100 32.23100
O  17.73500 3.07500 31.78400
O  16.33400 2.70100 33.56900
C  17.07200 3.65500 34.41600
H  19.74800 -4.02500 30.88900
H  19.13200 -3.63600 24.54200
H  15.67200 1.63600 25.09000
H  18.18300 0.10900 32.65700
H  18.42900 -2.87700 32.75600
H  20.56000 -2.41300 33.14500
H  20.13400 -0.70200 33.18600
H  20.76800 -1.47300 31.72600
H  16.33400 -2.10900 33.64500
H  15.67700 -0.60500 33.12000
H  16.32500 -1.03800 35.62700
H  16.34000 0.60700 34.96500
H  20.11600 -6.52300 29.68100
H  21.15000 -5.19300 29.87300
H  21.54400 -6.40900 28.71000
H  21.70600 -7.01400 26.69400
H  20.78100 -8.08100 25.65200
H  20.03400 -7.65500 27.15400
H  17.61800 -2.00400 22.85300
H  17.16300 0.77400 23.22900
H  19.38700 0.20200 22.78500
H  19.78300 -1.44200 22.24800
H  20.11200 -0.95000 23.87200
H  14.57700 -0.16400 23.40900
H  15.52000 -1.60800 23.05100
H  16.39400 0.15900 21.07100
H  14.58600 0.49200 21.18500
H  15.23100 -1.08500 20.78100
H  13.60100 3.27800 26.84800
H  15.06700 3.84400 26.15100
H  14.64600 4.47300 27.73200
H  15.03300 1.39900 32.12000
H  16.90200 4.67200 34.06100
H  18.12400 3.37700 34.35100
H  16.80900 3.51300 35.46400
Mg 47.98400 15.44700 28.18700
C  45.81000 15.38900 30.87100
C  50.03700 17.50000 29.79700
C  49.86600 15.53900 25.29900
C  45.42900 13.89800 26.16200
N  47.87300 16.36700 30.09100
C  46.96400 16.16700 31.09100
C  47.50400 16.74300 32.42000
C  48.50600 17.79200 31.89500
C  48.84200 17.26500 30.49700
C  47.99300 19.29700 31.88500
C  48.02300 15.73700 33.46400
C  47.81100 15.98000 35.03000
H  49.09800 16.12200 35.80400
N  49.79000 16.27000 27.68800
C  50.49700 17.11600 28.47100
C  51.68800 17.43300 27.80700
C  51.67900 16.82500 26.52600
C  50.44000 16.08600 26.44600
C  52.68600 18.38300 28.40900
C  52.79100 16.82500 25.41700
O  52.63700 16.17600 24.35200
C  54.10400 17.55000 25.65200
N  47.63000 14.98900 25.91400
C  48.66600 14.95100 25.04100
C  48.31100 14.25100 23.70900
C  46.81500 13.85300 24.00100
C  46.59100 14.24300 25.44200
C  48.41200 15.16800 22.46000
C  46.51700 12.33800 23.61500
C  46.92600 11.29700 24.64300
N  46.06800 14.71400 28.33200
C  45.18400 14.08300 27.49200
C  43.94900 13.79800 28.28200
C  44.19000 14.27500 29.57200
C  45.48300 14.85800 29.58800
C  42.72700 13.07900 27.75100
C  43.56600 14.40300 30.87200
O  42.48800 14.09400 31.27800
C  44.65000 15.10200 31.80700
C  44.01000 16.22800 32.50000
O  43.46200 17.15200 31.91200
O  43.85600 15.86700 33.76900
C  42.98100 16.74100 34.60800
H  50.63600 18.12800 30.46000
H  50.52100 15.49900 24.42600
H  44.73300 13.19300 25.70300
H  46.65500 17.27900 32.84400
H  49.40300 17.79700 32.51400
H  48.02300 19.62500 30.84600
H  48.74100 19.90500 32.39500
H  46.96300 19.37100 32.23500
H  49.08700 15.51700 33.37700
H  47.56500 14.77700 33.22400
H  47.17800 15.19500 35.44400
H  47.20900 16.85800 35.26500
H  52.51500 18.36800 29.48500
H  52.67600 19.32300 27.85900
H  53.70500 18.05500 28.20200
H  53.98900 18.59400 25.94300
H  54.57100 17.56200 24.66700
H  54.65800 17.00000 26.41300
H  48.90300 13.37900 23.43100
H  46.09100 14.39300 23.39000
H  48.77000 16.14900 22.77400
H  47.45500 15.22000 21.94100
H  49.15100 14.73200 21.78700
H  46.83200 12.06700 22.60700
H  45.43100 12.27500 23.55400
H  47.67400 11.72600 25.31100
H  47.42000 10.46700 24.13800
H  46.09500 11.03300 25.29600
H  42.59800 13.06100 26.66800
H  41.91900 13.49500 28.35300
H  42.70600 12.02400 28.02600
H  45.04100 14.36500 32.50800
H  42.53500 16.05700 35.33000
H  42.15000 17.20800 34.07900
H  43.46100 17.50000 35.22600

