158

Mg 48.14700 16.04600 28.71800
C  46.12400 16.08300 31.55700
C  50.40200 18.10500 30.53000
C  49.64200 17.01700 25.83100
C  45.54300 14.71200 26.98700
N  48.35000 16.83800 30.88700
C  47.35100 16.73200 31.80300
C  47.83800 17.29700 33.09900
C  48.94900 18.28600 32.59100
C  49.27600 17.72400 31.21600
C  48.64000 19.78500 32.62000
C  48.22800 16.07600 34.03300
C  47.74000 16.28300 35.45800
H  47.32700 17.65500 35.97600
N  49.81600 17.27200 28.31900
C  50.75000 17.82100 29.17800
C  51.87500 18.36900 28.45700
C  51.60700 18.18700 27.08200
C  50.25000 17.46000 27.02700
C  53.09800 19.02000 29.12000
C  52.40500 18.63400 25.81700
O  52.06500 18.35700 24.69300
C  53.66000 19.57600 25.95000
N  47.59300 16.05700 26.72100
C  48.40000 16.36600 25.72400
C  47.96800 15.90900 24.35800
C  46.81300 15.01100 24.71800
C  46.64800 15.19100 26.23300
C  47.49300 17.06300 23.45900
C  47.12200 13.46500 24.48900
C  45.95700 12.64700 23.94300
N  46.28700 15.19200 29.23200
C  45.34800 14.62900 28.39600
C  44.20700 14.15500 29.15500
C  44.45300 14.64400 30.46700
C  45.67500 15.40100 30.43500
C  42.93200 13.63300 28.52600
C  43.88500 14.90300 31.75600
O  42.86700 14.55300 32.30600
C  45.05000 15.72500 32.56200
C  44.39700 16.84500 33.33100
O  44.04900 17.93800 32.84300
O  44.25900 16.44900 34.61000
C  43.33700 17.34300 35.37900
H  51.14200 18.67500 31.09500
H  50.25600 17.16500 24.94000
H  44.71800 14.18700 26.50100
H  47.05100 17.92700 33.51300
H  49.84800 18.16200 33.19400
H  47.67800 20.07400 33.04200
H  48.77100 20.24800 31.64200
H  49.33800 20.29400 33.28500
H  49.31200 15.96000 34.01700
H  47.66500 15.23700 33.62300
H  48.54400 16.05400 36.15700
H  46.98200 15.51900 35.62900
H  53.21000 20.01000 28.67700
H  53.90300 18.32100 28.89000
H  52.85800 19.22100 30.16400
H  53.88400 19.86600 24.92300
H  54.49100 19.05500 26.42500
H  53.37300 20.50500 26.44300
H  48.80400 15.36000 23.92500
H  45.88600 15.12000 24.15500
H  46.53100 16.85400 22.99200
H  48.29600 17.11700 22.72400
H  47.39500 17.95200 24.08300
H  47.40700 13.11100 25.47900
H  47.97400 13.43300 23.80900
H  46.31100 12.07100 23.08800
H  45.01600 13.15900 23.74200
H  45.74100 12.00200 24.79400
H  42.09300 14.13500 29.00700
H  42.87700 12.56700 28.74800
H  42.86700 13.75400 27.44500
H  45.38400 15.05200 33.35200
H  42.56200 17.73900 34.72200
H  43.87900 18.10600 35.93700
H  42.82300 16.86900 36.21600
Mg 42.19900 41.12600 25.97000
C  41.35600 43.41400 28.39900
C  42.95900 38.89600 28.44600
C  42.82700 38.87800 23.52800
C  41.57000 43.55100 23.44700
N  42.21800 41.17100 28.05900
C  41.82500 42.20700 28.86400
C  41.78300 41.93200 30.37600
C  42.37900 40.45500 30.32000
C  42.54200 40.15800 28.83600
C  43.72700 40.39200 31.16600
C  40.35600 42.08600 31.11000
C  40.13000 41.05000 32.28400
H  39.19200 41.54000 33.42200
N  42.96500 39.11300 25.98900
C  43.20000 38.37100 27.13200
C  43.58800 37.01200 26.66100
C  43.42700 36.99300 25.27500
C  43.05100 38.34800 24.84100
C  43.83400 35.85100 27.65200
C  43.74000 35.94100 24.26000
O  43.46700 36.03800 23.06200
C  44.37000 34.67500 24.74000
N  42.54100 41.33100 23.71300
C  42.55100 40.14600 23.00900
C  42.45200 40.43000 21.46500
C  41.77800 41.86000 21.55000
C  41.98400 42.30800 22.93900
C  43.81500 40.24000 20.76100
C  40.35700 42.11500 20.97500
C  40.34400 43.21600 19.83800
N  41.51500 43.14800 25.87400
C  41.41600 44.01400 24.83100
C  40.90700 45.26300 25.38000
C  40.94100 45.10100 26.80500
C  41.27600 43.75300 27.00200
C  40.54700 46.48500 24.61800
C  40.69600 45.81800 27.99600
O  40.30100 47.01600 28.19100
C  40.89400 44.67300 29.11200
C  41.95700 45.22500 30.01600
O  43.14800 45.47500 29.82200
O  41.34400 45.45900 31.20900
C  42.10900 45.99300 32.37000
H  43.05900 38.10600 29.19400
H  42.95900 38.16600 22.71000
H  41.32600 44.21900 22.61800
H  42.35300 42.70100 30.89600
H  41.67800 39.67700 30.62300
H  43.66000 39.68100 31.98900
H  43.94700 41.32800 31.67900
H  44.59400 40.12400 30.56300
H  39.56900 41.94400 30.36900
H  40.30100 43.09600 31.51500
H  41.08200 40.70600 32.68800
H  39.57500 40.23000 31.82800
H  43.56200 36.25600 28.62700
H  44.89500 35.60200 27.68300
H  43.11100 35.05500 27.47800
H  44.68400 34.10900 23.86200
H  43.59900 34.16100 25.31300
H  45.25600 34.90000 25.33300
H  41.65700 39.81700 21.04100
H  42.46000 42.45300 20.94100
H  44.66400 39.94900 21.37900
H  44.10400 41.11300 20.17600
H  43.60700 39.36700 20.14300
H  39.72300 42.42100 21.80700
H  39.94300 41.21400 20.52200
H  39.55200 43.93400 20.05300
H  40.06600 42.87800 18.84000
H  41.28700 43.75200 19.73000
H  39.72400 46.98500 25.12900
H  40.35000 46.15100 23.59900
H  41.41600 47.13800 24.53400
H  39.99000 44.37900 29.64500
H  43.17000 46.19200 32.22500
H  42.03200 45.25200 33.16600
H  41.80200 46.95700 32.77400

