158

Mg -1.67400 17.53500 26.29600
C  -1.78700 15.16800 28.84200
C  -2.39200 19.95000 28.69900
C  -2.02000 19.84600 23.86600
C  -1.68100 14.90700 23.98300
N  -2.17300 17.50300 28.39800
C  -1.92400 16.47400 29.28900
C  -2.35200 16.84000 30.71700
C  -2.79000 18.33900 30.60500
C  -2.45100 18.62200 29.11100
C  -4.31900 18.63700 30.83100
C  -1.42600 16.59900 31.89300
C  -2.22800 15.97100 33.05400
H  -1.32800 15.38100 34.13500
N  -2.02100 19.66600 26.27100
C  -2.23500 20.44200 27.35600
C  -2.28600 21.83800 26.95200
C  -2.15900 21.80500 25.53300
C  -2.15000 20.41100 25.16600
C  -2.47200 22.97000 27.86600
C  -2.04600 22.89900 24.58800
O  -2.08300 22.76800 23.41600
C  -1.62700 24.35000 25.09500
N  -2.06900 17.36400 24.21900
C  -1.98800 18.49700 23.47800
C  -1.80700 18.15000 21.98800
C  -1.54500 16.61100 22.00100
C  -1.75600 16.26900 23.48100
C  -3.09900 18.57300 21.19500
C  -0.14300 16.28400 21.45700
C  -0.06100 15.50900 20.14200
N  -1.70500 15.45700 26.34700
C  -1.69800 14.51700 25.34100
C  -1.61900 13.25000 25.94000
C  -1.60600 13.46000 27.32100
C  -1.67400 14.80000 27.52900
C  -1.53300 11.95300 25.17400
C  -1.44000 12.84700 28.56900
O  -1.33200 11.63700 28.86700
C  -1.66200 13.86600 29.63300
C  -0.43500 13.79500 30.49500
O  0.65700 14.27600 30.25300
O  -0.73100 12.99900 31.56000
C  0.35700 12.77500 32.60200
H  -2.45700 20.70800 29.48300
H  -2.00100 20.51600 23.00400
H  -1.67300 14.00400 23.36800
H  -3.31300 16.36700 30.92000
H  -2.18700 19.00300 31.22400
H  -4.89600 17.83000 31.28100
H  -4.77600 18.97900 29.90200
H  -4.35700 19.55400 31.41900
H  -1.13100 17.58500 32.25200
H  -0.53800 16.07000 31.54800
H  -2.95900 15.19800 32.81700
H  -2.74900 16.85000 33.43400
H  -2.81400 22.65800 28.85300
H  -3.18600 23.71100 27.50700
H  -1.50900 23.43300 28.08300
H  -0.61200 24.36800 25.49200
H  -2.31600 24.81300 25.80100
H  -1.60600 25.10800 24.31200
H  -1.00300 18.77600 21.60100
H  -2.30800 16.08000 21.43000
H  -3.76800 19.09100 21.88300
H  -3.54600 17.76000 20.62200
H  -2.87900 19.37600 20.49300
H  0.36900 15.62400 22.15800
H  0.45800 17.17600 21.28100
H  0.51300 16.01800 19.36700
H  -1.04000 15.29700 19.71300
H  0.51100 14.61200 20.38000
H  -0.61900 11.39400 25.37600
H  -1.58200 12.05900 24.09100
H  -2.40300 11.38600 25.50600
H  -2.48300 13.52300 30.26200
H  -0.07800 12.77600 33.60100
H  1.06200 13.60600 32.62300
H  1.00000 11.91700 32.40500
Mg 30.47000 59.62100 39.13700
C  27.27800 58.23100 38.26400
C  31.92600 56.62500 38.13000
C  33.34200 61.22000 39.17700
C  28.69000 62.52200 39.88200
N  29.71600 57.72500 38.21500
C  28.43000 57.37800 37.98700
C  28.36500 55.98800 37.34600
C  29.79900 55.42100 37.58600
C  30.55300 56.65900 37.95300
C  29.92000 54.29900 38.66100
C  27.94300 56.13400 35.90800
C  27.88400 54.83900 35.10700
H  27.25100 54.85300 33.67500
N  32.42700 59.01600 38.83900
C  32.77700 57.72800 38.48800
C  34.19500 57.64100 38.42300
C  34.71900 58.97400 38.68300
C  33.53400 59.81700 38.91000
C  34.89300 56.35200 38.01600
C  36.22100 59.28300 38.84900
O  37.09900 58.48400 38.56300
C  36.56500 60.59600 39.35100
N  30.98800 61.55500 39.51100
C  32.25300 62.01300 39.49700
C  32.34200 63.46200 39.77800
C  30.85000 63.86600 40.00100
C  30.12800 62.52500 39.81000
C  33.34000 63.81800 40.94500
C  30.29800 64.97900 39.04300
C  29.56800 66.06800 39.77600
N  28.29000 60.29900 39.20900
C  27.82200 61.50700 39.53400
C  26.39300 61.44000 39.53400
C  26.07300 60.13600 39.08300
C  27.28900 59.53000 38.86500
C  25.32000 62.46000 39.89300
C  25.03500 59.18700 38.78600
O  23.80500 59.30400 38.78900
C  25.75000 57.89000 38.19100
C  25.34300 56.82900 39.07500
O  25.46100 56.88400 40.26700
O  24.75800 55.84400 38.28900
C  24.15300 54.71500 39.02100
H  32.39600 55.64700 38.00500
H  34.27500 61.77700 39.28000
H  28.11100 63.38100 40.22700
H  27.66800 55.37700 37.92000
H  30.17100 55.01700 36.64400
H  28.94700 54.03300 39.07400
H  30.62000 54.61400 39.43400
H  30.28100 53.41900 38.12700
H  28.55100 56.87500 35.38900
H  26.90900 56.47600 35.93900
H  27.32200 54.09400 35.67000
H  28.88100 54.40900 35.00700
H  34.51000 55.47800 38.54400
H  35.96300 56.55300 38.06100
H  34.64600 56.10400 36.98400
H  37.61700 60.51900 39.62500
H  35.92700 60.65400 40.23300
H  36.27400 61.31900 38.58900
H  32.78900 63.92100 38.89600
H  30.62000 63.94900 41.06300
H  33.70800 62.83200 41.22500
H  32.93800 64.20400 41.88200
H  34.19700 64.43400 40.67200
H  29.59000 64.63700 38.28800
H  31.14100 65.39600 38.49100
H  29.93600 66.14500 40.79900
H  28.53700 65.71800 39.74400
H  29.82200 67.09800 39.52400
H  24.97700 62.29700 40.91500
H  24.48700 62.26900 39.21700
H  25.77900 63.44700 39.84100
H  25.34500 57.78800 37.18400
H  24.83600 54.37500 39.80000
H  23.72400 53.87000 38.48200
H  23.22600 55.13900 39.40600

