158

Mg 43.96800 42.36800 26.36700
C  42.93200 44.74500 28.82300
C  44.72800 40.20400 28.81600
C  45.02500 40.42400 24.04000
C  43.48000 44.98000 23.88800
N  43.62800 42.48200 28.65800
C  43.36500 43.54700 29.39200
C  43.28800 43.11300 30.87600
C  44.14700 41.76200 30.80500
C  44.17400 41.42400 29.30200
C  45.63400 41.81700 31.35100
C  41.80400 42.93900 31.31500
C  41.23400 43.83800 32.48100
H  42.08400 44.24300 33.69100
N  44.69400 40.50900 26.43000
C  44.99000 39.79300 27.51900
C  45.52200 38.52200 27.17300
C  45.62700 38.54600 25.76900
C  45.11600 39.89200 25.34100
C  45.93000 37.54800 28.23000
C  46.07300 37.45000 24.79200
O  46.13400 37.61700 23.58400
C  46.41500 36.15600 25.29900
N  44.28100 42.68000 24.25900
C  44.66100 41.66800 23.47500
C  44.68100 41.99500 21.98100
C  43.99200 43.38800 21.99200
C  43.92500 43.76600 23.48200
C  46.03800 41.80700 21.37200
C  42.59800 43.47800 21.22600
C  41.43200 42.75300 21.78800
N  43.29400 44.37500 26.31500
C  43.18800 45.30400 25.24700
C  42.74200 46.53500 25.77700
C  42.60900 46.35900 27.12000
C  42.91300 45.04200 27.43900
C  42.61400 47.81700 25.07400
C  42.37300 47.00600 28.34200
O  41.95800 48.14300 28.46900
C  42.49900 46.01000 29.47900
C  43.53600 46.66600 30.43800
O  44.70000 46.88600 30.29300
O  43.03900 46.87600 31.69800
C  43.97700 47.41900 32.73900
H  44.87600 39.58800 29.70500
H  45.34700 39.71600 23.27400
H  43.42200 45.81700 23.18900
H  43.94200 43.82200 31.38200
H  43.59300 41.04800 31.41500
H  46.34800 41.61900 30.55000
H  45.78000 41.09400 32.15300
H  45.83900 42.83400 31.68500
H  41.70600 41.91800 31.68500
H  41.08800 43.10500 30.51000
H  40.32800 43.27300 32.70100
H  40.84900 44.77100 32.07000
H  46.61300 36.78600 27.85400
H  45.14100 36.95300 28.69100
H  46.23000 38.10100 29.12000
H  45.81000 35.89700 26.16800
H  47.42800 36.29200 25.67800
H  46.26300 35.36200 24.56700
H  44.13800 41.20800 21.45800
H  44.65800 44.12000 21.53500
H  46.47500 42.80600 21.36200
H  45.94100 41.48100 20.33600
H  46.73700 41.27600 22.01800
H  42.81500 43.18500 20.19800
H  42.36700 44.54300 21.22000
H  40.55400 43.39600 21.74300
H  41.63100 42.47400 22.82300
H  40.93400 41.91100 21.30700
H  43.48100 48.02000 24.44500
H  42.52300 48.59200 25.83500
H  41.69900 47.81400 24.48100
H  41.58700 45.90600 30.06700
H  44.87700 46.84300 32.95300
H  43.51400 47.36700 33.72400
H  44.28800 48.44600 32.54500
Mg -1.63700 33.70200 26.51700
C  -3.85200 32.21600 28.74700
C  -0.51400 35.69500 29.05700
C  0.05600 35.50100 24.23100
C  -3.40700 32.08200 23.75700
N  -2.37000 34.08300 28.54000
C  -3.07100 33.14400 29.34300
C  -2.87300 33.42300 30.85100
C  -2.16500 34.81600 30.84600
C  -1.59900 34.85400 29.42500
C  -3.08600 36.11600 30.96700
C  -2.06100 32.24000 31.48600
C  -1.41800 32.40300 32.92800
H  -1.83600 31.55300 34.16000
N  -0.28500 35.26000 26.60800
C  0.00300 35.96300 27.73600
C  1.06000 36.88800 27.44100
C  1.19700 36.83600 26.04400
C  0.23600 35.91300 25.53700
C  1.79700 37.68700 28.43900
C  2.19300 37.60900 25.20000
O  2.15200 37.66500 23.96600
C  3.36400 38.34300 25.86300
N  -1.67000 33.85700 24.33500
C  -0.80300 34.55700 23.66200
C  -0.84300 34.32000 22.15700
C  -1.65600 32.97500 22.10000
C  -2.38000 32.96900 23.46300
C  -1.29700 35.50600 21.26600
C  -0.71000 31.74700 21.66100
C  -0.06400 30.90700 22.78200
N  -3.42100 32.50600 26.27600
C  -3.91500 31.85100 25.15400
C  -4.93500 30.95300 25.63600
C  -4.96800 31.03900 27.02000
C  -3.97800 31.96900 27.35800
C  -5.84100 30.08500 24.68000
C  -5.63600 30.55900 28.20200
O  -6.60500 29.89200 28.28400
C  -4.86500 31.21600 29.38400
C  -5.81800 31.95500 30.31700
O  -6.46700 32.93200 30.00600
O  -5.93800 31.37400 31.56100
C  -6.88600 31.93000 32.55200
H  -0.16400 36.19200 29.96400
H  0.68100 36.02500 23.50400
H  -3.77700 31.36100 23.02400
H  -3.79200 33.52300 31.42900
H  -1.30900 34.94400 31.50800
H  -2.97000 36.75500 30.09200
H  -2.68500 36.64600 31.83100
H  -4.15500 35.90400 30.99600
H  -1.21900 31.90400 30.88100
H  -2.81500 31.45300 31.50700
H  -1.66200 33.41300 33.25700
H  -0.33100 32.37000 32.99600
H  2.69300 37.21600 28.84400
H  1.18400 37.94500 29.30200
H  2.07000 38.65600 28.02200
H  3.00800 39.34700 26.09600
H  4.17500 38.57100 25.17100
H  3.85900 37.81800 26.67900
H  0.21600 34.07500 22.08200
H  -2.38400 32.96700 21.29000
H  -1.67100 35.12100 20.31800
H  -0.42700 36.15700 21.17700
H  -2.23400 35.90400 21.65500
H  0.16500 32.07100 21.09800
H  -1.28100 31.13200 20.96600
H  1.01300 30.79400 22.66300
H  -0.49800 29.91300 22.67500
H  -0.27600 31.24300 23.79700
H  -6.85100 29.99600 25.08100
H  -5.46800 29.06100 24.69600
H  -5.89300 30.47600 23.66400
H  -4.43100 30.44900 30.02600
H  -6.26300 32.55400 33.19300
H  -7.20000 31.06500 33.13600
H  -7.66600 32.53300 32.08600

