158

Mg 53.94300 24.12000 44.26100
C  51.26700 26.35200 43.42900
C  52.02600 21.60500 43.24100
C  56.73900 22.39000 43.71000
C  55.80800 26.82100 45.19600
N  52.00900 24.04900 43.21100
C  51.05700 25.04600 43.02300
C  49.79700 24.46400 42.38700
C  49.84800 22.98300 42.85800
C  51.41000 22.88000 43.16500
C  48.90000 22.58300 43.94600
C  49.74400 24.42400 40.80800
C  51.09300 24.68800 40.06900
H  52.03300 23.53400 39.88500
N  54.32400 22.19800 43.68100
C  53.36000 21.29800 43.43000
C  53.96300 20.04600 43.16600
C  55.40800 20.18400 43.19000
C  55.54500 21.59000 43.46000
C  53.17400 18.81300 42.96000
C  56.39800 19.05800 43.07600
O  56.13600 17.90800 42.77100
C  57.89700 19.37200 43.48200
N  56.04900 24.59000 44.33700
C  56.97200 23.64500 44.23500
C  58.34300 24.22800 44.47700
C  58.05900 25.60800 45.12700
C  56.56400 25.78700 44.77200
C  59.19900 23.34300 45.43600
C  58.96200 26.83800 44.68200
C  58.65700 27.37700 43.30300
N  53.55800 26.15800 44.47000
C  54.41700 27.12200 44.99900
C  53.67400 28.38600 45.18600
C  52.42000 28.12400 44.57300
C  52.46900 26.77700 44.11600
C  54.22500 29.74800 45.70400
C  51.09000 28.72200 44.14800
O  50.61700 29.76300 44.34800
C  50.40100 27.62100 43.33500
C  50.22900 28.19100 41.95500
O  51.11100 28.39500 41.22000
O  48.88400 28.33600 41.65500
C  48.74400 28.65500 40.21800
H  51.40500 20.71500 43.12400
H  57.66300 21.88700 43.41400
H  56.24500 27.69100 45.69000
H  48.98100 25.04600 42.81600
H  49.54600 22.27900 42.08200
H  48.49800 21.58200 43.78600
H  48.13300 23.34700 44.07200
H  49.44700 22.43600 44.87700
H  49.02500 25.14000 40.40900
H  49.32000 23.47800 40.47200
H  51.51400 25.64300 40.38500
H  50.86200 24.95200 39.03700
H  53.87200 17.97700 42.90200
H  52.60100 18.75200 42.03500
H  52.52500 18.65200 43.82000
H  58.34600 19.77600 42.57500
H  58.47800 18.50900 43.80700
H  57.89800 20.02000 44.35900
H  58.85800 24.39100 43.53000
H  58.06600 25.49900 46.21100
H  58.63500 22.41000 45.44100
H  59.31200 23.74200 46.44400
H  60.11700 23.18100 44.87100
H  60.03700 26.66500 44.71600
H  58.74300 27.65800 45.36700
H  58.56400 28.46100 43.35400
H  57.81700 26.82500 42.88000
H  59.44500 27.14400 42.58700
H  54.16000 29.80400 46.79100
H  53.65600 30.41900 45.06000
H  55.28000 29.81200 45.43700
H  49.57800 27.35500 43.99700
H  48.69100 29.74200 40.27700
H  47.70200 28.53200 39.92400
H  49.46700 28.19200 39.54500
Mg -5.45600 25.27300 26.02600
C  -4.02200 26.48500 28.99900
C  -7.25600 22.92200 27.96300
C  -6.42000 23.77400 23.13200
C  -3.69300 27.60100 24.20700
N  -5.72500 24.83900 28.29200
C  -4.97900 25.47700 29.26400
C  -5.38600 24.91300 30.63000
C  -6.36500 23.71700 30.24100
C  -6.50600 23.78200 28.70800
C  -5.88800 22.34000 30.78800
C  -5.83000 26.05900 31.70900
C  -6.75600 25.50800 32.80200
H  -6.19800 24.78500 33.96700
N  -6.70300 23.63200 25.64100
C  -7.34900 22.77500 26.53500
C  -8.16100 21.83500 25.76800
C  -7.91600 22.15200 24.42000
C  -6.98700 23.22400 24.33100
C  -9.01500 20.71200 26.37800
C  -8.55000 21.44300 23.16400
O  -8.32700 21.79500 22.04500
C  -9.41500 20.29600 23.32800
N  -4.90600 25.55300 23.89400
C  -5.55100 24.83400 22.89800
C  -5.20400 25.38200 21.50900
C  -4.51100 26.73400 21.86000
C  -4.35800 26.70000 23.38600
C  -4.37300 24.33900 20.71100
C  -5.39300 27.94000 21.31200
C  -4.82000 28.64500 20.00400
N  -4.10900 26.71700 26.44400
C  -3.44500 27.61800 25.59900
C  -2.51300 28.46600 26.31700
C  -2.74400 28.02800 27.64600
C  -3.73500 27.01500 27.67500
C  -1.56700 29.49500 25.84800
C  -2.26800 28.24600 29.01500
O  -1.38800 28.98100 29.52200
C  -3.18400 27.38500 29.92100
C  -2.36100 26.50900 30.80800
O  -1.66500 25.51100 30.52700
O  -2.46200 26.94400 32.01700
C  -1.70100 26.27400 33.06000
H  -7.83600 22.23400 28.58200
H  -6.76000 23.38600 22.17000
H  -3.17000 28.33800 23.59300
H  -4.44600 24.46100 30.94900
H  -7.39000 23.84900 30.58900
H  -4.89200 22.28600 31.22700
H  -5.66900 21.51600 30.10900
H  -6.50400 22.02700 31.63100
H  -6.25800 26.96600 31.28100
H  -4.91100 26.44300 32.15000
H  -7.46500 24.80100 32.37100
H  -7.32800 26.32400 33.24300
H  -10.01800 20.88500 25.98700
H  -9.05500 20.68900 27.46700
H  -8.68800 19.69900 26.14800
H  -8.82200 19.52800 23.82400
H  -9.83300 19.88400 22.40900
H  -10.27700 20.60500 23.91900
H  -6.11400 25.51300 20.92500
H  -3.55600 26.70700 21.33500
H  -5.01300 23.56300 20.29100
H  -3.62500 23.85000 21.33500
H  -3.94600 24.94300 19.91100
H  -5.44200 28.70800 22.08300
H  -6.38300 27.65000 20.95900
H  -4.99400 27.93700 19.19300
H  -3.73400 28.74500 19.97800
H  -5.18700 29.65100 19.79700
H  -1.04400 29.98000 26.67200
H  -2.15700 30.33100 25.47100
H  -0.78600 29.25500 25.12700
H  -3.80300 28.03000 30.54500
H  -1.07200 27.11700 33.34800
H  -1.02400 25.43500 32.90000
H  -2.30000 26.04700 33.94100

