158

Mg 44.58400 5.45300 47.88300
C  42.35700 8.06600 47.38400
C  42.12200 3.27000 46.91900
C  46.92400 2.87000 47.57400
C  47.25600 7.70600 47.75500
N  42.52500 5.67500 47.07500
C  41.77600 6.81000 47.08000
C  40.35300 6.54300 46.67900
C  40.18300 5.04300 46.62100
C  41.67500 4.61100 46.78000
C  39.13300 4.53200 47.71700
C  39.90100 7.23500 45.33000
C  38.45600 7.50900 45.27200
H  37.75400 6.97500 43.99800
N  44.51300 3.25800 47.52800
C  43.36100 2.65500 47.17400
C  43.71100 1.18300 47.08400
C  45.11700 1.08500 47.09200
C  45.57500 2.44600 47.40200
C  42.73900 0.08500 46.95400
C  45.95400 -0.25400 46.96500
O  45.35400 -1.31100 46.91600
C  47.50000 -0.30400 46.91600
N  46.78200 5.28900 47.64400
C  47.47000 4.10400 47.81100
C  49.00800 4.34600 48.11100
C  48.98800 5.89300 48.32000
C  47.59500 6.33200 47.83400
C  49.57300 3.53800 49.40000
C  50.12500 6.70000 47.67800
C  50.99800 7.51700 48.62400
N  44.80000 7.53800 47.75000
C  45.95200 8.33700 47.77900
C  45.52900 9.77000 47.68100
C  44.13500 9.65800 47.65900
C  43.74700 8.31700 47.63700
C  46.50600 10.84100 47.66200
C  42.89500 10.44600 47.72100
O  42.67500 11.62700 47.77500
C  41.65600 9.36900 47.54300
C  40.84200 9.51600 48.72200
O  41.24500 9.09300 49.80700
O  39.71900 10.13700 48.49700
C  38.91000 10.45100 49.73100
H  41.32000 2.57000 46.67300
H  47.78100 2.25600 47.28900
H  48.04800 8.45800 47.77100
H  39.77900 6.96100 47.50600
H  39.73900 4.58000 45.74000
H  38.30000 5.21700 47.87600
H  39.55800 4.38800 48.71100
H  38.58200 3.64500 47.40700
H  40.18500 6.50400 44.57400
H  40.44500 8.15400 45.11000
H  38.18400 8.55600 45.40500
H  37.92400 6.98600 46.06700
H  42.90900 -0.53100 47.83700
H  42.98000 -0.65600 46.19300
H  41.74900 0.52900 46.84400
H  47.66400 -1.36600 46.73100
H  47.89900 -0.06500 47.90200
H  47.74300 0.28900 46.03500
H  49.61000 4.07800 47.24400
H  48.83700 5.94300 49.39900
H  48.81700 2.92600 49.89100
H  50.11700 4.14600 50.12300
H  50.39100 2.96500 48.96200
H  49.71200 7.23700 46.82300
H  50.88500 6.11700 47.15800
H  50.59000 7.49800 49.63500
H  50.99100 8.58700 48.41600
H  51.99200 7.07800 48.70100
H  47.14200 10.62500 48.52000
H  46.02400 11.81100 47.78000
H  46.97900 10.71500 46.68800
H  41.00800 9.60800 46.70000
H  39.01500 9.76000 50.56800
H  37.85700 10.54900 49.46700
H  39.13500 11.46300 50.06700
Mg 6.57900 54.23400 41.41200
C  5.86500 50.73000 40.89400
C  9.70100 53.74100 40.23000
C  6.92700 57.62100 41.15700
C  3.07900 54.65200 41.97400
N  7.57200 52.46400 40.30000
C  7.14400 51.11300 40.40200
C  8.31100 50.23900 39.84500
C  9.57300 51.16200 39.88500
C  8.95300 52.53700 40.22100
C  10.73300 50.70400 40.75800
C  7.97200 49.51000 38.52500
C  6.96400 50.17300 37.51000
H  7.60200 50.64600 36.17600
N  8.11600 55.52200 40.84300
C  9.33300 55.06100 40.49200
C  10.27700 56.17200 40.32000
C  9.51600 57.31100 40.62200
C  8.11000 56.83500 40.87600
C  11.61500 56.01000 39.78400
C  9.97600 58.73400 40.49200
O  11.10000 58.99800 40.02700
C  9.16700 59.97500 40.88100
N  5.23300 55.91500 41.71900
C  5.58100 57.16100 41.41300
C  4.44300 58.22500 41.63700
C  3.25100 57.19200 41.72200
C  3.85700 55.82900 41.77100
C  4.56000 59.14300 43.05300
C  2.09600 57.38100 40.60400
C  2.23100 56.34200 39.47000
N  4.87100 53.03200 41.72300
C  3.56300 53.36900 42.00300
C  2.80400 52.16900 42.13500
C  3.65200 51.15600 41.77000
C  4.89500 51.69200 41.44400
C  1.41000 52.04000 42.66900
C  3.68600 49.71800 41.63600
O  2.80800 48.88300 41.86800
C  5.15100 49.37300 41.01800
C  4.94800 48.51400 39.81400
O  4.25400 48.76300 38.85100
O  5.69900 47.36000 39.99200
C  5.44700 46.33100 38.95700
H  10.77500 53.54500 40.20900
H  7.00000 58.70800 41.07800
H  1.99300 54.74100 42.04300
H  8.43500 49.47200 40.60900
H  9.82500 51.36000 38.84300
H  10.90100 51.55600 41.41600
H  11.56000 50.51500 40.07300
H  10.49200 49.82200 41.35200
H  7.87100 48.43900 38.70100
H  8.90800 49.58100 37.97100
H  6.43600 50.98300 38.01300
H  6.14800 49.49900 37.24900
H  12.18000 55.39500 40.48500
H  12.18500 56.92800 39.64000
H  11.48800 55.44400 38.86100
H  8.41300 60.16800 40.11800
H  9.85300 60.81200 41.00500
H  8.76200 59.75400 41.86800
H  4.46100 58.89600 40.77800
H  2.61900 57.22900 42.60900
H  4.41200 60.16000 42.69100
H  5.56400 58.99400 43.45100
H  3.90900 58.84000 43.87300
H  2.13900 58.39700 40.21000
H  1.17300 57.29800 41.17800
H  3.29000 56.13100 39.32500
H  2.11300 56.73500 38.46000
H  1.66600 55.43600 39.69000
H  1.05600 51.01700 42.79800
H  0.61600 52.55000 42.12300
H  1.39900 52.47700 43.66800
H  5.67200 48.72600 41.72300
H  5.47500 45.38800 39.50200
H  6.19200 46.42700 38.16700
H  4.48100 46.37500 38.45400

