158

Mg 0.67200 7.55400 25.62800
C  1.31300 9.52600 28.43600
C  0.51500 4.78200 27.52000
C  0.08400 5.73000 22.85300
C  1.02600 10.40200 23.69600
N  0.85400 7.23600 27.76000
C  1.06100 8.13600 28.77100
C  1.02500 7.44000 30.13800
C  0.89700 5.92900 29.72900
C  0.70600 5.97900 28.22200
C  2.11400 5.06100 30.19700
C  -0.05300 7.94000 31.08600
C  0.25300 7.94700 32.56100
H  1.35600 7.18900 33.33300
N  0.42800 5.45300 25.22300
C  0.44000 4.46800 26.14900
C  0.23900 3.16800 25.49300
C  0.24500 3.50000 24.06000
C  0.25500 4.91800 24.00800
C  0.12500 1.82400 26.21100
C  0.28900 2.61100 22.88000
O  0.30300 3.01400 21.72900
C  0.33900 1.18400 23.15300
N  0.65400 7.98800 23.59800
C  0.22400 7.10500 22.67900
C  -0.08000 7.75100 21.35500
C  0.04900 9.25600 21.58000
C  0.56300 9.24900 23.10000
C  0.71700 7.09300 20.17600
C  -1.32900 10.07500 21.42900
C  -1.14200 11.56100 20.93200
N  1.16900 9.56800 25.93700
C  1.33500 10.64800 25.02400
C  1.57500 11.81100 25.74400
C  1.69800 11.39600 27.07300
C  1.45500 10.03400 27.13400
C  1.61400 13.22900 25.24700
C  1.81300 11.92300 28.44000
O  2.00300 13.02800 28.85500
C  1.51000 10.72300 29.35500
C  2.62400 10.60900 30.32900
O  3.79200 10.39400 29.95200
O  2.25500 10.89200 31.63000
C  3.30700 10.90000 32.66700
H  0.42400 3.92500 28.19100
H  -0.22500 5.15100 21.98000
H  1.02000 11.23300 22.98700
H  1.98800 7.59600 30.62300
H  0.02100 5.49400 30.21100
H  2.66700 5.65400 30.92600
H  2.81400 4.89300 29.37900
H  1.77000 4.11900 30.62300
H  -0.84800 7.21300 30.91900
H  -0.35000 8.96200 30.85000
H  -0.67700 7.72800 33.08500
H  0.50900 8.97300 32.82500
H  1.11900 1.42700 26.00100
H  -0.63700 1.17800 25.77500
H  -0.06500 1.86500 27.28300
H  0.98000 0.90600 23.99000
H  0.74400 0.79300 22.21900
H  -0.67800 0.79000 23.14100
H  -1.15400 7.58700 21.26700
H  0.78700 9.60400 20.85700
H  1.22400 6.19400 20.52800
H  1.23900 7.79100 19.52200
H  -0.04600 6.74500 19.48000
H  -1.99000 9.93400 22.28500
H  -1.78500 9.54300 20.59300
H  -1.48600 11.69500 19.90600
H  -0.11400 11.87100 21.12200
H  -1.75600 12.22400 21.54100
H  1.49300 13.50800 24.20100
H  2.58100 13.61300 25.57200
H  0.88000 13.87500 25.73000
H  0.57200 10.97900 29.84800
H  4.20100 11.23700 32.14200
H  3.46500 9.92200 33.12000
H  3.15300 11.70100 33.39000
Mg 47.32400 15.87000 28.06200
C  45.27900 15.26400 30.95100
C  49.34500 17.66600 29.95100
C  48.92300 16.92200 25.26600
C  44.72900 14.62100 26.09900
N  47.27100 16.46600 30.18800
C  46.46600 16.06000 31.15400
C  46.81900 16.65900 32.51400
C  48.13100 17.42400 32.27000
C  48.21400 17.25000 30.68200
C  48.27700 18.84400 32.77000
C  47.09600 15.49100 33.58700
C  47.68100 15.99900 34.91400
H  47.08400 17.34000 35.49600
N  49.07700 16.86600 27.69200
C  49.73300 17.54200 28.62900
C  50.96100 17.99300 28.10700
C  50.96400 17.66800 26.74300
C  49.60300 17.11900 26.47200
C  52.02000 18.55400 29.00800
C  52.09600 17.77300 25.76400
O  51.86400 17.81100 24.54400
C  53.49800 18.00000 26.35100
N  47.07800 15.54200 25.87900
C  47.74600 16.22800 24.96200
C  46.97300 16.32200 23.59200
C  45.72500 15.43000 23.95600
C  45.82500 15.18600 25.43800
C  46.51600 17.83000 23.22400
C  45.60900 14.12600 23.02200
C  44.51500 14.05600 21.93600
N  45.42400 14.97500 28.41500
C  44.48300 14.57300 27.49000
C  43.32600 14.06600 28.12200
C  43.55500 14.25000 29.49100
C  44.83600 14.85600 29.63800
C  42.03600 13.57700 27.47400
C  43.03600 14.09200 30.79800
O  41.91300 13.72200 31.18200
C  44.14200 14.72100 31.83900
C  43.41500 15.73100 32.58600
O  42.94300 16.81100 32.08800
O  43.24800 15.28100 33.84500
C  42.21300 15.95700 34.64800
H  50.01500 18.27500 30.56100
H  49.40300 17.29400 24.35800
H  43.79000 14.55000 25.54700
H  46.03200 17.34200 32.83300
H  48.95700 16.82000 32.64500
H  48.04100 19.54400 31.96900
H  49.31200 18.93300 33.10100
H  47.63200 19.12800 33.60200
H  47.89000 14.87300 33.16700
H  46.14900 14.95300 33.60400
H  48.76000 16.14900 34.88000
H  47.43400 15.25600 35.67200
H  52.36100 19.43800 28.46900
H  52.78300 17.79400 29.17900
H  51.70100 19.00800 29.94600
H  54.15900 18.07600 25.48700
H  53.81800 17.20400 27.02400
H  53.42900 18.92600 26.92200
H  47.57500 15.95000 22.76300
H  44.76300 15.89700 23.74100
H  45.44300 17.96600 23.35600
H  46.73000 18.04100 22.17600
H  47.00900 18.52600 23.90300
H  45.58600 13.24300 23.66100
H  46.55300 14.18600 22.47900
H  43.72500 14.80600 21.95900
H  43.85100 13.20700 22.09700
H  45.05700 13.89800 21.00300
H  41.96800 12.53000 27.17900
H  41.95200 14.27600 26.64100
H  41.14300 13.71400 28.08400
H  44.41400 13.94400 32.55300
H  42.85100 16.67600 35.16200
H  41.96600 15.05400 35.20700
H  41.39500 16.31100 34.02100

