158

Mg 1.82300 8.80700 25.26000
C  1.93200 10.30800 28.35600
C  2.26900 5.73100 26.85700
C  1.57700 7.25400 22.23100
C  1.82000 11.81700 23.69700
N  2.18900 8.11200 27.38800
C  1.96900 8.88600 28.51700
C  1.98100 8.02900 29.80300
C  2.37600 6.54500 29.40000
C  2.26500 6.77000 27.82600
C  3.75500 6.09500 29.73900
C  0.68300 8.26300 30.66200
C  0.93200 8.51900 32.19700
H  2.31400 8.24400 32.82800
N  1.95000 6.80700 24.64700
C  2.14600 5.67800 25.41800
C  2.12800 4.42900 24.58500
C  1.77000 4.88300 23.25800
C  1.75800 6.34600 23.33500
C  2.28400 2.96800 25.11700
C  1.54000 4.09800 21.93900
O  1.18900 4.62000 20.93300
C  1.63800 2.54400 21.93700
N  1.51900 9.41100 23.27700
C  1.60400 8.63100 22.17900
C  1.78000 9.41000 20.90200
C  1.40500 10.83200 21.38700
C  1.55400 10.72100 22.87700
C  3.18600 9.27100 20.31800
C  0.00400 11.21200 20.92000
C  -0.04800 12.19000 19.74700
N  1.82900 10.76700 25.82100
C  1.94800 11.91700 25.07200
C  2.04300 13.06400 26.02300
C  2.01000 12.47700 27.31200
C  1.90000 11.08400 27.13500
C  1.88400 14.48200 25.60300
C  2.00900 12.70200 28.64800
O  2.11500 13.76500 29.24000
C  1.87900 11.38700 29.41700
C  3.13700 11.27800 30.24000
O  4.16900 10.82600 29.89800
O  2.91900 11.77100 31.51700
C  4.20400 12.35200 32.07100
H  2.26100 4.79500 27.42000
H  1.61600 6.99200 21.17200
H  1.92000 12.71200 23.08000
H  2.79500 8.49900 30.35400
H  1.59100 5.85700 29.71400
H  4.23000 6.89700 30.30500
H  4.40200 5.90000 28.88300
H  3.71200 5.17900 30.32700
H  0.02200 7.40400 30.54100
H  0.21100 9.19000 30.33700
H  0.21100 7.91900 32.75100
H  0.73400 9.54800 32.49500
H  2.76100 2.99800 26.09600
H  2.95500 2.51700 24.38600
H  1.31900 2.47400 25.22300
H  2.40000 2.02300 22.51600
H  1.87000 2.32100 20.89500
H  0.67200 2.16000 22.26500
H  1.20200 9.05300 20.05000
H  2.01500 11.56500 20.85900
H  3.76300 10.19400 20.37100
H  3.19300 9.00000 19.26300
H  3.66400 8.40600 20.77800
H  -0.51600 11.65700 21.76800
H  -0.56700 10.33800 20.60400
H  -0.47700 11.74900 18.84700
H  0.88800 12.62200 19.39400
H  -0.68600 13.02700 20.03400
H  1.44600 14.51800 24.60600
H  2.84700 14.99400 25.61200
H  1.27000 14.92500 26.38700
H  0.95800 11.41300 29.99900
H  5.08000 12.57300 31.46100
H  4.61400 11.60900 32.75400
H  4.00400 13.24500 32.66400
Mg 9.67800 4.37300 27.78600
C  10.81600 2.71000 30.84200
C  7.85500 6.37600 29.65900
C  8.10300 5.46900 24.89100
C  11.10500 1.81200 25.88500
N  9.27800 4.42200 30.05400
C  10.02600 3.86900 31.08600
C  9.75400 4.55100 32.41100
C  8.60600 5.54600 32.01900
C  8.55100 5.44200 30.46400
C  7.18000 5.23400 32.67800
C  11.04100 5.17000 33.13800
C  11.60900 4.41500 34.31400
H  11.90700 5.28200 35.58100
N  8.26900 5.81300 27.40100
C  7.63000 6.56900 28.26300
C  6.78400 7.58600 27.62500
C  6.99300 7.42200 26.21100
C  7.86800 6.26000 26.04200
C  6.07700 8.65500 28.48300
C  6.48200 8.21400 25.01800
O  6.74200 7.98600 23.87700
C  5.61100 9.51600 25.24700
N  9.78700 3.85700 25.66600
C  8.85100 4.24800 24.80200
C  8.98400 3.57000 23.40900
C  10.14800 2.55500 23.67600
C  10.45100 2.78800 25.15200
C  7.79800 2.95800 22.81300
C  11.36600 2.76900 22.72100
C  11.62500 1.93500 21.44400
N  10.77800 2.68400 28.19300
C  11.17500 1.67300 27.32300
C  11.67800 0.55400 28.08200
C  11.60700 0.95000 29.44800
C  11.04800 2.18100 29.47600
C  12.15500 -0.74200 27.49400
C  11.89700 0.50600 30.83800
O  12.40200 -0.57800 31.19700
C  11.45800 1.72300 31.83100
C  10.57200 1.11200 32.84100
O  9.37000 1.15800 32.84000
O  11.31500 0.47500 33.82000
C  10.67200 0.37700 35.11400
H  7.58300 7.18500 30.34200
H  7.69800 5.69700 23.90300
H  11.50300 1.04200 25.22100
H  9.33200 3.68000 32.91400
H  8.86900 6.57400 32.27200
H  7.16300 4.37600 33.35000
H  6.48400 5.04100 31.86200
H  6.78300 6.05900 33.27000
H  10.80200 6.21000 33.36000
H  11.68900 5.15000 32.26100
H  12.54100 3.95700 33.98300
H  10.81500 3.72500 34.59700
H  4.99900 8.72600 28.33600
H  6.57100 9.57700 28.17800
H  6.17200 8.50100 29.55700
H  5.44600 9.87100 24.23000
H  6.07400 10.34100 25.78800
H  4.60500 9.22300 25.54800
H  9.21800 4.40800 22.75200
H  9.85300 1.50800 23.59600
H  7.88700 1.89000 22.61700
H  7.61800 3.55000 21.91600
H  6.88900 3.07700 23.40300
H  12.24100 2.62900 23.35500
H  11.39800 3.78900 22.33700
H  11.88200 2.57800 20.60200
H  10.74300 1.31800 21.27400
H  12.41400 1.19600 21.58300
H  11.94600 -1.59700 28.13700
H  13.17600 -0.62700 27.12800
H  11.58400 -0.90500 26.58000
H  12.37200 2.14400 32.25100
H  11.48900 0.41200 35.83500
H  10.15800 -0.58400 35.14100
H  9.90900 1.12100 35.33900

