158

Mg 24.25800 -6.52100 46.87600
C  26.68600 -4.09000 45.66000
C  22.03000 -5.25600 44.48300
C  22.35200 -9.23900 47.24400
C  26.98300 -8.12600 48.40100
N  24.34300 -4.80100 45.34300
C  25.47400 -4.06400 44.95800
C  25.16000 -3.16900 43.78100
C  23.63900 -3.47200 43.47900
C  23.30000 -4.63400 44.44500
C  22.79700 -2.23200 43.46300
C  26.07900 -3.33700 42.58000
C  26.92700 -2.18100 42.15700
H  27.02100 -1.83600 40.64400
N  22.29800 -7.01600 46.15600
C  21.59200 -6.34400 45.27900
C  20.32900 -7.01600 45.12800
C  20.38000 -8.18800 45.87400
C  21.65400 -8.13900 46.54300
C  19.16200 -6.44800 44.27600
C  19.20600 -9.17200 45.94500
O  18.32100 -9.14800 45.10700
C  19.09100 -10.11700 47.10000
N  24.68700 -8.44900 47.72400
C  23.64600 -9.37700 47.81500
C  24.23300 -10.68400 48.53100
C  25.71700 -10.22600 48.90100
C  25.82500 -8.85600 48.33200
C  23.35500 -11.18800 49.69400
C  26.87400 -11.13500 48.42800
C  27.87300 -11.66400 49.52800
N  26.37400 -6.14000 47.12700
C  27.24600 -6.88300 47.80300
C  28.54400 -6.21600 47.84100
C  28.31800 -5.10100 47.04200
C  27.02600 -5.12400 46.56200
C  29.82700 -6.65100 48.49100
C  28.97200 -3.91600 46.43600
O  30.14400 -3.56200 46.49900
C  27.87600 -3.20400 45.54300
C  27.58800 -1.78700 45.96500
O  26.55000 -1.36900 46.42200
O  28.74400 -1.02100 45.79900
C  28.45500 0.37400 46.00000
H  21.32500 -4.87600 43.74100
H  21.81400 -10.18700 47.30600
H  27.82400 -8.57700 48.93300
H  25.16000 -2.11200 44.04600
H  23.54200 -3.89200 42.47800
H  23.35400 -1.29800 43.53200
H  22.14300 -2.34100 44.32900
H  22.22100 -2.34800 42.54500
H  25.50900 -3.58800 41.68600
H  26.73700 -4.19400 42.72200
H  27.94200 -2.46600 42.43400
H  26.70100 -1.20400 42.58600
H  18.43500 -6.13600 45.02600
H  18.76800 -7.20200 43.59500
H  19.52200 -5.70900 43.56100
H  18.18200 -10.71700 47.12500
H  19.49000 -9.78200 48.05700
H  19.84500 -10.82300 46.75000
H  24.28700 -11.47200 47.77900
H  25.68900 -10.04700 49.97600
H  23.93800 -11.29500 50.60800
H  22.88200 -12.10600 49.34600
H  22.59400 -10.43100 49.88800
H  27.46200 -10.66900 47.63700
H  26.41700 -11.96000 47.88100
H  27.67900 -12.72300 49.69700
H  27.54100 -11.35700 50.52000
H  28.93000 -11.44100 49.38300
H  30.40800 -5.84900 48.94600
H  30.43900 -6.96300 47.64400
H  29.74100 -7.39400 49.28500
H  28.31900 -3.21000 44.54700
H  28.79300 1.10100 45.26100
H  28.98700 0.67800 46.90200
H  27.43100 0.70000 46.18000
Mg 35.90500 1.93400 29.58200
C  33.72500 3.19700 32.10100
C  38.45800 2.22200 31.82600
C  37.96000 0.97500 27.10100
C  33.39800 2.47300 27.37100
N  36.01400 2.56300 31.72500
C  34.99400 2.91900 32.56700
C  35.43000 3.03500 34.03800
C  36.99800 2.89400 33.93500
C  37.21600 2.48300 32.42500
C  37.86000 4.16900 34.37600
C  34.77900 1.88300 34.94200
C  34.11200 2.39700 36.18400
H  34.81300 3.36900 37.13800
N  37.93700 1.75800 29.41300
C  38.77500 1.85500 30.45000
C  40.13800 1.57300 29.94600
C  39.99200 1.04800 28.58400
C  38.57600 1.23800 28.29600
C  41.36800 1.54900 30.76200
C  41.07700 0.58500 27.63000
O  40.84200 0.47300 26.42700
C  42.46100 0.33200 28.18000
N  35.65000 1.45600 27.61900
C  36.65200 1.18200 26.73500
C  36.18600 1.06800 25.27400
C  34.67400 1.57200 25.41900
C  34.52100 1.75300 26.90600
C  36.99500 1.96100 24.33100
C  33.58800 0.71100 24.85500
C  33.40500 -0.70800 25.48700
N  33.90200 2.52200 29.70600
C  33.06100 2.78900 28.70800
C  31.82900 3.40300 29.14600
C  31.98500 3.49900 30.52900
C  33.29100 3.04700 30.77200
C  30.53100 3.68900 28.29100
C  31.36100 3.92100 31.72700
O  30.31600 4.48900 31.91400
C  32.45400 3.65800 32.82600
C  32.65600 5.00300 33.43700
O  33.21500 5.94200 32.94200
O  32.01100 5.03800 34.63300
C  31.89200 6.27700 35.33400
H  39.26900 2.35000 32.54600
H  38.67800 0.66400 26.34000
H  32.69800 2.74700 26.57800
H  35.09600 4.01800 34.36800
H  37.37300 2.08500 34.56300
H  38.60100 3.94700 35.14300
H  37.23400 4.97700 34.75500
H  38.39400 4.66800 33.56700
H  35.50700 1.16700 35.32300
H  33.97800 1.34500 34.43500
H  33.78300 1.51200 36.72800
H  33.17200 2.84200 35.85500
H  41.25900 1.86700 31.79900
H  41.99300 2.35100 30.37100
H  41.84000 0.56700 30.76000
H  42.80700 1.17800 28.77400
H  43.17100 0.18900 27.36500
H  42.43900 -0.61400 28.72100
H  36.16500 0.06700 24.84400
H  34.59300 2.56100 24.96800
H  36.81100 1.56900 23.33100
H  38.05300 1.93300 24.59200
H  36.66300 2.99600 24.41500
H  33.83200 0.52600 23.80900
H  32.65600 1.27500 24.85600
H  33.60700 -1.30000 24.59400
H  32.37100 -0.75700 25.82800
H  34.06400 -0.91200 26.33100
H  30.23600 4.70500 28.02600
H  29.65000 3.29100 28.79400
H  30.68600 3.18200 27.33900
H  32.02700 3.00900 33.59100
H  31.57100 6.10400 36.36200
H  31.19900 6.93400 34.80900
H  32.85900 6.76200 35.46200

