158

Mg 46.66200 3.64900 48.10200
C  45.10400 6.69800 47.12000
C  43.62500 2.00200 47.46000
C  48.17000 0.65500 48.46200
C  49.61900 5.29600 48.16400
N  44.62200 4.29400 47.31700
C  44.23700 5.57900 46.96500
C  42.74400 5.65100 46.50300
C  42.23900 4.17600 46.80900
C  43.58900 3.42500 47.24400
C  41.09700 4.10000 47.89400
C  42.67400 6.13700 44.99000
C  41.97600 7.54700 44.64400
H  40.80200 7.44100 43.70800
N  46.01100 1.56500 47.97200
C  44.72500 1.13000 47.72800
C  44.71400 -0.33300 47.72900
C  46.00000 -0.72400 48.03700
C  46.84300 0.47500 48.12000
C  43.45800 -1.20800 47.53900
C  46.48700 -2.17200 48.25700
O  45.76300 -3.08400 47.97800
C  47.82500 -2.65900 48.76900
N  48.52500 3.00000 48.18100
C  48.97800 1.77900 48.48800
C  50.39000 1.73900 48.89100
C  50.89200 3.16000 48.63500
C  49.62300 3.92800 48.26900
C  50.63900 1.14300 50.27600
C  51.98700 3.25300 47.45000
C  51.33600 3.36000 46.03000
N  47.22000 5.62400 47.85700
C  48.54200 6.15300 47.99300
C  48.54700 7.55500 47.82300
C  47.19600 7.88100 47.49800
C  46.42700 6.64200 47.48200
C  49.80200 8.46100 47.93500
C  46.21200 8.94100 47.16400
O  46.33500 10.13200 47.03800
C  44.89000 8.18200 46.84200
C  43.84400 8.71000 47.74600
O  43.56500 8.25700 48.88400
O  43.16000 9.73600 47.14700
C  42.10400 10.49500 47.88100
H  42.63800 1.53700 47.40800
H  48.75300 -0.24000 48.69100
H  50.60300 5.75900 48.25700
H  42.26600 6.41100 47.12200
H  41.93100 3.70200 45.87700
H  41.58800 3.68600 48.77500
H  40.46800 3.29700 47.51000
H  40.49600 5.00000 48.02400
H  42.13700 5.34500 44.46600
H  43.64300 6.24900 44.50400
H  42.78100 8.08000 44.13700
H  41.71100 8.13200 45.52400
H  42.85800 -1.39800 48.43000
H  43.69500 -2.17800 47.10200
H  42.91600 -0.71600 46.73100
H  48.23400 -2.08200 49.59800
H  48.56200 -2.54600 47.97400
H  47.74200 -3.72200 48.99700
H  50.79400 1.05600 48.14400
H  51.30100 3.65900 49.51300
H  50.72400 0.07000 50.10800
H  49.74300 1.35100 50.86200
H  51.56800 1.44800 50.75800
H  52.75300 2.47800 47.47200
H  52.41600 4.24900 47.55300
H  50.45500 2.71900 46.06400
H  51.99300 2.98000 45.24700
H  50.99500 4.37600 45.82800
H  49.51400 9.42900 48.34500
H  50.06100 8.65700 46.89500
H  50.65100 8.03800 48.47300
H  44.57900 8.28200 45.80200
H  41.37300 9.81200 48.31400
H  41.48800 11.14000 47.25400
H  42.59400 10.98900 48.72100
Mg -10.91900 16.66400 40.50700
C  -7.44200 16.53000 40.52500
C  -10.66700 20.07600 39.91700
C  -14.34300 16.89000 39.92000
C  -10.99700 13.26800 40.09500
N  -9.30900 18.08900 40.38200
C  -7.96700 17.84900 40.39800
C  -7.12900 19.08500 40.16400
C  -8.16300 20.22200 40.54000
C  -9.46900 19.42600 40.22300
C  -8.10000 20.75800 42.08300
C  -6.63300 19.08900 38.70100
C  -5.08700 19.00800 38.43900
H  -4.68200 18.23000 37.21800
N  -12.33500 18.35300 40.03500
C  -12.06500 19.65600 39.86600
C  -13.22400 20.50300 39.68600
C  -14.31900 19.58700 39.91400
C  -13.71900 18.19300 39.95200
C  -13.09200 22.02100 39.35900
C  -15.76600 19.97600 39.88900
O  -15.93700 21.20100 39.84900
C  -16.96300 19.07300 40.01300
N  -12.43900 15.30300 40.12900
C  -13.72800 15.59000 39.91400
C  -14.59600 14.38500 39.76800
C  -13.49900 13.22400 39.67300
C  -12.23700 13.97100 40.01700
C  -15.71400 14.26800 40.84900
C  -13.44000 12.62400 38.23100
C  -12.70300 11.19000 38.10900
N  -9.56000 15.16700 40.56100
C  -9.74000 13.79500 40.33800
C  -8.40100 13.11900 40.23400
C  -7.52400 14.18200 40.28500
C  -8.23200 15.34200 40.48700
C  -8.13300 11.69600 40.00300
C  -6.09600 14.46700 40.24500
O  -5.11300 13.70300 40.04500
C  -6.03100 15.96700 40.55800
C  -5.22600 16.08600 41.81400
O  -5.34800 15.39500 42.83500
O  -4.36700 17.21000 41.66300
C  -3.58300 17.56900 42.88000
H  -10.52100 21.14300 39.73500
H  -15.43500 16.89200 39.93600
H  -11.05200 12.20000 39.87500
H  -6.24800 19.26600 40.78000
H  -8.02900 21.08300 39.88600
H  -8.93700 20.35500 42.65300
H  -7.98300 21.83800 42.16700
H  -7.15000 20.50400 42.55300
H  -6.99700 20.01600 38.25800
H  -7.01200 18.24900 38.11900
H  -4.61300 18.57200 39.31800
H  -4.61900 19.97900 38.27800
H  -13.12700 22.03600 38.27000
H  -12.13000 22.46700 39.61400
H  -13.80700 22.70200 39.82200
H  -17.82300 19.71900 40.18800
H  -16.87200 18.36600 40.83700
H  -16.94600 18.62100 39.02100
H  -15.11900 14.40800 38.81200
H  -13.57400 12.50200 40.48600
H  -15.93000 13.20000 40.79800
H  -16.62600 14.72900 40.46800
H  -15.28800 14.45600 41.83400
H  -12.84100 13.33500 37.66100
H  -14.41600 12.46500 37.77300
H  -12.94600 10.76700 39.08300
H  -11.65700 11.22500 37.80400
H  -13.20300 10.44600 37.48900
H  -8.25100 11.10100 40.90900
H  -7.09200 11.55300 39.71400
H  -8.72000 11.15500 39.26000
H  -5.37900 16.27700 39.74100
H  -2.72100 18.03300 42.39900
H  -3.22800 16.68400 43.40800
H  -3.92400 18.31300 43.59900

