158

Mg -0.44500 7.05700 26.94800
C  0.37200 9.05300 29.76700
C  -0.36700 4.36500 28.89300
C  -0.93100 5.31400 24.18700
C  0.24900 9.86800 24.99900
N  0.10500 6.76000 29.02900
C  0.22500 7.70400 30.05200
C  0.22900 7.03900 31.39700
C  0.33100 5.50400 30.98300
C  -0.07400 5.56400 29.52400
C  1.72400 4.93400 31.09200
C  -1.00400 7.49000 32.30100
C  -0.58800 7.57700 33.80100
H  0.67100 6.94900 34.32500
N  -0.79600 5.11800 26.56800
C  -0.74700 4.13900 27.52400
C  -1.11100 2.84200 26.96500
C  -1.12400 3.12400 25.52800
C  -0.91700 4.58600 25.34400
C  -1.22200 1.57700 27.78800
C  -1.32300 2.18300 24.39000
O  -1.38900 2.50800 23.21900
C  -1.50200 0.69600 24.61200
N  -0.49900 7.57500 24.96400
C  -0.70900 6.65300 23.98700
C  -0.40900 7.19900 22.60600
C  -0.45200 8.71700 22.83900
C  -0.19000 8.71600 24.35100
C  0.98000 6.74600 22.06200
C  -1.71900 9.51000 22.47600
C  -3.10400 9.08500 22.96800
N  0.17200 9.07300 27.24800
C  0.42400 10.06500 26.38300
C  0.93700 11.24400 27.07200
C  0.87500 10.92700 28.40100
C  0.33800 9.63800 28.48400
C  1.29700 12.57600 26.39800
C  1.13000 11.39800 29.71100
O  1.58800 12.47900 30.10900
C  0.70900 10.17300 30.70000
C  1.96100 10.02800 31.50800
O  2.94600 9.39600 31.22900
O  1.77200 10.79900 32.69200
C  2.96000 10.86200 33.51000
H  -0.42600 3.54500 29.61200
H  -1.08100 4.87900 23.19600
H  0.58800 10.71100 24.39300
H  1.13800 7.39800 31.88100
H  -0.43700 4.96000 31.53300
H  1.91000 4.45800 32.05500
H  2.48100 5.70000 30.92700
H  1.90900 4.25600 30.25900
H  -1.76500 6.71100 32.26100
H  -1.56400 8.37900 32.00900
H  -1.38600 7.10400 34.37200
H  -0.62400 8.63000 34.08100
H  -1.50300 0.78100 27.09800
H  -2.00200 1.59300 28.54900
H  -0.26300 1.37400 28.26500
H  -0.63900 0.20800 25.06700
H  -1.44200 0.23300 23.62700
H  -2.42900 0.55400 25.16700
H  -1.28400 6.99000 21.99100
H  0.39500 9.12700 22.28800
H  1.14700 7.37300 21.18600
H  0.84800 5.68700 21.83900
H  1.76700 6.79900 22.81500
H  -1.58000 9.39300 21.40100
H  -1.56000 10.54800 22.76700
H  -3.65800 9.92400 23.38900
H  -3.00800 8.26500 23.68100
H  -3.68300 8.60400 22.18000
H  1.90200 13.18700 27.06800
H  0.36200 13.09300 26.18400
H  1.80000 12.51000 25.43300
H  -0.05800 10.44300 31.42600
H  3.30100 9.89200 33.87300
H  2.47400 11.37300 34.34100
H  3.71800 11.44800 32.99100
Mg 43.28800 42.81400 26.71500
C  42.10500 44.94700 29.29000
C  44.70900 40.64100 29.26100
C  44.73100 40.88800 24.36600
C  42.45500 45.17000 24.37900
N  43.31100 42.87500 29.02900
C  42.74300 43.76000 29.83500
C  43.05700 43.45500 31.27000
C  43.92800 42.11300 31.21800
C  43.91500 41.78600 29.70300
C  45.37000 42.27400 31.79200
C  41.71000 43.27300 31.98600
C  41.80300 43.04000 33.41600
H  40.82600 43.76400 34.37000
N  44.51800 40.99800 26.76800
C  44.95800 40.27000 27.93100
C  45.60500 39.09400 27.57600
C  45.53200 39.10900 26.16400
C  44.90500 40.32200 25.66700
C  46.12300 38.14500 28.62000
C  45.86800 38.04300 25.17000
O  45.73100 38.12200 23.96300
C  46.38400 36.71700 25.66900
N  43.67100 43.05400 24.63000
C  44.20200 42.07700 23.82500
C  44.37500 42.57800 22.39300
C  43.49400 43.88400 22.38600
C  43.12200 44.01600 23.83500
C  45.78300 42.79700 21.84800
C  42.25400 43.73800 21.47900
C  40.88500 43.31100 22.15900
N  42.34400 44.60400 26.79900
C  42.09600 45.50100 25.73100
C  41.52000 46.74300 26.22700
C  41.43800 46.53400 27.59900
C  41.99100 45.26300 27.88400
C  41.26200 47.95000 25.48400
C  41.04000 47.11700 28.88100
O  40.54700 48.20300 29.12200
C  41.42300 46.11400 29.96300
C  42.33800 46.74100 30.94400
O  43.31500 47.45700 30.61400
O  41.99100 46.42400 32.19700
C  42.88300 46.87500 33.24000
H  45.08500 40.08100 30.11900
H  45.12900 40.22000 23.59900
H  42.17300 45.90100 23.61900
H  43.64600 44.32500 31.55800
H  43.50400 41.37800 31.90300
H  45.26000 42.53100 32.84500
H  45.98500 42.97500 31.22600
H  45.87000 41.30700 31.74500
H  41.44000 42.38800 31.40900
H  40.93000 43.97000 31.67800
H  42.85100 43.24700 33.63100
H  41.49100 42.00000 33.52000
H  47.01900 38.46400 29.15300
H  46.49500 37.19200 28.24300
H  45.44100 37.83200 29.41000
H  45.72300 36.31500 26.43700
H  47.37900 36.79300 26.10800
H  46.37200 35.99200 24.85500
H  43.96800 41.75300 21.80900
H  44.16400 44.73300 22.24600
H  46.48200 42.53800 22.64300
H  46.07800 43.81300 21.58800
H  46.00600 42.20800 20.95800
H  42.46700 43.14200 20.59200
H  42.19800 44.70500 20.98000
H  40.41400 42.67600 21.40900
H  40.20200 44.11300 22.43800
H  41.10300 42.85500 23.12500
H  41.58500 47.78500 24.45600
H  41.80600 48.83100 25.82500
H  40.21700 48.25900 25.50400
H  40.53100 45.71100 30.44200
H  42.97600 47.95500 33.12900
H  43.87200 46.42600 33.14500
H  42.40700 46.61100 34.18500

