158

Mg 47.11600 24.72200 28.82600
C  47.86300 27.32600 31.00000
C  45.81900 22.98500 31.60100
C  46.60000 22.14700 26.77800
C  48.93600 26.37000 26.26800
N  46.82100 25.09000 31.01200
C  47.15900 26.29600 31.62600
C  46.66500 26.27500 33.07700
C  46.58900 24.73300 33.30700
C  46.44600 24.18300 31.91900
C  47.76700 24.02000 33.91400
C  45.30300 26.94900 33.34400
C  45.37400 27.97400 34.56900
H  45.82800 27.61900 36.03800
N  46.29200 22.82300 29.12100
C  45.73700 22.31100 30.26600
C  45.09100 21.02800 29.92700
C  45.25000 20.83900 28.52800
C  46.11200 21.95500 28.07200
C  44.43600 20.20000 30.94400
C  44.71700 19.72000 27.58000
O  45.05500 19.61200 26.42300
C  43.93100 18.69100 28.21100
N  47.85900 24.26700 26.81600
C  47.37100 23.12800 26.19500
C  47.93800 23.05100 24.73200
C  48.56900 24.44200 24.50100
C  48.48000 25.13800 25.92100
C  48.91500 21.90700 24.34200
C  47.84900 25.37500 23.40000
C  48.77900 26.04400 22.37500
N  48.16800 26.49100 28.64000
C  48.76300 27.02800 27.51100
C  49.31800 28.38800 27.89000
C  48.97500 28.49100 29.26500
C  48.25300 27.35100 29.65100
C  49.92300 29.40000 26.94400
C  49.16400 29.35500 30.43300
O  49.77700 30.38000 30.60700
C  48.43600 28.55700 31.60700
C  49.43000 28.29500 32.69900
O  50.39800 27.55300 32.80800
O  48.97600 29.04200 33.75700
C  49.64800 28.91000 35.09100
H  45.27200 22.52600 32.42700
H  46.55800 21.33200 26.05200
H  49.45300 26.95800 25.50600
H  47.45600 26.66300 33.71900
H  45.80200 24.38600 33.97700
H  47.80700 22.96100 33.65700
H  47.75400 24.08400 35.00200
H  48.72400 24.39600 33.55400
H  44.60800 26.16500 33.64600
H  44.98200 27.54700 32.49100
H  44.35300 28.33800 34.68900
H  46.03100 28.75400 34.18500
H  44.06900 20.77500 31.79400
H  45.18800 19.57700 31.42900
H  43.62800 19.62400 30.49200
H  43.00300 19.14200 28.56400
H  44.51300 18.29100 29.04100
H  43.75200 17.95800 27.42500
H  47.12200 22.88400 24.02900
H  49.60700 24.48300 24.17100
H  49.58100 22.27300 23.56100
H  48.31500 21.05200 24.03100
H  49.49500 21.62300 25.22000
H  47.37000 26.19500 23.93500
H  47.00100 24.85100 22.95900
H  48.98500 27.07700 22.65600
H  48.37700 25.97200 21.36400
H  49.76500 25.58200 22.33100
H  49.46900 30.35900 27.19300
H  49.67200 29.19100 25.90400
H  51.00500 29.46700 27.05400
H  47.65600 29.27200 31.86800
H  48.83000 28.60000 35.74100
H  49.99600 29.87400 35.46100
H  50.47000 28.19600 35.15100
Mg -11.43700 38.84000 42.38800
C  -9.43700 35.98700 41.34600
C  -9.09700 40.81700 41.00500
C  -13.44100 41.47000 42.94300
C  -13.91300 36.62500 43.30200
N  -9.49600 38.32200 41.30500
C  -8.85000 37.17800 40.96500
C  -7.62800 37.45200 40.11200
C  -7.36000 39.00400 40.18800
C  -8.73300 39.42700 40.84100
C  -6.14500 39.40800 41.01100
C  -7.86600 36.91600 38.66400
C  -6.71600 36.03300 38.19300
H  -5.69400 36.67600 37.21200
N  -11.31100 40.85500 41.89500
C  -10.23500 41.49200 41.39300
C  -10.36800 42.91900 41.55200
C  -11.67000 43.18400 42.10400
C  -12.20100 41.81200 42.29600
C  -9.30000 43.87800 41.11500
C  -12.36100 44.50100 42.37500
O  -11.72500 45.55600 42.29900
C  -13.77600 44.66200 42.72600
N  -13.43300 39.02400 42.85800
C  -13.96400 40.18500 43.23600
C  -15.39100 40.14700 43.79000
C  -15.59000 38.56600 43.80500
C  -14.24500 38.01600 43.26200
C  -15.50300 40.98700 45.07400
C  -16.84000 38.01100 43.05600
C  -18.15700 38.71000 43.24100
N  -11.67000 36.69300 42.47500
C  -12.72500 35.97400 42.93600
C  -12.36300 34.52300 42.92400
C  -11.09300 34.50700 42.29500
C  -10.75100 35.88200 41.99200
C  -13.10600 33.41600 43.49800
C  -10.00800 33.63100 41.82600
O  -9.96300 32.37900 41.71400
C  -8.99600 34.57900 41.11400
C  -7.61900 34.26000 41.60100
O  -7.19000 34.78600 42.62500
O  -6.99100 33.40100 40.78500
C  -5.65700 32.92200 41.23700
H  -8.24300 41.37500 40.61700
H  -14.07800 42.30300 43.24600
H  -14.63200 35.91900 43.72100
H  -6.86300 36.78800 40.51300
H  -7.18300 39.33900 39.16600
H  -5.73400 40.33200 40.60500
H  -5.42800 38.58800 41.02400
H  -6.44100 39.55500 42.05000
H  -7.95800 37.73600 37.95300
H  -8.77400 36.31300 38.66600
H  -7.11000 35.05700 37.90900
H  -6.02700 35.67000 38.95500
H  -9.01000 44.49000 41.96900
H  -9.68700 44.52000 40.32300
H  -8.41100 43.36900 40.74400
H  -14.40500 44.00200 42.12800
H  -14.05400 45.70000 42.54300
H  -13.75800 44.57700 43.81200
H  -15.98100 40.50800 42.94700
H  -15.84600 38.25200 44.81700
H  -14.64200 41.63200 45.24800
H  -15.71700 40.34000 45.92600
H  -16.27500 41.75400 45.01800
H  -17.08300 36.99200 43.35800
H  -16.58000 38.00900 41.99700
H  -18.15400 39.05800 44.27400
H  -18.96300 37.99000 43.10400
H  -18.25000 39.52500 42.52400
H  -12.95300 33.45700 44.57600
H  -12.77700 32.46000 43.09200
H  -14.16100 33.62900 43.32100
H  -9.05100 34.39800 40.04000
H  -5.11900 33.87000 41.24800
H  -5.16100 32.32700 40.47100
H  -5.65400 32.38700 42.18700

