158

Mg -1.95500 17.22400 25.33300
C  -2.59800 15.10400 28.15200
C  -3.04000 19.83200 27.19200
C  -2.30700 19.00200 22.46000
C  -1.37100 14.41200 23.35600
N  -2.77600 17.33400 27.41500
C  -2.84100 16.46300 28.42800
C  -3.19100 17.19000 29.74300
C  -3.66700 18.62300 29.28700
C  -3.11000 18.60500 27.86000
C  -5.19500 18.89100 29.34300
C  -2.10900 17.29900 30.92400
C  -2.77500 17.35000 32.30900
H  -2.42800 16.22200 33.31500
N  -2.29000 19.13200 24.86500
C  -2.66500 20.09500 25.80200
C  -2.51300 21.41400 25.18400
C  -2.36200 21.16200 23.84600
C  -2.34500 19.71700 23.66000
C  -2.59900 22.66300 26.00700
C  -2.18100 22.18900 22.68500
O  -2.17600 21.87000 21.50500
C  -2.06300 23.64400 23.03500
N  -1.93400 16.73800 23.21100
C  -2.22400 17.60600 22.23700
C  -2.04800 16.97200 20.85300
C  -1.33600 15.63400 21.18200
C  -1.46200 15.57200 22.70700
C  -3.39200 16.96500 20.06900
C  0.12100 15.32400 20.72800
C  1.26300 15.46600 21.75300
N  -2.03400 15.22200 25.63400
C  -1.62200 14.19200 24.75400
C  -1.57500 12.96000 25.52400
C  -1.97700 13.30400 26.75300
C  -2.21100 14.67900 26.86200
C  -1.37000 11.59100 25.05000
C  -2.21400 12.71400 28.02300
O  -2.18500 11.54300 28.38800
C  -2.74300 13.85600 28.94900
C  -1.82200 13.65600 30.13900
O  -0.61500 14.04800 30.24700
O  -2.47400 12.93400 31.08000
C  -1.77200 12.67400 32.37300
H  -3.46600 20.69200 27.71300
H  -2.24800 19.43000 21.45700
H  -1.16300 13.67600 22.57700
H  -4.07400 16.66700 30.10800
H  -3.24000 19.32800 30.00000
H  -5.32800 19.63900 30.12400
H  -5.62600 17.94800 29.68000
H  -5.57900 19.23400 28.38200
H  -1.57300 18.24600 30.98700
H  -1.41000 16.46300 30.89400
H  -3.85900 17.33800 32.19500
H  -2.47100 18.28500 32.77800
H  -2.64300 22.49200 27.08300
H  -3.40200 23.28600 25.61400
H  -1.64600 23.16200 25.82800
H  -1.13700 23.71900 23.60500
H  -2.86400 23.98500 23.69100
H  -1.85200 24.33700 22.22000
H  -1.35200 17.59100 20.28700
H  -1.93600 14.81200 20.79100
H  -4.01200 17.72400 20.54600
H  -3.85600 15.97900 20.04400
H  -3.13100 17.24800 19.04900
H  0.35200 16.07000 19.96700
H  0.20500 14.31300 20.33100
H  0.93300 16.12900 22.55300
H  2.11900 16.00000 21.34200
H  1.42900 14.52400 22.27600
H  -1.41400 11.66700 23.96400
H  -2.27000 11.15400 25.48400
H  -0.41900 11.14500 25.34100
H  -3.72800 13.45800 29.19200
H  -1.27500 11.71700 32.20900
H  -2.54600 12.63300 33.13900
H  -0.92200 13.29000 32.66600
Mg 44.04400 3.50000 47.96600
C  41.71400 5.97900 47.15500
C  41.56700 1.15700 47.84200
C  46.42800 1.14200 47.80300
C  46.53500 6.02000 47.56900
N  41.99000 3.61200 47.48900
C  41.22800 4.71200 47.15600
C  39.74100 4.27300 46.85100
C  39.70300 2.95200 47.65200
C  41.19400 2.49600 47.72100
C  39.03300 2.94300 49.10300
C  39.34400 4.24300 45.37100
C  38.16400 4.98500 44.73700
H  38.47800 5.62500 43.36300
N  43.95800 1.47400 47.83900
C  42.89300 0.68200 47.90200
C  43.27900 -0.75300 47.77200
C  44.72900 -0.75500 47.66100
C  45.09800 0.68100 47.79900
C  42.28000 -1.86400 47.68600
C  45.46300 -2.03300 47.53800
O  44.89200 -3.12900 47.60700
C  46.93100 -2.07900 47.49000
N  46.18000 3.52000 47.66400
C  47.00300 2.45900 47.71500
C  48.45400 2.82100 47.40700
C  48.41900 4.40000 47.47200
C  46.92700 4.67200 47.51200
C  49.62700 2.20300 48.17600
C  49.27900 5.25800 46.39200
C  50.19400 4.56100 45.38500
N  44.10700 5.59400 47.57100
C  45.22500 6.47100 47.42200
C  44.78000 7.88800 47.22400
C  43.40500 7.73100 47.14800
C  43.05100 6.33500 47.31200
C  45.64300 9.14300 47.03300
C  42.09200 8.34000 46.95600
O  41.85800 9.49600 46.71000
C  40.98800 7.26400 46.92900
C  40.11400 7.52600 48.17400
O  40.22800 6.97900 49.28300
O  39.02400 8.23500 47.72500
C  38.04100 8.27000 48.76600
H  40.79300 0.39600 47.71600
H  47.26600 0.46100 47.64800
H  47.31400 6.78400 47.60900
H  39.11800 4.92600 47.46300
H  39.15100 2.16700 47.13600
H  39.70000 2.66400 49.91800
H  38.30300 2.13400 49.08100
H  38.64400 3.93700 49.32400
H  39.12500 3.20100 45.13900
H  40.26000 4.49300 44.83700
H  37.88700 5.76600 45.44500
H  37.36100 4.24900 44.69900
H  41.25000 -1.50800 47.66400
H  42.34100 -2.46200 48.59500
H  42.43400 -2.57800 46.87600
H  47.35600 -1.44700 46.71000
H  47.23700 -3.12100 47.39700
H  47.12000 -1.66000 48.47800
H  48.76500 2.54300 46.40000
H  48.76300 4.73700 48.45000
H  49.23000 1.76300 49.09100
H  50.28700 2.94500 48.62600
H  50.21600 1.59300 47.49200
H  49.91600 5.83600 47.06100
H  48.71600 5.95700 45.77400
H  50.46700 3.56600 45.73500
H  51.05100 5.23200 45.32600
H  49.68900 4.57300 44.41900
H  46.10900 9.59400 47.90900
H  45.08100 9.96500 46.58900
H  46.46600 8.89500 46.36300
H  40.35600 7.23200 46.04100
H  37.90600 7.24600 49.11400
H  37.08400 8.54700 48.32300
H  38.21100 8.95400 49.59700

