158

Mg -2.15600 17.04600 26.64000
C  -2.60000 14.83800 29.36300
C  -2.56500 19.63000 28.83800
C  -2.39100 19.14800 23.98600
C  -2.56500 14.42200 24.45500
N  -2.41300 17.12800 28.88400
C  -2.58800 16.17800 29.75200
C  -2.81700 16.68800 31.08900
C  -3.03700 18.21700 30.98200
C  -2.69100 18.35500 29.44300
C  -4.49100 18.80900 31.27100
C  -1.75700 16.24100 32.18300
C  -1.05600 17.17700 33.09400
H  -0.38300 16.59700 34.26500
N  -2.33700 19.12800 26.46800
C  -2.41600 20.02800 27.48100
C  -2.50000 21.40900 26.94600
C  -2.33000 21.33100 25.49200
C  -2.31600 19.85900 25.25300
C  -2.73700 22.57300 27.91200
C  -2.13500 22.45200 24.47100
O  -1.90100 22.12800 23.28000
C  -2.19800 23.88500 24.80300
N  -2.45000 16.83300 24.45900
C  -2.51000 17.84100 23.59500
C  -2.96700 17.35700 22.19600
C  -2.77200 15.83100 22.29200
C  -2.59700 15.64200 23.78000
C  -4.40900 17.87000 21.89700
C  -1.54300 15.28600 21.50900
C  -1.72500 13.99600 20.71700
N  -2.43700 15.02100 26.85200
C  -2.54500 14.06900 25.84900
C  -2.73600 12.78700 26.36400
C  -2.73500 13.08000 27.82300
C  -2.53800 14.43500 28.02000
C  -3.01300 11.44900 25.62100
C  -3.01400 12.41100 29.05200
O  -3.32900 11.25100 29.34700
C  -2.86000 13.54200 30.14000
C  -1.97600 13.28800 31.27200
O  -0.77900 13.25000 31.14400
O  -2.72800 12.99700 32.43900
C  -1.98500 12.62900 33.63700
H  -2.86200 20.47100 29.46700
H  -2.45600 19.79900 23.11200
H  -2.77700 13.52200 23.87500
H  -3.75300 16.27500 31.46500
H  -2.41800 18.78000 31.68100
H  -5.14000 18.15300 31.85000
H  -5.07000 18.97200 30.36200
H  -4.30100 19.73300 31.81800
H  -0.99900 15.70100 31.61600
H  -2.22900 15.55600 32.88800
H  -1.76000 17.97800 33.32000
H  -0.22900 17.58500 32.51300
H  -2.52900 23.52700 27.42700
H  -2.25000 22.53200 28.88700
H  -3.82100 22.46900 27.96300
H  -2.44800 24.37800 23.86300
H  -1.31700 24.23900 25.33900
H  -3.16000 23.97500 25.30800
H  -2.23400 17.77400 21.50500
H  -3.71000 15.41500 21.92400
H  -4.72400 18.63400 22.60700
H  -5.09700 17.02800 21.97500
H  -4.52800 18.32500 20.91300
H  -0.67100 15.19000 22.15700
H  -1.19300 15.99100 20.75600
H  -0.80800 13.43500 20.89800
H  -1.84700 14.22900 19.65900
H  -2.59200 13.39500 20.99300
H  -2.08300 10.89000 25.73200
H  -3.18500 11.66000 24.56500
H  -3.80600 10.90100 26.13000
H  -3.86200 13.48200 30.56500
H  -2.70500 12.86900 34.42000
H  -1.04500 13.16300 33.77800
H  -1.86600 11.55200 33.51900
Mg -2.14000 33.66200 26.13000
C  -3.88600 32.27300 28.93100
C  -0.74400 35.82600 28.34100
C  -1.03000 35.47500 23.40800
C  -4.29600 31.96800 24.00500
N  -2.51800 34.08700 28.37500
C  -3.02200 33.26300 29.38000
C  -2.72500 33.73600 30.82400
C  -1.63400 34.83500 30.53500
C  -1.71800 35.01800 28.99200
C  -1.67900 36.17900 31.22800
C  -2.23400 32.68300 31.80600
C  -2.88800 32.62500 33.25200
H  -2.04500 32.43000 34.54400
N  -0.94600 35.24900 25.94600
C  -0.37300 35.98200 26.98400
C  0.51800 36.97400 26.43300
C  0.37700 36.94500 25.03100
C  -0.54900 35.81300 24.70500
C  1.37900 38.02700 27.22200
C  0.89400 37.84500 23.98200
O  0.60200 37.74600 22.79000
C  1.97800 38.84800 24.24800
N  -2.77900 33.79800 24.01100
C  -2.11600 34.57000 23.04600
C  -2.38700 34.08600 21.61500
C  -3.44700 33.06400 21.90800
C  -3.51100 32.91300 23.42500
C  -2.80300 35.17800 20.60700
C  -3.24100 31.68100 21.14100
C  -2.18800 30.77200 21.74500
N  -3.64200 32.28100 26.30700
C  -4.37500 31.64800 25.38400
C  -5.24900 30.65200 26.07400
C  -5.12000 30.87900 27.43700
C  -4.13800 31.89000 27.55200
C  -6.18600 29.74500 25.32400
C  -5.56700 30.48200 28.74300
O  -6.32500 29.57100 29.15900
C  -4.74700 31.38000 29.79100
C  -5.80800 32.07200 30.57300
O  -6.36200 33.07600 30.08200
O  -6.03500 31.54800 31.84600
C  -6.84900 32.38000 32.72500
H  -0.04500 36.31200 29.02500
H  -0.28700 35.62300 22.62100
H  -4.83900 31.20100 23.44900
H  -3.65000 34.20400 31.16000
H  -0.61300 34.53000 30.76800
H  -0.79400 36.55300 31.74300
H  -2.36500 36.09900 32.07100
H  -2.01800 37.00400 30.60200
H  -1.21800 32.98200 32.06400
H  -2.22200 31.69500 31.34600
H  -3.46600 31.70200 33.20200
H  -3.63800 33.38300 33.47600
H  2.40300 37.99100 26.85000
H  1.38600 37.64100 28.24200
H  0.89200 38.99300 27.09200
H  1.64100 39.44600 25.09400
H  2.07000 39.50100 23.38100
H  2.94200 38.37800 24.44500
H  -1.54800 33.47900 21.27600
H  -4.41700 33.46800 21.62000
H  -3.24300 36.05600 21.07900
H  -3.59600 34.84400 19.93700
H  -1.97800 35.54700 19.99800
H  -2.99400 31.97400 20.12100
H  -4.15500 31.08800 21.14300
H  -1.77100 31.14900 22.67900
H  -1.48600 30.59200 20.93100
H  -2.75700 29.86300 21.93900
H  -7.09200 30.24900 24.99000
H  -6.58800 28.96500 25.97000
H  -5.82500 29.32000 24.38700
H  -4.16100 30.74000 30.45000
H  -7.73000 32.56500 32.11000
H  -6.34600 33.23300 33.18000
H  -7.26000 31.74000 33.50600

