158

Mg 43.29800 5.03300 46.64500
C  41.37700 8.00200 46.91800
C  40.23600 3.32700 46.48700
C  44.94100 2.24900 45.77200
C  46.00900 7.02400 45.86700
N  41.04000 5.55300 46.81900
C  40.53500 6.85300 46.99300
C  39.00400 6.84200 46.95100
C  38.68000 5.31700 47.12700
C  40.03200 4.70700 46.70700
C  38.19700 4.99700 48.55500
C  38.41200 7.37800 45.61800
C  38.93300 6.87000 44.24100
H  39.71000 7.70300 43.19400
N  42.66400 3.05600 46.33300
C  41.36900 2.58800 46.23800
C  41.46300 1.21600 45.85300
C  42.81700 0.81400 45.70900
C  43.55100 2.05100 45.95200
C  40.19500 0.39500 45.61200
C  43.36600 -0.56500 45.43400
O  42.60100 -1.45500 45.22700
C  44.80700 -0.93600 45.51000
N  45.21600 4.69400 45.86700
C  45.67700 3.47500 45.74600
C  47.25000 3.46800 45.59600
C  47.44100 4.93900 45.28900
C  46.13500 5.58800 45.74300
C  47.89400 2.96900 46.93600
C  47.89500 5.16900 43.81400
C  49.42900 5.14300 43.66000
N  43.71300 7.10500 46.55000
C  44.86900 7.76800 46.21700
C  44.72600 9.20700 46.32600
C  43.34100 9.37100 46.64900
C  42.76200 8.01800 46.69000
C  45.83400 10.24100 46.24200
C  42.28200 10.36600 46.94000
O  42.35500 11.61600 47.01600
C  40.93300 9.50500 46.97400
C  40.13600 9.77400 48.17000
O  40.19100 9.17200 49.26700
O  39.18600 10.79400 47.92700
C  38.35000 11.22600 49.04400
H  39.31500 2.75700 46.35100
H  45.62100 1.41200 45.59700
H  46.93600 7.59100 45.76000
H  38.66500 7.46100 47.78100
H  37.97200 5.06000 46.34000
H  37.16100 4.66100 48.57300
H  38.43000 5.70300 49.35200
H  38.74100 4.12600 48.92300
H  38.42900 8.46600 45.55700
H  37.32700 7.27000 45.63200
H  38.02600 6.45100 43.80500
H  39.66800 6.07500 44.36700
H  39.52300 0.75900 46.38900
H  40.26800 -0.69200 45.63400
H  39.86600 0.52300 44.58000
H  45.24800 -0.50800 46.41100
H  45.29400 -0.55000 44.61500
H  44.82300 -2.02100 45.61200
H  47.48600 2.78600 44.77900
H  48.24800 5.35200 45.89500
H  47.30900 2.23200 47.48600
H  47.97600 3.83800 47.58900
H  48.84700 2.53800 46.63000
H  47.35800 5.97600 43.31500
H  47.45600 4.36200 43.22700
H  49.82000 5.65700 44.53800
H  49.78600 5.80200 42.86800
H  49.74500 4.10000 43.68000
H  46.50400 10.18700 45.38400
H  46.45100 10.11700 47.13200
H  45.38900 11.23600 46.25000
H  40.32500 9.86100 46.14200
H  37.34400 10.84600 48.87000
H  38.21600 12.30500 48.96300
H  38.73900 10.90900 50.01200
Mg 27.15300 50.47800 26.66200
C  24.94000 51.62700 29.23700
C  29.49600 49.87200 29.06700
C  29.19200 49.82600 24.22400
C  25.09700 52.19700 24.39300
N  27.13500 50.79500 28.97800
C  26.14100 51.09400 29.76200
C  26.58400 50.84600 31.19900
C  28.13900 50.64500 31.12400
C  28.34700 50.43800 29.65000
C  28.96400 51.77000 31.80400
C  25.86900 49.68200 31.85800
C  25.49900 49.73700 33.36200
H  26.34000 50.48100 34.40700
N  28.95600 49.76100 26.67000
C  29.80300 49.52000 27.70800
C  31.00000 48.90100 27.25900
C  30.90700 48.85500 25.86300
C  29.64300 49.52700 25.48400
C  32.08400 48.28200 28.22500
C  31.92500 48.32800 24.87900
O  31.75000 48.34800 23.64600
C  33.36700 47.99600 25.41500
N  27.14700 50.98300 24.56700
C  28.03700 50.43800 23.73900
C  27.76800 50.82100 22.25500
C  26.40900 51.48200 22.37300
C  26.14900 51.56000 23.85200
C  28.85400 51.69100 21.55400
C  25.29500 50.62600 21.80900
C  24.87200 49.33100 22.53600
N  25.42700 51.67300 26.67100
C  24.73300 52.34100 25.71300
C  23.55400 53.09500 26.25300
C  23.64900 52.81200 27.68100
C  24.78500 51.94000 27.86400
C  22.38400 53.63300 25.47200
C  22.82900 52.91800 28.87900
O  21.79400 53.53300 29.05200
C  23.66900 52.19900 29.95100
C  23.97700 53.04400 31.11700
O  24.55800 54.11100 31.10200
O  23.45000 52.55700 32.27700
C  23.43400 53.37900 33.46500
H  30.32500 49.63100 29.73700
H  29.84600 49.56000 23.39000
H  24.54400 52.80300 23.67200
H  26.39800 51.72800 31.81000
H  28.45800 49.68500 31.53000
H  29.84600 51.81100 31.16500
H  29.36700 51.60000 32.80200
H  28.53900 52.77400 31.79800
H  26.58900 48.88100 31.69200
H  24.96200 49.59500 31.26100
H  25.40200 48.71300 33.72200
H  24.51700 50.20500 33.43500
H  32.25100 47.20500 28.19600
H  31.94000 48.55300 29.27200
H  33.06100 48.68600 27.96000
H  33.80400 48.84000 25.94900
H  33.85700 47.71500 24.48200
H  33.26100 47.11700 26.05000
H  27.72600 49.95500 21.59400
H  26.50100 52.49400 21.97800
H  28.49500 52.63500 21.14300
H  29.12400 51.01300 20.74400
H  29.71800 51.91300 22.18100
H  25.60200 50.33900 20.80300
H  24.46200 51.32900 21.78700
H  25.45600 49.08800 23.42300
H  24.97500 48.49500 21.84400
H  23.80200 49.39500 22.73500
H  21.51400 53.92700 26.06000
H  22.07300 53.06000 24.59900
H  22.53100 54.58600 24.96500
H  23.04400 51.40200 30.35500
H  22.39100 53.45200 33.77200
H  23.70300 54.39600 33.18100
H  24.10200 53.05100 34.26200

