158

Mg 40.75300 7.14300 28.90800
C  42.37900 8.43100 31.69900
C  38.43000 5.78100 31.15600
C  39.42900 5.74700 26.25000
C  43.24600 8.47400 26.99800
N  40.45900 7.12200 31.24900
C  41.21200 7.79500 32.10600
C  40.53800 7.91400 33.44700
C  39.37100 6.83100 33.30500
C  39.42300 6.47600 31.81300
C  39.57400 5.58100 34.17000
C  40.01200 9.33400 33.69200
C  39.94600 9.75400 35.16300
H  40.99500 10.69100 35.80800
N  39.17800 5.79300 28.70200
C  38.32800 5.43500 29.74800
C  37.22900 4.65400 29.13700
C  37.52300 4.59400 27.70500
C  38.70500 5.40100 27.47400
C  36.09600 4.10000 29.94300
C  36.71100 4.02100 26.54300
O  37.08000 3.95500 25.37900
C  35.49000 3.34900 26.93000
N  41.48600 6.75300 26.93200
C  40.61400 6.40700 25.98700
C  41.11200 6.57400 24.54600
C  42.11100 7.70600 24.84300
C  42.34100 7.67400 26.33700
C  41.69800 5.30500 23.89200
C  41.87500 9.09900 24.27200
C  40.64900 9.81300 24.79000
N  42.47800 8.15800 29.18300
C  43.42800 8.65000 28.34300
C  44.50300 9.34300 29.07000
C  44.11200 9.27600 30.42000
C  42.84900 8.60000 30.41400
C  45.72200 9.93000 28.48100
C  44.47200 9.68600 31.77100
O  45.35900 10.40400 32.19100
C  43.37000 9.15500 32.61700
C  43.94700 8.17000 33.57300
O  44.37500 7.07800 33.29500
O  43.78700 8.52800 34.90800
C  44.15600 7.58300 35.97100
H  37.65800 5.32800 31.78100
H  39.05500 5.34600 25.30600
H  43.92900 9.01700 26.34100
H  41.25600 7.51100 34.16200
H  38.36500 7.25000 33.29100
H  39.26700 4.71600 33.58300
H  39.05100 5.61700 35.12600
H  40.64300 5.56800 34.38500
H  38.95700 9.40600 33.42800
H  40.59000 10.10300 33.18000
H  39.90800 8.82100 35.72400
H  38.98500 10.25800 35.27500
H  35.23400 4.71300 29.68300
H  36.23200 3.96500 31.01600
H  35.86100 3.05200 29.75400
H  35.76400 2.72700 27.78200
H  35.03800 2.79300 26.10800
H  34.78000 4.12000 27.22800
H  40.19800 6.78800 23.99100
H  43.09600 7.40300 24.48800
H  42.73300 5.31100 23.55100
H  41.15100 5.14600 22.96300
H  41.55800 4.46200 24.56800
H  41.57800 8.84600 23.25400
H  42.79700 9.67200 24.37000
H  40.29600 9.37400 25.72300
H  39.85000 9.83400 24.05000
H  40.97700 10.84500 24.91900
H  46.05900 10.70400 29.17000
H  45.44900 10.48600 27.58400
H  46.54800 9.27000 28.21800
H  42.79600 9.96300 33.07200
H  44.59000 6.70400 35.49400
H  43.40800 7.19800 36.66400
H  44.98500 8.06200 36.49100
Mg -4.33500 25.06100 26.03800
C  -2.78800 26.83200 28.65300
C  -5.41600 22.67300 28.28100
C  -5.50100 23.49100 23.50600
C  -2.46800 27.15800 23.73500
N  -4.18100 24.82300 28.27000
C  -3.54300 25.72400 29.06200
C  -3.94600 25.46400 30.52300
C  -4.53700 23.93900 30.37700
C  -4.71800 23.72800 28.89400
C  -3.66200 22.81700 31.00800
C  -5.09400 26.51500 30.94200
C  -5.45900 26.62300 32.40100
H  -5.06300 25.44100 33.33100
N  -5.32900 23.32500 25.90700
C  -5.76600 22.51000 26.93500
C  -6.66800 21.55000 26.36200
C  -6.50700 21.59600 24.93100
C  -5.73700 22.82000 24.70600
C  -7.50300 20.67300 27.19100
C  -7.09400 20.65000 23.82700
O  -6.91900 20.82100 22.65900
C  -7.88600 19.46500 24.16000
N  -3.96700 25.27100 23.86400
C  -4.83800 24.65100 23.11800
C  -4.84500 25.18500 21.54800
C  -3.77500 26.28600 21.66200
C  -3.41700 26.28200 23.15500
C  -4.51500 24.01900 20.63900
C  -4.30900 27.69200 21.15900
C  -4.29400 27.88600 19.67400
N  -2.90400 26.68300 26.12100
C  -2.18800 27.43300 25.09700
C  -1.37400 28.45700 25.70700
C  -1.61000 28.26900 27.10000
C  -2.51000 27.17800 27.28400
C  -0.63500 29.50500 25.09800
C  -1.33900 28.83600 28.38700
O  -0.69800 29.84900 28.74700
C  -2.12700 27.95400 29.36900
C  -1.32100 27.46900 30.56800
O  -0.23700 26.92200 30.52100
O  -1.98700 27.82200 31.72200
C  -1.27000 27.46500 32.90200
H  -5.79700 21.98900 29.04300
H  -5.95100 23.04200 22.61800
H  -1.87700 27.78700 23.06600
H  -3.03700 25.43600 31.12400
H  -5.52100 24.01700 30.83900
H  -2.68400 23.26300 31.19300
H  -3.51700 22.01700 30.28200
H  -4.07000 22.41500 31.93500
H  -5.95000 26.17800 30.35700
H  -4.82200 27.50400 30.57300
H  -6.53500 26.76800 32.50500
H  -5.16500 27.62800 32.70300
H  -7.22600 19.63000 27.03500
H  -8.50000 20.83100 26.77900
H  -7.43500 20.88600 28.25800
H  -8.64100 19.67900 24.91600
H  -7.31500 18.60000 24.50000
H  -8.40900 19.15100 23.25700
H  -5.78400 25.64200 21.23600
H  -2.96400 26.03700 20.97800
H  -4.44800 23.04300 21.12100
H  -3.66100 24.19500 19.98500
H  -5.34200 23.88800 19.94100
H  -3.78000 28.53900 21.59500
H  -5.35400 27.71200 21.46900
H  -3.97200 26.96900 19.18000
H  -3.82400 28.80500 19.32500
H  -5.35700 27.96900 19.44500
H  -0.66800 29.51100 24.00800
H  0.40200 29.41000 25.42100
H  -1.06500 30.45300 25.42200
H  -2.87900 28.60400 29.81600
H  -1.81900 27.87300 33.75100
H  -0.27600 27.90900 32.86500
H  -1.26500 26.37900 32.99600

