158

Mg 48.42100 35.31500 27.42800
C  46.49700 33.81800 30.06600
C  48.59300 38.16000 29.22200
C  49.70400 36.77100 24.65000
C  47.53400 32.44100 25.49000
N  47.70700 35.87000 29.35800
C  47.07800 35.07400 30.28500
C  47.23800 35.69300 31.69600
C  47.33400 37.23200 31.34000
C  47.90300 37.11100 29.90300
C  46.04700 38.09800 31.55400
C  48.52900 35.07700 32.36900
C  48.53200 35.07700 33.85700
H  47.69600 36.07200 34.57000
N  49.22900 37.14500 27.05800
C  49.29800 38.15400 27.98600
C  50.04400 39.29700 27.39900
C  50.26300 38.94600 26.05600
C  49.69700 37.61500 25.85100
C  50.35700 40.59400 28.13300
C  50.87800 39.81000 24.94800
O  51.07800 39.31000 23.87700
C  51.40700 41.16600 25.16400
N  48.42000 34.74100 25.32400
C  49.07300 35.50700 24.42000
C  49.10900 34.83700 22.98600
C  48.70400 33.36100 23.36700
C  48.14300 33.50800 24.79500
C  48.02400 35.42900 21.98800
C  49.95400 32.41100 23.35400
C  49.74000 31.00000 22.71100
N  47.27900 33.44800 27.65500
C  47.08000 32.36500 26.82500
C  46.26000 31.36000 27.54500
C  46.06500 31.86100 28.82900
C  46.66200 33.15500 28.84500
C  45.81000 30.05200 27.05300
C  45.37800 31.65400 30.06200
O  44.74100 30.68300 30.48400
C  45.52800 33.00100 30.88100
C  45.85300 32.67200 32.31200
O  46.90800 32.16300 32.71600
O  44.79800 33.07300 33.12800
C  45.15100 32.94900 34.55900
H  48.69400 39.05600 29.83900
H  50.12100 37.28100 23.78000
H  47.38100 31.58200 24.83300
H  46.35200 35.43200 32.27500
H  48.07100 37.66000 32.02000
H  45.19700 37.58900 32.00900
H  45.70600 38.62800 30.66400
H  46.15800 38.96500 32.20500
H  49.29600 35.69500 31.90100
H  48.49800 34.06900 31.95700
H  49.58000 35.32300 34.02700
H  48.46500 34.04100 34.19000
H  50.20200 41.43000 27.45100
H  51.43300 40.67200 28.29200
H  49.69900 40.67500 28.99900
H  52.07800 41.40200 24.33900
H  51.92200 41.19400 26.12400
H  50.70600 42.00000 25.19100
H  50.12600 34.76800 22.60000
H  47.89100 32.84600 22.85400
H  47.47600 36.23900 22.47100
H  47.24800 34.69400 21.77700
H  48.45000 35.79200 21.05300
H  50.32300 32.34000 24.37700
H  50.78300 32.74800 22.73000
H  50.43500 30.94800 21.87200
H  48.80100 30.69700 22.24700
H  50.06500 30.27200 23.45400
H  46.08000 29.29000 27.78400
H  46.28400 29.73600 26.12300
H  44.74300 30.14500 26.85100
H  44.58000 33.53600 30.94800
H  45.35800 31.91000 34.81400
H  44.31100 33.23800 35.19000
H  45.98000 33.64800 34.67500
Mg 1.89500 41.57900 26.56100
C  3.99800 41.86100 29.28600
C  -0.55700 40.57400 28.63500
C  -0.01100 40.98500 23.76700
C  4.41400 42.70400 24.47800
N  1.63200 41.69600 28.78300
C  2.65900 41.66200 29.67400
C  2.15000 41.79100 31.10600
C  0.70900 41.20200 30.86100
C  0.53100 41.11800 29.34500
C  0.42300 39.88600 31.66200
C  2.25500 43.22200 31.81000
C  2.49200 43.17000 33.37000
H  2.05300 41.86400 34.13000
N  -0.00500 40.86300 26.22600
C  -0.81800 40.39300 27.19800
C  -1.91300 39.69000 26.64700
C  -1.87400 39.90100 25.25600
C  -0.62400 40.61200 24.99000
C  -3.02400 39.00900 27.50500
C  -2.81700 39.51100 24.19700
O  -2.45500 39.56000 22.95900
C  -4.18400 38.96500 24.53500
N  2.24500 41.62800 24.29400
C  1.27900 41.34700 23.36100
C  1.67100 41.68100 21.90700
C  3.10800 42.33900 22.17000
C  3.30900 42.27000 23.71500
C  1.81500 40.38400 20.96400
C  3.30300 43.76600 21.67300
C  2.23500 44.81800 21.99800
N  3.87100 42.10300 26.81600
C  4.77800 42.61500 25.85200
C  6.05200 42.73300 26.54300
C  5.77300 42.47600 27.90100
C  4.47500 42.12500 27.98000
C  7.36200 42.93600 25.88400
C  6.42800 42.30800 29.18000
O  7.57100 42.35200 29.53300
C  5.22300 42.09000 30.15200
C  5.52400 40.99300 31.14600
O  5.94300 39.86900 30.86600
O  5.29900 41.31000 32.44400
C  5.43900 40.20400 33.40400
H  -1.37200 40.31900 29.31500
H  -0.52800 40.84500 22.81500
H  5.20900 43.09200 23.83800
H  2.69800 41.12300 31.77100
H  -0.00900 41.96900 31.15400
H  -0.34500 40.00900 32.42500
H  1.27100 39.69800 32.32200
H  0.29100 39.07300 30.94800
H  1.29300 43.73100 31.76700
H  2.97000 43.80700 31.23100
H  1.87200 43.94400 33.82300
H  3.53400 43.43900 33.54300
H  -3.65200 38.24300 27.05000
H  -3.54900 39.87600 27.90700
H  -2.37400 38.55800 28.25400
H  -4.61100 39.47900 25.39600
H  -3.93800 37.91600 24.69300
H  -4.92500 39.05900 23.74100
H  0.86700 42.34300 21.58300
H  3.91300 41.71300 21.78700
H  1.03700 40.32700 20.20200
H  1.83100 39.49700 21.59700
H  2.80200 40.39900 20.50200
H  3.34300 43.66900 20.58800
H  4.29400 44.05300 22.02300
H  2.82000 45.66400 22.36100
H  1.55300 44.48500 22.78000
H  1.61100 45.25700 21.22000
H  8.08200 42.17700 26.18900
H  7.68200 43.96200 26.06500
H  7.28500 42.80000 24.80500
H  5.10400 42.96600 30.79000
H  4.66800 39.44400 33.27900
H  5.23800 40.70300 34.35200
H  6.46800 39.84300 33.38300

