158

Mg 2.24500 -2.15400 45.38000
C  5.76300 -1.62800 44.87300
C  1.52400 0.32600 43.31600
C  -1.04600 -3.25600 45.25300
C  3.01500 -4.86900 47.31000
N  3.59500 -0.83200 44.18000
C  4.99500 -0.74800 44.12000
C  5.42900 0.34200 43.07200
C  4.07400 1.12200 42.89300
C  2.91200 0.21300 43.57200
C  4.04600 2.58000 43.37000
C  5.93000 -0.32100 41.78700
C  7.36600 -0.01000 41.34600
H  7.80800 0.33600 39.94100
N  0.43600 -1.52700 44.38400
C  0.38900 -0.45200 43.61000
C  -0.99600 -0.15100 43.31300
C  -1.81300 -1.11400 43.94300
C  -0.81900 -2.07700 44.56800
C  -1.45400 0.96100 42.41700
C  -3.27500 -0.95800 44.12600
O  -3.88000 -0.00100 43.64800
C  -4.01300 -2.03500 44.90800
N  1.07600 -3.87400 46.18900
C  -0.26000 -3.99400 46.10500
C  -0.76500 -5.25500 46.88900
C  0.57600 -5.62800 47.65300
C  1.64000 -4.82800 46.95000
C  -2.08000 -5.01800 47.76400
C  0.90400 -7.22400 47.73900
C  1.64100 -7.61200 48.97100
N  3.97600 -3.00100 46.03000
C  4.12700 -4.15700 46.80100
C  5.57500 -4.36700 47.04700
C  6.23800 -3.37900 46.35600
C  5.24200 -2.59400 45.76100
C  6.16300 -5.46800 47.90100
C  7.51300 -2.81900 46.13800
O  8.63800 -3.26400 46.45000
C  7.23000 -1.64300 45.13200
C  7.75100 -0.35200 45.68100
O  7.43800 0.12000 46.77300
O  8.44300 0.21600 44.66700
C  8.79700 1.63100 44.92600
H  1.43700 1.26900 42.77200
H  -2.07500 -3.62200 45.22900
H  3.26100 -5.59200 48.09000
H  6.21400 0.86500 43.61800
H  3.74900 1.10600 41.85200
H  4.99000 2.89600 43.81500
H  3.28500 2.78300 44.12300
H  3.87300 3.06600 42.40900
H  5.31500 -0.04900 40.93000
H  5.81600 -1.40000 41.88300
H  7.95500 -0.86800 41.67300
H  7.63900 0.91900 41.84600
H  -2.21100 0.65800 41.69500
H  -0.62100 1.20900 41.75900
H  -1.84300 1.83100 42.94600
H  -3.34100 -2.27900 45.73100
H  -4.15100 -2.85700 44.20600
H  -4.91000 -1.47600 45.17500
H  -1.10100 -6.09600 46.28200
H  0.58400 -5.13300 48.62400
H  -2.91400 -5.58800 47.35500
H  -2.09100 -3.92900 47.71000
H  -2.01800 -5.29700 48.81600
H  1.42900 -7.58600 46.85500
H  0.07000 -7.92100 47.65500
H  1.03700 -8.36000 49.48400
H  1.70600 -6.73500 49.61400
H  2.60700 -8.06900 48.75200
H  6.25300 -6.42200 47.38300
H  5.58900 -5.58600 48.82000
H  7.22100 -5.24900 48.04200
H  7.84000 -1.86100 44.25500
H  9.64700 1.63500 45.60900
H  7.90700 2.11700 45.32400
H  9.02800 2.09200 43.96500
Mg 36.29000 50.01500 24.98600
C  36.51000 47.86200 27.76500
C  34.91500 52.46700 26.93100
C  35.45300 51.77900 22.20300
C  37.07800 47.16600 23.08600
N  35.73200 50.14900 27.07000
C  35.98900 49.16800 28.04600
C  35.64600 49.73600 29.44200
C  35.03200 51.12700 29.12300
C  35.29100 51.33000 27.64100
C  33.47500 51.51700 29.49100
C  36.99300 49.80000 30.24900
C  36.98800 49.61900 31.80200
H  35.59000 49.50900 32.50900
N  35.43300 51.87700 24.66100
C  34.97100 52.77100 25.55700
C  34.59500 54.02200 24.86800
C  34.71900 53.85500 23.44200
C  35.16000 52.43600 23.37500
C  34.12000 55.26400 25.63800
C  34.40100 54.86500 22.36100
O  34.51600 54.62800 21.14000
C  33.86500 56.25300 22.68600
N  36.08800 49.53000 22.86700
C  35.89300 50.51700 21.94200
C  36.33500 49.94900 20.58300
C  37.18100 48.64200 20.93900
C  36.68100 48.36700 22.39600
C  35.23200 49.82000 19.49300
C  38.68700 48.84000 20.87100
C  39.58500 47.77800 20.30900
N  36.77400 47.91600 25.25300
C  37.08100 46.88200 24.44900
C  37.42300 45.71600 25.17300
C  37.21800 46.07800 26.54000
C  36.77100 47.37600 26.47000
C  37.76100 44.43200 24.47000
C  37.10200 45.52000 27.91700
O  37.24400 44.36700 28.37000
C  36.76800 46.74300 28.74600
C  35.60300 46.41300 29.65900
O  34.39700 46.53000 29.38100
O  36.05000 45.78100 30.77300
C  34.95900 45.14800 31.54600
H  34.65000 53.35600 27.50800
H  35.37800 52.38300 21.29600
H  37.47700 46.42000 22.39600
H  34.88500 49.06700 29.84400
H  35.61100 51.95900 29.52300
H  33.23700 51.00200 30.42200
H  32.72900 51.27400 28.73400
H  33.56200 52.58500 29.69000
H  37.52500 50.72700 30.03300
H  37.70000 49.06100 29.87200
H  37.43000 50.54800 32.16300
H  37.75500 48.88300 32.04300
H  34.63900 56.19800 25.42200
H  34.03300 55.08300 26.70900
H  33.06500 55.43900 25.43000
H  32.95200 56.33400 23.27600
H  33.71000 56.77900 21.74400
H  34.72700 56.63800 23.23200
H  36.96700 50.71300 20.13000
H  36.77500 47.79500 20.38600
H  34.41000 50.23800 20.07400
H  35.08100 48.81000 19.11300
H  35.44100 50.51800 18.68200
H  39.12300 48.82600 21.87000
H  38.96600 49.80900 20.45700
H  39.73900 47.08400 21.13500
H  40.55400 48.19800 20.04000
H  39.05100 47.33500 19.46800
H  37.80300 44.53900 23.38600
H  36.97100 43.70900 24.67600
H  38.66400 43.97700 24.87700
H  37.61700 46.92400 29.40400
H  34.05300 45.73500 31.69700
H  35.32500 44.93500 32.55000
H  34.66400 44.19300 31.11100

