158

Mg 41.23400 9.36800 29.82200
C  43.04600 10.55400 32.48700
C  38.93500 7.95600 31.94900
C  39.86400 7.83400 27.10700
C  43.85500 10.35800 27.71100
N  40.97300 9.30400 32.02900
C  41.90800 9.76000 32.90300
C  41.39700 9.60700 34.32300
C  40.07300 8.75100 34.13300
C  39.96500 8.61900 32.60200
C  39.97600 7.34200 34.82800
C  41.32800 10.86900 35.23800
C  40.50600 10.89400 36.53000
H  41.34300 11.14800 37.87400
N  39.56400 8.18800 29.57800
C  38.74000 7.67100 30.59300
C  37.61500 6.99700 29.97500
C  37.86400 7.05300 28.52000
C  39.16100 7.68800 28.36100
C  36.52900 6.20500 30.74900
C  37.05800 6.49000 27.41700
O  37.34300 6.61000 26.21500
C  35.74300 5.98400 27.72000
N  41.80100 9.15100 27.65300
C  40.98400 8.57400 26.76300
C  41.61800 8.61900 25.32400
C  42.72400 9.61300 25.47200
C  42.83600 9.71500 27.02700
C  41.98900 7.19100 24.82100
C  42.51400 10.99800 24.73500
C  41.93200 12.16000 25.55600
N  43.12000 10.22300 29.98000
C  44.02800 10.58500 29.09800
C  45.13300 11.24100 29.73400
C  44.83300 11.25600 31.11200
C  43.54400 10.67600 31.19000
C  46.49800 11.46600 29.08300
C  45.33700 11.53400 32.43600
O  46.44300 11.95700 32.81600
C  44.14000 11.09700 33.38300
C  44.66600 10.21300 34.38500
O  44.55900 8.99000 34.38100
O  45.19300 10.96800 35.38800
C  45.51200 10.17600 36.59200
H  38.10100 7.55800 32.53000
H  39.38400 7.43600 26.21100
H  44.70800 10.71500 27.13000
H  42.07800 8.92400 34.83300
H  39.20100 9.23300 34.57400
H  38.90800 7.17100 34.96200
H  40.56500 7.29800 35.74500
H  40.36000 6.57400 34.15800
H  41.17000 11.72900 34.58700
H  42.29900 11.13900 35.65200
H  39.99700 9.93100 36.55700
H  39.59600 11.48600 36.44000
H  36.64600 5.16300 30.44900
H  35.53000 6.64000 30.73100
H  36.60600 6.25500 31.83500
H  35.09600 5.84700 26.85400
H  35.28300 6.66700 28.43400
H  35.97000 4.98400 28.09000
H  40.79200 9.09000 24.79100
H  43.61000 9.09400 25.10600
H  41.83100 6.51300 25.65900
H  43.02700 7.06700 24.51100
H  41.27700 6.87100 24.06000
H  41.93300 10.88300 23.82000
H  43.48400 11.39400 24.43600
H  41.44400 11.86100 26.48300
H  41.23100 12.72500 24.94200
H  42.72600 12.87100 25.78400
H  46.70000 10.82300 28.22600
H  47.26800 11.36100 29.84800
H  46.49300 12.51500 28.78700
H  43.86500 12.06100 33.81100
H  45.70300 10.88900 37.39400
H  46.46900 9.70400 36.37200
H  44.77100 9.44900 36.92300
Mg 35.99600 48.81000 24.27200
C  36.34400 47.09500 27.30700
C  34.75100 51.53500 25.93900
C  35.69500 50.40000 21.26600
C  37.27900 45.95400 22.58200
N  35.43900 49.18200 26.33700
C  35.69300 48.37400 27.46400
C  35.48900 49.17300 28.79000
C  34.69800 50.48100 28.29000
C  34.98100 50.40500 26.77300
C  33.25100 50.64400 28.71400
C  36.77700 49.43700 29.59000
C  36.74800 49.09100 31.13500
H  35.38400 49.00100 31.91600
N  35.43200 50.74000 23.66500
C  34.93300 51.71000 24.50300
C  34.51900 52.81400 23.70800
C  34.89100 52.55100 22.37700
C  35.36800 51.18100 22.35700
C  33.87700 54.02600 24.31600
C  34.72600 53.48300 21.17300
O  35.20700 53.13900 20.09800
C  34.01400 54.82400 21.25600
N  36.15500 48.12100 22.13100
C  36.07300 49.04400 21.21800
C  36.25400 48.30400 19.85800
C  37.07200 47.02500 20.22000
C  36.80300 47.00100 21.69800
C  34.89400 48.03200 19.20200
C  38.50100 47.08000 19.67500
C  39.74100 47.24600 20.69500
N  36.54700 46.87200 24.80300
C  37.10700 45.85600 24.00200
C  37.70100 44.87100 24.85400
C  37.41700 45.33000 26.18300
C  36.60400 46.49300 26.06200
C  38.44600 43.69400 24.34500
C  37.53300 45.02600 27.63900
O  38.09300 44.09100 28.24800
C  36.87000 46.18100 28.37300
C  35.82900 45.72100 29.38000
O  34.67600 45.50600 29.13900
O  36.45200 45.55100 30.55700
C  35.59400 44.82100 31.57000
H  34.41000 52.40200 26.50900
H  35.51100 50.81100 20.27100
H  37.70800 45.07000 22.10600
H  34.81200 48.60700 29.43000
H  35.13100 51.38000 28.72900
H  32.92800 49.92600 29.46800
H  32.58800 50.51000 27.85900
H  33.03600 51.63600 29.11100
H  37.13400 50.45600 29.44000
H  37.55500 48.72800 29.30600
H  37.32100 49.88200 31.62000
H  37.31800 48.20100 31.40100
H  34.46800 54.91300 24.54100
H  33.49500 53.82300 25.31700
H  33.02900 54.29000 23.68500
H  32.93800 54.68300 21.35500
H  34.16900 55.35800 20.31900
H  34.34100 55.52200 22.02700
H  36.77600 48.99200 19.19300
H  36.52500 46.18100 19.80000
H  34.01800 48.19300 19.83000
H  34.73700 47.04800 18.76000
H  34.81400 48.68500 18.33300
H  38.67300 47.83200 18.90600
H  38.69300 46.16800 19.10900
H  40.36900 46.35600 20.72600
H  39.37000 47.61500 21.65200
H  40.25900 48.14700 20.36700
H  38.94600 43.93500 23.40600
H  37.97700 42.71100 24.29800
H  39.17800 43.43300 25.10800
H  37.70700 46.61300 28.92200
H  35.33000 43.79000 31.33500
H  34.67800 45.36000 31.81300
H  36.15700 44.81200 32.50400

