158

Mg 24.41300 -5.14200 46.05600
C  26.43500 -2.74700 44.36900
C  21.87500 -4.46000 43.85400
C  22.96700 -8.21600 46.70500
C  27.48000 -6.38800 47.45600
N  24.17500 -3.72900 44.38000
C  25.12000 -2.78000 43.93900
C  24.63200 -2.02000 42.67300
C  23.11200 -2.43600 42.76500
C  23.01100 -3.66500 43.70700
C  22.07100 -1.34000 43.10000
C  25.25200 -2.36900 41.32300
C  26.00800 -1.22800 40.54300
H  25.56400 -1.14100 39.03800
N  22.57200 -6.10900 45.49400
C  21.66100 -5.61000 44.63200
C  20.52900 -6.46300 44.69600
C  20.81600 -7.49900 45.63600
C  22.19700 -7.29700 46.00200
C  19.35900 -6.22000 43.78400
C  19.78400 -8.62700 46.11000
O  18.62300 -8.62300 45.66500
C  20.09900 -9.63300 47.19900
N  25.01500 -6.91600 47.00100
C  24.25900 -8.05700 47.16600
C  24.95400 -9.12600 47.99200
C  26.35800 -8.53000 48.25200
C  26.28800 -7.16700 47.54700
C  24.13200 -9.29500 49.28500
C  27.53200 -9.48700 47.71500
C  28.83300 -9.73500 48.43800
N  26.45200 -4.48100 46.23400
C  27.53500 -5.12400 46.78900
C  28.76900 -4.35200 46.54500
C  28.39900 -3.36500 45.51100
C  27.01400 -3.54500 45.37700
C  30.02300 -4.66200 47.19000
C  28.81700 -2.39100 44.67300
O  29.95700 -1.94600 44.46200
C  27.56400 -1.89300 43.78600
C  27.38400 -0.49100 44.19000
O  26.92400 -0.08400 45.25500
O  27.92100 0.31100 43.16800
C  27.72000 1.81900 43.21500
H  21.02000 -3.99200 43.36100
H  22.53300 -9.19500 46.92100
H  28.40400 -6.72700 47.92800
H  24.82400 -0.95700 42.82100
H  22.76500 -2.85400 41.82000
H  21.62200 -0.77900 42.28100
H  22.61500 -0.61800 43.70800
H  21.15700 -1.69800 43.57400
H  24.43600 -2.84300 40.77800
H  25.90400 -3.21800 41.52700
H  27.08200 -1.38500 40.63600
H  25.87200 -0.24700 40.99900
H  19.68100 -6.36400 42.75200
H  18.98700 -5.21400 43.97900
H  18.54400 -6.90100 44.02600
H  20.67300 -9.17200 48.00300
H  20.65600 -10.42800 46.70300
H  19.20800 -10.05200 47.66600
H  24.98800 -9.99600 47.33700
H  26.68400 -8.36300 49.27800
H  24.72400 -9.16100 50.19000
H  23.68400 -10.28900 49.29300
H  23.28200 -8.61300 49.30000
H  27.77400 -9.11200 46.72100
H  27.22400 -10.53300 47.68700
H  28.67900 -9.44700 49.47800
H  29.51900 -9.01200 47.99600
H  29.29500 -10.71700 48.33700
H  30.78300 -3.98600 46.80000
H  30.18100 -5.69500 46.87700
H  30.00500 -4.57500 48.27700
H  27.61700 -2.01700 42.70500
H  28.66800 2.23900 43.55200
H  26.98000 2.19300 43.92300
H  27.37200 2.06300 42.21100
Mg 54.99600 24.91700 44.12400
C  51.93200 26.88700 43.36200
C  53.13400 22.23000 43.03600
C  57.86100 23.43600 43.89100
C  56.48900 27.93200 44.77600
N  52.84000 24.73100 43.06900
C  51.82100 25.59900 42.89800
C  50.60300 24.86200 42.29900
C  50.91000 23.41700 42.90900
C  52.37500 23.44000 43.12700
C  50.13500 23.07600 44.30100
C  50.48600 24.90600 40.71800
C  49.06900 24.49000 40.29000
H  48.65300 24.64300 38.80100
N  55.42700 23.05900 43.63300
C  54.51800 22.05200 43.18100
C  55.24800 20.79800 43.08800
C  56.61400 21.06700 43.38400
C  56.67800 22.53200 43.60900
C  54.59000 19.45700 42.66500
C  57.66400 20.03400 43.48900
O  57.39900 18.88100 43.41200
C  59.06700 20.40800 43.83200
N  56.93600 25.62400 44.12100
C  57.96400 24.76600 44.15100
C  59.22200 25.41100 44.65900
C  58.79300 26.95800 44.67300
C  57.23600 26.88400 44.52800
C  59.70900 24.90400 46.06000
C  59.43100 27.74300 43.46100
C  60.15800 29.07200 43.86400
N  54.35300 26.95700 44.21300
C  55.13200 28.02800 44.55900
C  54.31400 29.23000 44.62500
C  53.05800 28.77200 44.18200
C  53.11500 27.39500 43.91100
C  54.72800 30.64100 44.98300
C  51.75800 29.29700 43.86100
O  51.33500 30.45800 43.93200
C  50.91300 28.02000 43.36100
C  50.42000 28.27100 41.99800
O  51.16700 28.68000 41.12200
O  49.10000 27.90200 41.82400
C  48.71200 27.97400 40.42400
H  52.44500 21.39300 42.90800
H  58.78800 22.93000 44.16900
H  57.03300 28.87100 44.89800
H  49.74200 25.26800 42.83100
H  50.74400 22.68400 42.12000
H  49.37600 23.82500 44.52800
H  50.86900 23.02100 45.10500
H  49.65200 22.10400 44.20600
H  51.05000 24.02500 40.41100
H  50.85800 25.81800 40.25300
H  48.26900 24.88800 40.91500
H  48.91400 23.41600 40.38800
H  53.70700 19.70800 42.07700
H  54.19900 18.99000 43.56900
H  55.19600 18.73700 42.11600
H  59.45000 21.11300 43.09400
H  59.70000 19.53700 44.00400
H  58.89600 20.95400 44.75900
H  59.88100 25.07800 43.85600
H  59.10000 27.42500 45.60900
H  60.14800 23.90600 46.06500
H  58.93100 25.06700 46.80500
H  60.52200 25.48100 46.50100
H  58.68600 27.93400 42.68900
H  60.18100 27.08000 43.03000
H  59.82200 29.77600 43.10400
H  61.21500 28.93400 44.09100
H  59.62400 29.38400 44.76200
H  53.94400 31.28100 44.57900
H  55.71300 30.87200 44.57600
H  54.83200 30.72900 46.06400
H  50.19900 27.83200 44.16300
H  47.86200 27.33400 40.19100
H  49.51300 27.69000 39.74200
H  48.41500 28.99300 40.17300

