158

Mg 1.74600 -1.71300 44.02200
C  5.02100 -0.76900 43.70700
C  0.75500 1.11000 42.38400
C  -1.42600 -2.73800 44.36700
C  2.92000 -4.92700 45.08400
N  2.82100 -0.19300 42.90100
C  4.11900 0.16200 43.15500
C  4.41800 1.41000 42.42400
C  3.07400 2.13000 42.03900
C  2.11400 0.92800 42.39100
C  2.72400 3.51300 42.70500
C  5.41200 1.20300 41.24000
C  6.46700 2.32200 41.15500
H  6.36300 3.19600 39.90400
N  -0.07700 -0.79300 43.65800
C  -0.28100 0.30700 42.82300
C  -1.64500 0.50500 42.70200
C  -2.35900 -0.56700 43.34700
C  -1.28200 -1.45200 43.80900
C  -2.20000 1.72600 42.01800
C  -3.83400 -0.69100 43.53600
O  -4.63900 0.14400 43.13100
C  -4.54300 -1.97100 44.07400
N  0.92000 -3.55900 44.73900
C  -0.48100 -3.62800 44.81100
C  -0.85800 -5.07000 45.20300
C  0.46900 -5.81900 45.34400
C  1.52300 -4.72700 45.06600
C  -1.54100 -4.92600 46.60700
C  0.67400 -7.03800 44.43300
C  1.21700 -8.30700 45.03900
N  3.59500 -2.79000 44.18100
C  3.87800 -3.99000 44.80500
C  5.32500 -4.05900 44.92500
C  5.85700 -2.82200 44.48200
C  4.73800 -2.06800 44.12600
C  6.07300 -5.33800 45.40300
C  6.99300 -1.96300 44.41300
O  8.13300 -2.23100 44.75000
C  6.47100 -0.53700 43.87700
C  6.86200 0.59600 44.79700
O  6.19100 1.10100 45.67400
O  8.04000 1.09900 44.28800
C  8.14800 2.58600 44.43600
H  0.43900 2.06400 41.95700
H  -2.41400 -3.20100 44.33800
H  3.24300 -5.91800 45.41200
H  4.97900 1.94400 43.19100
H  3.05300 2.38800 40.98000
H  2.36700 4.16500 41.90800
H  3.58500 3.90300 43.24700
H  1.89200 3.50600 43.40800
H  4.75400 1.29500 40.37500
H  6.01800 0.29800 41.26900
H  7.41700 1.79100 41.09200
H  6.57100 2.95300 42.03800
H  -1.62500 2.07800 41.16200
H  -1.95100 2.57800 42.65100
H  -3.25900 1.88600 41.81600
H  -5.62300 -1.86200 43.97300
H  -4.11000 -2.11200 45.06400
H  -4.27500 -2.88400 43.54100
H  -1.54300 -5.58500 44.52900
H  0.52800 -6.17600 46.37300
H  -1.66500 -5.92700 47.02200
H  -2.54700 -4.50500 46.62700
H  -0.88300 -4.31800 47.22600
H  1.34900 -6.84400 43.59900
H  -0.22800 -7.27200 43.86900
H  0.57900 -9.11400 44.67900
H  1.10600 -8.32700 46.12300
H  2.24800 -8.52000 44.75700
H  5.54900 -5.83200 46.22100
H  7.05300 -5.01600 45.75500
H  6.16500 -6.04900 44.58200
H  6.92400 -0.45300 42.88900
H  7.20900 3.13900 44.47000
H  8.71600 3.06800 43.64100
H  8.69100 2.72500 45.37100
Mg 36.17800 48.42100 26.55300
C  36.40600 46.26900 29.40200
C  34.47400 50.68400 28.48300
C  35.46800 50.11500 23.69200
C  37.09600 45.62200 24.62300
N  35.36300 48.31600 28.61500
C  35.64600 47.46800 29.67900
C  35.36700 48.14500 31.06100
C  34.46800 49.39000 30.62500
C  34.76400 49.50500 29.12300
C  32.92700 49.24700 30.97200
C  36.74900 48.54700 31.78300
C  36.78500 48.33400 33.28900
H  36.52200 49.55600 34.12900
N  35.31100 50.25100 26.16700
C  34.64000 50.98100 27.11800
C  34.12000 52.16700 26.39500
C  34.39800 51.97500 25.05300
C  35.09300 50.73100 24.94300
C  33.45800 53.35600 27.12500
C  34.04000 52.92900 23.80600
O  34.28600 52.63900 22.64200
C  33.23000 54.16300 23.98200
N  36.27700 47.92400 24.39200
C  35.98100 48.85600 23.44600
C  36.05500 48.19600 22.05100
C  36.92900 46.88100 22.36700
C  36.79600 46.77400 23.92200
C  34.64700 47.95700 21.44900
C  38.36900 46.80500 21.80200
C  38.55800 45.84300 20.70500
N  36.76500 46.43000 26.82400
C  37.14800 45.35100 25.96000
C  37.51900 44.19900 26.62200
C  37.37700 44.50200 27.98600
C  36.85600 45.86200 28.09000
C  37.97600 42.91600 26.10200
C  37.51600 44.04200 29.37800
O  37.84700 42.94300 29.68500
C  37.07000 45.23900 30.31800
C  36.12300 44.72200 31.34100
O  34.95300 44.47000 31.10600
O  36.65400 44.73600 32.64700
C  35.55900 44.50100 33.66000
H  33.97500 51.44000 29.09200
H  35.06200 50.49000 22.75000
H  37.45300 44.82300 23.96900
H  34.76400 47.40100 31.58200
H  34.79900 50.28800 31.14500
H  32.70700 48.23800 31.32200
H  32.39500 49.38600 30.03100
H  32.57200 49.97600 31.70100
H  37.05100 49.57000 31.56200
H  37.49700 47.91700 31.30100
H  37.74500 47.88900 33.55300
H  36.06300 47.59200 33.63100
H  33.91100 54.31200 26.86200
H  33.49800 53.23400 28.20800
H  32.41200 53.31900 26.82200
H  32.36600 53.93300 24.60500
H  32.91200 54.57600 23.02500
H  33.75000 54.94200 24.53800
H  36.65400 48.79200 21.36200
H  36.45500 45.94000 22.08400
H  34.55500 48.26300 20.40700
H  33.93000 48.50700 22.05800
H  34.36500 46.90400 21.43200
H  39.16200 46.55200 22.50600
H  38.68400 47.79400 21.46900
H  39.59400 45.50700 20.76400
H  38.47600 46.35800 19.74800
H  37.89900 44.98300 20.82800
H  38.66600 42.36200 26.73700
H  38.46700 43.04900 25.13800
H  37.09500 42.27700 26.03900
H  38.00600 45.68600 30.65400
H  34.68600 45.13900 33.80000
H  36.03500 44.31400 34.62300
H  35.06000 43.55800 33.43600

