158

Mg 48.28000 34.98000 27.36100
C  46.49400 33.45200 30.06600
C  49.08100 37.47600 29.35200
C  49.88500 36.28800 24.73400
C  46.96800 32.46000 25.31900
N  47.78500 35.30200 29.47000
C  47.15900 34.57300 30.45200
C  47.38800 35.14100 31.86200
C  47.89200 36.57600 31.49100
C  48.25200 36.48000 29.94700
C  46.85200 37.78600 31.85600
C  48.31900 34.24100 32.70300
C  47.87100 33.94100 34.13700
H  46.98900 35.00700 34.85000
N  49.43000 36.56900 27.14000
C  49.69300 37.53200 28.05900
C  50.63100 38.50900 27.52700
C  50.95200 38.15900 26.17500
C  50.11100 36.97400 25.95600
C  51.10500 39.70700 28.38700
C  51.74100 38.92900 25.14700
O  51.91300 38.61700 23.94000
C  52.31100 40.20300 25.64700
N  48.44000 34.35000 25.34200
C  49.10500 35.09200 24.41200
C  49.03100 34.47200 22.96800
C  48.29300 33.16100 23.26600
C  47.84500 33.29500 24.73100
C  48.29600 35.32500 21.88000
C  49.22600 32.01500 23.07700
C  48.72200 30.75000 22.39600
N  46.95600 33.35700 27.55500
C  46.59900 32.36300 26.67100
C  45.92200 31.20300 27.38400
C  45.80000 31.72400 28.66600
C  46.49900 32.94900 28.76200
C  45.38100 29.93600 26.69300
C  45.25800 31.46300 29.95200
O  44.55000 30.55400 30.27200
C  45.60700 32.62600 30.90300
C  46.16500 31.87400 32.03100
O  47.36200 31.49100 32.03300
O  45.15800 31.53700 32.96700
C  45.58000 30.52000 33.85800
H  49.52100 38.10800 30.12600
H  50.37600 36.75100 23.87500
H  46.75400 31.55600 24.74600
H  46.45400 35.08300 32.42100
H  48.85900 36.75500 31.96200
H  47.37100 38.35300 32.62900
H  45.90600 37.36500 32.19600
H  46.57800 38.32600 30.95000
H  49.26000 34.72900 32.95800
H  48.54300 33.43800 32.00200
H  48.78300 33.79600 34.71700
H  47.41100 32.97300 34.33500
H  50.86500 39.52600 29.43400
H  50.48400 40.55500 28.09900
H  52.11900 40.05700 28.18900
H  53.06600 39.98400 26.40300
H  51.55300 40.92200 25.95800
H  52.77300 40.64600 24.76500
H  50.05900 34.37300 22.61700
H  47.51900 33.05700 22.50500
H  48.98300 35.68300 21.11300
H  47.64300 36.06600 22.34100
H  47.59800 34.75200 21.26800
H  49.66400 31.67800 24.01700
H  50.08500 32.36700 22.50700
H  49.31600 30.43900 21.53600
H  47.66500 30.84500 22.14600
H  48.84000 29.99000 23.16800
H  44.58400 30.19800 25.99700
H  45.16700 29.21100 27.47700
H  46.18400 29.55800 26.06000
H  44.70500 33.15500 31.21100
H  45.63500 29.54900 33.36700
H  44.87400 30.32200 34.66400
H  46.55300 30.64700 34.33300
Mg 4.20000 55.03800 41.10000
C  4.45600 51.64900 40.25500
C  7.19700 55.49400 39.25800
C  3.74000 58.43800 41.23700
C  1.02600 54.49500 42.33700
N  5.46700 53.70500 39.65900
C  5.43000 52.37600 39.61700
C  6.56100 51.79900 38.78600
C  7.61500 52.89300 38.98700
C  6.72500 54.12500 39.28900
C  8.72200 52.83900 40.02400
C  6.03000 51.42800 37.29500
C  6.14900 52.54700 36.23800
H  5.45200 52.28800 34.84100
N  5.27900 56.71200 40.33000
C  6.46900 56.68300 39.64000
C  6.95100 58.01000 39.39400
C  5.95500 58.89100 39.96000
C  4.94000 58.02300 40.59600
C  8.35800 58.36200 38.95900
C  6.00300 60.38600 39.85500
O  6.95600 60.94500 39.37500
C  4.99000 61.30600 40.38600
N  2.53400 56.25800 41.48500
C  2.60500 57.61100 41.55200
C  1.39000 58.22800 42.13300
C  0.56300 57.04300 42.51000
C  1.37600 55.87300 42.04100
C  1.66000 59.15400 43.41300
C  -0.92300 57.12500 42.07400
C  -1.90400 56.96200 43.26200
N  2.99300 53.43700 41.42900
C  1.77600 53.33300 42.05800
C  1.50900 51.91800 42.24300
C  2.52500 51.25000 41.52100
C  3.32600 52.19600 40.96700
C  0.36900 51.29600 42.99700
C  2.97900 49.93200 41.13600
O  2.55200 48.85000 41.44500
C  4.36800 50.10000 40.38200
C  4.25600 49.19400 39.24300
O  3.35200 49.27400 38.42200
O  5.33700 48.36200 39.23500
C  5.18900 47.34200 38.23600
H  8.21800 55.72000 38.94300
H  3.52900 59.50600 41.32300
H  0.08600 54.34800 42.87300
H  6.90200 50.89400 39.28900
H  8.15300 53.00800 38.04600
H  9.67500 52.93500 39.50400
H  8.63600 51.92400 40.61000
H  8.54900 53.56800 40.81500
H  4.99100 51.11400 37.19300
H  6.60400 50.58000 36.92000
H  7.19900 52.76500 36.04500
H  5.81700 53.51600 36.61200
H  8.83800 58.78000 39.84400
H  8.21500 59.02000 38.10200
H  8.97900 57.52000 38.65300
H  5.27400 62.33800 40.17900
H  4.91300 61.14500 41.46100
H  4.12100 61.03000 39.78900
H  0.85700 58.78900 41.36500
H  0.54500 56.90500 43.59100
H  2.66300 58.97600 43.80100
H  0.84400 59.02500 44.12400
H  1.58900 60.16200 43.00500
H  -1.04000 56.41800 41.25200
H  -1.20200 58.08100 41.63100
H  -2.64000 57.76300 43.19200
H  -1.42200 57.03000 44.23700
H  -2.40700 55.99900 43.35200
H  0.58900 50.34000 43.47200
H  -0.38100 50.98300 42.27200
H  -0.08300 51.94300 43.74900
H  5.12400 49.69900 41.05800
H  4.16800 47.09800 37.94100
H  5.57100 46.37600 38.56600
H  5.73200 47.50500 37.30600

