158

Mg 47.26400 25.01400 27.63100
C  48.12000 27.26200 30.13700
C  46.55600 22.72400 30.06500
C  46.24300 23.02500 25.21700
C  48.57000 27.28800 25.25200
N  47.46900 25.00900 29.84800
C  47.61500 26.09500 30.62400
C  47.41500 25.70700 32.10200
C  47.29600 24.17200 32.05700
C  47.12600 23.88800 30.52600
C  48.35300 23.30300 32.72400
C  46.22100 26.43900 32.73300
C  45.60900 25.93400 34.12100
H  45.38400 26.97800 35.20300
N  46.55400 23.01600 27.64800
C  46.30200 22.25200 28.74400
C  45.76000 21.00100 28.27400
C  45.56100 21.16900 26.85900
C  46.19800 22.43500 26.49400
C  45.35200 19.84300 29.20600
C  44.79900 20.22900 25.94200
O  44.58400 20.51700 24.76000
C  44.18900 18.97600 26.37700
N  47.49400 25.08000 25.55100
C  46.88700 24.16700 24.80300
C  46.91100 24.56800 23.33200
C  47.67900 25.94400 23.28600
C  47.97600 26.11300 24.77800
C  47.47700 23.44800 22.41600
C  46.81700 27.06900 22.76300
C  47.54400 28.12600 21.96200
N  48.23700 26.85200 27.63300
C  48.73100 27.64900 26.60300
C  49.36400 28.86800 27.22800
C  49.11200 28.71600 28.57000
C  48.50100 27.47500 28.82700
C  50.10300 29.96800 26.54500
C  49.18000 29.42700 29.87000
O  49.61900 30.53000 30.13900
C  48.41800 28.53900 30.93800
C  49.24300 28.37300 32.21400
O  50.31300 27.87000 32.40000
O  48.54000 29.05900 33.19500
C  49.10300 29.26400 34.49400
H  46.33500 21.95500 30.80700
H  45.84500 22.45600 24.37400
H  48.88800 27.87900 24.39000
H  48.31200 26.03100 32.63000
H  46.34900 23.91200 32.52900
H  49.07000 23.96500 33.21000
H  48.73100 22.59300 31.98800
H  47.83700 22.72500 33.49000
H  45.49000 26.47100 31.92400
H  46.37200 27.50400 32.90600
H  46.25600 25.20000 34.60200
H  44.60000 25.53400 34.01600
H  44.32100 19.52900 29.04300
H  45.32200 20.06200 30.27300
H  46.06200 19.05600 28.95300
H  43.97800 18.25800 25.58400
H  43.24700 19.00000 26.92400
H  44.93400 18.48300 27.00200
H  45.85000 24.64100 23.09300
H  48.57500 25.84000 22.67500
H  48.29000 22.97400 22.96600
H  47.95300 24.02800 21.62500
H  46.72300 22.72100 22.11300
H  46.35800 27.50900 23.64900
H  46.06800 26.64400 22.09500
H  48.54600 27.81100 21.66900
H  47.68200 28.97100 22.63700
H  47.10600 28.38600 20.99800
H  49.55100 30.29200 25.66200
H  51.10400 29.71500 26.19700
H  50.06100 30.83200 27.20900
H  47.53500 29.04900 31.32300
H  49.17000 30.32800 34.72000
H  50.13500 28.91600 34.47300
H  48.65000 28.79000 35.36500
Mg 6.06700 55.63200 39.35500
C  5.41500 52.23300 39.77900
C  9.47000 55.03500 38.61800
C  6.45200 58.83900 38.06600
C  2.56500 56.31700 39.60400
N  7.15000 53.82800 38.98000
C  6.72900 52.53500 39.38600
C  7.93600 51.57000 39.19600
C  9.18600 52.53400 39.25900
C  8.57200 53.91900 38.94500
C  10.02300 52.49700 40.56600
C  7.86400 50.67000 37.95700
C  7.53400 51.31200 36.57000
H  6.08100 51.02500 36.12300
N  7.73700 56.75700 38.49800
C  9.04100 56.33900 38.33600
C  9.86600 57.43900 37.96700
C  8.98900 58.53700 37.69700
C  7.62400 58.06500 38.03700
C  11.42800 57.32800 37.84800
C  9.43700 59.94500 37.42100
O  10.57800 60.15600 37.05800
C  8.54300 61.13800 37.42500
N  4.67200 57.29900 38.87000
C  5.15100 58.46800 38.43400
C  3.99900 59.57500 38.41200
C  2.78100 58.67700 38.73300
C  3.40700 57.39900 39.24400
C  4.16400 60.69000 39.41300
C  1.89000 58.49300 37.44600
C  1.10700 59.76800 37.08100
N  4.28500 54.57000 39.67200
C  2.95300 54.95800 39.80700
C  2.14700 53.82900 40.23600
C  3.06000 52.75600 40.32300
C  4.31700 53.21000 39.90600
C  0.72100 53.76800 40.45700
C  3.18000 51.30100 40.62400
O  2.49000 50.42200 41.11400
C  4.67900 50.89000 40.20600
C  4.58100 49.90600 39.19300
O  3.75900 50.00600 38.27400
O  5.36000 48.77900 39.50400
C  4.96800 47.64000 38.73400
H  10.47500 54.66300 38.40700
H  6.49800 59.83100 37.61100
H  1.49400 56.51900 39.68300
H  7.91100 50.93500 40.08100
H  9.90000 52.21400 38.50000
H  9.71200 51.85500 41.39000
H  10.15900 53.51900 40.91900
H  10.99800 52.09800 40.28500
H  7.09100 49.93000 38.16200
H  8.78900 50.09900 37.87700
H  8.35900 51.03200 35.91500
H  7.62200 52.39900 36.56700
H  11.60400 57.33300 36.77300
H  11.77800 56.41500 38.32900
H  11.88400 58.17700 38.35800
H  9.08100 62.04300 37.14200
H  7.98100 61.19800 38.35700
H  7.92600 60.87700 36.56500
H  3.88600 60.03400 37.43000
H  2.07700 59.10100 39.44900
H  5.22800 60.90600 39.51200
H  3.91200 60.27200 40.38700
H  3.49100 61.54400 39.35300
H  1.17500 57.67200 37.49400
H  2.54500 58.24700 36.60900
H  0.05200 59.60600 37.30300
H  1.19100 59.90900 36.00300
H  1.49800 60.63900 37.60700
H  0.15600 53.36900 39.61400
H  0.28300 54.65000 40.92500
H  0.45600 52.91500 41.08300
H  5.15300 50.34900 41.02500
H  5.90800 47.22000 38.37600
H  4.22800 47.68000 37.93500
H  4.48300 46.94800 39.42300

