158

Mg 47.42800 15.87400 28.85600
C  45.46100 15.18700 31.53100
C  49.64000 17.56500 30.98700
C  49.26000 16.73500 26.08800
C  45.02500 14.42100 26.82600
N  47.44600 16.37100 30.99400
C  46.60000 15.86800 31.90200
C  46.93300 16.41600 33.32000
C  48.10700 17.38700 33.04300
C  48.48400 17.10500 31.56800
C  47.96700 18.90600 33.38500
C  47.15500 15.33800 34.35900
C  47.63700 15.74400 35.75900
H  47.02600 16.92700 36.37000
N  49.19500 17.04500 28.50400
C  49.97600 17.59100 29.55700
C  51.16900 18.15500 28.96300
C  51.05200 17.92400 27.51200
C  49.79000 17.17800 27.32300
C  52.27700 18.69500 29.78400
C  52.00100 18.43500 26.30200
O  51.70900 18.32600 25.10000
C  53.28200 19.15700 26.71400
N  47.23300 15.51100 26.77400
C  48.13300 15.90500 25.81000
C  47.56500 15.63700 24.38600
C  46.35100 14.66900 24.72100
C  46.22400 14.83200 26.24100
C  47.38400 16.80700 23.42300
C  46.68400 13.13900 24.47400
C  46.33400 12.51400 23.11600
N  45.60600 14.93600 29.10200
C  44.68200 14.47800 28.22100
C  43.67100 13.77900 28.90600
C  43.91200 14.01700 30.25400
C  45.04900 14.80300 30.30000
C  42.31700 13.16100 28.33300
C  43.45500 13.86600 31.62300
O  42.47100 13.32200 32.09900
C  44.44600 14.68700 32.49400
C  43.55100 15.75600 33.03800
O  43.07300 16.70300 32.40400
O  43.44500 15.64200 34.41200
C  42.83300 16.74600 35.15800
H  50.26400 18.13700 31.67700
H  49.92700 16.94100 25.24800
H  44.36500 13.88900 26.13800
H  46.10100 17.05400 33.61800
H  48.89500 17.09000 33.73400
H  46.89000 19.05400 33.46800
H  48.38400 19.55900 32.61800
H  48.61400 19.04900 34.25000
H  48.06300 14.89000 33.95500
H  46.48500 14.47900 34.40100
H  48.71800 15.80700 35.63300
H  47.56300 14.88300 36.42400
H  52.68000 19.68500 29.56900
H  53.00000 17.89300 29.63100
H  52.08500 18.63500 30.85600
H  52.98300 19.98200 27.36100
H  53.76800 19.51100 25.80500
H  53.92600 18.43400 27.21600
H  48.39100 15.01100 24.04900
H  45.45400 15.08200 24.26000
H  46.47200 16.64300 22.84900
H  48.16500 16.80900 22.66200
H  47.25800 17.76200 23.93200
H  46.16800 12.53000 25.21600
H  47.75500 13.01400 24.63600
H  47.09600 11.78400 22.84100
H  46.13400 13.24200 22.32900
H  45.43500 11.89800 23.09800
H  41.93000 13.65900 27.44400
H  41.51800 13.12800 29.07400
H  42.51300 12.12700 28.04800
H  44.87700 14.14600 33.33600
H  41.77300 16.49200 35.17200
H  43.10500 17.67300 34.65400
H  43.06000 16.97700 36.19900
Mg -11.21800 16.99500 41.97500
C  -7.76500 16.74900 42.32600
C  -10.80200 20.46200 41.46800
C  -14.52700 17.25400 41.45200
C  -11.38600 13.49000 42.06100
N  -9.45000 18.38900 41.84700
C  -8.11400 18.05100 42.05000
C  -7.22700 19.28500 42.02300
C  -8.28500 20.49000 42.21800
C  -9.61100 19.72700 41.82700
C  -8.28100 21.04300 43.71900
C  -6.45300 19.38000 40.62900
C  -4.92300 19.43300 40.74600
H  -4.21400 18.59400 39.69700
N  -12.48900 18.64200 41.57200
C  -12.09500 19.91900 41.27300
C  -13.23700 20.69400 40.88000
C  -14.36500 19.86800 41.10600
C  -13.86100 18.52100 41.43800
C  -13.13000 22.13000 40.37200
C  -15.80700 20.32500 41.10100
O  -16.16800 21.49600 40.87000
C  -16.90400 19.34800 41.56200
N  -12.70100 15.49600 41.50800
C  -14.03200 15.95700 41.62300
C  -14.87700 14.72100 41.71100
C  -13.90100 13.49500 41.92600
C  -12.57900 14.20500 41.79100
C  -16.04900 14.73200 42.72000
C  -14.11600 12.21600 41.06000
C  -14.63800 10.89900 41.68500
N  -9.88400 15.40800 42.17200
C  -10.11000 14.09500 42.14400
C  -8.85800 13.40200 42.45100
C  -7.89700 14.42300 42.56200
C  -8.60300 15.61500 42.36100
C  -8.64500 11.88600 42.57700
C  -6.47100 14.67800 42.75800
O  -5.51100 13.95400 42.96900
C  -6.40700 16.27000 42.70100
C  -5.88400 16.73200 44.01100
O  -6.57700 16.97100 44.95900
O  -4.46100 16.70500 44.05400
C  -3.84700 16.99600 45.33700
H  -10.65800 21.53000 41.29500
H  -15.60500 17.39100 41.34200
H  -11.59900 12.42800 42.19800
H  -6.50700 19.34000 42.84000
H  -8.05000 21.21700 41.44000
H  -7.49400 20.64300 44.35700
H  -9.26500 20.90900 44.16800
H  -8.17000 22.11400 43.54600
H  -6.62400 20.33600 40.13600
H  -6.81300 18.62900 39.92600
H  -4.66800 19.15000 41.76700
H  -4.48800 20.41800 40.58100
H  -13.42500 22.71600 41.24300
H  -13.75100 22.36600 39.50800
H  -12.10400 22.40000 40.12300
H  -17.68500 19.98100 41.98200
H  -16.47900 18.94500 42.48100
H  -17.12500 18.54600 40.85700
H  -15.35700 14.71300 40.73200
H  -14.11700 13.15400 42.93900
H  -16.17900 13.72400 43.11500
H  -16.94900 15.07900 42.21300
H  -15.83400 15.54700 43.41000
H  -13.23800 11.91800 40.48700
H  -14.82500 12.35200 40.24400
H  -14.67800 10.01300 41.05100
H  -15.55000 11.03400 42.26600
H  -13.89300 10.67300 42.44700
H  -9.64100 11.49800 42.78700
H  -7.92000 11.58400 43.33400
H  -8.23200 11.42400 41.68100
H  -5.67100 16.56100 41.95200
H  -4.50400 16.83800 46.19200
H  -3.30100 17.93100 45.21400
H  -3.06700 16.23600 45.37400

