158

Mg 1.09500 -0.93600 43.76600
C  4.49900 -0.44000 43.08100
C  0.19800 1.66900 41.83700
C  -2.20100 -2.15700 43.66000
C  1.96000 -4.05000 45.11800
N  2.26400 0.26800 42.28400
C  3.63100 0.42800 42.31100
C  3.98600 1.66600 41.57700
C  2.59300 2.45700 41.55300
C  1.58300 1.41200 41.89000
C  2.44400 3.68400 42.39400
C  4.83000 1.48900 40.26700
C  6.23400 2.16600 40.09100
H  6.49000 2.96500 38.80100
N  -0.75300 -0.25500 43.01200
C  -0.83800 0.82200 42.11900
C  -2.15400 1.06700 41.89300
C  -2.93200 0.00300 42.42600
C  -1.98500 -0.86200 43.08900
C  -2.62300 2.37800 41.20700
C  -4.46500 -0.03700 42.42000
O  -5.10900 0.89700 41.94900
C  -5.19400 -1.22100 42.92700
N  0.02200 -2.83000 44.23000
C  -1.30300 -3.04900 44.21600
C  -1.73700 -4.46400 44.77600
C  -0.40600 -4.92700 45.38600
C  0.57800 -3.90200 44.84200
C  -3.04300 -4.61400 45.57600
C  -0.09500 -6.39800 45.00400
C  -0.26300 -7.35700 46.20700
N  2.85200 -2.05600 44.12200
C  3.02100 -3.23000 44.77600
C  4.42600 -3.44100 45.02000
C  5.06000 -2.38000 44.27600
C  4.06900 -1.54200 43.78800
C  5.17000 -4.53700 45.69900
C  6.32700 -1.75000 43.96700
O  7.46100 -2.07000 44.27400
C  6.02700 -0.49900 43.13200
C  6.62100 0.76400 43.69300
O  6.24400 1.17800 44.81500
O  7.67500 1.30600 42.99100
C  8.48500 2.24100 43.79100
H  0.02300 2.67700 41.45500
H  -3.19700 -2.60600 43.66100
H  2.27600 -4.90100 45.72600
H  4.63400 2.21700 42.25800
H  2.46100 2.71900 40.50400
H  3.30700 3.93000 43.01300
H  1.55000 3.72800 43.01500
H  2.45200 4.48600 41.65600
H  4.33700 1.94500 39.40800
H  4.91000 0.40600 40.16900
H  7.02000 1.41000 40.09100
H  6.45000 2.67100 41.03300
H  -1.92700 3.21100 41.10500
H  -3.44100 2.78500 41.80100
H  -2.92700 2.22400 40.17200
H  -5.09800 -1.34600 44.00600
H  -4.66000 -2.02100 42.41400
H  -6.23000 -1.25800 42.59100
H  -1.89700 -4.91900 43.79900
H  -0.40800 -4.71500 46.45600
H  -3.48600 -3.65200 45.83600
H  -2.79700 -4.96900 46.57700
H  -3.62600 -5.38100 45.06700
H  0.90100 -6.44400 44.56200
H  -0.70100 -6.75600 44.17200
H  -1.19300 -7.09700 46.71200
H  0.60100 -7.32500 46.87000
H  -0.40200 -8.36000 45.80200
H  4.64200 -4.81700 46.61100
H  6.15200 -4.14300 45.95900
H  5.18300 -5.39400 45.02600
H  6.35000 -0.79000 42.13300
H  7.92400 3.14500 44.02900
H  9.37600 2.45600 43.20100
H  8.91500 1.76400 44.67200
Mg 48.16000 34.69400 27.04000
C  46.46000 33.22500 29.71100
C  48.25500 37.72800 28.93400
C  48.95000 36.38500 24.29000
C  47.44400 31.82300 25.15200
N  47.64100 35.32000 29.16800
C  47.16600 34.39700 30.09100
C  47.29500 35.03300 31.41400
C  47.38800 36.60500 31.18900
C  47.81800 36.61000 29.70900
C  46.15100 37.37200 31.35600
C  48.56700 34.38400 32.05500
C  48.77800 34.63600 33.61300
H  47.79400 35.51400 34.38300
N  48.56100 36.73400 26.65400
C  48.53300 37.79900 27.51000
C  48.95000 38.98400 26.83800
C  49.15600 38.68900 25.48700
C  48.89200 37.23500 25.43100
C  49.16500 40.26100 27.54400
C  49.68200 39.58300 24.33500
O  49.62000 39.15700 23.14500
C  50.11000 41.05300 24.60800
N  48.16200 34.16500 24.96400
C  48.61900 35.02300 24.10700
C  48.91100 34.31800 22.73000
C  48.62400 32.76100 23.04100
C  48.01700 32.88500 24.45900
C  48.05500 35.01500 21.62000
C  49.79100 31.77800 22.73600
C  49.44900 30.34100 22.54000
N  47.21900 32.83000 27.28700
C  47.05500 31.72700 26.48700
C  46.40700 30.65600 27.20600
C  46.01500 31.26200 28.41000
C  46.58400 32.61800 28.44200
C  46.18700 29.29000 26.65000
C  45.31700 31.03700 29.67600
O  44.69800 30.01700 30.00600
C  45.46300 32.31100 30.47500
C  45.76200 31.97300 31.89800
O  46.75600 31.36600 32.33600
O  44.72500 32.43700 32.61300
C  44.60300 32.28800 34.03000
H  48.18200 38.68000 29.46500
H  49.28200 36.92400 23.40100
H  47.40400 30.90000 24.56900
H  46.48700 34.71500 32.07200
H  48.18500 37.04100 31.79100
H  45.28900 36.71000 31.27400
H  45.95700 38.21300 30.69000
H  46.19800 37.60700 32.41900
H  49.48200 34.76600 31.60400
H  48.59500 33.31200 31.85800
H  49.75800 35.09400 33.74400
H  48.80200 33.61200 33.98600
H  49.28200 41.08100 26.83600
H  49.94300 40.28700 28.30800
H  48.20300 40.44600 28.02200
H  50.64500 41.27500 23.68500
H  50.84500 40.99800 25.41100
H  49.19900 41.61700 24.81200
H  49.99300 34.36300 22.60900
H  47.88200 32.51700 22.28000
H  48.36900 36.04600 21.45700
H  46.97800 35.01500 21.78500
H  48.23800 34.50500 20.67400
H  50.44200 31.86700 23.60600
H  50.46700 32.23600 22.01500
H  50.17700 30.00500 21.80300
H  48.46200 30.17500 22.10800
H  49.45900 29.81300 23.49300
H  46.01100 28.70000 27.54900
H  47.03100 28.81200 26.15100
H  45.33300 29.18000 25.98200
H  44.55500 32.91000 30.40400
H  43.56700 32.03500 34.25500
H  44.82700 33.25000 34.49100
H  45.24900 31.55100 34.50600

