158

Mg 41.65700 9.00300 29.42500
C  43.57100 10.41000 31.95200
C  39.55500 7.65600 31.84100
C  39.85900 7.67700 26.95000
C  44.16100 9.87500 27.20400
N  41.78900 8.70200 31.71500
C  42.47100 9.62500 32.48900
C  41.97800 9.50700 33.97400
C  40.73100 8.49900 33.89700
C  40.69900 8.21500 32.41600
C  40.58000 7.35000 34.95900
C  41.78500 10.89900 34.65200
C  41.10100 10.84500 36.01100
H  41.90400 11.21500 37.19400
N  39.94600 7.85200 29.35700
C  39.21500 7.43600 30.48700
C  38.00700 6.76000 30.01500
C  38.08800 6.72500 28.57800
C  39.29300 7.46000 28.25100
C  37.17100 5.96500 30.98200
C  37.09500 6.13100 27.63400
O  37.39500 5.79600 26.44800
C  35.73400 5.84000 28.04100
N  41.99800 8.79300 27.38600
C  41.05500 8.32100 26.47900
C  41.56100 8.25900 25.01800
C  42.87700 9.13700 25.10800
C  43.07600 9.20900 26.67800
C  41.75500 6.85900 24.36800
C  42.81900 10.43500 24.28100
C  42.43200 11.77800 24.97500
N  43.51000 9.89100 29.54100
C  44.38000 10.20000 28.53200
C  45.48500 10.97900 29.02500
C  45.12700 11.15700 30.35000
C  44.00000 10.39100 30.62600
C  46.64900 11.44400 28.22700
C  45.50900 11.84300 31.58700
O  46.47600 12.57800 31.88100
C  44.52600 11.36000 32.73200
C  45.32000 10.58400 33.70500
O  45.77800 9.50800 33.40400
O  45.34200 11.18100 34.97800
C  45.95500 10.41800 36.07500
H  38.83700 7.44000 32.63500
H  39.25800 7.36700 26.09200
H  44.91600 10.09600 26.44800
H  42.78900 9.02000 34.51500
H  39.87700 9.14100 34.11100
H  41.33100 7.34700 35.75000
H  40.55400 6.33100 34.57200
H  39.61200 7.45400 35.44900
H  41.20500 11.40300 33.87800
H  42.76200 11.38200 34.67800
H  40.61600 9.89500 36.23200
H  40.32600 11.60900 35.95500
H  37.86400 5.58200 31.73100
H  36.76800 5.07200 30.50500
H  36.39200 6.57200 31.44300
H  35.37800 6.62300 28.71100
H  35.87800 4.93800 28.63600
H  35.14200 5.65000 27.14600
H  40.93000 8.74500 24.27400
H  43.73600 8.66200 24.63300
H  41.82900 6.07600 25.12300
H  42.64100 6.83900 23.73500
H  40.89200 6.66800 23.73000
H  42.22500 10.28400 23.38000
H  43.86200 10.49000 23.96900
H  41.93900 11.54600 25.92000
H  41.84300 12.43500 24.33600
H  43.35300 12.30000 25.23600
H  47.55900 11.21800 28.78200
H  46.44100 12.47700 27.94800
H  46.82500 10.80700 27.36100
H  44.07800 12.28400 33.09700
H  47.04100 10.49600 36.13200
H  45.70400 9.35700 36.05000
H  45.56500 10.79500 37.02100
Mg 34.59100 48.34200 26.43000
C  34.98900 46.12700 29.14800
C  33.89400 50.79100 28.66900
C  33.98800 50.37300 23.66400
C  34.90100 45.59400 24.26400
N  34.45000 48.32200 28.67500
C  34.74000 47.37300 29.55200
C  34.75700 47.92800 30.96600
C  33.95500 49.28400 30.79500
C  34.15200 49.52900 29.26400
C  32.38400 49.08600 31.08600
C  36.16500 47.82800 31.67300
C  36.16000 47.45600 33.20100
H  36.21300 48.65300 34.09700
N  34.18800 50.33200 26.18700
C  33.88700 51.19100 27.23000
C  33.62800 52.48400 26.73700
C  33.74700 52.44600 25.32000
C  34.03400 50.99600 25.00200
C  33.41600 53.67400 27.68100
C  33.78700 53.50100 24.27200
O  34.06300 53.20700 23.09500
C  33.44900 54.98000 24.63500
N  34.49800 48.04300 24.27700
C  34.23800 49.06200 23.33000
C  34.16900 48.46500 21.98500
C  34.69700 46.93700 22.18400
C  34.71400 46.79800 23.68300
C  32.89500 48.58600 21.20100
C  36.09600 46.68900 21.64500
C  36.06600 45.57500 20.61700
N  34.76400 46.21400 26.58000
C  34.96900 45.26700 25.63200
C  35.37700 43.98200 26.28800
C  35.22400 44.22700 27.68300
C  35.02200 45.63500 27.79200
C  35.83900 42.77900 25.55900
C  35.45700 43.70800 28.97400
O  35.72500 42.57500 29.35500
C  35.26900 44.91000 30.07100
C  34.22100 44.44800 30.97900
O  33.08000 44.26100 30.69800
O  34.74400 44.27400 32.24600
C  33.83000 44.16600 33.37400
H  33.58300 51.50900 29.43100
H  33.77500 51.04300 22.82900
H  34.87400 44.63200 23.74800
H  34.09600 47.37000 31.62900
H  34.43400 50.15800 31.23600
H  31.93400 49.35400 32.04200
H  32.17300 48.02900 30.92500
H  31.91400 49.64300 30.27600
H  36.57900 48.82500 31.51900
H  36.86700 47.14500 31.19600
H  37.07100 46.88400 33.37900
H  35.39900 46.72300 33.46800
H  32.40200 54.03400 27.50400
H  34.15800 54.46900 27.60000
H  33.29600 53.45600 28.74200
H  33.40100 55.66400 23.78800
H  34.30800 55.30700 25.22100
H  32.56300 55.11100 25.25600
H  34.88300 49.12200 21.49000
H  34.05700 46.16500 21.75600
H  32.39000 47.62200 21.24300
H  33.09000 48.89900 20.17500
H  32.07200 49.20700 21.55500
H  36.77200 46.39300 22.44700
H  36.46300 47.55100 21.08800
H  35.03700 45.33200 20.35200
H  36.46200 44.62400 20.97300
H  36.62300 45.90700 19.74100
H  36.68400 43.14100 24.97400
H  34.99100 42.49900 24.93500
H  36.06900 41.86100 26.10000
H  36.18700 45.10500 30.62500
H  32.93800 44.77000 33.20900
H  34.27200 44.48100 34.31900
H  33.66200 43.09500 33.48300

