158

Mg 53.52500 24.27400 43.99600
C  50.72200 26.68400 43.48300
C  51.17600 21.80800 43.20100
C  56.05000 22.29700 43.54100
C  55.52100 27.05800 44.12400
N  51.23800 24.34500 43.32400
C  50.32500 25.32900 43.27100
C  48.95000 24.71500 42.91500
C  49.04500 23.25300 43.28500
C  50.62800 23.08300 43.34500
C  48.31800 22.66500 44.51500
C  48.50400 25.18700 41.49100
C  49.23800 24.47900 40.30100
H  50.05500 25.30200 39.36200
N  53.59000 22.30800 43.52500
C  52.56400 21.48600 43.13000
C  53.13300 20.18900 42.76400
C  54.49700 20.21300 43.13900
C  54.77100 21.63500 43.42300
C  52.37000 19.01000 42.11100
C  55.39300 19.01600 43.38100
O  54.91400 17.88900 43.10500
C  56.80300 19.05200 43.89200
N  55.46900 24.57000 43.90300
C  56.35300 23.59000 43.71700
C  57.80000 24.17300 43.81400
C  57.55900 25.68400 43.85100
C  56.07200 25.76500 43.90900
C  58.66500 23.51800 44.96900
C  58.15900 26.57600 42.68000
C  58.77200 27.97900 43.11900
N  53.25700 26.41300 43.98300
C  54.21200 27.41000 44.03000
C  53.60500 28.72700 44.07600
C  52.26700 28.51300 43.88400
C  52.11500 27.07400 43.78600
C  54.37200 29.96800 44.38300
C  51.01200 29.11400 43.88800
O  50.69100 30.23700 44.22600
C  50.01700 28.12100 43.43700
C  49.68400 28.53300 42.02300
O  50.41200 28.35500 41.09700
O  48.39300 28.98400 41.86400
C  47.96300 29.51900 40.59200
H  50.46400 21.00100 43.01700
H  56.99600 21.79300 43.33500
H  56.13600 27.91900 44.39600
H  48.21300 25.12400 43.60600
H  48.67300 22.60400 42.49200
H  47.75300 23.46700 44.98900
H  48.96400 22.23300 45.28000
H  47.60600 21.87600 44.27300
H  48.57200 26.24400 41.23700
H  47.45700 24.89100 41.41900
H  48.48500 24.03100 39.65300
H  49.84500 23.61700 40.57900
H  52.68500 18.78800 41.09100
H  51.35100 19.37900 41.99000
H  52.30300 18.07000 42.65800
H  57.51100 19.13400 43.06800
H  56.98800 18.06900 44.32700
H  56.89000 19.85600 44.62300
H  58.30700 23.76900 42.93700
H  57.90000 26.19100 44.75400
H  58.26800 22.57300 45.34100
H  59.03200 24.25300 45.68500
H  59.51800 23.14900 44.39900
H  57.35800 26.70700 41.95200
H  58.94600 25.93000 42.29000
H  58.25300 28.72300 42.51400
H  59.85500 28.06800 43.03200
H  58.49000 28.13400 44.16100
H  53.61100 30.69600 44.66400
H  55.04100 30.22700 43.56200
H  55.04900 29.79400 45.21900
H  49.15700 28.15600 44.10700
H  46.89100 29.65900 40.72900
H  48.16900 28.84600 39.75900
H  48.43200 30.47500 40.35800
Mg 31.76500 58.50800 41.03500
C  28.96000 56.79500 39.29400
C  33.76700 55.99200 39.88000
C  34.29300 60.53300 41.74600
C  29.41100 61.14200 41.73900
N  31.38700 56.68100 39.68500
C  30.25900 56.20500 39.10900
C  30.62900 54.91000 38.29600
C  32.06700 54.62900 38.69000
C  32.44200 55.82500 39.49300
C  32.36100 53.24800 39.24000
C  30.28600 55.02800 36.82300
C  29.21100 54.14600 36.13700
H  28.29400 54.72700 35.02900
N  33.78200 58.26100 40.87400
C  34.47200 57.11500 40.43600
C  35.92200 57.42500 40.53200
C  36.08900 58.74800 41.06200
C  34.73900 59.24500 41.22200
C  36.92300 56.39900 40.09800
C  37.38400 59.44700 41.46500
O  38.51700 58.98600 41.38600
C  37.45900 60.78000 42.11800
N  31.83400 60.51600 41.71100
C  33.02300 61.13500 41.94100
C  32.83600 62.59000 42.44800
C  31.24400 62.72400 42.53400
C  30.77100 61.37100 41.96100
C  33.49300 62.93000 43.81700
C  30.58400 63.96400 41.88200
C  29.76500 64.86000 42.84200
N  29.53600 58.91400 40.75900
C  28.79000 60.05600 41.14100
C  27.41000 59.89700 40.53900
C  27.47400 58.58200 39.86800
C  28.75800 58.04700 40.05000
C  26.20800 60.72100 40.66000
C  26.65500 57.69000 39.10900
O  25.49500 57.76800 38.72600
C  27.57500 56.43500 38.74100
C  27.00700 55.23700 39.39900
O  27.46400 54.62500 40.37800
O  26.04300 54.65700 38.62400
C  25.35300 53.46600 39.17900
H  34.32200 55.11900 39.52900
H  35.08200 61.23400 42.02800
H  28.84300 62.02300 42.04400
H  29.99400 54.09000 38.63200
H  32.61900 54.86600 37.78100
H  32.57700 53.24500 40.30900
H  33.22900 52.79500 38.76200
H  31.48700 52.62500 39.04800
H  31.18700 54.96400 36.21300
H  29.91600 56.02100 36.56600
H  28.59100 53.78800 36.95800
H  29.75300 53.29800 35.71800
H  37.65000 57.05200 39.61500
H  36.45200 55.70000 39.40700
H  37.39300 55.82900 40.89900
H  38.51800 60.97100 42.29000
H  36.99800 60.70000 43.10300
H  37.12800 61.66700 41.57700
H  33.39200 63.12600 41.67900
H  30.91400 62.54600 43.55800
H  33.83800 62.08400 44.41000
H  32.88500 63.60100 44.42400
H  34.37800 63.53300 43.61800
H  29.99700 63.76400 40.98500
H  31.46600 64.51500 41.55600
H  28.87700 65.32700 42.41700
H  30.25600 65.76500 43.20000
H  29.34100 64.31900 43.68800
H  26.20200 61.26500 39.71500
H  26.28000 61.37300 41.53100
H  25.35800 60.03900 40.67500
H  27.59800 56.20300 37.67700
H  26.08000 52.66300 39.30400
H  24.46500 53.14600 38.63300
H  24.86500 53.67200 40.13100

