158

Mg 1.27200 8.55000 27.09500
C  1.87000 10.76200 29.91500
C  1.45700 5.95400 29.32300
C  1.46200 6.49800 24.42900
C  1.51100 11.29100 25.09400
N  1.71000 8.38900 29.39100
C  1.85600 9.35600 30.27900
C  1.69600 8.83600 31.68900
C  1.98700 7.31700 31.57900
C  1.67900 7.21100 30.04300
C  3.33700 6.71400 31.85600
C  0.31800 9.18800 32.30400
C  0.25200 9.26500 33.85000
H  1.29400 8.53400 34.69600
N  1.31400 6.51900 26.90500
C  1.27000 5.62500 27.93300
C  1.20900 4.26800 27.37700
C  1.29600 4.42800 25.95200
C  1.33200 5.85900 25.71800
C  1.11400 3.08200 28.22400
C  1.22000 3.40300 24.82500
O  1.35500 3.68400 23.58900
C  0.76200 2.01300 25.19200
N  1.67800 8.90400 24.98000
C  1.57100 7.85300 24.10000
C  1.55800 8.37900 22.63700
C  1.32300 9.88200 22.88900
C  1.45100 10.07500 24.39600
C  2.82800 7.98700 21.81100
C  0.03100 10.47400 22.25900
C  -1.20500 10.74200 23.09700
N  1.58300 10.59600 27.42800
C  1.63100 11.59000 26.45900
C  1.61600 12.91300 27.12500
C  1.74700 12.59600 28.51400
C  1.66800 11.23000 28.64300
C  1.70300 14.24800 26.61700
C  1.98800 13.15900 29.81800
O  2.17200 14.32400 30.20800
C  1.97900 11.99600 30.81800
C  3.08000 12.04400 31.74400
O  4.23700 11.69300 31.51500
O  2.67300 12.49900 32.95300
C  3.66100 12.47700 34.09400
H  1.50800 5.09100 29.99100
H  1.48700 5.95700 23.48100
H  1.36500 12.23400 24.56200
H  2.47600 9.37000 32.23100
H  1.24800 6.77600 32.17200
H  3.77400 6.14400 31.03600
H  3.18700 5.90100 32.56600
H  4.01100 7.52300 32.13800
H  -0.51900 8.56300 31.99200
H  0.07400 10.14800 31.84800
H  -0.82100 9.18900 34.02900
H  0.42300 10.29100 34.17500
H  0.17000 2.57800 28.01500
H  1.04700 3.33500 29.28200
H  2.01200 2.51200 27.98600
H  0.63500 1.46600 24.25800
H  -0.20500 2.08200 25.69200
H  1.38600 1.43700 25.87600
H  0.70800 7.91000 22.14100
H  2.10300 10.50900 22.45700
H  3.51000 7.55100 22.54000
H  3.32400 8.86400 21.39500
H  2.51300 7.25100 21.07100
H  -0.34700 9.71800 21.57100
H  0.24400 11.36300 21.66500
H  -2.00400 10.22000 22.57100
H  -1.38500 11.81700 23.11600
H  -1.25200 10.45600 24.14800
H  2.69600 14.55600 26.29100
H  1.44200 14.92300 27.43300
H  0.96500 14.58900 25.89100
H  1.03800 12.12800 31.35300
H  4.45200 11.74200 33.94600
H  3.09600 12.29600 35.00900
H  4.12700 13.45400 34.22600
Mg 0.50900 43.19700 26.85000
C  3.17900 43.48300 29.11900
C  -1.47100 42.60200 29.56100
C  -1.89700 42.59000 24.72400
C  2.76900 43.54800 24.28300
N  0.88700 42.87000 29.13300
C  2.00600 43.26100 29.80800
C  1.75500 43.27500 31.27600
C  0.36900 42.49900 31.41700
C  -0.14100 42.68500 29.98900
C  0.44000 41.07700 31.95900
C  1.69900 44.69200 31.68500
C  1.51200 45.02300 33.18300
H  1.37100 43.95100 34.20100
N  -1.46900 42.80800 27.09500
C  -2.15200 42.59000 28.28500
C  -3.48700 42.34000 28.05800
C  -3.66000 42.29900 26.66800
C  -2.32800 42.53300 26.06200
C  -4.51700 42.03300 29.12700
C  -4.88200 42.05900 25.85300
O  -4.87100 41.96900 24.64000
C  -6.27900 41.87500 26.46100
N  0.49300 42.97700 24.84600
C  -0.64300 42.73900 24.15300
C  -0.28800 42.51700 22.67800
C  1.09900 43.14300 22.50900
C  1.51400 43.20800 23.97700
C  -0.53700 40.95100 22.29100
C  1.15200 44.45900 21.63800
C  2.29100 44.40700 20.54900
N  2.51600 43.51200 26.63300
C  3.33700 43.65400 25.50500
C  4.71600 43.64300 25.81800
C  4.65700 43.65700 27.24800
C  3.32900 43.51100 27.63400
C  5.98400 43.79800 24.95600
C  5.50400 43.66800 28.44600
O  6.76800 43.64500 28.63900
C  4.49000 43.83500 29.68400
C  4.99300 43.01400 30.80000
O  5.14300 41.79300 30.76100
O  5.31300 43.83500 31.86500
C  5.85700 43.10000 33.06400
H  -2.22200 42.33900 30.30900
H  -2.70200 42.48400 23.99400
H  3.36600 43.76100 23.39300
H  2.50500 42.60900 31.70400
H  -0.20500 42.97100 32.21500
H  0.22700 41.13800 33.02600
H  1.42200 40.61800 31.84200
H  -0.27200 40.55700 31.31800
H  1.01300 45.28600 31.08100
H  2.63500 45.15900 31.38100
H  0.71700 45.76900 33.19400
H  2.52900 45.38400 33.34000
H  -5.04700 42.89300 29.53900
H  -4.00300 41.51100 29.93300
H  -5.27700 41.31500 28.82000
H  -7.03400 42.14500 25.72200
H  -6.47700 42.61400 27.23700
H  -6.36500 40.87900 26.89500
H  -0.93400 43.16700 22.08800
H  1.67700 42.32400 22.08000
H  -1.19900 40.52700 23.04700
H  0.32800 40.29000 22.33300
H  -0.99400 40.78600 21.31600
H  1.47400 45.18500 22.38500
H  0.20700 44.86100 21.27300
H  1.73200 44.25100 19.62600
H  3.04200 43.64500 20.75500
H  2.75100 45.39500 20.58800
H  6.52000 42.85000 24.89500
H  6.66100 44.53800 25.38300
H  5.61000 43.99800 23.95200
H  4.59800 44.87900 29.97800
H  4.94200 43.03700 33.65400
H  6.61200 43.62800 33.64600
H  6.19200 42.08600 32.84400

