158

Mg 35.75200 1.44900 29.71000
C  33.21900 2.46300 32.07000
C  38.03900 1.53700 32.35100
C  38.20000 1.07800 27.42000
C  33.40300 2.09900 27.25900
N  35.58800 1.95700 31.89200
C  34.50100 2.26900 32.70800
C  34.72300 2.26500 34.23500
C  36.32100 2.23400 34.19400
C  36.73300 1.85300 32.68900
C  37.02700 3.49700 34.68300
C  34.00000 1.12700 34.89400
C  33.50700 1.41000 36.34600
H  33.75800 2.79000 37.04000
N  37.85300 1.21000 29.86400
C  38.55600 1.16100 31.05900
C  39.91900 0.69600 30.74600
C  39.96600 0.63600 29.31400
C  38.66300 0.96000 28.82100
C  40.93800 0.40800 31.82500
C  41.12000 0.45700 28.37500
O  41.09400 0.51600 27.15900
C  42.47200 0.19200 28.91700
N  35.79100 1.64000 27.63700
C  36.92900 1.41200 26.87500
C  36.63500 1.63400 25.39900
C  35.05500 1.53300 25.34700
C  34.67500 1.77000 26.82800
C  37.14600 2.99800 24.95700
C  34.38100 0.25400 24.76100
C  33.67300 -0.71000 25.74700
N  33.66300 2.04000 29.62600
C  32.90000 2.26300 28.50700
C  31.53700 2.78700 28.93100
C  31.57600 2.79700 30.34200
C  32.89500 2.40700 30.75300
C  30.28600 3.00100 28.09500
C  30.85400 3.13500 31.57800
O  29.72100 3.62800 31.68700
C  31.89400 2.87900 32.77100
C  32.06600 4.16200 33.54000
O  32.85500 5.09200 33.36000
O  31.01700 4.20800 34.40700
C  30.85300 5.51000 35.01000
H  38.69000 1.56700 33.22700
H  38.83000 1.02600 26.53000
H  32.68600 2.44500 26.51100
H  34.50600 3.28500 34.55300
H  36.85700 1.50300 34.79900
H  36.87100 4.24500 33.90500
H  38.10400 3.32900 34.69300
H  36.59800 3.81200 35.63400
H  34.70300 0.29400 34.88700
H  33.10100 0.89100 34.32500
H  34.01200 0.60500 36.87900
H  32.44100 1.18300 36.36400
H  41.52400 1.26700 32.15100
H  41.52700 -0.38400 31.36200
H  40.49700 -0.09100 32.68800
H  42.67000 -0.87600 29.00900
H  42.74200 0.67400 29.85700
H  43.11800 0.60900 28.14400
H  37.10600 0.89600 24.75000
H  34.63800 2.36800 24.78400
H  36.56000 3.60400 24.26700
H  38.10700 2.90900 24.45100
H  37.49300 3.62100 25.78100
H  35.17200 -0.16500 24.13900
H  33.66400 0.55600 23.99700
H  33.44900 -1.68300 25.31000
H  32.66300 -0.36900 25.97300
H  34.08400 -0.84800 26.74700
H  29.56700 2.21800 28.33500
H  30.66000 2.80800 27.08900
H  29.96500 4.03100 28.24700
H  31.48400 2.12700 33.44400
H  30.63200 6.35500 34.35700
H  31.65100 5.79300 35.69500
H  29.97400 5.54500 35.65300
Mg 40.30800 8.35900 29.65900
C  42.28400 9.71500 32.23200
C  37.95900 7.53700 31.98000
C  38.55700 6.78800 27.19100
C  42.90700 9.03100 27.45000
N  40.27500 8.51100 31.82900
C  41.10300 9.24500 32.70600
C  40.50200 9.36200 34.03800
C  39.31100 8.40400 34.09500
C  39.12800 8.14500 32.50300
C  39.54200 7.07300 34.84900
C  40.04300 10.82800 34.47900
C  39.60000 10.93500 35.97000
H  40.52300 11.68500 36.86200
N  38.45500 7.35200 29.64600
C  37.61500 7.19200 30.67100
C  36.44800 6.37900 30.20700
C  36.57000 6.38600 28.80700
C  37.90600 6.86900 28.48900
C  35.32500 6.00200 31.12500
C  35.54900 6.00300 27.67000
O  35.71700 6.17500 26.48400
C  34.23100 5.39200 28.10000
N  40.74400 7.84100 27.63700
C  39.88200 7.16600 26.85400
C  40.36300 7.14300 25.38100
C  41.70900 7.95600 25.40700
C  41.83100 8.36000 26.94700
C  40.59300 5.65200 24.90200
C  41.74800 9.14400 24.39000
C  40.90300 10.28200 24.58900
N  42.26800 9.13000 29.72800
C  43.19900 9.42700 28.75600
C  44.39100 9.95400 29.31600
C  44.03700 10.24100 30.69300
C  42.72300 9.64900 30.88900
C  45.61300 10.20700 28.57100
C  44.46800 10.76200 31.96400
O  45.53100 11.27300 32.34300
C  43.30600 10.52100 32.90900
C  43.83700 9.81100 34.08500
O  44.28600 8.68100 33.94400
O  43.59400 10.51600 35.22400
C  44.01900 9.87700 36.45400
H  37.22400 7.43800 32.78200
H  38.11000 6.20800 26.38200
H  43.68800 9.17900 26.70100
H  41.27300 9.00700 34.72300
H  38.43400 8.89900 34.51100
H  40.49100 7.05400 35.38500
H  39.51500 6.16600 34.24500
H  38.86800 7.07000 35.70600
H  39.28100 11.20400 33.79600
H  40.89100 11.46200 34.22300
H  39.48900 9.94300 36.40900
H  38.62300 11.41700 35.94500
H  35.57400 6.23900 32.15900
H  35.22900 4.91600 31.10200
H  34.40500 6.53100 30.87700
H  33.77200 6.09000 28.80000
H  34.54400 4.47800 28.60400
H  33.59100 5.25600 27.22800
H  39.56300 7.39800 24.68600
H  42.57200 7.37800 25.07800
H  40.58700 5.69800 23.81300
H  39.74500 5.03500 25.20000
H  41.48700 5.21100 25.34200
H  41.69200 8.56000 23.47100
H  42.75500 9.53100 24.54700
H  40.16200 10.13500 23.80300
H  41.40700 11.21000 24.31800
H  40.46800 10.34400 25.58600
H  45.56800 11.17400 28.07000
H  45.74100 9.46600 27.78200
H  46.45300 10.25700 29.26400
H  42.83200 11.41100 33.32400
H  45.06700 10.08300 36.67300
H  43.80600 8.81200 36.54400
H  43.41300 10.29300 37.25900

