158

Mg 16.80700 52.17200 26.14600
C  18.84900 50.74300 28.56600
C  14.56100 52.81200 28.69700
C  14.78300 53.39300 23.81400
C  18.89000 50.91700 23.65200
N  16.70800 51.73900 28.31000
C  17.75200 51.34600 29.09900
C  17.41800 51.41600 30.56100
C  15.87200 51.66600 30.55000
C  15.69800 52.10100 29.12700
C  14.99000 50.47800 30.98800
C  18.29000 52.49700 31.25800
C  18.49400 52.50200 32.80000
H  17.57600 51.56900 33.63800
N  14.96400 52.93700 26.27500
C  14.22200 53.28200 27.35200
C  13.10400 53.99900 27.01100
C  13.03700 54.11700 25.59900
C  14.28300 53.44700 25.14200
C  12.11100 54.57100 28.13300
C  12.01200 54.78200 24.62900
O  12.12100 54.89000 23.41600
C  10.85900 55.64000 25.25200
N  16.76400 52.05300 23.99800
C  15.87800 52.72700 23.25400
C  16.29000 52.84300 21.79100
C  17.62100 52.11100 21.74200
C  17.84700 51.65800 23.23100
C  15.22700 52.41200 20.71600
C  18.85900 53.00700 21.35400
C  20.01000 52.20200 20.78200
N  18.62400 51.13900 26.08600
C  19.24900 50.59700 24.98800
C  20.47300 49.96700 25.46700
C  20.32000 49.92400 26.89800
C  19.18100 50.66800 27.20000
C  21.55800 49.25200 24.66100
C  20.97500 49.41200 28.11900
O  22.01000 48.75900 28.24600
C  19.97400 49.95300 29.28700
C  19.69000 48.79700 30.18000
O  18.90800 47.92500 29.81800
O  20.22900 48.91500 31.45400
C  19.83100 47.92900 32.44900
H  13.80300 52.94700 29.47100
H  14.23900 53.87000 22.99600
H  19.54200 50.51700 22.87200
H  17.51700 50.43500 31.02600
H  15.69500 52.48900 31.24300
H  15.53500 49.60600 31.34800
H  14.30000 50.31100 30.16100
H  14.44100 50.77500 31.88100
H  17.80900 53.46300 31.10900
H  19.29600 52.53700 30.83900
H  18.30800 53.50200 33.19200
H  19.52200 52.18300 32.97600
H  11.12400 54.11200 28.19600
H  11.87200 55.57900 27.79700
H  12.39500 54.74800 29.17100
H  10.08600 55.80100 24.50200
H  11.28700 56.62800 25.42300
H  10.36100 55.18600 26.10900
H  16.30900 53.90800 21.56100
H  17.41800 51.27300 21.07500
H  14.73800 53.24100 20.20400
H  14.47800 51.83900 21.26200
H  15.61800 51.67100 20.01800
H  19.27300 53.48400 22.24200
H  18.48700 53.67400 20.57600
H  19.84400 51.13600 20.63000
H  20.97100 52.40800 21.25300
H  20.15900 52.58800 19.77300
H  22.32900 49.97300 24.38900
H  21.26300 48.76000 23.73500
H  21.94000 48.50100 25.35300
H  20.59000 50.59300 29.91800
H  18.76100 48.00800 32.64300
H  20.43000 48.06700 33.34900
H  20.14800 46.94500 32.10400
Mg 1.39600 42.11900 25.72100
C  2.92900 42.38900 28.91800
C  -1.30800 40.64700 27.24000
C  0.10800 41.88200 22.80300
C  4.48000 43.23800 24.41300
N  0.86900 41.46700 27.93300
C  1.55800 41.96100 28.99200
C  0.69800 41.67600 30.27400
C  -0.59100 40.99000 29.77700
C  -0.35100 40.99800 28.24800
C  -0.98600 39.70600 30.51100
C  0.51000 42.97000 31.07800
C  0.82300 42.88800 32.60400
H  0.69100 41.53800 33.29100
N  -0.18200 41.15400 25.08200
C  -1.20300 40.66800 25.81400
C  -2.29700 40.26000 24.97000
C  -1.98700 40.76600 23.68200
C  -0.64000 41.29700 23.79900
C  -3.57200 39.59500 25.39600
C  -2.89600 40.83000 22.44900
O  -2.47600 41.32100 21.38100
C  -4.29000 40.49300 22.45000
N  2.25500 42.48000 23.92200
C  1.47600 42.28200 22.78500
C  2.13900 42.84300 21.54500
C  3.43100 43.47700 22.09400
C  3.40200 43.08300 23.54300
C  2.35000 41.87000 20.36400
C  3.48400 45.06500 22.02900
C  4.15600 45.54500 20.76100
N  3.31100 42.70900 26.45800
C  4.45100 43.11100 25.80300
C  5.48800 43.32800 26.76300
C  4.96000 43.00400 27.94200
C  3.63500 42.62700 27.74500
C  7.02400 43.78400 26.55500
C  5.30300 43.01600 29.32600
O  6.28000 43.32500 29.92300
C  3.92900 42.63600 30.13600
C  4.29800 41.41900 30.93000
O  4.37800 40.31600 30.44900
O  4.33500 41.73700 32.24900
C  4.44000 40.60100 33.17400
H  -2.20300 40.31200 27.76700
H  -0.31200 42.04800 21.80900
H  5.41400 43.62800 24.00300
H  1.33000 40.95000 30.78600
H  -1.44900 41.64100 29.94600
H  -1.04600 38.89300 29.78700
H  -1.96600 39.76900 30.98300
H  -0.29600 39.53500 31.33800
H  -0.54400 43.24800 31.06700
H  1.17900 43.74700 30.70800
H  0.01600 43.56100 32.89500
H  1.74500 43.40800 32.86400
H  -4.40900 40.29200 25.35400
H  -3.40700 39.20300 26.40000
H  -3.70200 38.73800 24.73500
H  -4.52100 39.52700 22.90000
H  -4.62800 40.44100 21.41500
H  -4.90300 41.18100 23.03200
H  1.50700 43.67900 21.24600
H  4.33600 43.14600 21.58500
H  1.37700 41.75000 19.88800
H  2.62700 40.87200 20.70400
H  2.96100 42.24700 19.54400
H  3.85300 45.38100 23.00500
H  2.42700 45.33100 22.00400
H  4.42000 44.68400 20.14800
H  5.08500 46.09800 20.90300
H  3.44600 46.20100 20.25700
H  7.58100 42.90000 26.86600
H  7.22700 44.49500 27.35600
H  7.27200 44.14100 25.55500
H  3.64100 43.40200 30.85600
H  5.49800 40.40700 33.34900
H  4.06600 39.70100 32.68600
H  3.85400 40.76000 34.07900

