158

Mg 24.75700 -4.03500 45.67200
C  26.98500 -1.76400 43.89700
C  22.34300 -3.06500 43.56100
C  23.13300 -6.87400 46.48900
C  27.73400 -5.26400 47.33400
N  24.70800 -2.47800 43.95800
C  25.64500 -1.70800 43.38500
C  25.09200 -0.79500 42.25400
C  23.62500 -1.26300 42.25300
C  23.52100 -2.34900 43.31000
C  22.60400 -0.12700 42.36300
C  25.78000 -1.00800 40.92800
C  25.88300 0.07700 39.89000
H  25.16800 -0.14400 38.52600
N  22.92300 -4.76400 45.25300
C  22.05700 -4.23400 44.33800
C  20.80100 -4.95900 44.35000
C  21.01000 -6.10100 45.19800
C  22.44200 -5.97300 45.70900
C  19.57400 -4.51800 43.57200
C  20.00000 -7.22200 45.35700
O  18.84400 -7.06900 44.97000
C  20.35800 -8.57200 45.99000
N  25.45800 -5.87700 46.57200
C  24.48200 -6.82100 46.92800
C  25.15800 -7.96800 47.70900
C  26.54500 -7.34000 48.14800
C  26.62700 -6.10000 47.25400
C  24.35200 -8.67600 48.82400
C  27.80200 -8.31300 48.13700
C  28.24200 -8.91600 49.38800
N  26.85500 -3.58300 45.79300
C  27.88300 -4.13500 46.52100
C  29.06700 -3.37100 46.31100
C  28.80200 -2.44100 45.29800
C  27.42500 -2.63000 44.93200
C  30.38600 -3.46300 47.03900
C  29.36600 -1.32500 44.48800
O  30.51000 -0.83800 44.46500
C  28.19000 -0.79200 43.62900
C  28.04800 0.68400 43.96200
O  27.32600 1.10100 44.79500
O  28.63500 1.46300 42.95300
C  28.32200 2.91500 42.94300
H  21.49500 -2.73700 42.95700
H  22.65200 -7.76400 46.89900
H  28.55500 -5.65900 47.93500
H  25.28000 0.24800 42.50800
H  23.30900 -1.78900 41.35200
H  21.84700 -0.13300 41.57900
H  23.11100 0.83100 42.24200
H  22.15300 -0.18000 43.35400
H  25.22300 -1.83600 40.49100
H  26.82100 -1.30700 41.05400
H  26.89300 0.38700 39.62000
H  25.34800 0.92400 40.31800
H  19.78100 -4.60500 42.50600
H  19.61700 -3.43000 43.62600
H  18.63700 -5.02600 43.79900
H  20.57600 -8.39500 47.04300
H  21.12500 -9.13200 45.45300
H  19.48400 -9.22200 46.02800
H  25.31700 -8.68400 46.90300
H  26.46400 -6.99200 49.17800
H  24.18200 -9.74700 48.70800
H  23.33600 -8.36200 49.06100
H  24.95900 -8.48300 49.70800
H  28.67100 -7.80600 47.71600
H  27.63500 -9.17400 47.49100
H  28.02700 -9.98500 49.39100
H  27.63400 -8.46700 50.17400
H  29.28900 -8.85900 49.68400
H  31.10700 -2.89600 46.45000
H  30.72100 -4.43800 47.39200
H  30.41400 -2.85700 47.94400
H  28.47700 -0.97100 42.59300
H  28.72900 3.52800 43.74700
H  27.24800 3.10200 42.97800
H  28.67700 3.35500 42.01200
Mg 0.39700 42.51800 24.96700
C  1.31500 42.61200 28.37700
C  -2.68000 41.22300 26.02800
C  -0.26100 42.07200 21.81600
C  3.76200 43.21300 24.15700
N  -0.49200 41.87400 27.02100
C  -0.00100 42.27400 28.20800
C  -0.98600 41.99900 29.36100
C  -2.19900 41.17500 28.68300
C  -1.79500 41.44500 27.14700
C  -2.45000 39.65600 28.87700
C  -1.41300 43.47900 29.83100
C  -1.56600 43.55400 31.34700
H  -2.04400 42.39600 32.16800
N  -1.21100 41.85700 24.06700
C  -2.41100 41.40100 24.60100
C  -3.36500 41.19000 23.55800
C  -2.70000 41.42300 22.36100
C  -1.37100 41.86200 22.71100
C  -4.77500 40.51300 23.84600
C  -3.32900 41.31900 20.99500
O  -2.63800 41.53300 19.96800
C  -4.76200 40.83900 20.75700
N  1.58800 42.60200 23.19000
C  1.10900 42.33100 21.99400
C  2.14600 42.48900 20.86600
C  3.31100 43.28400 21.61600
C  2.87400 43.10100 23.12200
C  2.52600 41.13000 20.20800
C  3.46300 44.77600 21.17000
C  4.07300 45.17900 19.87700
N  2.18300 42.88200 25.99400
C  3.48000 43.09700 25.54000
C  4.38500 43.22600 26.66800
C  3.56500 43.12600 27.83300
C  2.23400 42.88900 27.33500
C  5.90600 43.50600 26.63500
C  3.55600 43.12000 29.26400
O  4.46800 43.14200 30.04400
C  2.09500 42.90500 29.67900
C  1.93600 41.73800 30.66000
O  2.49100 40.67300 30.49500
O  1.23400 42.05000 31.83900
C  1.18600 40.90300 32.77700
H  -3.72100 41.00300 26.27700
H  -0.41800 41.87200 20.75400
H  4.78400 43.42400 23.83800
H  -0.60600 41.42400 30.20600
H  -3.19700 41.60200 28.78000
H  -1.73600 39.35400 29.64400
H  -2.28000 39.14900 27.92800
H  -3.45000 39.45100 29.25800
H  -2.34100 43.81800 29.37100
H  -0.68300 44.21400 29.49300
H  -2.25300 44.39600 31.42500
H  -0.66300 44.00700 31.75600
H  -4.95800 39.99600 24.78700
H  -4.77700 39.69400 23.12700
H  -5.56300 41.23900 23.64400
H  -4.87400 39.78400 21.00700
H  -5.00000 40.90600 19.69500
H  -5.49100 41.42700 21.31400
H  1.59600 43.10100 20.15100
H  4.17800 42.73400 21.25100
H  2.03400 41.04300 19.23900
H  2.10300 40.31900 20.80100
H  3.59800 40.94600 20.14600
H  3.96400 45.22700 22.02600
H  2.49300 45.25700 21.29700
H  4.80900 45.97200 20.01000
H  3.23300 45.51100 19.26700
H  4.52800 44.35700 19.32600
H  6.27600 42.87700 27.44500
H  6.13800 44.52900 26.93300
H  6.39800 43.19400 25.71400
H  1.79200 43.78000 30.25500
H  0.48800 40.14600 32.42000
H  0.97500 41.26300 33.78400
H  2.12700 40.42600 33.05000

