158

Mg 26.25400 0.42200 28.89300
C  27.99300 -0.11400 31.82000
C  23.34100 0.75500 30.78200
C  24.60300 0.65100 26.07300
C  29.18500 -0.12400 27.06500
N  25.73200 0.23900 31.03500
C  26.63500 0.04900 32.08700
C  25.84700 0.17500 33.46600
C  24.38200 0.40800 33.06800
C  24.53300 0.61800 31.51400
C  23.23200 -0.67200 33.52300
C  26.51400 1.09500 34.51400
C  25.78600 1.40400 35.81000
H  26.71400 1.72500 36.99500
N  24.21400 0.71900 28.50300
C  23.14500 0.76900 29.36700
C  22.01200 1.09800 28.58400
C  22.32000 0.87500 27.21700
C  23.76300 0.72400 27.20200
C  20.71800 1.40100 29.20100
C  21.37200 0.87600 26.11800
O  21.69400 0.58700 24.92600
C  19.95700 1.47000 26.23500
N  26.81300 0.22600 26.81900
C  25.92500 0.42600 25.84800
C  26.52600 0.46000 24.47400
C  28.01600 0.42800 24.86200
C  28.06200 0.21400 26.34300
C  26.00600 -0.70500 23.63600
C  28.81600 1.70100 24.47400
C  30.28400 1.49400 24.03200
N  28.22700 -0.10200 29.37700
C  29.34500 -0.19500 28.48500
C  30.55300 -0.49000 29.32900
C  30.07300 -0.45500 30.67300
C  28.64200 -0.23100 30.56400
C  31.98500 -0.82400 28.83700
C  30.35900 -0.53700 32.08300
O  31.49100 -0.63900 32.61800
C  29.03400 -0.29800 32.86400
C  28.76300 -1.47700 33.83500
O  28.16500 -2.52100 33.66800
O  29.41900 -1.21500 34.99400
C  29.28500 -2.13600 36.14200
H  22.44600 0.99300 31.36000
H  24.11900 0.85000 25.11400
H  30.11700 -0.03200 26.50200
H  25.92500 -0.83200 33.87700
H  24.05500 1.33400 33.54300
H  22.32900 -0.23600 33.95100
H  23.71500 -1.31200 34.26200
H  23.02700 -1.33800 32.68500
H  26.91800 1.99800 34.05600
H  27.44900 0.60600 34.78900
H  25.22000 0.48400 35.95900
H  25.14600 2.27800 35.68300
H  20.72100 1.61300 30.27000
H  20.10700 0.53900 28.93200
H  20.38500 2.35800 28.79800
H  19.26700 0.82200 26.77500
H  19.66500 1.49500 25.18500
H  19.95000 2.53600 26.46400
H  26.12100 1.31900 23.94100
H  28.45500 -0.43100 24.35300
H  26.72300 -1.52600 23.67100
H  25.84300 -0.42800 22.59400
H  25.06400 -1.09300 24.02200
H  28.87600 2.35000 25.34800
H  28.19900 2.17200 23.70900
H  30.32300 2.04700 23.09400
H  30.62400 0.45900 24.06900
H  30.98600 2.00400 24.69300
H  32.84600 -0.26900 29.20700
H  32.06600 -0.76700 27.75100
H  32.16800 -1.88200 29.02300
H  29.21200 0.62300 33.41800
H  28.60100 -1.71600 36.88000
H  30.29300 -2.09700 36.55600
H  28.94300 -3.14700 35.92200
Mg 16.17400 51.34300 25.43300
C  17.93600 50.53600 28.27800
C  13.42500 52.10700 27.17000
C  14.58200 51.83900 22.50400
C  18.92800 49.92400 23.67400
N  15.76000 51.17900 27.45500
C  16.68100 51.07500 28.48400
C  16.03800 51.60300 29.84100
C  14.49200 51.66000 29.56400
C  14.51000 51.68800 27.94600
C  13.74600 50.49600 30.10200
C  16.73300 52.89100 30.35700
C  16.53100 53.31000 31.80300
H  15.89000 52.40100 32.82000
N  14.17300 51.85000 24.88300
C  13.15200 52.22400 25.76400
C  11.94200 52.61900 25.03400
C  12.20500 52.28800 23.62300
C  13.71400 52.00100 23.61200
C  10.62300 52.80300 25.75800
C  11.20200 52.09700 22.43800
O  11.58200 51.71700 21.33400
C  9.73900 52.22800 22.66300
N  16.64100 51.02600 23.36700
C  15.87800 51.33300 22.37200
C  16.51600 51.16100 20.99700
C  17.91600 50.61800 21.39400
C  17.84000 50.55000 22.93600
C  15.58100 50.30900 20.05300
C  19.05000 51.58100 20.90700
C  20.22800 50.91200 20.12600
N  18.07600 50.50700 25.83400
C  19.10100 50.01600 25.05700
C  20.29700 49.68800 25.76100
C  19.85400 49.87300 27.13100
C  18.55400 50.38200 27.06600
C  21.57200 49.11500 25.13100
C  20.26100 49.81800 28.50000
O  21.36100 49.61900 28.95200
C  18.98600 50.22300 29.30300
C  18.52900 49.22100 30.30100
O  17.93800 48.19100 30.00600
O  18.84900 49.70500 31.56200
C  18.41400 48.98300 32.74000
H  12.64200 52.50900 27.81700
H  14.03100 52.06500 21.58900
H  19.65800 49.43900 23.02100
H  16.23500 50.82300 30.57700
H  14.03600 52.58500 29.91700
H  14.15200 49.89000 30.91200
H  13.31900 49.93400 29.27100
H  12.95000 50.98500 30.66400
H  16.27400 53.66800 29.74600
H  17.79100 52.83800 30.10100
H  15.95100 54.22800 31.70600
H  17.53300 53.49000 32.19200
H  10.69400 53.24700 26.75200
H  10.13800 51.83100 25.84700
H  10.03500 53.57000 25.25400
H  9.54300 53.24400 23.00700
H  9.49100 51.49600 23.43200
H  9.23500 52.08100 21.70800
H  16.52600 52.17800 20.60300
H  18.07300 49.61900 20.98700
H  16.16300 49.53600 19.55100
H  15.19500 50.93400 19.24700
H  14.72600 49.80200 20.50000
H  19.46100 52.00000 21.82500
H  18.66800 52.40700 20.30700
H  20.08900 49.83700 20.01300
H  21.21600 51.12200 20.53800
H  20.27200 51.27700 19.10000
H  21.67900 49.45900 24.10300
H  21.57300 48.02500 25.15800
H  22.40800 49.53600 25.69100
H  19.24000 51.19700 29.72200
H  19.02400 49.32200 33.57700
H  18.71000 47.93800 32.64000
H  17.37200 49.14200 33.01700

