158

Mg 47.17400 15.40100 27.60600
C  45.18100 15.59300 30.54600
C  49.41500 17.63900 29.24200
C  48.67300 15.81200 24.78600
C  44.60900 13.60900 26.11200
N  47.39100 16.35100 29.75300
C  46.37100 16.30900 30.72800
C  46.78900 17.12500 31.95200
C  47.94300 18.06300 31.36800
C  48.31700 17.30800 30.07100
C  47.57300 19.56000 31.31800
C  47.39900 16.12800 33.08700
C  47.12100 16.68000 34.51500
H  48.16600 16.40800 35.57600
N  48.87700 16.35700 27.14500
C  49.69900 17.13100 27.94700
C  50.98600 17.42200 27.20100
C  50.76300 16.92300 25.88000
C  49.33800 16.32400 25.89600
C  52.08500 18.18500 27.77000
C  51.76700 16.90300 24.65900
O  51.45700 16.31100 23.66700
C  53.20200 17.42500 24.79000
N  46.63100 14.78200 25.69600
C  47.44300 15.15800 24.66500
C  46.98600 14.46900 23.39700
C  45.68300 13.74000 23.86100
C  45.58500 14.10500 25.26500
C  46.71500 15.58900 22.23700
C  45.65800 12.16800 23.59700
C  46.31900 11.23500 24.53900
N  45.30700 14.68500 28.12400
C  44.40400 13.92200 27.46000
C  43.33600 13.55600 28.31600
C  43.59400 14.10700 29.54300
C  44.78700 14.84200 29.39300
C  42.28800 12.45400 27.95600
C  43.21100 14.20400 30.90500
O  42.26700 13.73600 31.54400
C  44.19800 15.20100 31.60400
C  43.50700 16.40700 32.13500
O  43.11000 17.29900 31.41000
O  43.60600 16.42800 33.50300
C  43.54000 17.81400 34.01000
H  50.12400 18.24400 29.81100
H  49.14900 16.06100 23.83500
H  43.82500 12.98500 25.67700
H  45.95400 17.73700 32.29200
H  48.87700 18.07500 31.92900
H  47.63900 20.04600 30.34500
H  48.24600 20.00800 32.04900
H  46.55600 19.81900 31.61300
H  48.47500 16.01000 32.95400
H  46.91800 15.15800 32.96400
H  46.19300 16.20700 34.83600
H  46.89400 17.74600 34.53100
H  53.01700 17.75700 27.40000
H  52.09800 18.23000 28.85900
H  51.99400 19.18600 27.35000
H  53.67400 17.58000 23.81900
H  53.83700 16.74300 25.35600
H  53.23800 18.35900 25.35000
H  47.70800 13.73500 23.04000
H  44.92100 14.24300 23.26500
H  45.70100 15.99000 22.23800
H  46.95200 15.20300 21.24600
H  47.46100 16.36700 22.39500
H  46.07600 11.95700 22.61300
H  44.59600 11.93100 23.53400
H  46.86400 11.62600 25.39800
H  47.06600 10.74700 23.91300
H  45.59400 10.55100 24.98100
H  42.25600 11.91500 28.90200
H  42.80200 11.68200 27.38400
H  41.32900 12.81100 27.58200
H  44.78400 14.75800 32.41000
H  42.53700 18.08800 34.33700
H  43.72200 18.57400 33.25100
H  44.22000 17.96600 34.84800
Mg 26.78300 51.89600 25.45600
C  24.23000 52.36300 27.91400
C  28.85100 51.08100 28.06300
C  29.26700 51.39000 23.18400
C  24.58700 52.95300 23.05100
N  26.52400 51.68700 27.79800
C  25.39000 51.82500 28.54600
C  25.59500 51.57100 30.02300
C  27.19500 51.45700 30.07100
C  27.60200 51.48000 28.57400
C  27.82100 52.54500 31.00000
C  24.86800 50.30200 30.52100
C  24.31800 50.38000 31.91200
H  24.85900 49.36100 32.92800
N  28.69900 51.20900 25.57600
C  29.39600 51.04900 26.78400
C  30.76600 50.56900 26.43300
C  30.88900 50.53700 25.03600
C  29.59000 51.05100 24.52300
C  31.68500 50.13300 27.50000
C  32.02200 49.95500 24.18000
O  31.85400 49.81800 22.97500
C  33.32700 49.80300 24.88600
N  26.90200 52.21600 23.47800
C  28.00400 51.86200 22.69600
C  27.68300 51.89300 21.19000
C  26.16800 52.17900 21.16100
C  25.83400 52.46600 22.64300
C  28.52400 53.00400 20.44600
C  25.30100 51.04600 20.54700
C  23.92000 51.51300 20.06300
N  24.82500 52.53500 25.46700
C  24.08400 52.95400 24.38700
C  22.80000 53.32200 24.82900
C  22.80700 53.14200 26.24300
C  24.06700 52.62400 26.56300
C  21.65100 53.79800 24.05300
C  21.99000 53.16200 27.41300
O  20.82700 53.53500 27.56700
C  22.90100 52.73900 28.56800
C  23.15600 53.86500 29.44300
O  23.88700 54.80600 29.20300
O  22.46700 53.70400 30.68700
C  22.70200 54.80200 31.63700
H  29.53000 50.80000 28.87100
H  30.07400 51.32000 22.45200
H  23.85400 53.21900 22.28700
H  25.36700 52.37500 30.72200
H  27.61300 50.52100 30.44300
H  27.08500 52.79900 31.76200
H  28.06200 53.39200 30.35700
H  28.71500 52.19900 31.51900
H  25.57100 49.46900 30.54000
H  24.05200 50.12900 29.81900
H  23.25500 50.14100 31.92700
H  24.36700 51.37300 32.35700
H  31.91400 49.07900 27.34200
H  31.31700 50.33800 28.50500
H  32.63600 50.64400 27.64700
H  33.43900 50.60500 25.61500
H  34.03600 50.09100 24.11000
H  33.47400 48.77700 25.22300
H  27.80400 50.95600 20.64600
H  25.90600 53.08600 20.61600
H  27.86200 53.77700 20.05500
H  29.18000 52.61900 19.66600
H  29.13300 53.49900 21.20300
H  25.09300 50.30700 21.32100
H  25.92400 50.56400 19.79300
H  23.67300 50.98300 19.14300
H  23.85200 52.58900 19.90400
H  23.28900 51.26600 20.91700
H  21.92600 53.71100 23.00200
H  21.39800 54.84400 24.22600
H  20.66400 53.39000 24.26800
H  22.45800 51.90100 29.10600
H  22.58800 55.75900 31.12800
H  23.71800 54.85300 32.02800
H  21.98000 54.74800 32.45200

