158

Mg 26.11400 0.45300 29.31900
C  27.67500 0.11900 32.46500
C  23.26000 1.16500 30.92000
C  24.70900 0.85700 26.31600
C  29.13300 -0.26800 27.81900
N  25.48200 0.46600 31.42100
C  26.34400 0.46500 32.48600
C  25.61000 0.84000 33.75300
C  24.15700 1.10200 33.31200
C  24.27400 0.88500 31.78400
C  22.99100 0.27300 33.92800
C  26.17600 2.14200 34.49000
C  25.26800 2.70400 35.62800
H  25.79800 2.95800 36.99600
N  24.20000 0.88300 28.68400
C  23.11800 1.06100 29.50800
C  21.93700 1.25800 28.63400
C  22.37400 1.15000 27.33700
C  23.76200 0.90500 27.41400
C  20.57700 1.44200 29.23800
C  21.66100 1.26400 25.99200
O  22.18400 0.94700 24.95700
C  20.18200 1.64700 25.96900
N  26.90800 0.54200 27.33900
C  26.03100 0.63700 26.24100
C  26.77000 0.65400 24.92700
C  28.28700 0.39900 25.36900
C  28.13900 0.22800 26.95500
C  26.24900 -0.47100 23.86200
C  29.26900 1.54400 25.09500
C  29.39900 1.89400 23.65300
N  28.03400 -0.15300 29.98700
C  29.13900 -0.34800 29.24100
C  30.18500 -0.61900 30.14700
C  29.71700 -0.41500 31.42100
C  28.38800 -0.20500 31.32000
C  31.51700 -0.92100 29.69200
C  30.10700 -0.34100 32.78600
O  31.21100 -0.46300 33.26400
C  28.72500 0.10200 33.51000
C  28.45300 -0.84000 34.72200
O  27.90200 -1.91800 34.73300
O  28.94500 -0.28000 35.87700
C  28.85600 -1.01000 37.11400
H  22.45600 1.51800 31.56900
H  24.37400 0.97600 25.28400
H  30.08500 -0.38200 27.29600
H  25.68400 -0.00700 34.43400
H  24.00200 2.17700 33.39400
H  22.73900 -0.46100 33.16300
H  22.14100 0.91300 34.16800
H  23.31500 -0.20800 34.85100
H  26.41100 2.85900 33.70400
H  27.13600 1.84300 34.90900
H  24.40600 2.04200 35.70700
H  24.93500 3.66100 35.22500
H  20.46300 1.50300 30.32000
H  19.82200 0.68100 29.03900
H  20.23500 2.36500 28.76900
H  19.83800 1.68100 24.93500
H  20.07700 2.66600 26.34100
H  19.61400 0.90100 26.52400
H  26.66800 1.57500 24.35200
H  28.64800 -0.55400 24.98200
H  25.58500 -1.18700 24.34800
H  27.16100 -0.94900 23.50500
H  25.76600 -0.01000 23.00000
H  30.27100 1.19300 25.34300
H  29.03500 2.44900 25.65600
H  28.72100 1.36000 22.98700
H  30.40700 1.66000 23.30900
H  29.13300 2.92000 23.40100
H  32.14700 -0.45400 30.44900
H  31.72000 -0.46700 28.72200
H  31.71200 -1.97900 29.51900
H  29.00900 1.09400 33.86300
H  28.70000 -0.23200 37.86100
H  29.82000 -1.41000 37.43100
H  28.03700 -1.72900 37.07200
Mg 17.04100 52.69000 26.86100
C  18.96000 51.08600 29.24900
C  14.76200 53.50000 29.22400
C  15.17300 53.96200 24.47000
C  19.22300 51.27100 24.41000
N  16.84800 52.26500 29.02400
C  17.80300 51.69400 29.84400
C  17.49200 51.84300 31.24000
C  15.99000 52.47000 31.20900
C  15.83200 52.75700 29.71300
C  14.89200 51.55400 31.67600
C  18.49200 52.89400 31.82600
C  18.26000 53.54900 33.17300
H  17.38900 52.78200 34.13700
N  15.22800 53.59400 26.85300
C  14.49500 53.90500 27.95100
C  13.34200 54.74100 27.55300
C  13.33800 54.83400 26.14800
C  14.63800 54.15000 25.78100
C  12.39900 55.27600 28.54000
C  12.26500 55.58400 25.29500
O  12.31500 55.59900 24.04400
C  11.05200 56.25900 25.95300
N  17.12700 52.51600 24.70600
C  16.26400 53.19200 23.96100
C  16.64700 53.19500 22.50100
C  17.91300 52.29600 22.43400
C  18.15300 52.02900 23.93300
C  15.51800 52.54300 21.58900
C  19.10600 52.89000 21.68800
C  19.10400 52.54900 20.17500
N  18.67500 51.37600 26.79400
C  19.46600 50.92700 25.73200
C  20.58000 50.18700 26.20200
C  20.37800 50.11600 27.59800
C  19.22500 50.90300 27.90300
C  21.60100 49.50600 25.36800
C  20.97100 49.68600 28.87200
O  21.90100 48.90200 29.11600
C  20.07100 50.26800 30.03300
C  19.48800 49.19500 30.85700
O  18.91800 48.20100 30.45600
O  19.61100 49.51500 32.19400
C  19.26800 48.44000 33.18400
H  14.01100 53.75000 29.97600
H  14.59100 54.47600 23.70200
H  19.88000 50.83900 23.65200
H  17.54000 50.85200 31.69200
H  15.92200 53.38900 31.79300
H  14.71800 51.85100 32.71100
H  15.34800 50.56900 31.57900
H  14.01400 51.61200 31.03300
H  18.57100 53.69500 31.09200
H  19.42200 52.33900 31.94900
H  17.80900 54.53500 33.06500
H  19.21300 53.83100 33.62100
H  12.48400 56.36200 28.51600
H  12.71300 55.05400 29.56000
H  11.37700 54.98000 28.30200
H  10.47000 55.56500 26.55800
H  10.41400 56.55100 25.11800
H  11.27000 57.13400 26.56400
H  16.84400 54.25600 22.34500
H  17.74600 51.28500 22.06400
H  14.82100 52.03500 22.25600
H  15.89500 51.78000 20.90800
H  14.99600 53.31200 21.01900
H  20.07400 52.51500 22.01800
H  19.13000 53.95500 21.92300
H  19.29900 53.46300 19.61300
H  18.09700 52.27000 19.86400
H  19.85200 51.80500 19.90200
H  21.01400 48.65000 25.03500
H  22.44200 49.06000 25.89800
H  21.89100 50.25600 24.63100
H  20.77300 50.66700 30.76600
H  19.58800 48.89400 34.12100
H  19.72000 47.46500 33.00200
H  18.18200 48.34300 33.19100

