158

Mg 40.43600 8.87600 28.90200
C  42.33100 10.01700 31.70100
C  38.62600 7.12100 31.22600
C  38.91700 7.44200 26.43400
C  42.97800 9.97100 26.81900
N  40.51500 8.58500 31.17100
C  41.29700 9.23600 32.13000
C  40.90100 8.93000 33.56800
C  39.85100 7.75300 33.31000
C  39.68400 7.77800 31.82800
C  40.36600 6.39500 33.82600
C  40.29900 10.14000 34.22600
C  39.58600 9.90600 35.55600
H  39.97900 10.70700 36.71300
N  38.84200 7.55900 28.77900
C  38.22600 6.95700 29.85900
C  37.07500 6.22400 29.38700
C  37.08100 6.44000 27.92400
C  38.28700 7.21400 27.68300
C  36.05800 5.49400 30.21200
C  36.07000 6.02600 26.91300
O  36.08700 6.44800 25.76500
C  35.05100 5.07000 27.34000
N  40.90500 8.65200 26.92700
C  40.16200 8.00500 26.11200
C  40.62300 8.11300 24.59600
C  41.82500 9.01700 24.69800
C  41.92600 9.25600 26.24400
C  40.87600 6.68400 23.93900
C  41.70100 10.38600 23.88100
C  41.03600 11.70300 24.54000
N  42.26100 9.77100 29.13800
C  43.15100 10.16300 28.19000
C  44.27400 10.87900 28.82700
C  43.95600 10.92900 30.20900
C  42.81100 10.13700 30.35800
C  45.43000 11.56000 28.17300
C  44.30600 11.42800 31.54800
O  45.28400 12.05400 31.85700
C  43.29000 10.81400 32.58300
C  44.01400 10.09900 33.53000
O  44.66100 9.08000 33.31600
O  43.92500 10.70400 34.74700
C  44.34600 9.88900 35.89000
H  38.05700 6.56800 31.97500
H  38.44600 6.94600 25.58300
H  43.71600 10.41900 26.15100
H  41.74200 8.63000 34.19300
H  38.92200 7.89700 33.86200
H  40.80100 5.73400 33.07600
H  39.59500 5.88000 34.39900
H  41.13800 6.51800 34.58500
H  39.65700 10.68100 33.53100
H  41.13700 10.81600 34.39400
H  39.71600 8.85800 35.82900
H  38.53300 10.14200 35.40400
H  35.04900 5.75600 29.89300
H  36.10300 5.87000 31.23500
H  36.20100 4.41400 30.18500
H  34.31500 5.42700 28.06000
H  35.52800 4.19600 27.78400
H  34.67900 4.74200 26.36900
H  39.84500 8.54900 23.96900
H  42.76600 8.63500 24.30300
H  40.89900 5.85200 24.64300
H  41.75300 6.78500 23.30100
H  40.02200 6.46600 23.29700
H  41.18000 10.12100 22.96200
H  42.71900 10.65800 23.60100
H  40.52400 11.47400 25.47400
H  40.29000 12.05200 23.82600
H  41.73700 12.53800 24.58000
H  46.33600 11.06600 28.52500
H  45.53400 12.63100 28.35000
H  45.31900 11.46600 27.09300
H  42.61100 11.55700 33.00200
H  43.57500 9.73300 36.64400
H  45.12500 10.48600 36.36400
H  44.82700 8.92600 35.72100
Mg 0.91000 43.77300 25.96100
C  2.81200 43.75900 28.87300
C  -1.76000 42.95400 27.87300
C  -0.71500 43.02600 23.11400
C  3.92000 44.22200 24.19900
N  0.56100 43.40100 28.23900
C  1.44200 43.69700 29.19400
C  0.70700 43.62300 30.57700
C  -0.78000 43.34600 30.19900
C  -0.68800 43.33600 28.66300
C  -1.40000 42.06800 30.89000
C  0.87500 44.95700 31.40400
C  0.74900 44.72300 32.95700
H  0.33800 43.31300 33.52100
N  -0.97200 43.08000 25.52000
C  -1.87400 42.80700 26.48500
C  -3.12500 42.37300 25.75000
C  -2.89900 42.39800 24.37600
C  -1.46300 42.84600 24.29000
C  -4.41500 41.98300 26.41500
C  -3.65500 41.84100 23.20200
O  -3.09800 41.79300 22.09200
C  -5.00800 41.35500 23.35300
N  1.47000 43.77600 23.94200
C  0.62500 43.39200 22.98300
C  1.31800 43.40700 21.58600
C  2.73100 44.02200 21.95300
C  2.74500 44.01800 23.41400
C  1.22500 42.07800 20.73400
C  2.91500 45.45100 21.48500
C  2.94500 45.71600 20.01400
N  2.95700 43.97400 26.42300
C  4.04800 44.18100 25.61100
C  5.23900 44.04500 26.40000
C  4.83400 43.95800 27.69000
C  3.39300 43.89800 27.66300
C  6.66100 44.26400 25.96500
C  5.29700 43.89100 29.03600
O  6.44200 43.77200 29.45500
C  3.98100 43.75300 29.83600
C  4.12800 42.51600 30.65600
O  4.41400 41.39600 30.23100
O  4.07300 42.79500 31.99400
C  4.34400 41.69000 32.87800
H  -2.69800 42.81900 28.41400
H  -1.18000 42.84900 22.14200
H  4.80200 44.29200 23.55900
H  1.10200 42.81500 31.19200
H  -1.36200 44.21100 30.51600
H  -0.65600 41.49900 31.44700
H  -1.84400 41.44000 30.11700
H  -2.18300 42.39300 31.57500
H  0.09400 45.65000 31.09100
H  1.85800 45.41100 31.28000
H  0.02700 45.42300 33.37800
H  1.74900 44.88000 33.36100
H  -5.29900 42.52200 26.07400
H  -4.44700 42.18500 27.48600
H  -4.68000 40.92600 26.39000
H  -5.30700 40.90700 22.40500
H  -5.65400 42.18800 23.63000
H  -5.04700 40.51600 24.04800
H  0.73300 44.13300 21.02100
H  3.59500 43.44400 21.62400
H  0.86200 41.38900 21.49600
H  2.22400 41.76500 20.43000
H  0.54100 42.19000 19.89300
H  3.78000 45.81700 22.03900
H  2.07400 45.96400 21.95300
H  2.07200 46.26000 19.65200
H  2.85600 44.79600 19.43700
H  3.88200 46.14200 19.65700
H  7.04700 45.26200 26.17600
H  6.95000 43.98600 24.95200
H  7.24600 43.57000 26.56800
H  3.78600 44.46400 30.63900
H  3.49000 41.03300 33.04200
H  4.62600 41.99900 33.88500
H  5.20300 41.13200 32.50400

