158

Mg 50.45300 45.21100 41.40200
C  47.30900 46.03400 40.04000
C  49.85700 41.89900 40.30700
C  53.88700 44.48900 41.45600
C  51.25900 48.58900 41.32500
N  48.67900 44.08500 40.58700
C  47.50400 44.57400 40.04400
C  46.69300 43.44000 39.44400
C  47.35500 42.13100 39.90200
C  48.74000 42.71300 40.38100
C  46.76700 41.33400 41.04000
C  46.74700 43.60300 37.88000
C  45.36600 43.60200 37.18100
H  45.22300 44.54100 35.99400
N  51.59500 43.41800 41.15100
C  51.19900 42.22700 40.65900
C  52.41600 41.46500 40.41700
C  53.54000 42.08700 40.99400
C  53.02800 43.36100 41.30200
C  52.34800 40.22100 39.61800
C  54.95400 41.50700 41.13200
O  55.35000 40.49300 40.55700
C  55.93200 42.10200 42.02100
N  52.30000 46.34600 41.41100
C  53.57700 45.80800 41.55900
C  54.63100 46.95800 41.38100
C  53.80000 48.22100 41.38000
C  52.35000 47.71000 41.44500
C  55.75800 46.85800 42.42800
C  53.98800 49.22800 40.23100
C  54.39300 50.65600 40.72500
N  49.46400 46.96000 41.03800
C  49.89600 48.25400 41.07100
C  48.81900 49.22300 40.78500
C  47.77500 48.33800 40.36700
C  48.19300 47.00500 40.44600
C  48.91700 50.64900 40.70200
C  46.43400 48.38900 39.82500
O  45.69900 49.32100 39.50800
C  46.15500 46.91400 39.47900
C  44.82900 46.51400 40.04000
O  43.85900 46.20400 39.35800
O  44.76700 46.54700 41.40100
C  43.40100 46.60400 41.99700
H  49.81000 40.92800 39.80900
H  54.97000 44.37900 41.37000
H  51.40000 49.66500 41.44600
H  45.68500 43.49000 39.85700
H  47.48400 41.45700 39.05500
H  46.14500 42.02200 41.61300
H  47.48600 40.88000 41.72200
H  46.11900 40.65700 40.48400
H  47.39900 42.81200 37.50800
H  47.27100 44.53600 37.67300
H  44.51700 43.65700 37.86200
H  45.18400 42.56100 36.91100
H  51.42700 39.72900 39.93200
H  53.11300 39.46300 39.78700
H  52.16000 40.42500 38.56400
H  55.49200 42.69800 42.82100
H  56.61100 42.72900 41.44300
H  56.54200 41.32600 42.48400
H  54.99900 46.80900 40.36600
H  54.01300 48.69500 42.33900
H  56.09800 47.80100 42.85700
H  56.70000 46.54500 41.97800
H  55.60400 46.11100 43.20700
H  53.06300 49.26000 39.65600
H  54.69100 48.81700 39.50600
H  55.10300 51.05500 40.00000
H  54.88300 50.79000 41.68900
H  53.52600 51.31100 40.63800
H  47.90100 51.03000 40.80900
H  49.40200 50.97700 39.78300
H  49.52500 50.94600 41.55600
H  45.98400 46.80700 38.40800
H  43.39800 46.48500 43.08000
H  42.80800 45.82600 41.51600
H  42.86600 47.49400 41.66500
Mg 16.73700 52.56400 26.36900
C  18.21300 51.24300 29.22800
C  14.00200 53.21500 28.38800
C  14.95600 53.58500 23.53500
C  18.94900 50.86300 24.41000
N  16.30800 52.32600 28.52800
C  17.11200 51.94400 29.50900
C  16.50000 52.24300 30.85000
C  15.02500 52.57700 30.56500
C  15.14000 52.73800 29.07600
C  14.08500 51.37400 31.01900
C  17.37900 53.40700 31.45800
C  17.49200 53.40200 32.98600
H  16.43700 52.58800 33.73100
N  14.84300 53.37700 26.00200
C  13.87900 53.57000 27.00800
C  12.73500 54.23600 26.36600
C  12.98300 54.27400 24.97900
C  14.32600 53.70000 24.76600
C  11.51100 54.70800 27.11100
C  12.01900 54.66700 23.78400
O  12.33700 54.57800 22.60600
C  10.56500 55.20100 24.07500
N  16.91900 52.36800 24.31900
C  16.14300 52.86300 23.33300
C  16.64100 52.55800 21.90900
C  18.07600 51.98900 22.30600
C  18.00000 51.70700 23.76600
C  15.60800 51.46700 21.23000
C  19.30000 52.94600 21.88700
C  20.47500 52.23900 21.22400
N  18.27000 51.24300 26.68900
C  19.06000 50.61100 25.76700
C  20.05400 49.85600 26.48100
C  19.74300 50.04700 27.82000
C  18.62600 50.87100 27.88900
C  21.28900 49.26100 25.87000
C  20.23100 49.88300 29.20000
O  21.21600 49.29400 29.52700
C  19.20900 50.69800 30.16300
C  18.56300 49.71500 31.09700
O  17.73600 48.85600 30.74400
O  19.06000 49.91700 32.38800
C  18.62100 49.02200 33.44200
H  13.13700 53.35000 29.04100
H  14.45600 53.94300 22.63300
H  19.71600 50.41400 23.77700
H  16.56000 51.28700 31.37100
H  14.64000 53.44800 31.09600
H  14.58400 50.65200 31.66600
H  13.73100 50.86400 30.12300
H  13.26000 51.83400 31.56300
H  16.79800 54.29300 31.20000
H  18.37800 53.46000 31.02500
H  17.45700 54.36500 33.49400
H  18.50600 53.10600 33.25800
H  10.63800 54.12200 26.82300
H  11.28900 55.71800 26.76500
H  11.75600 54.73100 28.17300
H  10.03000 54.44000 24.64300
H  10.15200 55.16600 23.06700
H  10.65300 56.11400 24.66500
H  16.62900 53.35900 21.16900
H  18.17500 51.01100 21.83600
H  14.86300 51.01300 21.88300
H  16.19600 50.68600 20.74800
H  15.07500 51.99700 20.44000
H  19.62600 53.34800 22.84600
H  18.98200 53.80900 21.30100
H  20.55800 52.66600 20.22400
H  20.18600 51.19600 21.09400
H  21.41600 52.22700 21.77300
H  21.67800 49.85100 25.04000
H  21.02100 48.24700 25.57400
H  22.14500 49.20500 26.54300
H  19.69700 51.51500 30.69500
H  19.37100 48.80400 34.20200
H  18.06200 48.19500 33.00400
H  17.90400 49.55400 34.06800

