158

Mg 23.65200 -5.08200 44.78900
C  25.89400 -2.68300 43.50600
C  21.29200 -3.72500 42.72600
C  21.77500 -7.81700 45.36600
C  26.32200 -6.53300 46.56000
N  23.68400 -3.47900 43.21400
C  24.61500 -2.53700 43.00600
C  24.17300 -1.43400 42.07900
C  22.58100 -1.66000 41.99800
C  22.50900 -3.05800 42.61900
C  21.74100 -0.71400 42.86700
C  24.99900 -1.38800 40.78900
C  24.89400 0.01200 40.10000
H  24.17800 0.03900 38.72800
N  21.78100 -5.70000 44.11600
C  20.96300 -4.94300 43.30700
C  19.73800 -5.62900 43.15700
C  19.77300 -6.87700 43.87400
C  21.15000 -6.86900 44.50400
C  18.55000 -4.98500 42.39300
C  18.71000 -7.96400 44.02000
O  17.54800 -7.67500 43.64700
C  18.94000 -9.40600 44.53900
N  24.05000 -7.00600 45.74000
C  23.05600 -7.97600 45.88900
C  23.50400 -9.06000 46.85400
C  24.94700 -8.62100 47.33600
C  25.12800 -7.33300 46.52700
C  22.63700 -9.39100 48.00700
C  26.11200 -9.69300 47.04100
C  26.13300 -10.83400 47.99600
N  25.67400 -4.70300 45.10600
C  26.64400 -5.34400 45.88800
C  27.89800 -4.69900 45.73000
C  27.68300 -3.65600 44.83700
C  26.36900 -3.71600 44.37900
C  29.14500 -4.94500 46.47400
C  28.25600 -2.52200 44.18100
O  29.42600 -2.10400 44.18000
C  27.18100 -1.84100 43.22700
C  26.94600 -0.44100 43.53500
O  26.47700 -0.09900 44.61100
O  27.28700 0.38800 42.52800
C  27.05600 1.83800 42.78300
H  20.44400 -3.26900 42.21100
H  21.06900 -8.52900 45.79900
H  27.13200 -6.96100 47.15500
H  24.27500 -0.47100 42.58000
H  22.22100 -1.49700 40.98300
H  20.67200 -0.87900 42.72700
H  21.86900 0.32200 42.55200
H  21.98400 -0.82800 43.92300
H  24.57800 -2.10200 40.08100
H  26.02300 -1.74200 40.90700
H  25.92700 0.27500 39.87100
H  24.42100 0.73700 40.76100
H  17.61600 -5.29600 42.86000
H  18.47600 -5.27200 41.34400
H  18.46800 -3.89800 42.39400
H  17.99900 -9.90700 44.31300
H  19.20400 -9.58300 45.58200
H  19.81000 -9.80700 44.02000
H  23.46600 -10.00300 46.30900
H  24.91300 -8.40000 48.40300
H  22.45800 -8.57600 48.70800
H  23.11900 -10.18300 48.58000
H  21.62600 -9.58200 47.64400
H  27.02500 -9.11400 46.89700
H  25.85100 -10.17400 46.09900
H  26.12400 -11.74400 47.39600
H  25.25800 -10.82900 48.64500
H  26.99800 -10.75400 48.65500
H  29.46300 -5.98700 46.44300
H  28.84200 -4.74300 47.50100
H  29.85900 -4.15800 46.23100
H  27.60700 -1.90100 42.22500
H  27.83600 2.24600 43.42500
H  26.01400 1.99200 43.06500
H  27.10500 2.33300 41.81300
Mg -11.37000 38.20300 41.25200
C  -9.36100 35.38600 40.61100
C  -8.99600 40.17500 39.93500
C  -13.64500 40.62400 40.90500
C  -13.85300 35.99600 42.25900
N  -9.38200 37.81700 40.37700
C  -8.69900 36.56900 40.27100
C  -7.28000 36.83200 39.59400
C  -7.23700 38.43900 39.57200
C  -8.63900 38.87700 39.98900
C  -6.12900 38.91700 40.63400
C  -7.30300 36.21300 38.15000
C  -6.12300 35.19700 37.83400
H  -5.19000 35.60800 36.77600
N  -11.18000 40.27400 40.88200
C  -10.19100 40.82300 40.28100
C  -10.40700 42.24700 40.11400
C  -11.80000 42.47700 40.32700
C  -12.31100 41.10600 40.73500
C  -9.38700 43.26700 39.55700
C  -12.56700 43.76400 40.13000
O  -12.02100 44.88300 39.85900
C  -14.05400 43.73500 40.18700
N  -13.52300 38.35900 41.48900
C  -14.23200 39.45600 41.35700
C  -15.73300 39.09000 41.32800
C  -15.78500 37.63700 41.99500
C  -14.27500 37.31400 41.90600
C  -16.72000 40.13300 42.05100
C  -16.70100 36.57700 41.33200
C  -17.93200 36.34200 42.19300
N  -11.59100 36.18500 41.53700
C  -12.60700 35.46400 42.03300
C  -12.20100 34.08600 42.35100
C  -10.95700 33.96400 41.65800
C  -10.57300 35.31200 41.27800
C  -12.97700 33.06300 43.11600
C  -9.83700 33.09100 41.31200
O  -9.68700 31.91400 41.57000
C  -8.84800 33.92900 40.51900
C  -7.46300 33.75400 40.99200
O  -6.60600 33.12700 40.43000
O  -7.25300 34.46400 42.13200
C  -5.92900 34.23500 42.81200
H  -8.20400 40.85100 39.60700
H  -14.47300 41.25200 40.56900
H  -14.52000 35.20500 42.60700
H  -6.52100 36.28600 40.15400
H  -6.94300 38.85100 38.60700
H  -5.10300 38.66500 40.36500
H  -6.52100 38.44700 41.53600
H  -6.20800 39.98100 40.86000
H  -7.23200 37.03300 37.43600
H  -8.27000 35.72000 38.05600
H  -6.58300 34.23600 37.60500
H  -5.54700 34.96600 38.73000
H  -9.65400 43.47900 38.52200
H  -8.34900 42.99700 39.75300
H  -9.39300 44.12100 40.23500
H  -14.44400 44.75200 40.15700
H  -14.30500 43.32100 41.16400
H  -14.47900 43.09900 39.41100
H  -16.00500 39.15900 40.27500
H  -15.87300 37.83800 43.06300
H  -17.10300 40.74900 41.23800
H  -16.24100 40.82600 42.74300
H  -17.59700 39.63400 42.46200
H  -16.25500 35.60100 41.13600
H  -17.12100 37.04600 40.44200
H  -18.01900 35.26700 42.34500
H  -18.83900 36.75100 41.74600
H  -17.87100 36.72200 43.21300
H  -14.04000 33.29600 43.17300
H  -12.58400 33.00900 44.13100
H  -12.69000 32.09800 42.69700
H  -8.76400 33.59800 39.48400
H  -5.11100 33.90700 42.17000
H  -6.05200 33.55000 43.65100
H  -5.49000 35.16700 43.16900

