158

Mg 24.53200 -5.53000 45.08900
C  26.55100 -3.05500 43.71500
C  22.09300 -4.64000 42.76600
C  22.88700 -8.45000 45.64100
C  27.32300 -6.85500 46.71800
N  24.37800 -3.97800 43.48700
C  25.29200 -3.07500 43.05700
C  24.77900 -2.20100 41.99300
C  23.27300 -2.54000 42.01100
C  23.25600 -3.84400 42.75800
C  22.34400 -1.41600 42.57100
C  25.42800 -2.52100 40.61900
C  25.85300 -1.29300 39.82800
H  26.10600 -1.47600 38.28800
N  22.72400 -6.34000 44.38000
C  21.84400 -5.79100 43.50000
C  20.65600 -6.61100 43.44000
C  20.92100 -7.82600 44.20400
C  22.23400 -7.57900 44.77500
C  19.48700 -6.24900 42.47100
C  20.06200 -8.97100 44.26800
O  18.92300 -8.88000 43.77600
C  20.38800 -10.24100 45.01400
N  25.04200 -7.37900 46.06500
C  24.12400 -8.39500 46.19200
C  24.74700 -9.57800 46.89400
C  26.18300 -9.17900 47.20900
C  26.21600 -7.72900 46.60900
C  23.88100 -10.26100 47.93200
C  27.29400 -10.06000 46.76000
C  28.09600 -10.77400 47.84500
N  26.58400 -4.99100 45.28500
C  27.55200 -5.62100 46.05800
C  28.74800 -4.75900 45.95300
C  28.40600 -3.78500 44.99700
C  27.04800 -3.96700 44.64400
C  30.04900 -5.06100 46.52900
C  28.95700 -2.70900 44.15000
O  30.09200 -2.28000 44.13900
C  27.75900 -2.12700 43.33200
C  27.49100 -0.70500 43.79100
O  27.46900 -0.24300 44.95600
O  27.47300 0.17400 42.69300
C  27.25000 1.56200 42.92900
H  21.28700 -4.22600 42.15600
H  22.41100 -9.38300 45.95100
H  28.05900 -7.26900 47.41000
H  25.01600 -1.15600 42.19200
H  22.95500 -2.83700 41.01200
H  22.90900 -0.56000 42.94000
H  21.70200 -1.68900 43.40900
H  21.67500 -0.94700 41.85000
H  24.83600 -3.19000 39.99500
H  26.33800 -3.02200 40.95000
H  26.74300 -0.89800 40.31800
H  25.02100 -0.58800 39.83100
H  19.66200 -6.55800 41.44100
H  19.46500 -5.16100 42.40800
H  18.56100 -6.72500 42.79300
H  21.32500 -10.69500 44.69100
H  19.59200 -10.95400 44.79800
H  20.35900 -10.08900 46.09300
H  24.85400 -10.33600 46.11900
H  26.23200 -9.13200 48.29700
H  23.44800 -11.19500 47.57300
H  23.24100 -9.48300 48.34800
H  24.51900 -10.56700 48.76100
H  27.99000 -9.57500 46.07600
H  26.91500 -10.83500 46.09400
H  27.61900 -11.74000 48.01100
H  28.21800 -10.32300 48.82900
H  29.07000 -10.95700 47.39000
H  30.63600 -5.75500 45.92800
H  29.87300 -5.46300 47.52700
H  30.61800 -4.13300 46.47300
H  28.08800 -2.25600 42.30100
H  27.99700 1.95700 43.61800
H  26.23200 1.59500 43.31700
H  27.38200 2.16600 42.03200
Mg 30.48300 57.63700 39.75400
C  27.68800 55.62300 38.70500
C  32.50600 55.11800 38.58500
C  32.82700 59.90700 39.58200
C  28.08400 60.19000 40.08700
N  30.13200 55.59700 38.68600
C  28.89300 55.02000 38.39100
C  29.14600 53.54900 37.87800
C  30.64900 53.41700 38.14800
C  31.18700 54.75100 38.46600
C  31.18800 52.34000 39.02300
C  28.61400 53.14200 36.43200
C  29.00100 54.09500 35.27300
H  27.94400 54.29500 34.11700
N  32.47400 57.47200 39.39300
C  33.15700 56.37800 38.87600
C  34.55700 56.68900 38.76300
C  34.71000 58.08700 39.10300
C  33.32400 58.55400 39.37000
C  35.61600 55.75100 38.24700
C  36.11400 58.77400 39.25500
O  37.17900 58.20300 38.95500
C  36.27200 60.27200 39.61500
N  30.51000 59.80000 39.87200
C  31.60500 60.50600 39.77400
C  31.39100 62.04900 40.04400
C  29.86400 62.03600 40.37100
C  29.42000 60.62600 40.07900
C  32.27100 62.69300 41.10000
C  29.07000 63.12300 39.60200
C  28.05100 64.01000 40.39500
N  28.36600 57.85900 39.60800
C  27.53400 58.94700 39.74500
C  26.14000 58.52300 39.53700
C  26.20800 57.18600 39.20400
C  27.52800 56.91600 39.21600
C  24.96200 59.34900 39.72800
C  25.42400 56.03100 38.96100
O  24.23200 55.87200 39.12200
C  26.32500 54.92900 38.53600
C  26.11000 53.82800 39.45000
O  26.37000 53.81100 40.62200
O  25.67700 52.70100 38.66900
C  25.40400 51.48000 39.45400
H  33.13800 54.24600 38.40600
H  33.60600 60.66600 39.48000
H  27.30600 60.94600 40.20900
H  28.56400 52.94900 38.57800
H  31.01900 53.27300 37.13300
H  31.84100 52.82100 39.75100
H  31.69700 51.60900 38.39400
H  30.47200 51.74900 39.59300
H  27.53100 53.01900 36.41600
H  29.10100 52.20300 36.16800
H  29.90600 53.63400 34.87900
H  29.14900 55.06800 35.74200
H  36.57900 55.70400 38.75500
H  35.80200 55.91900 37.18600
H  35.17800 54.75400 38.26900
H  37.34200 60.44700 39.73300
H  35.87000 60.26400 40.62800
H  35.71800 60.94500 38.96200
H  31.50700 62.44200 39.03400
H  29.73600 62.26600 41.42800
H  33.12400 62.02400 41.21000
H  31.77700 62.69500 42.07100
H  32.55700 63.65300 40.67100
H  28.56400 62.67400 38.74600
H  29.78900 63.81700 39.16700
H  28.27600 64.06800 41.46000
H  27.11500 63.45600 40.31700
H  28.06700 64.99800 39.93500
H  25.30300 60.07800 40.46300
H  24.20300 58.78500 40.27000
H  24.67800 59.89400 38.82700
H  26.12500 54.68800 37.49300
H  26.30000 50.86200 39.49500
H  24.55100 51.01800 38.95600
H  25.18100 51.81100 40.46900

