158

Mg 35.73200 1.44600 30.54200
C  33.37200 2.59800 32.93400
C  38.15400 1.55200 33.00700
C  37.83500 0.71300 28.20200
C  33.03900 1.71600 28.18200
N  35.80400 2.17100 32.68400
C  34.70500 2.50600 33.45400
C  35.14700 2.68400 34.96200
C  36.69300 2.80600 34.78000
C  36.90700 2.06800 33.44200
C  37.24200 4.29200 34.91300
C  34.61800 1.51200 35.85500
C  33.84600 2.01700 37.12000
H  34.33400 3.40400 37.69800
N  37.68500 0.96800 30.66400
C  38.50300 0.98700 31.77600
C  39.71600 0.38800 31.38000
C  39.56100 0.01800 30.03300
C  38.32400 0.57800 29.56100
C  40.82900 0.17700 32.42000
C  40.47600 -0.79500 29.17400
O  40.24800 -0.98000 28.02400
C  41.87400 -1.33300 29.66300
N  35.47800 1.31900 28.49800
C  36.57800 1.10000 27.71900
C  36.27800 1.29300 26.20600
C  34.72600 1.28300 26.17400
C  34.36700 1.45500 27.71200
C  36.92200 2.53200 25.44500
C  34.05000 -0.02400 25.66500
C  32.70800 0.27500 25.01200
N  33.57700 1.94900 30.50300
C  32.68500 2.00300 29.46800
C  31.38000 2.45100 29.93100
C  31.61400 2.62200 31.34300
C  32.95600 2.37900 31.55500
C  30.08300 2.64400 29.23500
C  30.99000 3.00400 32.62700
O  29.80200 3.20900 32.89300
C  32.10000 2.92000 33.76200
C  31.91600 4.25400 34.46600
O  32.34600 5.34400 34.15100
O  31.23200 4.09500 35.61400
C  31.00100 5.29500 36.35200
H  38.89200 1.76500 33.78300
H  38.57100 0.51200 27.42000
H  32.19300 1.77000 27.49400
H  34.73000 3.65400 35.23400
H  37.12100 2.19800 35.57700
H  37.79800 4.57900 34.02100
H  37.95600 4.31900 35.73600
H  36.57900 5.11200 35.18900
H  35.44200 0.92000 36.25200
H  33.96200 0.91900 35.21800
H  33.75900 1.27200 37.91100
H  32.85200 2.14500 36.69100
H  40.79500 -0.80400 32.89500
H  40.79100 1.00700 33.12500
H  41.75200 0.20000 31.84100
H  41.75200 -2.00900 30.51000
H  42.61100 -0.54000 29.78900
H  42.29800 -1.97500 28.89100
H  36.66500 0.47700 25.59600
H  34.26600 2.16600 25.73100
H  36.22400 3.11400 24.84300
H  37.82000 2.16100 24.95100
H  37.29500 3.19600 26.22400
H  34.02100 -0.76200 26.46600
H  34.70400 -0.48100 24.92200
H  32.27100 1.23600 25.28500
H  31.99600 -0.49900 25.29900
H  32.86300 0.07700 23.95200
H  30.31200 2.87700 28.19400
H  29.55900 3.51600 29.62800
H  29.54800 1.69700 29.17500
H  31.92800 2.14900 34.51200
H  30.81000 5.03200 37.39200
H  30.21900 5.96000 35.98500
H  31.94000 5.84900 36.33300
Mg 6.50400 54.32400 40.99500
C  5.57200 50.90100 40.37200
C  9.53900 53.70900 39.93500
C  6.79100 57.69500 40.90700
C  2.87400 54.90400 41.49100
N  7.48600 52.48400 40.38100
C  6.94600 51.22900 40.15500
C  8.04700 50.26900 39.68700
C  9.32600 51.13900 39.82900
C  8.80800 52.56900 40.12900
C  10.39800 50.65900 40.91200
C  7.87900 49.44900 38.33500
C  7.84400 50.20300 37.03600
H  6.62500 50.08900 36.09200
N  7.97400 55.52100 40.46600
C  9.22700 55.08700 40.08200
C  10.10600 56.20400 40.04900
C  9.36400 57.32600 40.35500
C  7.96600 56.90700 40.60700
C  11.58300 56.14600 39.77000
C  9.88500 58.68000 40.52700
O  10.95500 58.88900 40.06200
C  9.17300 59.84700 41.19100
N  4.99700 56.01400 41.16400
C  5.46400 57.29800 41.26600
C  4.35600 58.34100 41.42300
C  3.11100 57.45100 41.38400
C  3.65700 56.01200 41.48000
C  4.53200 59.14600 42.71300
C  2.23700 57.70500 40.11600
C  0.69800 58.06200 40.32200
N  4.59900 53.15800 41.05400
C  3.28000 53.51000 41.29600
C  2.47500 52.31300 41.48200
C  3.31100 51.28900 41.11200
C  4.57100 51.82600 40.73400
C  1.00100 52.16500 41.74500
C  3.40700 49.88700 40.94400
O  2.52100 49.04000 41.15500
C  4.82100 49.55300 40.40400
C  4.57400 49.04900 39.06000
O  4.04500 49.60200 38.10100
O  4.76900 47.68900 39.09900
C  3.85900 46.98100 38.08600
H  10.51500 53.63800 39.45100
H  6.88900 58.77400 41.04200
H  1.81000 55.14300 41.55100
H  8.19600 49.60300 40.53700
H  9.68700 51.17900 38.80100
H  11.30300 50.52400 40.31800
H  10.14500 49.70100 41.36700
H  10.61000 51.39100 41.69100
H  6.96900 48.85300 38.39700
H  8.74300 48.78500 38.30000
H  8.61800 49.74500 36.42000
H  8.14000 51.24600 37.14200
H  11.62600 56.79900 38.89800
H  11.92500 55.23800 39.27300
H  12.20800 56.38000 40.63200
H  8.46100 60.30800 40.50600
H  9.87500 60.59800 41.55500
H  8.69700 59.46200 42.09300
H  4.49100 58.92200 40.51100
H  2.46800 57.53700 42.26100
H  5.42200 58.89600 43.29000
H  3.71000 59.18600 43.42700
H  4.67700 60.18600 42.42200
H  2.29400 56.76400 39.56800
H  2.64800 58.53900 39.54800
H  0.15000 57.17600 40.00000
H  0.33000 58.83500 39.64700
H  0.44600 58.25700 41.36400
H  0.64000 53.02600 42.30800
H  0.81200 51.27600 42.34700
H  0.44600 52.06900 40.81200
H  5.31200 48.77800 40.99200
H  3.59500 46.01200 38.51000
H  4.41700 46.92800 37.15000
H  2.89000 47.47400 38.01500

