158

Mg 0.72500 7.39800 26.54000
C  1.55900 9.84600 28.91000
C  0.98700 5.01100 28.86500
C  0.20800 5.16700 24.11500
C  1.31700 9.92500 24.14300
N  1.33800 7.46600 28.62200
C  1.38500 8.54800 29.46400
C  1.06500 8.14200 30.90800
C  1.47700 6.63800 30.79100
C  1.24700 6.31900 29.31200
C  2.90700 6.24700 31.24600
C  -0.28300 8.59800 31.41300
C  -0.36000 8.86800 32.89500
H  0.78200 8.54200 33.84600
N  0.45300 5.35400 26.53900
C  0.62400 4.53000 27.56100
C  0.36900 3.17700 27.17600
C  0.01900 3.15600 25.80900
C  0.22400 4.55500 25.41300
C  0.17700 2.04000 28.14900
C  -0.47200 2.06500 24.90900
O  -0.70400 2.20300 23.71800
C  -0.59200 0.65400 25.53000
N  0.66000 7.60000 24.38600
C  0.37500 6.45300 23.62500
C  0.48100 6.75200 22.11800
C  1.04300 8.27500 22.05600
C  0.99300 8.65000 23.59200
C  1.40400 5.69200 21.37500
C  0.18400 9.23100 21.17600
C  -1.25100 9.33700 21.66500
N  1.21900 9.47800 26.46200
C  1.37100 10.31600 25.44300
C  1.57800 11.64600 25.84600
C  1.67800 11.52000 27.26900
C  1.50400 10.19800 27.54800
C  1.72400 12.93700 24.97400
C  1.81400 12.20900 28.53400
O  2.04400 13.38900 28.84900
C  1.66000 11.17700 29.68400
C  2.83400 11.18600 30.48300
O  3.93200 10.68300 30.20800
O  2.66400 11.78200 31.70700
C  3.76100 11.83400 32.69600
H  1.12000 4.26800 29.65400
H  0.10800 4.48600 23.26700
H  1.50400 10.70000 23.39600
H  1.82600 8.65500 31.49500
H  0.60300 6.05900 31.08800
H  2.79000 5.99600 32.30000
H  3.60900 7.04200 30.99400
H  3.15300 5.35800 30.66500
H  -0.97700 7.76500 31.30300
H  -0.59400 9.52100 30.92300
H  -1.15600 8.22700 33.27400
H  -0.55200 9.92800 33.06600
H  -0.84900 1.71200 27.98600
H  0.29000 2.26800 29.20900
H  0.92300 1.27400 27.93900
H  0.19400 0.42100 26.24800
H  -0.53900 -0.08600 24.73200
H  -1.61400 0.59900 25.90500
H  -0.48400 6.62900 21.62500
H  2.04900 8.22700 21.63900
H  2.11200 5.17300 22.02200
H  2.04200 6.05100 20.56800
H  0.75500 4.91200 20.97700
H  0.22200 8.93800 20.12700
H  0.65900 10.21200 21.19100
H  -1.65900 10.33000 21.84800
H  -1.56800 8.85900 22.59200
H  -1.87300 8.82100 20.93400
H  0.87800 13.61000 25.11400
H  1.77000 12.77300 23.89700
H  2.63500 13.45800 25.26800
H  0.83100 11.44800 30.33800
H  4.69200 12.14400 32.22100
H  3.90400 10.93200 33.29100
H  3.71200 12.60600 33.46400
Mg -11.96600 16.21400 42.22300
C  -8.91500 14.73400 41.88400
C  -10.65700 19.16500 40.84400
C  -15.06400 17.42100 41.73200
C  -13.32000 13.00500 42.97000
N  -9.97700 16.81000 41.32700
C  -8.89300 16.02700 41.32800
C  -7.69300 16.75300 40.69300
C  -8.26100 18.21300 40.47400
C  -9.72900 18.09300 40.84900
C  -7.55000 19.37700 41.32600
C  -7.25300 16.11300 39.35700
C  -5.71800 16.19200 39.00100
H  -5.28100 17.00000 37.79000
N  -12.73100 18.10500 41.53300
C  -12.01100 19.15500 41.09800
C  -12.95300 20.25300 40.81000
C  -14.24600 19.81600 41.13200
C  -14.06000 18.39200 41.44700
C  -12.44700 21.50200 40.14100
C  -15.54400 20.55600 41.04700
O  -15.53600 21.75200 40.68600
C  -17.05300 19.86600 41.20900
N  -13.88700 15.28800 42.08600
C  -14.94800 16.07800 42.03900
C  -16.30100 15.20700 42.21900
C  -15.73300 13.86600 42.64900
C  -14.22300 14.05000 42.60100
C  -17.37600 15.76800 43.22000
C  -16.20500 12.63000 41.85400
C  -17.05300 11.72500 42.70800
N  -11.25200 14.28100 42.70000
C  -11.89600 13.14200 43.04700
C  -10.91000 12.13700 43.32600
C  -9.70800 12.67100 42.85500
C  -9.99500 13.99100 42.42500
C  -11.18700 10.87900 44.01300
C  -8.36100 12.37100 42.65900
O  -7.72300 11.36900 42.92600
C  -7.82900 13.71900 41.96800
C  -6.86500 14.18300 42.96000
O  -7.10000 14.77700 44.01200
O  -5.58300 13.99900 42.53100
C  -4.45800 14.51500 43.37200
H  -10.18900 20.05600 40.42100
H  -16.11700 17.67900 41.59600
H  -13.75400 12.01100 43.09300
H  -6.93300 16.78300 41.47300
H  -8.16700 18.50200 39.42800
H  -6.59600 19.00000 41.69600
H  -8.06200 19.71700 42.22700
H  -7.31400 20.24300 40.70700
H  -7.80700 16.59100 38.54900
H  -7.50800 15.05600 39.28100
H  -5.35200 15.17600 38.85500
H  -5.16100 16.55400 39.86600
H  -11.95800 21.28700 39.19100
H  -11.72600 21.89500 40.85900
H  -13.13200 22.31800 39.91000
H  -17.80800 20.63700 41.05200
H  -17.25800 19.44200 42.19200
H  -17.25500 19.06800 40.49400
H  -16.66400 15.25400 41.19200
H  -15.99600 13.75200 43.70100
H  -18.20400 16.04300 42.56600
H  -17.04800 16.67400 43.73100
H  -17.73000 15.02400 43.93400
H  -15.30600 12.06700 41.60300
H  -16.75700 12.93100 40.96400
H  -17.57300 12.27800 43.49100
H  -16.47500 10.89800 43.12100
H  -17.90300 11.31800 42.16000
H  -11.37200 10.14200 43.23200
H  -12.10100 10.87700 44.60800
H  -10.30000 10.60500 44.58400
H  -7.30100 13.51300 41.03700
H  -4.81000 15.42500 43.85800
H  -3.60600 14.84100 42.77600
H  -4.12700 13.85300 44.17300

