158

Mg 25.93100 1.17800 29.84000
C  27.94600 0.88200 32.83400
C  23.23700 1.38600 31.85000
C  24.08600 1.05000 27.09400
C  28.73400 0.36100 28.00500
N  25.71200 1.24500 32.13500
C  26.62700 1.05100 33.14800
C  25.97100 1.14200 34.57500
C  24.47000 1.23900 34.15600
C  24.38700 1.17200 32.62100
C  23.55300 0.17200 34.84200
C  26.56000 2.31400 35.44800
C  26.74600 1.93500 36.94700
H  26.49700 3.10600 37.84200
N  23.89100 1.32100 29.54800
C  22.93300 1.37600 30.52500
C  21.61300 1.53800 29.93600
C  21.84300 1.37100 28.54200
C  23.33500 1.24600 28.32900
C  20.44900 1.74400 30.83000
C  20.82400 1.29100 27.42600
O  21.26500 1.02300 26.27700
C  19.41600 1.61100 27.66400
N  26.28100 0.65700 27.89900
C  25.37500 0.84600 26.88400
C  25.99700 0.62700 25.48600
C  27.52100 0.55500 25.85200
C  27.50500 0.53900 27.39500
C  25.51400 -0.73200 24.84600
C  28.41200 1.76600 25.39200
C  29.82900 1.32800 25.02700
N  27.92200 0.76200 30.28700
C  28.94400 0.45200 29.41900
C  30.15800 0.18500 30.13000
C  29.77500 0.38000 31.44300
C  28.43000 0.73300 31.51800
C  31.47500 -0.24700 29.67100
C  30.28000 0.30600 32.79500
O  31.43100 -0.04700 33.17500
C  29.08800 0.76400 33.70700
C  28.94700 -0.35000 34.68700
O  28.47200 -1.44800 34.47300
O  29.39000 0.07400 35.94200
C  29.25400 -1.02400 36.94600
H  22.34600 1.32300 32.47900
H  23.52900 0.98500 26.15700
H  29.58900 0.12500 27.36900
H  26.20200 0.21000 35.09100
H  24.06700 2.22900 34.37100
H  22.86500 -0.29300 34.13600
H  22.93100 0.65700 35.59400
H  24.17800 -0.60000 35.28900
H  25.74200 3.03400 35.49100
H  27.37700 2.86900 34.98800
H  27.79500 1.69300 37.11400
H  26.18100 1.02900 37.16900
H  20.64000 2.53300 31.55700
H  20.17500 0.87500 31.42900
H  19.52200 2.00800 30.32100
H  19.02900 0.85500 28.34700
H  18.94400 1.53200 26.68500
H  19.23200 2.61800 28.03900
H  25.86700 1.45800 24.79300
H  27.94700 -0.41800 25.60900
H  24.77200 -1.22300 25.47600
H  26.26800 -1.50700 24.70800
H  25.15400 -0.60600 23.82500
H  28.64400 2.49900 26.16600
H  27.85600 2.35100 24.65900
H  29.97800 1.48200 23.95900
H  30.05500 0.30200 25.31700
H  30.49800 1.98500 25.58500
H  32.07500 -0.18600 30.57900
H  31.90000 0.41100 28.91300
H  31.42500 -1.28900 29.35600
H  29.13400 1.72300 34.22200
H  29.75800 -0.62700 37.82700
H  29.73500 -1.92200 36.55800
H  28.22700 -1.27600 37.21100
Mg 26.99500 49.78100 26.31100
C  25.02400 51.05900 29.05900
C  29.34100 48.74100 28.50600
C  29.00900 49.43800 23.69700
C  24.55900 51.23400 24.26000
N  27.22200 50.17100 28.52500
C  26.29600 50.51900 29.44400
C  26.87400 50.24100 30.89200
C  28.22000 49.54800 30.61500
C  28.24500 49.47200 29.09500
C  29.52400 50.24400 31.16200
C  25.77000 49.42500 31.73000
C  26.31400 48.64100 32.93800
H  25.68300 48.81500 34.26000
N  28.98900 49.16500 26.15200
C  29.76800 48.67700 27.15500
C  30.96700 48.07800 26.63100
C  30.93500 48.44900 25.22200
C  29.58500 49.05600 24.97500
C  31.94600 47.30300 27.49500
C  31.95800 48.18500 24.17800
O  31.88100 48.64900 23.06900
C  33.02200 47.23100 24.58900
N  26.83000 50.37300 24.32800
C  27.78500 50.02100 23.42400
C  27.23700 50.30200 22.00000
C  25.75400 50.52100 22.13100
C  25.64400 50.62500 23.67800
C  27.85700 51.37600 21.01500
C  24.83800 49.48800 21.32900
C  24.27400 48.41100 22.21600
N  25.18300 50.87800 26.55300
C  24.31600 51.48700 25.63200
C  23.21500 52.14000 26.25600
C  23.52600 52.02700 27.66400
C  24.63500 51.22200 27.79700
C  22.00200 52.79200 25.61800
C  23.02400 52.33500 28.93000
O  21.98500 52.94600 29.26000
C  23.96000 51.71100 29.92600
C  24.58100 52.82500 30.78200
O  25.56700 53.56300 30.50900
O  23.79500 53.00900 31.87500
C  24.19400 54.14300 32.64900
H  30.03800 48.21700 29.16400
H  29.58900 49.18400 22.80700
H  23.98800 51.59700 23.40300
H  27.11600 51.09200 31.52900
H  28.22200 48.49500 30.89500
H  30.12100 49.61400 31.82200
H  29.16500 51.07400 31.77100
H  30.24300 50.50500 30.38500
H  25.26300 48.77200 31.02000
H  25.13100 50.19200 32.16600
H  27.39500 48.73500 33.04400
H  26.10200 47.58200 32.78900
H  31.64400 47.23700 28.54100
H  32.87100 47.87700 27.55400
H  32.18100 46.29800 27.14500
H  33.67500 47.15300 23.72000
H  32.53200 46.27100 24.74700
H  33.61200 47.58800 25.43400
H  27.29800 49.29500 21.58700
H  25.40900 51.46900 21.71800
H  28.78500 51.74900 21.44800
H  27.20100 52.20700 20.75600
H  28.13300 50.87800 20.08600
H  25.32800 48.93000 20.53100
H  23.97100 49.95700 20.86300
H  24.57900 48.57600 23.25000
H  24.74200 47.46100 21.95700
H  23.19200 48.28400 22.18600
H  21.96000 53.73500 26.16400
H  21.11100 52.18200 25.76700
H  22.14200 53.01000 24.56000
H  23.41800 50.97800 30.52500
H  25.03100 53.95900 33.32200
H  23.27900 54.32600 33.21300
H  24.36200 55.08300 32.12400

