158

Mg 24.96600 -7.23600 47.89600
C  27.24300 -5.03400 46.76100
C  22.77900 -6.13000 45.39300
C  22.85700 -9.80300 48.55500
C  27.24500 -8.69700 50.11500
N  25.06900 -5.87800 46.09100
C  26.11700 -4.97600 45.95200
C  25.73300 -3.84500 45.00000
C  24.24200 -4.15800 44.62600
C  24.06300 -5.49400 45.34200
C  23.16100 -3.08000 45.07200
C  26.70100 -3.77100 43.74700
C  27.20100 -2.33400 43.30500
H  27.15500 -1.95500 41.90400
N  23.15500 -7.88400 47.10700
C  22.35800 -7.26600 46.05500
C  21.10500 -7.97500 45.83900
C  21.16300 -9.00800 46.74800
C  22.42800 -8.92700 47.47700
C  19.98500 -7.53800 44.82900
C  20.06700 -10.11500 46.81700
O  19.13400 -10.19600 46.04500
C  20.09600 -11.17800 47.84300
N  24.92700 -8.87200 49.33600
C  23.93500 -9.75700 49.39600
C  24.21300 -10.90900 50.28900
C  25.62000 -10.54300 50.85000
C  26.00100 -9.34200 49.99800
C  23.10900 -11.26700 51.38300
C  26.70900 -11.64500 50.89200
C  26.31600 -13.01800 51.50700
N  26.84900 -6.93900 48.40900
C  27.65800 -7.64100 49.27700
C  28.96600 -7.01800 49.23600
C  28.83600 -5.95700 48.31200
C  27.54000 -5.99200 47.81900
C  30.10000 -7.61300 49.97300
C  29.48400 -4.76900 47.67300
O  30.62900 -4.30800 47.84100
C  28.48400 -4.17400 46.70800
C  28.22000 -2.76900 47.19200
O  27.89000 -2.45300 48.32800
O  28.39800 -1.86700 46.20000
C  28.18300 -0.44700 46.44900
H  22.02500 -5.69300 44.73400
H  22.30000 -10.73500 48.66900
H  27.97000 -9.03000 50.86100
H  25.80800 -2.86200 45.46500
H  24.23200 -4.24300 43.53900
H  23.76100 -2.30300 45.54600
H  22.53500 -3.60500 45.79400
H  22.59100 -2.83700 44.17500
H  26.28000 -4.21300 42.84500
H  27.58100 -4.35900 44.00900
H  28.27600 -2.21000 43.43000
H  26.88300 -1.53400 43.97400
H  20.18400 -8.00800 43.86600
H  19.94300 -6.45000 44.79200
H  19.07900 -7.96600 45.25800
H  20.61100 -11.97600 47.30800
H  19.02500 -11.37700 47.83700
H  20.42500 -11.02800 48.87200
H  24.31700 -11.82400 49.70700
H  25.45300 -10.14000 51.84900
H  23.53100 -11.43000 52.37400
H  22.64600 -12.20400 51.07100
H  22.28200 -10.55700 51.36200
H  27.50100 -11.30000 51.55600
H  27.14400 -11.83100 49.91000
H  26.41900 -13.82400 50.78100
H  25.27900 -13.04900 51.84300
H  26.89000 -13.27800 52.39600
H  30.91800 -6.90800 49.82500
H  30.40900 -8.56300 49.53800
H  29.97300 -7.83400 51.03200
H  28.94600 -4.18100 45.72000
H  27.09900 -0.36100 46.52300
H  28.61600 0.26100 45.74300
H  28.56500 -0.24000 47.44900
Mg 40.18300 9.11600 29.15800
C  42.06000 10.49600 31.84600
C  38.32800 7.35400 31.48100
C  38.55000 7.73800 26.64600
C  42.83300 9.82900 27.02500
N  40.10500 9.09500 31.40600
C  40.90200 9.82200 32.31000
C  40.47200 9.59500 33.78300
C  39.34700 8.46100 33.63500
C  39.29900 8.22500 32.07300
C  39.38800 7.19200 34.45200
C  40.14200 10.99100 34.35500
C  39.13300 11.00100 35.53800
H  39.40200 11.89200 36.79000
N  38.55300 7.82600 29.04000
C  37.94100 7.22600 30.09700
C  36.71400 6.46300 29.56600
C  36.69400 6.75300 28.22500
C  37.95900 7.47100 27.88500
C  35.78900 5.63200 30.39900
C  35.64400 6.29000 27.15900
O  35.74000 6.60000 25.97500
C  34.47000 5.53100 27.54100
N  40.53800 8.96900 27.15600
C  39.72700 8.31200 26.27300
C  40.19700 8.42100 24.83200
C  41.67600 8.86400 24.99200
C  41.71100 9.20500 26.46800
C  40.02500 7.08200 24.06900
C  42.26500 9.98800 23.98600
C  41.71800 11.38200 24.24100
N  42.02500 10.09100 29.33500
C  42.99700 10.25000 28.36000
C  44.09000 10.89600 28.98100
C  43.75300 11.07600 30.29600
C  42.52000 10.49600 30.51000
C  45.42600 11.27000 28.41900
C  44.30300 11.52400 31.51600
O  45.31700 12.21400 31.75800
C  43.19000 11.20600 32.58300
C  43.68600 10.39200 33.67400
O  43.84100 9.20100 33.62400
O  43.97500 11.08900 34.80600
C  44.39400 10.40700 36.02600
H  37.67400 6.84800 32.19400
H  37.91600 7.36300 25.83900
H  43.65100 10.08100 26.34800
H  41.31100 9.22200 34.36900
H  38.33100 8.82900 33.77900
H  38.40400 7.05600 34.90100
H  40.16200 7.25700 35.21700
H  39.60400 6.36400 33.77800
H  39.71400 11.62600 33.57900
H  41.11100 11.43500 34.58500
H  38.88600 10.01200 35.92500
H  38.23800 11.42200 35.08000
H  36.16400 5.51600 31.41600
H  35.67100 4.67000 29.89900
H  34.81400 6.11900 30.43800
H  33.93900 5.23700 26.63500
H  33.93500 6.01100 28.36000
H  34.83700 4.58200 27.93200
H  39.69000 9.29100 24.41400
H  42.32700 7.99000 24.96100
H  40.94400 6.82200 23.54300
H  39.25800 7.12400 23.29500
H  39.79500 6.26400 24.75100
H  42.02200 9.80200 22.94000
H  43.35000 9.91900 24.06300
H  40.89800 11.40200 24.95900
H  41.40100 11.80000 23.28500
H  42.60000 11.97400 24.48600
H  45.38300 10.99100 27.36600
H  46.19900 10.75100 28.98500
H  45.45100 12.35300 28.53600
H  42.86000 12.14900 33.01900
H  43.69700 10.75100 36.79000
H  45.41300 10.72900 36.24200
H  44.33200 9.32800 36.17200

