158

Mg 47.44000 34.81900 27.89600
C  45.37700 33.06800 30.22900
C  47.84300 37.33100 30.33200
C  48.30700 37.03400 25.61700
C  46.35500 32.56400 25.51700
N  46.75100 35.05600 30.02400
C  45.91400 34.23100 30.79500
C  46.08300 34.58000 32.31400
C  46.58300 36.07600 32.18200
C  47.06700 36.18800 30.72500
C  45.46600 37.02400 32.49900
C  47.20900 33.76800 32.96600
C  47.06800 33.56000 34.48300
H  46.26300 34.55800 35.31900
N  48.29600 36.74000 27.99600
C  48.46000 37.58700 29.12400
C  49.13500 38.79100 28.77900
C  49.25300 38.70700 27.34100
C  48.55200 37.45300 26.91000
C  49.45000 39.85900 29.83000
C  49.66100 39.75600 26.30600
O  49.68000 39.59900 25.10100
C  50.24100 41.03900 26.94700
N  47.24800 34.82600 25.80500
C  47.72800 35.83900 25.03900
C  47.40300 35.68700 23.52400
C  46.92300 34.15900 23.53800
C  46.86900 33.78600 25.04300
C  46.32200 36.70000 23.09700
C  47.83300 33.20500 22.75800
C  47.13500 32.36900 21.70800
N  46.32100 33.10900 27.82600
C  46.01900 32.21100 26.78200
C  45.19700 31.10900 27.21000
C  44.94900 31.41500 28.60800
C  45.61500 32.60600 28.90100
C  44.79300 29.78400 26.56600
C  44.30200 30.88900 29.82700
O  43.70900 29.88000 30.09200
C  44.30100 32.18800 30.81900
C  44.48600 31.83800 32.26000
O  45.44300 31.27000 32.68100
O  43.36600 32.22600 32.93600
C  43.33000 32.00700 34.39900
H  48.01100 38.00300 31.17600
H  48.37400 37.75500 24.79900
H  45.98100 31.96900 24.68200
H  45.14500 34.54400 32.86700
H  47.36800 36.22700 32.92400
H  45.82200 37.57700 33.36800
H  44.49200 36.58400 32.71300
H  45.25600 37.81500 31.77900
H  48.21700 34.17600 32.88400
H  47.27600 32.83400 32.40800
H  48.06000 33.56000 34.93400
H  46.57200 32.60000 34.62600
H  50.53100 39.98000 29.89800
H  49.09000 39.59900 30.82500
H  49.03700 40.80300 29.47600
H  49.34700 41.52100 27.34300
H  50.52300 41.53300 26.01800
H  51.03000 40.86300 27.67900
H  48.31300 35.81000 22.93600
H  45.93200 34.04400 23.10000
H  45.76200 36.29400 22.25500
H  46.77400 37.67100 22.89400
H  45.56600 36.91100 23.85400
H  48.37800 32.56900 23.45700
H  48.58900 33.78400 22.22800
H  46.04900 32.40600 21.62500
H  47.20900 31.35200 22.09100
H  47.72200 32.36600 20.79000
H  43.90000 29.90200 25.95300
H  44.73300 29.02800 27.35000
H  45.60500 29.49000 25.90000
H  43.26700 32.53200 30.77900
H  43.29000 32.97800 34.89300
H  44.16500 31.39600 34.74100
H  42.36700 31.54400 34.61600
Mg 30.04400 59.85200 40.05800
C  27.14000 58.25800 39.17300
C  31.84400 56.93500 39.79500
C  32.81600 61.73200 40.32500
C  28.17800 62.79600 40.61900
N  29.53500 57.80700 39.50900
C  28.28600 57.39200 39.07800
C  28.42600 55.95500 38.52400
C  29.76900 55.48200 39.13200
C  30.45800 56.81700 39.58700
C  29.74300 54.52100 40.44700
C  28.35900 56.06100 36.87900
C  27.25300 55.29900 36.19600
H  26.58300 55.99400 35.03800
N  32.08600 59.37800 39.98600
C  32.60700 58.09200 39.98400
C  34.03400 58.19600 40.02600
C  34.39200 59.56600 40.29200
C  33.08000 60.30300 40.22300
C  34.93000 57.04700 39.71200
C  35.79000 60.09500 40.47700
O  36.75400 59.32400 40.60800
C  36.09500 61.51200 40.57500
N  30.46300 62.04600 40.16300
C  31.71200 62.53700 40.31600
C  31.69600 64.05400 40.66900
C  30.21000 64.37000 40.95400
C  29.53700 62.98200 40.53100
C  32.68700 64.60400 41.68500
C  29.72700 65.64300 40.17000
C  28.84300 66.58200 40.97600
N  28.09700 60.44300 39.98700
C  27.47600 61.63100 40.28200
C  26.06000 61.41200 40.22400
C  25.88100 60.08300 39.75600
C  27.15500 59.57500 39.65800
C  24.97400 62.40600 40.50600
C  24.89700 59.10300 39.21600
O  23.69200 59.03800 39.11500
C  25.73100 57.77300 38.82600
C  25.10700 56.62200 39.59700
O  25.34300 56.28500 40.74800
O  24.29000 55.99600 38.71600
C  23.37900 54.99400 39.30600
H  32.26700 55.93400 39.69000
H  33.75100 62.26500 40.51000
H  27.69400 63.72700 40.92200
H  27.53700 55.37200 38.76600
H  30.42700 55.06400 38.37100
H  30.57800 53.98200 40.89400
H  28.97300 53.75500 40.36100
H  29.37300 55.08400 41.30400
H  29.29600 55.66100 36.49300
H  28.25600 57.10700 36.59000
H  26.43200 55.18600 36.90400
H  27.51300 54.28700 35.88400
H  34.41500 56.12600 39.43900
H  35.56100 56.75500 40.55100
H  35.63500 57.31100 38.92300
H  37.14200 61.63300 40.85500
H  35.56900 62.03500 41.37300
H  35.93900 61.99300 39.60900
H  32.02700 64.59100 39.78100
H  29.97100 64.48800 42.01000
H  32.14000 65.12800 42.46900
H  33.38100 65.29700 41.20900
H  33.14800 63.74400 42.17100
H  29.26300 65.28300 39.25200
H  30.59700 66.14200 39.74300
H  28.58800 66.27600 41.99100
H  27.86100 66.66600 40.51100
H  29.26700 67.57900 40.85200
H  25.21500 62.82700 41.48200
H  23.99400 61.92900 40.51500
H  24.94600 63.12500 39.68800
H  25.62400 57.51200 37.77300
H  22.71000 55.36800 40.08100
H  23.95000 54.22200 39.82100
H  22.87700 54.64800 38.40200

