158

Mg 7.30000 53.73300 41.63100
C  6.88700 50.26400 41.36900
C  10.67600 53.28800 40.86600
C  7.42900 57.03200 41.27900
C  3.91400 53.90200 42.47500
N  8.61500 51.95700 41.02900
C  8.24600 50.61300 41.06000
C  9.38900 49.71400 40.72100
C  10.60200 50.66600 41.03000
C  9.99900 52.09000 40.99700
C  11.37800 50.40200 42.32900
C  9.48300 49.15300 39.25700
C  9.20200 50.07100 38.02100
H  8.03600 49.83100 37.06500
N  8.84400 54.99700 41.05300
C  10.11300 54.60500 40.72400
C  10.85700 55.82000 40.47000
C  9.99900 56.93400 40.44800
C  8.70000 56.37700 40.87700
C  12.30600 55.80400 40.00400
C  10.39900 58.37500 40.14300
O  11.56600 58.66400 39.98900
C  9.39000 59.51200 40.15400
N  5.91800 55.19700 41.78000
C  6.27300 56.53400 41.69500
C  5.05300 57.44300 42.18500
C  4.13400 56.39300 42.79000
C  4.66300 55.04300 42.31700
C  5.32500 58.77100 43.10500
C  2.69600 56.67900 42.54000
C  1.68800 56.34600 43.69400
N  5.74100 52.39900 42.00800
C  4.37700 52.59400 42.34400
C  3.72000 51.29900 42.57000
C  4.70900 50.33800 42.20700
C  5.88500 51.04900 41.87000
C  2.24000 51.17500 42.98700
C  4.94100 48.93100 42.26900
O  4.17100 48.03100 42.63400
C  6.37000 48.81400 41.47500
C  5.98400 48.18500 40.14300
O  5.77200 48.69700 39.02200
O  5.96500 46.86200 40.27500
C  5.58100 46.14500 39.03500
H  11.76100 53.17100 40.86600
H  7.48800 58.11800 41.17300
H  2.93700 53.81700 42.95500
H  9.32000 48.94400 41.49000
H  11.30300 50.62600 40.19600
H  11.34300 51.25000 43.01300
H  12.38600 50.01600 42.17600
H  10.88500 49.50900 42.71200
H  8.71800 48.39500 39.08900
H  10.44100 48.63900 39.16800
H  10.13000 49.97500 37.45700
H  9.25600 51.10200 38.37200
H  12.78400 54.83800 39.84100
H  12.87200 56.13000 40.87700
H  12.53100 56.49700 39.19300
H  8.70200 59.44800 39.31200
H  9.93300 60.43500 39.95000
H  8.81600 59.60900 41.07500
H  4.64700 57.88600 41.27600
H  4.24700 56.41700 43.87400
H  6.39400 58.98000 43.14800
H  4.95300 58.52900 44.10100
H  4.65100 59.57000 42.79400
H  2.40400 56.16500 41.62500
H  2.57300 57.70100 42.18200
H  1.44100 57.29900 44.16200
H  2.12200 55.76700 44.50900
H  0.86100 55.83200 43.20400
H  1.67000 51.55900 42.14100
H  2.13500 51.89000 43.80300
H  1.82600 50.22600 43.32900
H  6.89100 48.20200 42.21100
H  6.37100 45.42200 38.83200
H  5.25600 46.74200 38.18400
H  4.72100 45.50300 39.22500
Mg -5.23100 25.48000 25.10600
C  -3.66500 26.91100 28.02700
C  -6.66600 23.27000 27.14400
C  -6.49600 24.31700 22.30900
C  -3.02300 27.65600 23.23100
N  -5.05900 25.08500 27.28900
C  -4.41900 25.78400 28.31600
C  -4.95100 25.34000 29.68600
C  -5.87400 24.15300 29.36000
C  -5.74400 24.05900 27.84400
C  -5.47300 22.76900 29.95100
C  -5.68900 26.55700 30.33200
C  -5.73500 26.53500 31.87100
H  -5.17000 25.30600 32.56500
N  -6.46800 24.05300 24.79500
C  -7.04000 23.25700 25.73900
C  -8.05200 22.53100 25.17500
C  -8.09300 22.81800 23.77200
C  -6.98700 23.76300 23.58900
C  -8.87900 21.60700 25.95900
C  -9.09400 22.37300 22.71400
O  -8.96300 22.61700 21.53800
C  -10.41500 21.73400 23.10000
N  -4.79100 25.94400 23.16400
C  -5.41100 25.24800 22.17600
C  -4.83000 25.58800 20.75700
C  -4.17300 26.95700 21.10600
C  -3.86300 26.80100 22.59000
C  -3.83000 24.46100 20.21500
C  -4.96900 28.22000 20.92600
C  -4.18500 29.42600 20.39900
N  -3.73700 27.06900 25.51300
C  -2.84900 27.74000 24.62100
C  -1.93300 28.66300 25.37500
C  -2.17900 28.28900 26.72100
C  -3.35900 27.41400 26.76900
C  -0.97400 29.63200 24.72600
C  -1.85300 28.49800 28.10100
O  -0.97200 29.26200 28.56000
C  -2.73600 27.68100 29.02000
C  -1.96000 26.77600 29.91000
O  -1.52800 25.64100 29.61300
O  -1.81300 27.45400 31.12200
C  -0.81900 26.91000 31.99800
H  -7.11800 22.57500 27.85500
H  -6.93700 23.75700 21.48200
H  -2.39300 28.35600 22.67800
H  -4.05800 25.00900 30.21700
H  -6.83600 24.48900 29.74700
H  -4.59800 22.85100 30.59500
H  -5.31500 22.00400 29.19100
H  -6.34900 22.45700 30.52100
H  -6.68600 26.63000 29.89600
H  -5.26200 27.51500 30.03400
H  -6.78100 26.60600 32.16800
H  -5.39600 27.49200 32.26700
H  -8.82600 20.59900 25.54700
H  -9.83100 22.13300 25.89500
H  -8.59100 21.60600 27.01000
H  -10.20600 20.68900 23.32600
H  -11.05400 21.76700 22.21700
H  -10.88600 22.23000 23.94900
H  -5.66100 25.71100 20.06300
H  -3.23300 27.11900 20.57800
H  -3.32600 24.00300 21.06600
H  -3.03300 24.96300 19.66700
H  -4.45200 23.77800 19.63700
H  -5.26000 28.59000 21.90900
H  -5.94200 28.17400 20.43700
H  -3.35100 29.13000 19.76200
H  -3.89500 30.06300 21.23400
H  -4.91600 30.05700 19.89300
H  -1.42800 30.61600 24.84300
H  -0.84200 29.49400 23.65300
H  0.01200 29.65400 25.19100
H  -3.24900 28.39100 29.66900
H  -1.31400 26.35000 32.79100
H  -0.11500 27.65300 32.37500
H  -0.20900 26.17600 31.47200

