158

Mg 7.90700 2.27100 27.54400
C  9.31800 0.89300 30.75600
C  5.91000 4.14600 29.64900
C  6.31400 3.17500 24.81900
C  9.68000 -0.27300 25.98400
N  7.67200 2.33700 29.99200
C  8.38400 1.84800 31.04800
C  8.04100 2.55400 32.38100
C  6.79200 3.38000 31.96600
C  6.82100 3.34200 30.41100
C  5.40500 3.00400 32.75100
C  9.16100 3.38800 32.95200
C  8.84000 4.30900 34.09700
H  9.48000 3.98900 35.45000
N  6.37300 3.49800 27.27600
C  5.69800 4.23900 28.26900
C  4.79200 5.19700 27.62000
C  5.02900 4.94700 26.19900
C  5.92400 3.88000 26.07800
C  3.76100 6.00800 28.38100
C  4.30700 5.64000 25.04100
O  4.48900 5.28000 23.90300
C  3.26200 6.68100 25.32800
N  8.01400 1.54000 25.67300
C  7.23900 2.07300 24.74200
C  7.44800 1.44900 23.37300
C  8.71600 0.45400 23.64600
C  8.78300 0.53800 25.15600
C  6.21500 0.57200 22.97300
C  10.07200 0.83200 22.89200
C  10.43500 -0.03000 21.63900
N  9.31300 0.76600 28.12700
C  9.98800 -0.16700 27.37300
C  10.89800 -0.94300 28.13200
C  10.63400 -0.55100 29.49900
C  9.72100 0.52200 29.43400
C  11.83200 -2.09200 27.64500
C  11.11700 -0.78300 30.91600
O  12.00300 -1.53700 31.27500
C  10.19500 0.18600 31.82900
C  9.32000 -0.54300 32.76500
O  8.27700 -1.10100 32.54300
O  9.81600 -0.43400 34.07300
C  9.29100 -1.27400 35.17000
H  5.37200 4.76800 30.36800
H  5.87200 3.49700 23.87400
H  10.25900 -1.02400 25.44200
H  7.68600 1.84500 33.12800
H  6.97400 4.44500 32.11100
H  5.35700 3.68400 33.60200
H  5.42600 1.97000 33.09400
H  4.47900 3.05700 32.17800
H  9.56400 3.95100 32.11000
H  10.04600 2.86100 33.30900
H  7.75100 4.26300 34.07400
H  9.09800 5.33200 33.82500
H  2.75500 5.61900 28.22500
H  3.83300 7.07600 28.17800
H  4.00000 5.86100 29.43400
H  2.40500 6.25100 25.84600
H  2.99600 6.89600 24.29300
H  3.65500 7.51600 25.90900
H  7.77500 2.09000 22.55400
H  8.47800 -0.58800 23.43100
H  6.30400 -0.51400 23.02100
H  5.86200 0.74400 21.95700
H  5.42800 0.83800 23.67900
H  10.92200 0.93100 23.56800
H  9.91800 1.81600 22.44800
H  9.64800 -0.72900 21.35700
H  11.30700 -0.66300 21.80300
H  10.67600 0.63900 20.81300
H  12.03100 -1.84000 26.60400
H  11.37700 -3.08300 27.66600
H  12.76700 -2.02000 28.20000
H  10.91000 0.81400 32.35900
H  9.05100 -2.31000 34.93000
H  8.42700 -0.72100 35.53800
H  10.06900 -1.23700 35.93200
Mg 44.56200 4.04500 47.29700
C  42.40700 6.75400 47.00800
C  41.74500 1.88100 47.21800
C  46.61800 1.42000 47.22300
C  47.23500 6.23900 47.26800
N  42.37700 4.33200 47.01000
C  41.75700 5.49900 46.86800
C  40.32200 5.26800 46.68700
C  39.93600 3.77200 47.02600
C  41.41300 3.21100 47.11000
C  39.03900 3.56100 48.24000
C  40.01600 5.60800 45.14400
C  39.06300 6.67600 44.80100
H  39.42100 7.64300 43.66800
N  44.20900 2.00200 47.28200
C  43.05700 1.30600 47.28200
C  43.29500 -0.11800 47.08900
C  44.69800 -0.27100 47.19100
C  45.22000 1.10700 47.17600
C  42.30500 -1.15900 46.79900
C  45.44000 -1.60500 47.11100
O  44.88100 -2.67500 47.24900
C  46.88300 -1.73600 46.81200
N  46.67300 3.86400 47.25800
C  47.30000 2.65700 47.18800
C  48.86100 2.84500 47.20100
C  49.02200 4.37900 47.11500
C  47.59400 4.89700 47.25700
C  49.50800 2.34800 48.48100
C  49.62500 4.92000 45.76800
C  51.10300 5.43000 45.89600
N  44.83100 6.17400 47.12300
C  45.98600 6.90100 47.15100
C  45.56000 8.30200 47.14100
C  44.17100 8.34300 47.14200
C  43.77500 6.97700 47.12000
C  46.48000 9.55500 47.28000
C  42.97300 9.17700 47.16000
O  42.84200 10.36300 47.20900
C  41.80700 8.16000 47.05200
C  40.91100 8.25400 48.27100
O  41.07200 7.62000 49.33000
O  40.01500 9.25200 48.04900
C  39.01200 9.52500 49.05300
H  40.82900 1.28900 47.18200
H  47.32300 0.58700 47.18400
H  48.04600 6.95500 47.42000
H  39.70800 5.95800 47.26600
H  39.58400 3.14200 46.20900
H  38.57500 2.57500 48.23200
H  38.35600 4.40100 48.37300
H  39.76000 3.63300 49.05400
H  39.66500 4.73000 44.60200
H  40.95600 5.85500 44.65100
H  38.99100 7.42400 45.59000
H  38.12300 6.16500 44.59200
H  42.31100 -1.68900 45.84600
H  41.28300 -0.88200 47.05800
H  42.53400 -2.01800 47.42900
H  46.98200 -1.00100 46.01300
H  47.24700 -2.65800 46.35800
H  47.53200 -1.47500 47.64800
H  49.17600 2.19800 46.38100
H  49.47900 4.86100 47.97900
H  50.16700 1.52000 48.22200
H  48.75200 1.94700 49.15600
H  50.14900 3.10600 48.93200
H  48.92700 5.69300 45.44500
H  49.67000 4.13100 45.01700
H  51.61900 5.41700 44.93600
H  51.64800 4.75900 46.56000
H  51.09600 6.46400 46.24100
H  46.78800 9.75700 48.30600
H  46.08000 10.47400 46.85100
H  47.34200 9.27800 46.67300
H  41.30400 8.41900 46.12000
H  38.76100 10.58600 49.03700
H  39.34400 9.30700 50.06700
H  38.06000 9.01800 48.89400

