158

Mg 1.62600 8.12500 24.72500
C  2.44000 9.71500 27.71000
C  2.38500 5.06100 26.24200
C  0.88100 6.58200 21.83700
C  1.31600 11.24400 23.20600
N  2.49600 7.48300 26.70900
C  2.47500 8.33100 27.85900
C  2.62600 7.51700 29.12600
C  2.81800 6.11200 28.62200
C  2.49700 6.18500 27.11500
C  4.23300 5.51200 28.88800
C  1.25200 7.71900 29.84600
C  1.24000 7.61100 31.35600
H  2.46700 6.90800 32.04700
N  1.51000 6.06700 24.19000
C  1.86300 4.96800 24.98100
C  1.63000 3.76700 24.24200
C  1.15600 4.20900 22.95000
C  1.17200 5.67800 22.91700
C  1.79900 2.37400 24.93800
C  0.54500 3.23100 21.90100
O  0.09200 3.62000 20.82500
C  0.52400 1.66500 22.21100
N  1.34900 8.81300 22.71000
C  0.97500 7.96400 21.75300
C  0.27500 8.72200 20.56700
C  0.24700 10.19000 21.08100
C  1.06000 10.12400 22.39600
C  1.08400 8.51500 19.26700
C  -1.15700 10.88600 21.11000
C  -1.90000 10.99300 19.72900
N  1.83500 10.21600 25.30900
C  1.70700 11.33600 24.56800
C  2.10300 12.49000 25.47700
C  2.28800 11.86900 26.74400
C  2.17800 10.51700 26.54100
C  2.28300 13.99100 25.05900
C  2.71700 12.14600 28.12300
O  3.10300 13.19600 28.61900
C  2.62400 10.74100 28.81300
C  3.79500 10.57800 29.70100
O  4.85900 10.10100 29.39800
O  3.52100 11.05300 30.95000
C  4.58700 10.84700 32.00700
H  2.76900 4.17700 26.75500
H  0.53800 6.12600 20.90500
H  1.07500 12.15300 22.65100
H  3.42900 7.82900 29.79400
H  2.12000 5.43600 29.11700
H  4.80300 5.70000 27.97800
H  4.21900 4.44700 29.12000
H  4.65000 6.05000 29.74000
H  0.50700 6.96600 29.58800
H  0.77200 8.66300 29.59100
H  0.33000 7.07900 31.63400
H  1.36600 8.61600 31.75800
H  2.44800 1.67500 24.41000
H  0.82000 1.90000 25.01800
H  2.07300 2.46000 25.99000
H  1.51100 1.20400 22.23500
H  -0.14900 1.22000 21.47800
H  -0.01100 1.51100 23.14900
H  -0.72600 8.29700 20.50000
H  0.91200 10.76500 20.43600
H  2.14400 8.36400 19.47100
H  0.85100 9.37000 18.63100
H  0.73600 7.61100 18.76600
H  -1.02900 11.87900 21.54000
H  -1.76500 10.35500 21.84200
H  -1.18400 10.73900 18.94700
H  -2.26900 12.01700 19.67500
H  -2.72900 10.28900 19.80200
H  1.31100 14.26000 24.64600
H  3.05600 13.95800 24.29100
H  2.65700 14.62700 25.86000
H  1.70100 10.85600 29.38100
H  4.29400 10.02300 32.65700
H  4.67000 11.83500 32.46100
H  5.57700 10.60300 31.62300
Mg 6.94500 54.32600 41.50600
C  6.93000 50.73200 41.15300
C  10.23800 54.33900 40.75100
C  6.73500 57.71200 41.42800
C  3.52600 54.12800 42.00800
N  8.33800 52.74800 40.91000
C  8.13700 51.34600 40.81800
C  9.44200 50.56400 40.46300
C  10.50900 51.71000 40.72200
C  9.69400 53.04700 40.80300
C  11.40000 51.58300 41.99900
C  9.50200 50.03400 39.01500
C  9.20500 50.99500 37.84400
H  7.94000 50.77600 36.97400
N  8.31300 55.80500 41.18700
C  9.63400 55.63300 40.85600
C  10.35500 56.95800 40.65300
C  9.30400 57.94900 40.95600
C  8.00200 57.18000 41.18000
C  11.81500 57.14300 40.32100
C  9.48900 59.47600 41.01400
O  10.61100 59.96100 40.70100
C  8.39200 60.55500 41.45200
N  5.26600 55.74400 41.59000
C  5.47500 57.13700 41.67400
C  4.23100 57.83200 42.10100
C  3.17100 56.68300 42.09200
C  4.02200 55.42100 41.85500
C  4.31300 58.52000 43.48400
C  1.95900 56.83600 41.10300
C  0.62200 57.36400 41.73400
N  5.51400 52.82600 41.60100
C  4.21500 52.88000 41.98700
C  3.65600 51.57500 42.14200
C  4.72400 50.72800 41.80900
C  5.79800 51.48400 41.49300
C  2.33700 51.22200 42.59100
C  5.06200 49.35900 41.93000
O  4.45800 48.40400 42.38600
C  6.53600 49.25600 41.44700
C  6.61700 48.39300 40.27000
O  6.35500 48.70600 39.10500
O  6.91400 47.11700 40.71600
C  6.97700 46.16700 39.57500
H  11.32600 54.31600 40.66600
H  6.52900 58.76800 41.61600
H  2.54100 54.09500 42.47800
H  9.74300 49.76300 41.13800
H  11.19300 51.68000 39.87400
H  11.06100 50.81700 42.69600
H  11.23800 52.48400 42.59000
H  12.45600 51.51400 41.73600
H  8.86400 49.15100 39.00500
H  10.46300 49.58200 38.76900
H  10.00800 50.93300 37.11000
H  9.11100 51.96200 38.33900
H  11.97200 58.04500 39.72900
H  12.16900 56.30000 39.72700
H  12.54800 57.18300 41.12700
H  8.67000 61.60300 41.33900
H  8.01800 60.32600 42.45000
H  7.54100 60.52100 40.77100
H  3.96700 58.53600 41.31200
H  2.79000 56.57700 43.10700
H  4.30400 59.60900 43.50700
H  5.21100 58.21600 44.02200
H  3.38300 58.25100 43.98600
H  1.78200 55.90400 40.56800
H  2.23500 57.43600 40.23600
H  0.58500 57.60400 42.79600
H  -0.19800 56.66200 41.57900
H  0.18800 58.29600 41.37100
H  1.87300 50.79800 41.70000
H  1.66300 52.02000 42.90300
H  2.25700 50.46100 43.36700
H  7.11700 48.79300 42.24500
H  7.07600 45.13300 39.90300
H  7.78700 46.45500 38.90500
H  6.06900 46.22600 38.97400

