158

Mg 43.47800 4.30300 48.51000
C  40.95900 6.68900 47.47700
C  41.06700 1.93100 48.07600
C  46.03800 2.11400 48.45100
C  45.73000 6.85300 48.29500
N  41.29300 4.32500 47.70500
C  40.43600 5.37900 47.34000
C  39.02100 4.87400 47.12300
C  39.03700 3.31900 47.56000
C  40.55100 3.15800 47.76200
C  38.29800 2.99800 48.92200
C  38.53500 5.05000 45.66000
C  37.54300 6.15200 45.20700
H  37.90200 6.91200 43.89000
N  43.51700 2.25000 48.46800
C  42.40800 1.47800 48.34200
C  42.88600 0.07400 48.35200
C  44.27000 0.11600 48.48000
C  44.71000 1.52400 48.39300
C  41.94500 -1.13800 48.36900
C  45.06600 -1.10200 48.76100
O  44.54400 -2.18200 48.85000
C  46.51600 -1.09100 49.05400
N  45.61300 4.46400 48.27000
C  46.43000 3.41700 48.36700
C  47.92100 3.89800 48.53900
C  47.83800 5.45300 48.43600
C  46.34700 5.63700 48.34300
C  48.52700 3.35500 49.87400
C  48.67300 6.14400 47.22000
C  50.12600 6.69400 47.54000
N  43.43400 6.30800 48.02700
C  44.40400 7.26200 48.03800
C  43.90200 8.61400 47.78700
C  42.54500 8.36900 47.69500
C  42.32400 7.03800 47.75200
C  44.66600 9.84000 47.75700
C  41.25400 9.08400 47.49000
O  40.99700 10.25900 47.40900
C  40.19700 7.95400 47.35900
C  39.29400 8.12300 48.48600
O  39.08200 7.37000 49.44300
O  38.46400 9.18300 48.19800
C  37.38700 9.39200 49.13500
H  40.33000 1.17400 47.80200
H  46.83700 1.37000 48.48200
H  46.55400 7.56900 48.26000
H  38.31700 5.39400 47.77300
H  38.69800 2.60700 46.80700
H  38.98700 2.82000 49.74700
H  37.62400 2.15600 48.76300
H  37.62000 3.80000 49.21200
H  38.14100 4.12900 45.23000
H  39.36500 5.20400 44.97000
H  37.45100 6.94500 45.95000
H  36.55500 5.72900 45.02500
H  40.94900 -0.69700 48.32400
H  42.15800 -1.66500 49.29900
H  42.21200 -1.86300 47.59900
H  46.92900 -1.11500 48.04500
H  46.81500 -1.93500 49.67500
H  46.79800 -0.24300 49.67800
H  48.55800 3.46000 47.77100
H  48.11600 5.95800 49.36200
H  48.84900 4.09900 50.60300
H  49.35600 2.73500 49.52900
H  47.82100 2.77500 50.46800
H  48.15700 7.01400 46.81400
H  48.72500 5.45600 46.37600
H  50.90300 6.18200 46.97100
H  50.21300 6.51300 48.61100
H  50.13200 7.76300 47.32700
H  44.46300 10.31700 46.79800
H  45.72600 9.58900 47.73000
H  44.40800 10.50800 48.57800
H  39.71300 8.07600 46.39000
H  36.68800 8.56400 49.25200
H  36.70500 10.21600 48.92500
H  37.80900 9.57200 50.12400
Mg -11.11700 16.54600 43.25900
C  -7.61000 17.47600 42.83400
C  -11.76300 19.94300 42.88200
C  -14.27500 15.70500 42.65600
C  -10.16700 13.21200 43.04400
N  -9.84800 18.41000 42.82300
C  -8.47300 18.56600 42.69200
C  -7.98500 19.94200 42.52700
C  -9.23800 20.68700 42.99700
C  -10.38300 19.64100 42.92000
C  -9.09600 21.46200 44.33700
C  -7.54400 20.24100 41.07200
C  -6.19000 20.63400 40.90100
H  -5.15800 19.72800 40.18600
N  -12.81800 17.66600 42.98400
C  -12.86000 18.99000 42.77600
C  -14.20800 19.45600 42.65100
C  -15.01300 18.24600 42.62200
C  -14.06000 17.11400 42.69400
C  -14.69000 20.80900 42.41500
C  -16.48300 18.20900 42.42800
O  -17.14800 19.23800 42.27800
C  -17.23300 16.82900 42.41000
N  -12.07400 14.73500 42.77100
C  -13.42800 14.60700 42.71300
C  -13.95500 13.12700 42.66900
C  -12.60300 12.35100 42.88900
C  -11.56400 13.45600 42.93200
C  -14.93800 12.80900 43.89700
C  -12.39600 11.26400 41.79600
C  -11.66300 11.68700 40.52600
N  -9.34100 15.51500 43.12800
C  -9.13300 14.19700 43.17200
C  -7.71000 13.89800 43.08900
C  -7.07100 15.14200 43.05500
C  -8.07400 16.12400 43.01800
C  -7.08800 12.54200 43.05400
C  -5.79300 15.83600 42.92000
O  -4.67400 15.38600 42.89800
C  -6.14600 17.40600 42.86500
C  -5.54400 18.00400 44.09500
O  -5.37600 17.39700 45.13900
O  -5.06900 19.25700 43.91000
C  -4.46600 19.86700 45.06500
H  -11.94700 21.02000 42.88600
H  -15.29700 15.32100 42.65800
H  -9.88800 12.15600 43.05700
H  -7.20600 20.14800 43.26100
H  -9.51800 21.51500 42.34500
H  -8.33100 21.14000 45.04400
H  -10.00800 21.15800 44.85000
H  -9.02300 22.54300 44.22000
H  -8.13500 21.00100 40.56200
H  -7.62800 19.31900 40.49700
H  -5.71000 20.89700 41.84300
H  -6.05400 21.57700 40.37100
H  -13.84800 21.36400 42.00000
H  -15.01900 21.26400 43.34800
H  -15.41600 20.84800 41.60300
H  -18.25800 17.14100 42.20800
H  -17.03800 16.35800 43.37300
H  -16.78200 16.23500 41.61600
H  -14.38700 12.92800 41.68800
H  -12.45300 11.95500 43.89300
H  -15.30700 13.77500 44.24300
H  -14.59400 12.20100 44.73400
H  -15.78400 12.27900 43.46000
H  -13.35300 10.78300 41.59000
H  -11.81000 10.46200 42.24500
H  -11.62000 12.77400 40.45000
H  -12.12600 11.39000 39.58500
H  -10.65500 11.28300 40.43100
H  -6.10100 12.55400 43.51600
H  -7.02100 12.14900 42.04000
H  -7.77100 11.87100 43.57700
H  -5.80500 17.86100 41.93500
H  -3.92900 20.76700 44.76500
H  -3.66500 19.22000 45.42300
H  -5.17300 20.18200 45.83300

