158

Mg 6.86600 53.95500 41.12300
C  6.23200 50.32600 40.73500
C  10.09000 53.30200 40.47700
C  7.17000 57.23500 41.07500
C  3.37900 54.20400 41.41000
N  7.97400 51.96000 40.54000
C  7.56000 50.64800 40.46900
C  8.74800 49.70400 40.38700
C  9.97500 50.64300 40.62500
C  9.31400 52.08800 40.51500
C  10.84600 50.47400 41.89500
C  8.80300 48.81000 38.99200
C  8.86600 49.48100 37.68600
H  7.63500 49.54900 36.83700
N  8.44200 55.19700 40.81000
C  9.74400 54.74100 40.58100
C  10.59500 55.92700 40.44800
C  9.77400 57.12400 40.63100
C  8.44800 56.58700 40.92800
C  12.09200 55.94100 40.26900
C  10.23500 58.55100 40.46100
O  11.41800 58.72200 40.08100
C  9.25000 59.60800 40.75500
N  5.46000 55.48200 41.19800
C  5.89300 56.72500 41.33000
C  4.65600 57.73000 41.52100
C  3.46800 56.77500 41.28800
C  4.10400 55.40800 41.29600
C  4.56400 58.47300 42.90600
C  2.62200 57.12300 40.07300
C  1.35500 57.90400 40.32800
N  5.12100 52.59500 41.10200
C  3.83300 52.88100 41.35300
C  3.01100 51.76800 41.45100
C  3.92800 50.67800 41.28000
C  5.19900 51.25000 40.95600
C  1.50600 51.69200 41.68800
C  4.05300 49.23600 41.34400
O  3.14400 48.43700 41.58300
C  5.43900 48.92400 40.72900
C  5.21200 48.33900 39.28700
O  4.79800 48.99600 38.32400
O  5.59300 46.99700 39.23800
C  5.41800 46.33800 38.00800
H  11.15900 53.20000 40.28100
H  7.22500 58.31400 40.91800
H  2.32000 54.36500 41.62200
H  8.74200 49.01700 41.23400
H  10.66400 50.53700 39.78700
H  10.72000 49.40500 42.06500
H  10.45900 51.10100 42.69800
H  11.87400 50.59700 41.55400
H  7.90500 48.21100 39.14100
H  9.77100 48.32000 39.09100
H  9.57700 48.97800 37.03100
H  9.36900 50.44200 37.58300
H  12.32800 56.45900 39.33900
H  12.46000 54.92500 40.12900
H  12.65800 56.35000 41.10600
H  8.45000 59.60500 40.01400
H  9.76300 60.53800 40.51000
H  8.95000 59.58800 41.80200
H  4.85500 58.39800 40.68300
H  2.82700 56.69700 42.16700
H  3.77100 58.11500 43.56400
H  4.44200 59.54500 42.74600
H  5.55200 58.50500 43.36400
H  2.31700 56.14900 39.69000
H  3.23300 57.71100 39.38800
H  0.90100 57.72900 41.30300
H  0.62100 57.51200 39.62500
H  1.49800 58.96200 40.10800
H  0.98400 51.31400 40.80900
H  1.07600 52.66200 41.93400
H  1.14600 51.08900 42.52200
H  6.11800 48.27800 41.28500
H  5.58800 47.05900 37.20900
H  4.39500 46.00300 37.83900
H  6.12900 45.52400 37.86600
Mg 8.60400 48.94500 28.59700
C  6.67700 47.87500 31.25600
C  11.37200 48.89900 30.52700
C  10.32700 50.16200 26.00900
C  5.58200 49.54500 26.76300
N  8.95400 48.59200 30.75600
C  8.00600 48.04600 31.65500
C  8.69000 47.89900 33.08800
C  10.20900 48.33700 32.80200
C  10.18200 48.73300 31.27200
C  10.67300 49.50200 33.79200
C  8.65100 46.45600 33.72800
C  9.78100 45.87900 34.67800
H  9.53600 45.02100 35.97500
N  10.57600 49.31800 28.26200
C  11.60600 49.11400 29.17500
C  12.86300 49.12200 28.48100
C  12.63700 49.44500 27.14100
C  11.15200 49.65400 27.06900
C  14.16700 48.68800 29.18200
C  13.55300 49.43400 25.96600
O  13.11500 49.61500 24.84400
C  15.03900 49.24600 26.16900
N  7.93100 49.61000 26.58000
C  8.90300 50.20600 25.77800
C  8.30800 50.94500 24.56400
C  6.76300 50.65000 24.78900
C  6.74400 49.96500 26.16300
C  8.53200 52.50900 24.43900
C  6.05800 49.70000 23.70500
C  6.80800 48.49400 23.22700
N  6.55800 48.68100 28.83900
C  5.43900 48.85700 27.98800
C  4.25500 48.33800 28.63900
C  4.69100 47.99100 29.93100
C  6.15200 48.15200 30.00600
C  2.91700 48.09900 27.95300
C  4.21800 47.35900 31.20600
O  3.11400 46.98300 31.57500
C  5.53400 47.31500 32.10900
C  5.68100 45.95200 32.60700
O  6.05600 44.98000 31.99000
O  5.15900 45.86600 33.86100
C  5.24000 44.53700 34.47400
H  12.21800 48.70800 31.19100
H  10.90400 50.50300 25.14700
H  4.61000 49.71700 26.29500
H  8.17400 48.62200 33.72100
H  10.93400 47.52900 32.89700
H  10.86500 50.43700 33.26700
H  11.58500 49.13400 34.26300
H  9.93300 49.56000 34.59000
H  8.43300 45.74300 32.93300
H  7.68600 46.51100 34.23400
H  10.41400 46.70300 35.00700
H  10.39900 45.22400 34.06500
H  14.73000 47.84100 28.79200
H  13.95800 48.32300 30.18800
H  14.86000 49.52700 29.25300
H  15.34000 49.92700 26.96500
H  15.48800 49.54400 25.22100
H  15.28300 48.18500 26.20900
H  8.65300 50.55800 23.60500
H  6.05100 51.45100 24.99000
H  7.58500 53.04700 24.39200
H  9.13800 52.71300 23.55600
H  8.99700 52.89800 25.34400
H  6.01800 50.25900 22.77000
H  5.10700 49.32400 24.08300
H  7.11700 48.52600 22.18200
H  6.18300 47.61000 23.35100
H  7.66300 48.33900 23.88500
H  3.08800 47.74700 26.93500
H  2.33100 49.01700 27.92800
H  2.41500 47.33900 28.55200
H  5.32800 47.93000 32.98400
H  4.85300 43.67000 33.93800
H  4.52200 44.60800 35.29100
H  6.24400 44.25500 34.79100

