158

Mg 46.81600 44.21200 42.17400
C  43.31200 43.68600 41.99700
C  47.11800 40.88700 42.06600
C  50.07600 44.82000 42.02400
C  46.11400 47.64600 42.17700
N  45.33300 42.53000 41.76900
C  44.02500 42.47700 41.86600
C  43.39000 41.08400 41.83000
C  44.63200 40.21200 41.89200
C  45.76400 41.28100 41.82800
C  44.67600 39.22400 43.00400
C  42.38000 40.74300 40.61100
C  42.55400 41.47900 39.26500
H  42.71600 40.66900 38.00200
N  48.40900 42.97800 42.07900
C  48.34300 41.62300 42.08600
C  49.72400 41.12500 42.13700
C  50.60600 42.24000 42.29400
C  49.68400 43.42900 42.15800
C  50.03500 39.66300 42.09700
C  52.20100 42.11400 42.55800
O  52.77500 41.01500 42.64000
C  53.13200 43.32300 42.66900
N  47.94700 46.00200 41.93400
C  49.29300 45.98700 41.98700
C  49.87200 47.41400 42.00500
C  48.59500 48.20600 42.23000
C  47.47400 47.26700 42.04200
C  51.04100 47.64800 43.05500
C  48.48300 49.45500 41.26400
C  48.14100 50.82200 41.87000
N  45.15700 45.45100 41.98300
C  45.00100 46.83300 42.03200
C  43.63900 47.27500 42.08700
C  42.95700 46.00000 42.07400
C  43.90000 44.93400 41.98100
C  43.03700 48.65700 42.06800
C  41.58600 45.43500 42.10900
O  40.48100 45.92400 42.12400
C  41.84600 43.85700 42.19500
C  41.44000 43.20500 43.50500
O  40.65800 42.26800 43.60400
O  42.05000 43.76900 44.55200
C  41.99300 42.84000 45.67000
H  47.20400 39.81300 42.24700
H  51.16200 44.91500 41.97400
H  46.02700 48.69700 42.46200
H  42.89300 40.95200 42.79100
H  44.57200 39.64100 40.96600
H  45.15100 39.55300 43.92800
H  45.18900 38.32500 42.66000
H  43.68100 38.87500 43.28000
H  41.40800 41.06100 40.99000
H  42.42900 39.66500 40.45700
H  43.52300 41.97600 39.29500
H  41.76400 42.21000 39.09700
H  49.14700 39.21300 41.65300
H  50.28500 39.33900 43.10800
H  50.95000 39.46200 41.53900
H  53.12000 43.73400 41.66000
H  54.16500 43.12800 42.95800
H  52.65200 44.08800 43.27900
H  50.36300 47.58800 41.04800
H  48.69600 48.56400 43.25400
H  51.98500 47.43800 42.55200
H  50.98500 46.81100 43.75100
H  51.08500 48.59200 43.59700
H  47.69300 49.23900 40.54500
H  49.39800 49.55300 40.68000
H  48.99600 51.47800 41.71300
H  47.76700 50.71900 42.88900
H  47.27500 51.10000 41.27000
H  43.73600 49.35400 41.60500
H  42.95200 48.92300 43.12200
H  42.10300 48.64600 41.50700
H  41.19100 43.50600 41.39800
H  42.31700 43.35600 46.57400
H  42.52000 41.93200 45.37700
H  41.02600 42.45100 45.99000
Mg 0.00600 44.18700 26.43900
C  2.13900 43.91100 29.12500
C  -2.53700 42.72000 28.44000
C  -1.93900 44.00000 23.76800
C  2.63400 45.19700 24.47800
N  -0.17700 43.55200 28.60100
C  0.81600 43.59400 29.49900
C  0.32700 43.27000 30.98700
C  -1.10100 42.68200 30.69500
C  -1.33100 42.99600 29.14900
C  -1.32800 41.18500 30.99500
C  0.30300 44.61900 31.72100
C  1.05700 44.70400 33.03600
H  0.73500 43.49600 34.05500
N  -1.91800 43.47700 26.14300
C  -2.80000 42.88200 27.09800
C  -4.06000 42.60900 26.46200
C  -3.93200 43.10600 25.10900
C  -2.58900 43.56900 24.92000
C  -5.24700 42.13800 27.24100
C  -4.86400 42.88500 23.91400
O  -4.68300 43.40400 22.79900
C  -6.14300 42.07500 24.17100
N  0.30400 44.55200 24.38500
C  -0.67000 44.43900 23.49300
C  -0.19600 44.88600 22.10500
C  1.21400 45.43600 22.35000
C  1.42700 45.04100 23.81700
C  -0.35800 43.83100 20.98100
C  1.55600 46.89500 22.00700
C  1.45500 47.93900 23.08200
N  1.95600 44.42200 26.66900
C  2.93400 44.73000 25.74100
C  4.25900 44.77400 26.39800
C  3.94700 44.48600 27.75700
C  2.59600 44.23300 27.84400
C  5.61900 44.89500 25.72100
C  4.51400 44.27900 29.07100
O  5.68500 44.32500 29.35800
C  3.30900 43.83900 30.03500
C  3.59400 42.58700 30.79400
O  3.30600 41.44800 30.45600
O  4.08300 42.95400 31.98900
C  4.08900 41.85000 32.92500
H  -3.33300 42.23700 29.00900
H  -2.52300 43.83900 22.85900
H  3.55400 45.51300 23.98100
H  0.90700 42.50500 31.50400
H  -1.89200 43.23200 31.20400
H  -0.48900 40.74600 31.53600
H  -1.52800 40.56100 30.12400
H  -2.21700 41.12100 31.62300
H  -0.72500 44.93300 31.90300
H  0.74300 45.32400 31.01500
H  0.88000 45.66400 33.52000
H  2.13400 44.82400 32.91500
H  -5.27100 42.44000 28.28800
H  -5.34600 41.05300 27.23600
H  -6.12900 42.62700 26.82500
H  -6.47800 41.72000 23.19700
H  -6.82600 42.79600 24.62000
H  -6.02100 41.25300 24.87600
H  -0.83900 45.72500 21.83900
H  1.96300 44.87800 21.78800
H  0.55000 43.87600 20.38000
H  -1.14900 44.19800 20.32700
H  -0.63200 42.84700 21.36200
H  0.86600 47.36700 21.30800
H  2.52100 46.82800 21.50500
H  2.47400 48.27100 23.28200
H  0.98400 47.64400 24.02000
H  0.94000 48.83000 22.72500
H  5.76900 45.97200 25.64500
H  5.58300 44.47600 24.71500
H  6.39300 44.39500 26.30400
H  3.22900 44.68400 30.71800
H  3.14100 41.31400 32.94600
H  4.45000 42.18300 33.89800
H  4.89100 41.15000 32.68900

