158

Mg -0.15100 6.74300 26.06100
C  1.00800 9.08500 28.53600
C  -0.36100 4.31700 28.56100
C  -1.41900 4.65100 23.82800
C  0.70900 8.97500 23.52500
N  0.12800 6.80400 28.31100
C  0.68000 7.82700 29.12200
C  0.84200 7.39500 30.60600
C  0.73100 5.80600 30.44000
C  0.18300 5.55700 28.98000
C  2.10500 5.06400 30.73800
C  -0.18900 8.28700 31.52600
C  -0.60300 7.53000 32.83800
H  0.34600 7.61700 34.02500
N  -0.98200 4.77700 26.24300
C  -0.89600 3.96200 27.27600
C  -1.70200 2.81100 27.02800
C  -2.06600 2.83800 25.70400
C  -1.47300 4.09400 25.19000
C  -1.95400 1.73300 28.05900
C  -3.04900 1.91100 25.04500
O  -3.40500 2.08300 23.87100
C  -3.55400 0.66700 25.62400
N  -0.15500 6.71900 23.96000
C  -0.86900 5.79700 23.28000
C  -1.04300 6.16700 21.81600
C  -0.27700 7.54500 21.72300
C  0.15000 7.77500 23.14700
C  -0.48700 5.00400 20.90800
C  -1.16600 8.81100 21.18800
C  -0.45400 9.67500 20.14200
N  0.72700 8.57600 26.01400
C  0.91000 9.40700 24.91000
C  1.27100 10.73700 25.40000
C  1.44800 10.62800 26.76100
C  1.01600 9.30400 27.12000
C  1.54500 11.98400 24.47900
C  1.83600 11.31200 28.00200
O  2.28400 12.43600 28.17600
C  1.49600 10.31400 29.19900
C  2.78700 10.13500 29.87300
O  3.69200 9.39400 29.51800
O  2.81300 10.99000 30.97000
C  4.13000 11.23100 31.48500
H  -0.41700 3.53000 29.31600
H  -1.99400 4.04700 23.12400
H  0.90000 9.74000 22.77000
H  1.88100 7.67400 30.77800
H  -0.03300 5.42600 31.11800
H  2.10100 4.62400 31.73500
H  2.95400 5.74500 30.67800
H  2.29800 4.26000 30.02800
H  -1.00800 8.65600 30.90800
H  0.41500 9.14100 31.83300
H  -0.81500 6.46700 32.72300
H  -1.58100 7.94400 33.08600
H  -1.09200 1.59600 28.71100
H  -2.04600 0.75500 27.58700
H  -2.80200 1.93300 28.71300
H  -4.24400 0.21300 24.91300
H  -4.05800 0.79000 26.58300
H  -2.78400 -0.10300 25.67600
H  -2.08700 6.22300 21.50600
H  0.65000 7.42000 21.16400
H  -0.27700 4.10000 21.48000
H  0.45000 5.37000 20.48900
H  -1.12200 4.79800 20.04600
H  -1.46100 9.41300 22.04800
H  -2.02600 8.33500 20.71600
H  -0.98000 9.65600 19.18800
H  0.59700 9.39900 20.05800
H  -0.33500 10.67800 20.55200
H  0.72200 12.46000 23.94600
H  2.20900 11.62800 23.69100
H  2.10800 12.68900 25.09100
H  0.82100 10.86900 29.85100
H  4.92300 10.60900 31.07000
H  4.13000 11.06800 32.56200
H  4.31500 12.26800 31.20400
Mg 44.21800 3.70500 47.02500
C  41.76400 6.29200 46.74700
C  41.70200 1.40100 47.07200
C  46.56600 1.46700 46.80300
C  46.58200 6.38200 46.54300
N  42.04000 3.83200 46.75800
C  41.23700 4.96000 46.82400
C  39.72800 4.56900 46.68700
C  39.78400 3.14000 47.25400
C  41.26300 2.72800 47.06700
C  39.25800 2.92000 48.65300
C  39.24200 4.45900 45.19700
C  38.38000 5.58800 44.57300
H  38.97500 6.33300 43.36100
N  44.17300 1.64000 46.82900
C  43.05600 0.93100 46.95700
C  43.39100 -0.44600 47.11000
C  44.83100 -0.54400 47.08300
C  45.29200 0.84700 46.89600
C  42.49700 -1.51400 47.38000
C  45.65200 -1.74100 47.19900
O  45.16200 -2.83400 47.35900
C  47.17600 -1.79100 47.16500
N  46.24700 3.89600 46.65100
C  47.09800 2.80300 46.75000
C  48.54900 3.24300 46.84700
C  48.44500 4.71000 46.25000
C  47.03300 5.06000 46.56300
C  49.19000 3.07400 48.25100
C  48.71600 4.92600 44.75200
C  50.22800 4.65400 44.49900
N  44.25100 5.93900 46.81900
C  45.29100 6.84800 46.66600
C  44.76700 8.20800 46.65400
C  43.34600 8.04000 46.65300
C  43.14700 6.62600 46.74200
C  45.55400 9.48900 46.51200
C  42.03700 8.67600 46.52700
O  41.68000 9.84200 46.34800
C  41.02000 7.64700 46.67800
C  40.12800 7.73300 47.92100
O  40.51800 7.48100 49.04400
O  38.87200 8.08800 47.54300
C  37.91000 8.15200 48.61500
H  40.87900 0.69200 47.18600
H  47.40300 0.76600 46.81700
H  47.40900 7.09200 46.46600
H  39.09100 5.36600 47.07000
H  39.20700 2.34500 46.78200
H  38.72400 3.84000 48.88800
H  40.17800 2.73400 49.20800
H  38.52800 2.11000 48.64700
H  38.65900 3.54300 45.10800
H  40.12700 4.39200 44.56400
H  38.05200 6.41300 45.20400
H  37.49800 5.16400 44.09400
H  42.89000 -2.41800 46.91600
H  41.45500 -1.38800 47.08300
H  42.46300 -1.67000 48.45900
H  47.60600 -1.20400 47.97600
H  47.47600 -1.49000 46.16100
H  47.57300 -2.78700 47.36100
H  49.10400 2.57800 46.18600
H  49.05700 5.44300 46.77700
H  49.62500 4.03600 48.52100
H  50.03300 2.40400 48.08100
H  48.41700 2.73700 48.94100
H  48.73900 5.98900 44.50900
H  48.00800 4.45300 44.07100
H  50.85400 5.51800 44.72100
H  50.41400 4.34200 43.47200
H  50.60800 3.81500 45.08200
H  45.11300 10.34500 46.00200
H  46.61800 9.34000 46.33400
H  45.49600 9.80300 47.55500
H  40.34300 7.70200 45.82500
H  37.16000 7.41800 48.32100
H  37.40200 9.11700 48.61900
H  38.08700 7.93900 49.66900

