158

Mg 35.29100 3.47800 29.61400
C  32.76500 4.02600 32.15200
C  37.63300 3.63400 31.96500
C  37.48100 2.40400 27.26800
C  32.86900 3.80900 27.11900
N  35.17700 4.04700 31.75700
C  34.12500 4.05000 32.61900
C  34.58100 3.99700 34.06700
C  36.14000 4.26700 33.92800
C  36.32800 3.91400 32.46800
C  36.61900 5.67900 34.33200
C  34.35800 2.56600 34.68300
C  34.33000 2.50900 36.17700
H  35.15100 3.56400 36.85900
N  37.30300 3.08000 29.59600
C  38.06400 3.17100 30.70100
C  39.42600 2.86200 30.32700
C  39.47100 2.40600 28.94000
C  38.05300 2.53400 28.54400
C  40.41400 2.75400 31.48300
C  40.59300 1.67800 28.11400
O  40.44800 1.12400 26.98700
C  42.04000 1.61200 28.70400
N  35.18300 3.30000 27.52100
C  36.20200 2.79500 26.76200
C  35.81400 2.58100 25.28500
C  34.27500 3.06200 25.23300
C  34.10600 3.38800 26.65900
C  36.72700 3.42700 24.29800
C  33.36400 1.91600 24.68700
C  32.35700 2.45800 23.66100
N  33.16300 3.88600 29.55700
C  32.33300 3.92500 28.51900
C  30.99100 4.18400 28.90700
C  31.10600 4.23900 30.36000
C  32.45100 4.03300 30.73900
C  29.75600 4.28500 28.04400
C  30.34500 4.22900 31.58500
O  29.12600 4.17100 31.68900
C  31.40100 4.16800 32.80200
C  31.42000 5.47800 33.62300
O  31.72300 6.58000 33.22300
O  31.02000 5.18500 34.91100
C  31.20600 6.15600 36.03000
H  38.33700 3.86100 32.76700
H  38.18300 2.05900 26.50600
H  32.17200 3.72900 26.28200
H  33.97100 4.66500 34.67500
H  36.67400 3.51000 34.50300
H  36.60700 5.73900 35.42000
H  35.84000 6.32400 33.92600
H  37.57600 5.87100 33.84600
H  35.18200 1.93900 34.34000
H  33.40200 2.25100 34.26400
H  34.74300 1.54400 36.47200
H  33.30000 2.56000 36.52900
H  40.35500 3.56200 32.21300
H  41.46600 2.79900 31.20200
H  40.10900 1.81900 31.95200
H  42.38100 2.63500 28.86500
H  42.67300 1.10500 27.97600
H  42.06900 1.15000 29.69100
H  35.82900 1.51200 25.07300
H  34.17900 4.05100 24.78400
H  37.48700 2.84700 23.77400
H  37.32200 4.16900 24.83200
H  36.24100 4.06400 23.55900
H  32.79300 1.54300 25.53800
H  33.89800 1.10000 24.20100
H  32.55600 3.46200 23.28800
H  31.33300 2.41000 24.03400
H  32.34600 1.73900 22.84200
H  28.89200 4.02600 28.65600
H  29.75400 3.38600 27.42800
H  29.64700 5.15900 27.40200
H  31.26000 3.30000 33.44700
H  30.25300 6.62900 36.26600
H  31.88500 7.00300 35.93000
H  31.55800 5.64000 36.92300
Mg 27.22600 51.04800 26.43300
C  24.88400 51.93600 28.81500
C  29.45300 50.37000 28.86100
C  29.43500 50.47600 23.94900
C  24.93600 52.34700 23.96900
N  27.20900 51.07900 28.59300
C  26.11400 51.35600 29.38400
C  26.46600 51.18200 30.86900
C  27.96300 50.68900 30.87000
C  28.24600 50.73600 29.36300
C  29.00300 51.55500 31.65200
C  25.50300 50.25800 31.61700
C  25.00100 50.72200 33.01100
H  25.11300 49.66700 34.05800
N  29.18300 50.52500 26.44900
C  29.94500 50.29100 27.53700
C  31.21700 50.03900 27.14500
C  31.26800 50.08000 25.69400
C  29.93100 50.30100 25.27900
C  32.34300 49.64600 28.15700
C  32.51500 49.82100 24.76500
O  32.47700 49.90100 23.55600
C  33.85500 49.42600 25.40700
N  27.15300 51.40800 24.34000
C  28.18700 50.97100 23.53200
C  27.81600 50.95100 22.06000
C  26.40100 51.57400 22.07800
C  26.12400 51.83200 23.53200
C  28.83700 51.70700 21.16100
C  25.23500 50.67700 21.46800
C  24.10300 51.52000 20.71600
N  25.28700 51.79600 26.27900
C  24.51300 52.35300 25.26500
C  23.25400 52.92400 25.78700
C  23.43900 52.84400 27.17800
C  24.61800 52.10400 27.44100
C  22.13300 53.41900 25.02100
C  22.72900 53.00900 28.45700
O  21.60200 53.45000 28.63100
C  23.70300 52.60900 29.59900
C  24.12500 53.71300 30.46500
O  25.08500 54.42800 30.25500
O  23.32500 53.75900 31.60300
C  23.76100 54.64800 32.59200
H  30.12400 50.11700 29.68400
H  30.13500 50.31900 23.12600
H  24.18600 52.69200 23.25400
H  26.38100 52.18100 31.29600
H  28.05700 49.70200 31.32500
H  28.45000 52.28600 32.24200
H  29.65300 52.09300 30.96200
H  29.57000 50.92500 32.33700
H  26.01800 49.30900 31.77000
H  24.61700 50.08600 31.00500
H  23.95000 50.80400 32.73400
H  25.42700 51.71400 33.16300
H  32.14100 50.14000 29.10700
H  33.29300 50.12000 27.90900
H  32.45600 48.56200 28.18700
H  33.77000 48.61500 26.13000
H  34.34400 50.30600 25.82400
H  34.48700 48.99100 24.63300
H  27.85300 49.96100 21.60600
H  26.42700 52.55000 21.59300
H  29.66800 52.05500 21.77400
H  28.43300 52.55000 20.60000
H  29.34000 51.04600 20.45500
H  24.77000 50.06600 22.24100
H  25.71000 49.94000 20.81900
H  23.24900 51.30400 21.35900
H  24.04200 51.14200 19.69600
H  24.27600 52.58700 20.86200
H  22.10300 52.95300 24.03600
H  22.26800 54.47500 24.78800
H  21.15600 53.25800 25.47700
H  23.17500 51.91500 30.25400
H  24.32400 55.51000 32.23300
H  24.28800 54.05500 33.33900
H  22.95100 55.10200 33.16200

