158

Mg 45.06700 4.38600 47.03300
C  43.35800 7.50400 46.73100
C  41.97600 2.91200 46.37300
C  46.78700 1.57800 46.59500
C  48.15500 6.21500 46.87100
N  42.80500 5.24800 46.48700
C  42.39900 6.51000 46.50900
C  40.86600 6.51800 46.25500
C  40.52100 4.97800 46.23000
C  41.81700 4.32700 46.37700
C  39.46900 4.59000 47.30000
C  40.34300 7.35500 44.97700
C  41.25900 7.37300 43.69600
H  40.72000 6.42600 42.63200
N  44.48600 2.47500 46.58400
C  43.16500 2.07700 46.36100
C  43.24900 0.64800 46.10800
C  44.62100 0.21600 46.33300
C  45.36300 1.45200 46.54000
C  42.10700 -0.15800 45.74900
C  45.16100 -1.15300 46.14700
O  44.35300 -2.00100 45.79200
C  46.57400 -1.51300 46.36300
N  47.20800 3.94400 46.59600
C  47.58800 2.67400 46.66000
C  49.18500 2.53200 46.66500
C  49.61500 4.03800 46.65500
C  48.22600 4.81700 46.71500
C  49.57800 1.74100 47.94700
C  50.45700 4.47200 45.45300
C  51.70100 3.62900 45.05200
N  45.70800 6.36800 46.94800
C  46.93600 6.94700 46.86000
C  46.84500 8.38600 46.85000
C  45.43000 8.61400 46.86500
C  44.78400 7.40800 46.97800
C  47.94000 9.37500 46.97000
C  44.35200 9.66900 46.88400
O  44.37800 10.89600 46.80000
C  42.94900 8.89900 46.74400
C  42.20200 9.28900 47.97800
O  42.11300 8.59700 49.00300
O  41.42400 10.41300 47.75800
C  40.49800 10.57200 48.85700
H  40.99200 2.43800 46.37200
H  47.49100 0.74400 46.60000
H  49.11700 6.73200 46.86500
H  40.55200 7.03800 47.16000
H  40.06100 4.69200 45.28400
H  39.85900 3.84600 47.99500
H  38.63200 4.18000 46.73500
H  39.25800 5.42400 47.97000
H  40.00400 8.34000 45.29600
H  39.40000 6.87100 44.72100
H  42.28100 7.03100 43.86000
H  41.25900 8.39000 43.30500
H  41.84700 -0.96500 46.43300
H  42.15700 -0.66500 44.78500
H  41.20400 0.44700 45.66900
H  46.83000 -2.57000 46.29100
H  46.93900 -1.16200 47.32800
H  47.09800 -1.13300 45.48600
H  49.56200 2.14700 45.71800
H  50.07800 4.35600 47.58900
H  49.73000 0.70300 47.65000
H  48.80900 1.71700 48.71900
H  50.49500 2.04600 48.45000
H  50.71800 5.48600 45.75600
H  49.86500 4.52900 44.54000
H  51.70500 3.16000 44.06900
H  51.85400 2.83400 45.78300
H  52.61700 4.21900 45.08600
H  48.68800 9.09200 47.71100
H  47.46300 10.32600 47.20900
H  48.59900 9.47000 46.10700
H  42.60500 9.37700 45.82700
H  39.81000 9.73000 48.92600
H  39.90600 11.45700 48.62400
H  41.09000 10.71300 49.76200
Mg 17.59200 51.36300 25.99200
C  19.40200 49.97900 28.58400
C  15.13500 52.22100 28.22800
C  15.54200 52.22400 23.32900
C  19.66500 49.59800 23.72000
N  17.31500 51.02400 28.22000
C  18.23300 50.52600 29.05500
C  17.62600 50.66100 30.50300
C  16.17400 51.09900 30.33100
C  16.21900 51.46700 28.86500
C  15.15400 49.93000 30.67200
C  18.34900 51.71200 31.42500
C  18.47600 51.45500 32.98100
H  17.30600 52.10500 33.81600
N  15.81800 52.40700 25.80900
C  14.97700 52.69500 26.90300
C  13.95700 53.54900 26.37700
C  14.09200 53.57600 24.94600
C  15.18800 52.72600 24.62900
C  13.01900 54.19900 27.32000
C  13.21600 54.37200 23.87400
O  13.54200 54.48700 22.71200
C  11.98100 55.10900 24.35800
N  17.50300 50.80500 23.82000
C  16.61700 51.39300 22.98300
C  16.93100 50.99500 21.50900
C  18.33900 50.33700 21.62700
C  18.57800 50.28900 23.14900
C  15.87200 50.21300 20.83300
C  19.49300 50.99500 20.80900
C  20.38800 52.17400 21.33900
N  19.19000 50.06500 26.09900
C  19.93500 49.48200 25.09300
C  20.99500 48.73000 25.72000
C  20.83900 48.89900 27.08600
C  19.66600 49.73400 27.28200
C  22.09700 47.93200 24.97100
C  21.37500 48.51400 28.31700
O  22.37500 47.87200 28.50900
C  20.41600 49.22500 29.34600
C  19.82400 48.12800 30.16700
O  18.73300 47.58200 29.94100
O  20.44200 48.11500 31.32700
C  19.88000 47.33000 32.43600
H  14.36800 52.36500 28.99200
H  14.88800 52.52500 22.50800
H  20.40100 49.16300 23.04100
H  17.69600 49.72300 31.05400
H  15.89800 51.99700 30.88300
H  14.92000 49.25400 29.85000
H  14.16600 50.27800 30.97300
H  15.60100 49.30900 31.44900
H  17.88400 52.67900 31.23700
H  19.34600 51.85400 31.00900
H  19.37800 51.91700 33.38300
H  18.41100 50.37000 33.06500
H  13.50900 54.40900 28.27100
H  12.09600 53.62000 27.31700
H  12.70300 55.17100 26.94200
H  11.29600 55.40600 23.56500
H  12.29700 56.03000 24.84700
H  11.49000 54.36800 24.98900
H  17.05100 51.88600 20.89300
H  18.22600 49.30100 21.30800
H  15.18500 50.93800 20.39600
H  15.40600 49.50000 21.51300
H  16.27500 49.64000 19.99700
H  18.99000 51.41400 19.93700
H  20.12200 50.19400 20.41900
H  21.46600 52.05600 21.22900
H  20.11700 52.35900 22.37800
H  20.13300 53.09000 20.80600
H  22.99300 48.55200 24.93200
H  21.84000 47.66900 23.94500
H  22.34400 47.01700 25.50900
H  20.92900 49.87300 30.05600
H  20.11100 46.30400 32.14800
H  18.82700 47.56300 32.59300
H  20.33000 47.54100 33.40500

