158

Mg 54.20000 24.46500 44.80900
C  51.68800 26.72400 43.65200
C  52.43400 21.85900 43.51800
C  57.10800 22.79100 44.85100
C  56.00200 27.46900 45.78400
N  52.33200 24.30000 43.67900
C  51.49000 25.38100 43.28900
C  50.21000 24.73200 42.64200
C  50.31800 23.18500 43.11900
C  51.78300 23.08400 43.41300
C  49.54400 22.74300 44.34200
C  50.06800 24.86400 41.07300
C  51.27400 25.06500 40.23700
H  52.30300 23.97300 40.05300
N  54.66500 22.55300 44.42700
C  53.80000 21.61000 43.89000
C  54.46900 20.36800 43.79400
C  55.83000 20.56100 44.29300
C  55.93400 22.03100 44.58100
C  53.82600 19.18800 43.24900
C  56.96000 19.55400 44.46100
O  56.78900 18.34800 44.20200
C  58.34800 19.93600 44.99000
N  56.23600 25.02400 45.32200
C  57.23300 24.12300 45.22200
C  58.58600 24.76100 45.28500
C  58.26000 26.22400 45.52100
C  56.78300 26.28000 45.58900
C  59.60600 24.19000 46.31600
C  58.80600 27.17200 44.31400
C  59.78100 28.37600 44.75800
N  53.93400 26.66400 44.84900
C  54.65800 27.68300 45.38900
C  53.84900 28.90100 45.52200
C  52.62900 28.55000 44.87800
C  52.74800 27.17100 44.46600
C  54.26600 30.25400 46.14200
C  51.35700 29.03100 44.43100
O  50.80600 30.09500 44.55200
C  50.73700 27.91900 43.49200
C  50.60200 28.41500 42.07300
O  51.46300 28.91000 41.32800
O  49.31500 28.15300 41.77200
C  48.89200 28.54200 40.36000
H  51.77600 20.98900 43.45900
H  58.03600 22.22400 44.76000
H  56.50600 28.40600 46.03300
H  49.29200 25.13700 43.06700
H  49.98900 22.45800 42.37700
H  50.23300 22.13500 44.92700
H  48.67600 22.16400 44.02800
H  49.27600 23.55400 45.02000
H  49.38800 25.69300 40.87800
H  49.55000 24.05400 40.56000
H  51.69300 25.89800 40.80200
H  50.98300 25.15100 39.19000
H  53.47600 19.50200 42.26600
H  52.99800 18.91300 43.90200
H  54.54800 18.38600 43.09800
H  58.91800 19.05600 45.28700
H  58.30700 20.56100 45.88200
H  59.05100 20.45100 44.33500
H  59.05700 24.57600 44.32000
H  58.52900 26.54100 46.52900
H  59.09500 23.62200 47.09300
H  60.23300 24.93000 46.81300
H  60.36800 23.60800 45.79800
H  57.98500 27.65600 43.78500
H  59.28500 26.69100 43.46100
H  60.82500 28.27600 44.46400
H  59.82200 28.54800 45.83400
H  59.19800 29.21600 44.37900
H  55.20700 30.62400 45.73500
H  54.27800 30.04300 47.21100
H  53.50300 31.03200 46.14100
H  49.75500 27.61800 43.85600
H  49.66400 28.93900 39.70200
H  48.04000 29.22000 40.32100
H  48.46500 27.64600 39.91000
Mg 46.88400 25.79400 28.38500
C  47.68100 28.03700 30.90800
C  45.71500 23.57800 30.83900
C  46.45400 23.51600 26.02300
C  48.60600 27.90200 26.19200
N  46.69300 25.87800 30.58900
C  47.04000 26.90300 31.40200
C  46.74700 26.62900 32.89000
C  46.19600 25.17400 32.81600
C  46.19600 24.82200 31.29300
C  47.05000 24.16100 33.67100
C  45.82700 27.66800 33.61400
C  46.43100 28.48500 34.87900
H  45.42900 28.79700 36.02500
N  45.86300 23.99200 28.34800
C  45.46100 23.24100 29.45200
C  44.71200 22.13900 28.94300
C  44.99100 22.03700 27.53000
C  45.88100 23.18000 27.27200
C  43.99500 21.20200 29.86700
C  44.72300 20.95400 26.50800
O  45.21500 20.89600 25.37400
C  43.86200 19.79400 27.03700
N  47.50000 25.65600 26.42400
C  47.16400 24.63300 25.60900
C  47.40400 24.95900 24.13500
C  48.25200 26.29800 24.22700
C  48.15600 26.63100 25.70600
C  48.11900 23.75000 23.40300
C  47.64800 27.37600 23.33200
C  48.56300 28.25400 22.47700
N  47.97400 27.57700 28.47100
C  48.47400 28.38700 27.43600
C  48.86800 29.67600 28.00400
C  48.70300 29.50100 29.33900
C  48.05500 28.25700 29.58100
C  49.50300 30.80400 27.35200
C  48.86900 30.14400 30.59600
O  49.33200 31.19900 30.85900
C  48.20600 29.17000 31.63100
C  49.25100 28.76100 32.51400
O  49.99000 27.79700 32.37500
O  49.33600 29.68600 33.57100
C  50.30300 29.37800 34.58700
H  45.42300 22.95200 31.68500
H  46.11800 22.89700 25.18900
H  49.00900 28.62400 25.47900
H  47.73600 26.74300 33.33300
H  45.14600 25.19100 33.11000
H  46.40600 23.50000 34.25100
H  47.63600 24.78200 34.34900
H  47.70200 23.52000 33.07900
H  45.00500 27.14800 34.10700
H  45.36500 28.26400 32.82600
H  46.74100 29.43200 34.43800
H  47.30900 27.95000 35.24200
H  42.91600 21.29200 29.74400
H  44.29900 21.43900 30.88600
H  44.30200 20.16800 29.71000
H  44.46500 19.07700 27.59400
H  43.50100 19.20100 26.19600
H  42.95600 20.14400 27.53100
H  46.43200 25.18700 23.69700
H  49.29800 26.22000 23.93000
H  47.40400 23.11300 22.88200
H  48.69000 23.18600 24.14000
H  48.86100 24.16400 22.72000
H  47.14600 28.10400 23.97100
H  47.00800 26.89800 22.59100
H  49.57800 27.85600 22.48700
H  48.48400 29.28400 22.82400
H  48.20300 28.13700 21.45500
H  49.20300 31.01200 26.32500
H  50.49700 30.35700 27.34400
H  49.47300 31.65800 28.02900
H  47.43500 29.76500 32.12100
H  50.72700 30.23300 35.11300
H  51.16800 28.95900 34.07300
H  49.96000 28.58700 35.25500

