158

Mg 41.48500 40.57300 26.54400
C  40.75700 42.95700 29.07400
C  42.46200 38.35200 28.90900
C  42.19400 38.44800 24.08000
C  40.60500 43.08600 24.26600
N  41.57300 40.65500 28.80100
C  41.15000 41.65500 29.62800
C  41.23900 41.11500 31.09100
C  42.00000 39.75600 30.97400
C  41.91600 39.52700 29.43500
C  43.50700 39.93700 31.35700
C  39.76100 40.99900 31.64900
C  39.44100 41.90700 32.80100
H  38.95500 41.26200 34.08300
N  42.29300 38.69900 26.45600
C  42.59500 37.94000 27.58300
C  43.15100 36.68000 27.15500
C  43.12400 36.70700 25.73700
C  42.57800 37.97700 25.37500
C  43.44500 35.54000 27.99200
C  43.50000 35.51900 24.78200
O  43.33600 35.60000 23.60800
C  43.93700 34.15400 25.21200
N  41.52700 40.81100 24.40100
C  41.70500 39.70600 23.65100
C  41.47600 39.94800 22.15700
C  40.78600 41.34100 22.22900
C  40.94100 41.84100 23.73100
C  42.76100 39.98000 21.34600
C  39.23600 41.29000 21.86100
C  38.26800 40.44800 22.76100
N  41.01300 42.56100 26.60700
C  40.71800 43.50400 25.58900
C  40.33200 44.75200 26.04000
C  40.31300 44.59800 27.38100
C  40.73800 43.24100 27.65700
C  39.99600 45.98700 25.30200
C  40.03700 45.22900 28.66800
O  39.60700 46.33400 28.97300
C  40.32100 44.14900 29.79300
C  41.33600 44.67700 30.83900
O  42.55500 44.70600 30.76300
O  40.61300 45.35300 31.82700
C  41.37200 45.89900 32.95500
H  42.76800 37.61100 29.65000
H  42.23600 37.70200 23.28300
H  40.28600 43.84100 23.54500
H  41.78600 41.91700 31.58700
H  41.47700 39.06000 31.63000
H  43.59900 39.81600 32.43700
H  43.77400 40.98000 31.19000
H  44.10800 39.22400 30.79300
H  39.49600 39.97600 31.91500
H  38.99500 41.35300 30.95800
H  38.61600 42.52500 32.44500
H  40.25500 42.62400 32.90300
H  43.12400 35.72500 29.01700
H  44.50200 35.27200 27.97700
H  42.81000 34.70900 27.68500
H  44.70600 34.33300 25.96400
H  44.28600 33.46800 24.44100
H  43.02200 33.67100 25.55700
H  40.77700 39.34300 21.57900
H  41.30300 42.09000 21.62900
H  43.25900 40.94900 21.35300
H  42.61100 39.58700 20.34000
H  43.51500 39.34200 21.80600
H  39.35500 40.75300 20.92000
H  38.95000 42.33800 21.77100
H  37.67600 39.77600 22.14100
H  37.64800 41.16000 23.30600
H  38.76500 39.80900 23.49100
H  40.73500 46.77200 25.46200
H  39.10500 46.41300 25.76300
H  39.77800 45.76700 24.25700
H  39.43300 43.75900 30.29100
H  41.18600 45.24700 33.80800
H  40.94400 46.85200 33.26900
H  42.42300 46.10800 32.75800
Mg 16.34600 52.50100 26.52200
C  18.10400 50.90300 29.17600
C  13.80500 53.12100 28.67900
C  14.60800 53.71500 23.86900
C  18.68400 51.00800 24.31700
N  16.09000 52.02600 28.66800
C  16.96300 51.58100 29.55400
C  16.45900 51.78900 31.01400
C  14.91600 52.15000 30.84200
C  14.91400 52.47600 29.27100
C  13.79500 51.10900 31.23100
C  17.29800 52.97700 31.70700
C  17.15900 53.19500 33.26300
H  16.40400 52.20900 34.19600
N  14.43400 53.26800 26.29200
C  13.50400 53.46700 27.30100
C  12.30400 54.10100 26.73700
C  12.57500 54.32900 25.37800
C  13.95300 53.77000 25.13400
C  11.11300 54.32300 27.67900
C  11.78800 55.10700 24.42300
O  12.07300 55.23800 23.22300
C  10.58500 55.91600 24.91300
N  16.54300 52.19500 24.31700
C  15.78800 53.00300 23.50800
C  16.37400 52.98400 22.02000
C  17.82200 52.35200 22.31600
C  17.72300 51.81400 23.69200
C  15.41600 52.04600 21.18100
C  19.04800 53.37800 22.22400
C  20.26200 52.88500 21.44400
N  18.12100 51.26500 26.67500
C  18.93300 50.77600 25.67400
C  19.87600 49.85300 26.29700
C  19.72000 49.99900 27.66900
C  18.55500 50.78400 27.86100
C  20.99300 49.22100 25.59600
C  20.26000 49.51800 28.98700
O  21.25100 48.85200 29.31700
C  19.23700 50.23900 30.00700
C  18.75100 49.22300 30.94900
O  18.15300 48.23700 30.57100
O  19.09300 49.45600 32.23500
C  18.69600 48.50000 33.35600
H  13.09000 53.42700 29.44500
H  14.28200 54.23600 22.96700
H  19.46500 50.77400 23.59000
H  16.56200 50.88300 31.61100
H  14.67300 53.06800 31.37800
H  13.05700 51.01500 30.43500
H  13.35900 51.39800 32.18800
H  14.31600 50.16200 31.37100
H  17.04200 53.90100 31.18800
H  18.33500 52.82000 31.41000
H  16.71000 54.18100 33.37800
H  18.15400 53.42400 33.64400
H  10.11100 54.22400 27.26200
H  11.17900 55.32900 28.09400
H  11.25000 53.52800 28.41100
H  10.31500 56.68900 24.19400
H  10.78400 56.40400 25.86700
H  9.66600 55.33100 24.94300
H  16.39600 54.01300 21.66000
H  17.99900 51.46600 21.70700
H  15.93400 51.16100 20.81100
H  14.89000 52.63800 20.43100
H  14.57200 51.74400 21.80000
H  19.40900 53.72100 23.19400
H  18.65700 54.22300 21.65700
H  20.41800 53.58800 20.62600
H  20.18300 51.85700 21.09000
H  21.09500 52.95100 22.14400
H  20.94800 48.13300 25.55300
H  21.84500 49.56800 26.18000
H  21.17100 49.61400 24.59400
H  19.82200 50.95100 30.59000
H  18.19900 47.61700 32.95300
H  17.89700 48.89600 33.98200
H  19.50200 48.18400 34.01900

