158

Mg 1.71400 -2.82700 45.40700
C  5.10900 -2.92700 44.66800
C  1.41700 -0.15500 43.04700
C  -1.62300 -3.24400 45.33300
C  2.14200 -5.90800 47.14300
N  3.09300 -1.63600 44.08400
C  4.45500 -1.90300 43.92700
C  5.09900 -0.90000 42.88000
C  4.00100 0.13700 42.69400
C  2.75600 -0.60900 43.22600
C  4.16100 1.53900 43.28400
C  5.62200 -1.67100 41.56900
C  7.09400 -1.41300 41.10700
H  7.34900 -0.87700 39.70500
N  0.17800 -1.70200 44.54500
C  0.24800 -0.67900 43.61200
C  -1.08900 -0.18400 43.31900
C  -1.96200 -1.08400 43.85700
C  -1.14900 -2.06300 44.66100
C  -1.32200 0.97100 42.38500
C  -3.44900 -1.11200 43.63500
O  -3.85400 -0.20500 42.93800
C  -4.34200 -2.13300 44.24000
N  0.51200 -4.33000 46.08300
C  -0.85500 -4.20800 46.05100
C  -1.54600 -5.44100 46.72900
C  -0.33000 -6.17100 47.31500
C  0.85300 -5.49600 46.78000
C  -2.60400 -5.07500 47.83900
C  -0.33500 -7.67600 47.23800
C  0.40300 -8.40600 46.11500
N  3.28200 -4.15000 45.92600
C  3.33900 -5.28700 46.70100
C  4.68800 -5.74000 46.83000
C  5.41800 -4.79300 46.08900
C  4.48800 -3.84600 45.53600
C  5.24300 -6.91600 47.59600
C  6.74300 -4.49500 45.59700
O  7.86000 -5.04800 45.78800
C  6.60700 -3.22800 44.69500
C  7.37700 -2.14100 45.20600
O  7.36100 -1.71900 46.35000
O  7.96100 -1.40800 44.18300
C  8.58800 -0.09000 44.34400
H  1.30200 0.73900 42.43100
H  -2.69000 -3.46900 45.38800
H  2.05800 -6.72200 47.86600
H  5.94100 -0.43500 43.39400
H  3.79800 0.42700 41.66400
H  4.86700 1.41900 44.10600
H  3.19900 1.89700 43.65200
H  4.61200 2.22700 42.57000
H  4.91400 -1.42000 40.78000
H  5.41900 -2.72600 41.75200
H  7.70000 -2.31300 41.20600
H  7.43500 -0.67000 41.82800
H  -1.66200 0.65700 41.39800
H  -0.42000 1.58200 42.35400
H  -2.12300 1.56000 42.83200
H  -4.14800 -3.09000 43.75600
H  -5.34200 -1.80900 43.95000
H  -4.41500 -2.21300 45.32400
H  -1.97200 -6.09100 45.96500
H  -0.28200 -5.99400 48.39000
H  -2.82800 -4.01100 47.90500
H  -2.18600 -5.43600 48.77900
H  -3.58700 -5.50600 47.65100
H  -1.34100 -8.06800 47.38900
H  0.17700 -7.98800 48.14900
H  -0.30400 -9.08200 45.63400
H  1.22800 -8.99800 46.51000
H  0.85500 -7.74900 45.37100
H  4.77700 -7.84400 47.26300
H  4.84900 -6.83900 48.60900
H  6.31200 -6.70800 47.55900
H  7.00200 -3.43500 43.70100
H  9.26000 -0.07800 45.20200
H  7.80000 0.63200 44.56000
H  9.25700 0.23400 43.54700
Mg 40.64400 9.66500 30.05300
C  42.54600 10.85200 32.72300
C  38.39100 8.22700 32.40200
C  39.11300 8.10400 27.64300
C  43.12300 10.76700 27.86100
N  40.65100 9.41300 32.30700
C  41.42100 10.13400 33.21200
C  40.84300 10.18700 34.55600
C  39.58200 9.27000 34.48600
C  39.49500 8.96800 32.93500
C  39.49200 8.01600 35.39700
C  40.58200 11.59700 35.16000
C  41.12500 11.96200 36.52500
H  40.23100 12.31200 37.69000
N  39.04200 8.31900 30.01200
C  38.18100 7.94600 31.03600
C  37.07100 7.11300 30.48700
C  37.28600 7.08800 29.08800
C  38.50500 7.83000 28.83900
C  35.91200 6.63800 31.31900
C  36.37300 6.49600 27.93400
O  36.60100 6.55000 26.68100
C  35.08300 5.81400 28.29200
N  41.08800 9.54100 28.01100
C  40.24800 8.82100 27.23700
C  40.72800 9.02800 25.72200
C  41.84600 10.00200 25.79700
C  42.06400 10.10500 27.28600
C  41.15000 7.77400 24.84100
C  41.55400 11.39300 25.18100
C  40.69600 12.39600 25.91900
N  42.48600 10.74300 30.24700
C  43.41800 11.08800 29.25800
C  44.51500 11.80900 29.84600
C  44.16900 11.82500 31.25800
C  42.98800 11.08800 31.39800
C  45.67600 12.50800 29.22000
C  44.58500 12.30300 32.53900
O  45.53600 12.94300 32.92000
C  43.51400 11.65300 33.59200
C  44.26200 10.86600 34.65100
O  44.77200 9.70900 34.58300
O  44.27900 11.60300 35.79300
C  44.88100 10.93900 36.94700
H  37.80100 7.73000 33.17500
H  38.67900 7.60900 26.77200
H  43.83200 11.01600 27.06900
H  41.60500 9.81100 35.23900
H  38.68200 9.84100 34.71200
H  39.81900 7.14900 34.82200
H  38.52400 7.88000 35.87800
H  40.31400 8.21400 36.08500
H  39.52200 11.80200 35.31300
H  40.83200 12.32100 34.38600
H  41.71700 12.86800 36.39500
H  41.70100 11.11000 36.88800
H  36.01300 6.74400 32.39900
H  35.63600 5.58700 31.22700
H  35.05500 7.25800 31.05600
H  34.44600 5.67400 27.41900
H  34.64600 6.54800 28.96800
H  35.25600 4.88700 28.84000
H  39.89300 9.43400 25.15000
H  42.79100 9.66400 25.37300
H  40.65600 8.00800 23.89800
H  40.70900 6.88400 25.29100
H  42.23300 7.67400 24.76800
H  41.01800 11.18000 24.25600
H  42.42700 11.96100 24.85900
H  40.27500 12.02400 26.85300
H  39.85000 12.44300 25.23400
H  41.11700 13.39900 25.99300
H  46.01800 13.40500 29.73500
H  45.61300 12.82500 28.17900
H  46.53100 11.83700 29.14400
H  43.05400 12.54400 34.01800
H  44.26000 10.09100 37.23700
H  45.06200 11.62700 37.77300
H  45.87900 10.62600 36.63900

