158

Mg 8.98900 2.84500 27.62700
C  10.58800 1.26100 30.25700
C  7.30600 4.74100 29.80200
C  6.86300 3.68900 25.03900
C  9.94300 0.05200 25.58200
N  8.79800 2.81900 29.81400
C  9.69600 2.28600 30.67600
C  9.71400 2.89700 32.12000
C  8.58900 3.89300 31.88700
C  8.24700 3.86500 30.38400
C  7.30900 3.64300 32.74700
C  11.06200 3.57100 32.47100
C  11.70300 3.19300 33.78100
H  10.75700 2.91200 34.94100
N  7.44300 4.11900 27.41300
C  6.93100 4.85800 28.47300
C  5.98400 5.86000 27.95900
C  5.81300 5.52500 26.53200
C  6.74100 4.41500 26.26100
C  5.38400 6.94600 28.84500
C  4.97700 6.36000 25.51100
O  4.88400 6.09900 24.32000
C  4.08300 7.48300 25.99200
N  8.54100 2.00100 25.56200
C  7.69400 2.59300 24.70800
C  7.64000 1.87100 23.32500
C  8.68600 0.72100 23.55000
C  9.13600 0.95300 25.01100
C  6.31600 1.29100 22.89000
C  9.79400 0.65500 22.54700
C  10.12600 -0.68600 21.84000
N  10.21300 1.16400 27.78900
C  10.55900 0.14400 26.87500
C  11.57500 -0.73500 27.49000
C  11.64100 -0.27700 28.84000
C  10.76200 0.77800 28.94900
C  12.26900 -1.79500 26.79200
C  12.29000 -0.52900 30.09200
O  13.21500 -1.27900 30.36000
C  11.52200 0.43600 31.12400
C  10.80700 -0.39900 32.11600
O  9.74700 -0.91500 31.99600
O  11.70700 -0.52700 33.18400
C  11.12300 -1.22900 34.35800
H  6.78300 5.37200 30.52300
H  6.21000 4.12900 24.28200
H  10.19000 -0.79500 24.93900
H  9.53300 2.11900 32.86000
H  8.87900 4.91500 32.13200
H  7.41900 2.61900 33.10400
H  6.41600 3.56200 32.12700
H  7.14300 4.37200 33.54000
H  10.96700 4.65300 32.56700
H  11.73500 3.32100 31.65100
H  12.43000 3.92700 34.12900
H  12.34100 2.31800 33.65700
H  5.45000 6.82100 29.92600
H  4.31300 6.89700 28.65200
H  5.79100 7.92100 28.57400
H  3.22200 7.12300 26.55600
H  3.81400 8.10200 25.13700
H  4.65800 8.14800 26.63600
H  7.92100 2.62900 22.59500
H  8.21700 -0.25800 23.64600
H  6.16600 0.21200 22.93800
H  6.16400 1.50300 21.83200
H  5.43200 1.69700 23.38200
H  10.67400 1.02400 23.07400
H  9.73400 1.36300 21.72100
H  9.67200 -0.70200 20.84900
H  9.75700 -1.57500 22.35300
H  11.21000 -0.76500 21.76100
H  12.17600 -1.64800 25.71500
H  11.86900 -2.72900 27.18600
H  13.30500 -1.72100 27.12100
H  12.22000 1.08500 31.65300
H  11.82700 -1.08300 35.17800
H  10.99900 -2.28600 34.12200
H  10.12100 -0.89400 34.62600
Mg 0.35400 42.69800 25.33200
C  2.69900 42.41700 27.94100
C  -2.16900 42.23000 27.69300
C  -1.91300 42.55900 22.91600
C  2.86700 43.03700 23.05100
N  0.34200 42.41100 27.55700
C  1.39400 42.36800 28.40500
C  0.87500 42.20000 29.89100
C  -0.64000 41.93500 29.66600
C  -0.85200 42.26000 28.18600
C  -1.18300 40.59800 30.12100
C  1.20300 43.49700 30.67800
C  0.85600 43.73100 32.15800
H  0.75500 42.45800 32.99700
N  -1.81300 42.47100 25.30300
C  -2.64000 42.41200 26.37600
C  -4.03700 42.46400 25.90000
C  -3.91400 42.59500 24.52600
C  -2.50500 42.61600 24.20500
C  -5.19900 42.41300 26.91500
C  -5.04000 42.78200 23.53600
O  -4.77300 43.11900 22.38500
C  -6.55400 42.71800 23.95000
N  0.44100 42.56100 23.29600
C  -0.60800 42.50700 22.51400
C  -0.27300 42.53700 20.98600
C  1.20700 43.01200 21.00000
C  1.54100 42.88800 22.52500
C  -0.51000 41.21200 20.20000
C  1.34500 44.49400 20.46300
C  2.10700 44.59200 19.07500
N  2.36600 42.68300 25.39200
C  3.30500 42.83400 24.36900
C  4.70300 42.85900 24.90400
C  4.47900 42.68200 26.28200
C  3.12200 42.59300 26.54300
C  6.00800 43.09900 24.25600
C  5.12000 42.49400 27.55600
O  6.30600 42.49900 27.79200
C  4.00500 42.42100 28.69600
C  4.25200 41.14100 29.48900
O  3.79300 40.01100 29.26800
O  4.87300 41.50100 30.61900
C  4.95300 40.50700 31.69900
H  -2.98600 42.29000 28.41500
H  -2.61200 42.23400 22.14200
H  3.69800 43.30800 22.39700
H  1.33100 41.38900 30.45800
H  -1.24400 42.68100 30.18200
H  -0.74700 40.28600 31.07000
H  -1.07200 39.81100 29.37500
H  -2.22300 40.69100 30.43200
H  0.81200 44.25600 30.00100
H  2.27900 43.64900 30.59000
H  -0.08800 44.27700 32.15900
H  1.66600 44.31200 32.59900
H  -5.71300 41.45500 26.83400
H  -5.89500 43.23200 26.73400
H  -4.82800 42.46900 27.93800
H  -6.57900 41.76100 24.47000
H  -7.12500 42.68100 23.02300
H  -6.83200 43.45100 24.70700
H  -0.90700 43.33100 20.58900
H  1.92300 42.38900 20.46300
H  -0.99700 40.56900 20.93300
H  0.43400 40.86900 19.77400
H  -1.17700 41.39200 19.35700
H  1.76900 45.14200 21.23000
H  0.37500 44.97500 20.33900
H  2.18000 43.62200 18.58400
H  3.11600 44.98500 19.20500
H  1.59300 45.29400 18.41900
H  6.93900 43.02700 24.81800
H  5.95800 44.05200 23.73100
H  6.00400 42.25200 23.56900
H  4.03200 43.27200 29.37600
H  3.96200 40.30900 32.10700
H  5.58300 41.11600 32.34700
H  5.60000 39.64200 31.55100

