158

Mg -2.39100 16.80000 25.95100
C  -3.10000 14.42100 28.32400
C  -3.02500 19.30600 28.18300
C  -2.48900 18.90000 23.32100
C  -2.77500 14.06600 23.48500
N  -2.93300 16.87900 27.99100
C  -3.11900 15.77200 28.82300
C  -3.34000 16.15600 30.30600
C  -3.34600 17.74100 30.23900
C  -3.05500 18.02400 28.73100
C  -4.64800 18.38900 30.82700
C  -2.31800 15.49100 31.34900
C  -1.73200 16.24200 32.61000
H  -1.37300 15.38300 33.80600
N  -2.55000 18.76500 25.79200
C  -2.66700 19.66000 26.84300
C  -2.60000 20.99500 26.38700
C  -2.33800 20.93200 24.99500
C  -2.47500 19.43400 24.63500
C  -2.78400 22.24500 27.18800
C  -1.95500 22.06700 24.06500
O  -1.80100 21.98200 22.86700
C  -1.58100 23.44500 24.56400
N  -2.59700 16.53900 23.69300
C  -2.56800 17.61800 22.89600
C  -2.81400 17.20100 21.42800
C  -2.93700 15.65700 21.52000
C  -2.70000 15.36000 22.98800
C  -3.86200 18.01000 20.64000
C  -1.96000 14.85100 20.54600
C  -2.76500 14.52100 19.26300
N  -2.95400 14.73000 25.85800
C  -2.80300 13.76300 24.86800
C  -2.91600 12.44700 25.38200
C  -3.14900 12.63900 26.73300
C  -3.11000 14.03800 26.97800
C  -2.84400 11.16100 24.74200
C  -3.30200 11.99800 27.95300
O  -3.49700 10.82400 28.22200
C  -3.17300 13.05300 29.06400
C  -2.09700 12.65000 29.94900
O  -0.92400 12.90000 29.76700
O  -2.71500 11.97200 30.99200
C  -1.72900 11.41800 31.96700
H  -3.16100 20.12500 28.89200
H  -2.48600 19.73200 22.61300
H  -2.71400 13.20000 22.82200
H  -4.29500 15.72000 30.59900
H  -2.49300 18.13500 30.79100
H  -4.35600 19.16900 31.52900
H  -5.24700 17.62200 31.31800
H  -5.09200 18.93700 29.99600
H  -1.43500 15.16000 30.80300
H  -2.73600 14.59700 31.81100
H  -2.41900 17.07100 32.77800
H  -0.77600 16.62800 32.25500
H  -1.97400 22.97400 27.19100
H  -3.05800 22.11600 28.23500
H  -3.57200 22.74700 26.62600
H  -2.46700 24.04500 24.77500
H  -1.01900 24.00700 23.81800
H  -0.87000 23.37900 25.38800
H  -1.83200 17.39700 20.99600
H  -3.98400 15.47200 21.27900
H  -4.59900 17.39800 20.12000
H  -3.55000 18.87700 20.05800
H  -4.42400 18.52500 21.42000
H  -1.45800 13.99300 20.99300
H  -1.17000 15.49500 20.15800
H  -3.70000 14.13700 19.67200
H  -2.31500 13.70800 18.69300
H  -2.89100 15.47300 18.74700
H  -3.84700 10.88900 24.41600
H  -2.59500 10.41400 25.49600
H  -2.21200 11.13500 23.85400
H  -4.10000 13.04900 29.63800
H  -2.29900 11.41000 32.89600
H  -0.80800 11.96400 32.16900
H  -1.48100 10.39900 31.66800
Mg 17.56800 52.40700 26.02300
C  19.66800 51.10600 28.49800
C  15.36700 53.25000 28.38800
C  15.67900 53.28500 23.47500
C  19.90800 50.97300 23.60600
N  17.46000 51.93600 28.22100
C  18.48400 51.60900 28.99000
C  18.06100 51.71700 30.45600
C  16.55000 52.08200 30.39100
C  16.48000 52.55800 28.94600
C  15.55900 50.80600 30.60800
C  18.89600 52.79000 31.16400
C  19.21100 52.72000 32.62000
H  18.23300 52.00900 33.50600
N  15.66700 53.17100 25.90700
C  14.97300 53.49300 27.01900
C  13.88000 54.30400 26.56700
C  13.86400 54.26700 25.12300
C  15.05300 53.44900 24.75600
C  12.90000 55.03200 27.47400
C  12.97100 55.01600 24.14200
O  13.18400 54.95300 22.95500
C  11.81700 55.93700 24.64000
N  17.68100 52.04300 23.91300
C  16.80100 52.59600 23.09700
C  17.09300 52.50700 21.64200
C  18.45600 51.68600 21.61000
C  18.74100 51.51200 23.09000
C  16.00700 51.62800 20.93300
C  19.55500 52.58200 20.93400
C  20.46400 51.94300 19.83700
N  19.37300 51.26400 26.03500
C  20.22100 50.82900 24.96700
C  21.40900 50.24000 25.55000
C  21.24500 50.40400 26.90800
C  19.99900 50.97800 27.14800
C  22.60800 49.76700 24.82700
C  21.89700 50.31300 28.18500
O  22.99800 49.91400 28.55100
C  20.86100 50.65000 29.26000
C  20.54400 49.41700 30.16400
O  20.13500 48.31400 29.85100
O  20.95300 49.73500 31.44200
C  20.98200 48.62200 32.43000
H  14.68700 53.49100 29.20700
H  15.06500 53.75000 22.70100
H  20.67300 50.69300 22.87900
H  18.27500 50.74900 30.90800
H  16.30000 52.90400 31.06200
H  15.03400 50.55400 29.68600
H  14.71100 50.89300 31.28800
H  16.11000 49.91900 30.91700
H  18.58700 53.81000 30.93400
H  19.84600 52.78800 30.62900
H  19.16700 53.69800 33.09900
H  20.18000 52.25300 32.79800
H  13.02700 56.11300 27.41100
H  13.19200 54.93400 28.52000
H  11.87300 54.74300 27.25000
H  11.08500 55.46800 25.29700
H  11.38700 56.36700 23.73500
H  12.24600 56.71300 25.27500
H  17.07000 53.50800 21.21100
H  18.34800 50.65600 21.27000
H  15.57700 50.85100 21.56500
H  16.39900 51.08100 20.07500
H  15.16600 52.24500 20.61400
H  20.35600 52.91700 21.59200
H  19.07000 53.47500 20.54100
H  20.39200 52.56300 18.94400
H  20.19900 50.92800 19.54200
H  21.46500 51.92800 20.27000
H  23.04100 50.42900 24.07700
H  22.28700 48.87200 24.29400
H  23.45800 49.43200 25.42200
H  21.36100 51.41400 29.85600
H  21.13800 47.62300 32.02500
H  20.07900 48.58200 33.03900
H  21.88500 48.84500 32.99800

