158

Mg 16.61700 -1.48700 28.51100
C  15.32500 0.60500 30.79900
C  18.47100 -3.08800 31.00700
C  18.17500 -3.13400 26.10900
C  15.03800 0.56200 25.98200
N  16.91000 -1.23600 30.62600
C  16.25400 -0.33100 31.38800
C  16.49500 -0.47300 32.90500
C  17.67200 -1.53200 32.89400
C  17.67200 -2.00800 31.39700
C  18.98200 -0.93000 33.46700
C  15.18700 -0.87100 33.72100
C  15.07800 -0.30600 35.15700
H  16.32300 0.06000 36.00900
N  18.02600 -3.00100 28.56000
C  18.70900 -3.54100 29.67700
C  19.60500 -4.54400 29.19400
C  19.48500 -4.57400 27.75900
C  18.49200 -3.53800 27.41500
C  20.41700 -5.29100 30.22200
C  20.39400 -5.26800 26.71900
O  20.10000 -5.37500 25.53400
C  21.60400 -6.04000 27.18500
N  16.78900 -1.18100 26.38200
C  17.44900 -2.03500 25.61600
C  17.30000 -1.71300 24.12600
C  16.11900 -0.64200 24.12100
C  15.94800 -0.39700 25.61100
C  18.65000 -1.34100 23.37200
C  14.89300 -1.02000 23.26900
C  13.83800 -1.80500 24.05100
N  15.22600 0.06700 28.36800
C  14.65100 0.79900 27.33700
C  13.67500 1.70300 27.88600
C  13.93900 1.75500 29.22800
C  14.82600 0.71600 29.48400
C  12.95600 2.67200 27.11300
C  13.66500 2.42900 30.53300
O  13.01500 3.44300 30.81500
C  14.52200 1.65100 31.53400
C  15.49300 2.62500 32.20500
O  16.63100 2.98100 31.82300
O  14.94600 3.08700 33.32000
C  15.67200 3.95600 34.24100
H  19.07900 -3.38200 31.86500
H  18.66000 -3.73200 25.33400
H  14.50900 1.18100 25.25500
H  16.63300 0.54000 33.28200
H  17.50200 -2.42600 33.49300
H  19.26500 -1.56700 34.30500
H  18.79000 0.06800 33.86200
H  19.74800 -0.96100 32.69300
H  15.14500 -1.93700 33.94500
H  14.25200 -0.71500 33.18200
H  14.57300 -1.10400 35.70200
H  14.39700 0.54500 35.13600
H  20.13300 -6.33900 30.13100
H  20.19700 -5.00600 31.25100
H  21.45900 -5.01100 30.06500
H  22.12500 -5.53100 27.99500
H  22.29400 -6.22400 26.36100
H  21.27000 -7.01200 27.54800
H  16.91000 -2.64500 23.71600
H  16.57700 0.21100 23.62000
H  19.36600 -1.24800 24.18900
H  18.40700 -0.50900 22.71100
H  18.91700 -2.10200 22.63900
H  15.01200 -1.34700 22.23600
H  14.42900 -0.03600 23.19400
H  13.08200 -1.07800 24.34700
H  14.28900 -2.17900 24.97000
H  13.44400 -2.58500 23.40000
H  12.54200 2.19400 26.22500
H  13.63700 3.40900 26.68800
H  12.11500 3.13800 27.62800
H  13.79500 1.28800 32.26000
H  15.63700 4.97200 33.84900
H  16.71300 3.64600 34.33800
H  15.21200 3.99300 35.22900
Mg 31.08400 58.51600 39.60000
C  28.54500 56.24700 38.35100
C  33.35200 56.00400 39.01300
C  33.27100 60.79600 39.78100
C  28.42200 60.89100 39.98200
N  30.88700 56.41000 38.79500
C  29.83400 55.72200 38.26600
C  30.21300 54.43800 37.66700
C  31.56800 54.19800 38.38100
C  31.94500 55.57500 38.80000
C  31.59000 53.23400 39.62300
C  30.12800 54.47300 36.05300
C  29.03900 53.52900 35.41800
H  28.05500 54.02500 34.38800
N  33.02100 58.47900 39.46700
C  33.77800 57.34300 39.24200
C  35.20500 57.78400 39.21100
C  35.18700 59.15500 39.41900
C  33.81600 59.54500 39.56000
C  36.40400 56.76700 38.89800
C  36.47300 60.00700 39.62200
O  37.60800 59.55200 39.46800
C  36.41600 61.46200 39.79500
N  30.83600 60.55400 39.83600
C  32.00500 61.30400 40.02600
C  31.67500 62.76400 40.23700
C  30.10700 62.73700 40.45300
C  29.77500 61.32900 40.02300
C  32.48100 63.32200 41.44300
C  29.44500 64.00900 39.79000
C  29.62800 65.31500 40.53700
N  28.89800 58.63700 39.38200
C  28.00900 59.65300 39.52000
C  26.66000 59.19500 39.18700
C  26.92200 57.87900 38.69500
C  28.26200 57.59700 38.92800
C  25.35200 59.92500 39.30800
C  26.17100 56.74900 38.27500
O  24.95800 56.56100 38.26000
C  27.22100 55.59500 38.12700
C  26.92800 54.65400 39.23700
O  27.28900 54.74400 40.40900
O  26.07900 53.68900 38.79600
C  25.72700 52.76500 39.86100
H  34.13100 55.26900 38.80300
H  34.05200 61.55700 39.72300
H  27.59000 61.57700 40.15500
H  29.48800 53.70700 38.02500
H  32.30100 53.84400 37.65600
H  32.24400 53.60500 40.41200
H  31.96100 52.32000 39.15800
H  30.62600 53.01100 40.08000
H  31.13100 54.19400 35.73300
H  29.83200 55.50400 35.85500
H  28.43700 52.95200 36.12000
H  29.60700 52.77500 34.87400
H  37.04600 57.10800 38.08600
H  36.04000 55.76000 38.69400
H  36.99100 56.66800 39.81100
H  35.86100 61.82300 40.66100
H  36.11500 61.94300 38.86400
H  37.42200 61.80200 40.03900
H  32.05400 63.18100 39.30400
H  29.98100 62.83700 41.53100
H  33.37000 62.74500 41.69400
H  31.97900 63.53400 42.38800
H  32.84100 64.26300 41.02700
H  28.37500 63.87400 39.63600
H  29.91000 64.13200 38.81200
H  30.37600 65.84100 39.94500
H  29.96700 65.06600 41.54300
H  28.73100 65.92600 40.63300
H  25.15200 60.66100 40.08700
H  24.50900 59.23800 39.24100
H  25.46100 60.60000 38.45900
H  27.07300 55.04700 37.19600
H  26.54300 52.04800 39.95600
H  24.86800 52.28200 39.39600
H  25.44500 53.19100 40.82400

