158

Mg 8.27500 2.37600 28.08100
C  9.68300 1.03500 30.90200
C  6.58400 4.61500 30.09700
C  6.46800 3.34600 25.31100
C  9.69100 -0.19700 26.14300
N  8.01000 2.65500 30.22900
C  8.92600 2.13500 31.13100
C  8.78000 2.78900 32.52300
C  7.62900 3.78700 32.26100
C  7.38000 3.67200 30.72600
C  6.31200 3.51000 33.05500
C  10.09600 3.41900 33.01600
C  10.57000 3.00500 34.45800
H  10.76900 4.11700 35.57900
N  6.66700 3.74600 27.76300
C  6.16600 4.59000 28.73600
C  5.14600 5.38900 28.15200
C  5.08200 5.06500 26.72400
C  6.09600 4.00100 26.52000
C  4.23600 6.26800 28.96800
C  4.07400 5.64800 25.63700
O  4.14100 5.24900 24.50600
C  3.01200 6.63000 25.97800
N  8.19200 1.74500 26.03500
C  7.42400 2.27500 25.08900
C  7.65100 1.72500 23.71000
C  8.80500 0.70400 24.01400
C  8.92300 0.76300 25.50000
C  6.51200 1.10400 22.99600
C  10.21200 1.02700 23.20000
C  10.82500 -0.00000 22.23400
N  9.45900 0.76900 28.35200
C  9.99100 -0.18800 27.51100
C  10.81700 -1.13400 28.28000
C  10.66000 -0.71300 29.64700
C  9.88200 0.51200 29.61200
C  11.66000 -2.25000 27.79800
C  11.02800 -1.01000 31.01100
O  11.78700 -1.92200 31.42800
C  10.41100 0.15700 31.87000
C  9.54500 -0.42200 32.99500
O  8.33400 -0.46300 32.97700
O  10.40900 -0.76700 34.06700
C  9.75800 -1.04200 35.28000
H  6.11100 5.22500 30.87000
H  5.81200 3.50300 24.45200
H  9.99000 -0.98900 25.45300
H  8.45000 2.07400 33.27700
H  7.83400 4.82000 32.54200
H  5.38000 3.72900 32.53300
H  6.32900 4.08100 33.98300
H  6.30700 2.44100 33.26600
H  10.02200 4.50200 32.91000
H  10.96400 3.12100 32.42800
H  11.60200 2.68000 34.33100
H  10.12800 2.08500 34.84100
H  3.25400 5.81300 28.83900
H  4.18000 7.25000 28.49700
H  4.46900 6.32000 30.03100
H  3.46600 7.45100 26.53200
H  2.31000 6.12600 26.64300
H  2.65400 7.14200 25.08500
H  8.00600 2.49400 23.02400
H  8.37400 -0.28900 23.89000
H  5.65300 1.25200 23.65100
H  6.64700 0.04800 22.76300
H  6.46700 1.62700 22.04100
H  10.93800 1.30700 23.96300
H  10.11000 1.92800 22.59600
H  11.90300 -0.04600 22.38600
H  10.57000 0.31700 21.22300
H  10.34300 -0.96000 22.42100
H  11.87500 -2.12400 26.73700
H  11.16800 -3.20700 27.97200
H  12.59100 -2.23300 28.36500
H  11.20500 0.78600 32.27400
H  8.99600 -1.79700 35.08500
H  9.36400 -0.08100 35.61200
H  10.44600 -1.43200 36.03000
Mg 48.25400 35.47000 28.12900
C  46.19100 33.52700 30.21000
C  48.43700 37.73100 30.79800
C  49.29600 37.96500 26.02100
C  47.34700 33.42800 25.47600
N  47.49900 35.55300 30.22800
C  46.82600 34.59800 30.88300
C  46.73400 34.89600 32.37500
C  47.04200 36.40100 32.39100
C  47.83700 36.58600 31.07200
C  45.77300 37.33000 32.39900
C  47.60700 33.95500 33.26500
C  49.01300 34.47400 33.77700
H  49.10600 34.85600 35.24800
N  49.02000 37.47700 28.33100
C  48.91100 38.22600 29.51200
C  49.49800 39.52200 29.31900
C  49.90500 39.55200 27.95600
C  49.41800 38.28600 27.34500
C  49.56700 40.48400 30.45100
C  50.72100 40.56500 27.16800
O  50.91100 40.42400 25.97000
C  51.37900 41.80300 27.88800
N  48.55100 35.58200 26.09300
C  48.88800 36.77500 25.43600
C  48.58700 36.62500 23.89000
C  48.40700 35.11700 23.75400
C  48.11300 34.66400 25.20300
C  47.29700 37.47400 23.38400
C  49.53500 34.29100 23.03500
C  49.32700 34.00000 21.55000
N  47.20400 33.66900 27.86300
C  46.87500 32.99700 26.73300
C  46.10700 31.81700 27.02900
C  45.71000 32.03800 28.37200
C  46.38900 33.18100 28.78300
C  45.78600 30.67400 26.05100
C  44.83300 31.66700 29.51100
O  43.97200 30.79100 29.56500
C  45.02200 32.62700 30.72200
C  45.29300 31.73900 31.83000
O  46.00800 30.68600 31.90700
O  44.55000 32.20300 32.85100
C  44.54900 31.37300 34.04100
H  48.61600 38.34900 31.68100
H  49.46900 38.75100 25.28200
H  46.87500 32.88500 24.65300
H  45.69500 34.78700 32.68500
H  47.55700 36.79900 33.26500
H  44.91300 36.69400 32.60900
H  45.71100 37.89800 31.47100
H  45.65400 37.96000 33.28100
H  47.72200 33.00400 32.74600
H  47.01900 33.80600 34.17000
H  49.54200 35.22000 33.18200
H  49.62900 33.57800 33.69300
H  50.34400 41.22100 30.25000
H  49.76200 40.02600 31.42100
H  48.67000 41.09800 30.36400
H  50.51100 42.34700 28.26200
H  52.04900 42.26400 27.16300
H  52.10900 41.54400 28.65400
H  49.47200 37.05600 23.42100
H  47.48400 34.83900 23.24500
H  46.76600 38.03700 24.15200
H  46.56900 36.82300 22.90000
H  47.65800 38.19000 22.64500
H  49.76800 33.35600 23.54500
H  50.43000 34.91000 23.09400
H  48.38300 34.39600 21.17500
H  49.29900 32.92400 21.38200
H  50.15800 34.37400 20.95200
H  44.98300 30.94300 25.36500
H  45.51000 29.83800 26.69400
H  46.68000 30.40800 25.48600
H  44.15000 33.26100 30.88400
H  44.97500 30.37700 33.91700
H  43.50600 31.22400 34.32000
H  45.03700 31.83600 34.90000

