158

Mg 47.95300 24.99000 29.76100
C  48.53200 27.47000 32.26000
C  47.04100 22.73900 32.24900
C  47.72600 22.52000 27.50900
C  49.36300 27.19700 27.38100
N  47.67100 25.17200 31.95500
C  47.86100 26.25900 32.75100
C  47.38200 25.99100 34.09800
C  47.00100 24.41200 34.18200
C  47.29500 24.08200 32.72400
C  47.80200 23.59500 35.16500
C  46.33500 26.98700 34.66400
C  46.29200 27.51800 36.10600
H  47.01100 26.97100 37.34300
N  47.37600 22.91500 29.87100
C  47.02400 22.22700 30.94800
C  46.79400 20.82500 30.60600
C  46.93700 20.73400 29.23700
C  47.41200 22.06400 28.80800
C  46.39600 19.71800 31.59400
C  46.73400 19.55700 28.30300
O  46.77200 19.63900 27.08000
C  46.25400 18.30500 28.86000
N  48.61900 24.86200 27.72400
C  48.21700 23.79800 27.00000
C  48.47500 24.08000 25.45800
C  48.91400 25.60200 25.45700
C  49.01000 25.91000 26.87600
C  49.55600 23.23800 24.88100
C  47.88900 26.60800 24.77900
C  46.46300 26.75500 25.36400
N  48.81700 26.94800 29.72500
C  49.43800 27.69400 28.73200
C  49.85300 28.94800 29.25900
C  49.39400 28.90600 30.58400
C  48.87300 27.64200 30.86200
C  50.57800 30.00800 28.50700
C  49.47700 29.71300 31.82700
O  49.89100 30.79100 32.06500
C  48.88000 28.78500 32.99600
C  49.98500 28.55100 33.99200
O  50.87800 27.69900 33.88800
O  49.89900 29.41200 35.03200
C  51.01000 29.29400 36.04700
H  46.69600 22.00500 32.98000
H  47.67300 21.65100 26.85000
H  49.65500 27.95900 26.65600
H  48.31300 26.16400 34.63800
H  45.92900 24.30800 34.35000
H  48.56300 23.05700 34.59900
H  47.11700 22.93800 35.70100
H  48.38900 24.16800 35.88200
H  45.32700 26.58900 34.54300
H  46.30300 27.80400 33.94200
H  45.26200 27.44200 36.45500
H  46.60200 28.55900 36.02000
H  47.23200 19.04200 31.41400
H  45.48300 19.21200 31.28300
H  46.33600 19.99500 32.64700
H  47.02600 17.80800 29.44800
H  46.02500 17.62100 28.04400
H  45.28700 18.49900 29.32400
H  47.52500 23.98400 24.93400
H  49.90400 25.68600 25.00800
H  50.44300 23.79800 24.58500
H  49.22900 22.73400 23.97200
H  49.94700 22.52600 25.60800
H  47.80100 26.31400 23.73300
H  48.31600 27.60500 24.67000
H  46.44400 26.52200 26.42900
H  45.78000 26.03200 24.91600
H  46.07200 27.75600 25.18600
H  50.96600 29.54700 27.59800
H  51.45000 30.42100 29.01400
H  49.93700 30.83300 28.19600
H  47.97800 29.28700 33.34500
H  50.76600 28.47100 36.71900
H  50.89900 30.24300 36.57100
H  52.05500 29.16000 35.76700
Mg 36.05200 48.27300 25.08300
C  36.26600 46.49400 28.03500
C  34.93500 50.95900 26.81600
C  35.71300 49.86200 22.08000
C  37.47400 45.64000 23.39100
N  35.57900 48.60900 27.12600
C  35.79700 47.75700 28.14200
C  35.45500 48.47800 29.51800
C  34.94000 49.87700 29.06200
C  35.18000 49.84600 27.55300
C  33.37200 50.11800 29.39000
C  36.68700 48.62900 30.41100
C  36.60800 48.20500 31.91500
H  35.28200 48.05000 32.45100
N  35.33100 50.15900 24.51200
C  34.94200 51.16500 25.36300
C  34.76600 52.31200 24.61700
C  34.80400 52.03900 23.18700
C  35.25000 50.63200 23.22800
C  34.66500 53.60900 25.29000
C  34.63300 53.02900 21.98600
O  34.86900 52.75000 20.78800
C  33.97500 54.44300 22.37000
N  36.31500 47.70500 22.92200
C  36.18300 48.54100 21.95100
C  37.01000 48.13800 20.66300
C  37.58300 46.75900 21.09000
C  37.21400 46.76500 22.59000
C  36.04900 48.16300 19.35500
C  39.07400 46.60800 20.97700
C  39.62800 45.28000 20.32000
N  36.73700 46.45700 25.50400
C  37.17700 45.41500 24.70000
C  37.51000 44.24500 25.50400
C  37.12200 44.61500 26.83300
C  36.64300 45.95000 26.78200
C  38.12100 42.99600 25.00900
C  36.96500 44.09600 28.19600
O  37.23900 43.01500 28.61900
C  36.38400 45.33800 29.04700
C  35.18100 44.98900 29.83400
O  34.03100 44.97000 29.42700
O  35.62700 44.67400 31.07900
C  34.76700 43.81300 31.89500
H  34.53800 51.83000 27.34200
H  35.59500 50.29100 21.08200
H  37.88900 44.75800 22.89800
H  34.66000 47.94200 30.03600
H  35.45000 50.72000 29.52800
H  33.21900 51.04100 29.95000
H  32.90000 49.34200 29.99300
H  32.82300 50.21900 28.45400
H  37.13000 49.62100 30.49800
H  37.47900 47.96500 30.06200
H  37.19500 48.75300 32.65200
H  37.06800 47.22000 31.83700
H  35.23300 53.51000 26.21500
H  33.61300 53.88100 25.37600
H  35.24800 54.38400 24.79200
H  33.13600 54.31500 23.05300
H  33.59800 54.85100 21.43200
H  34.70000 55.16300 22.75000
H  37.82600 48.86000 20.67800
H  37.10200 45.97200 20.50900
H  35.02200 48.14200 19.71800
H  36.10400 47.24300 18.77400
H  36.42800 49.07400 18.89100
H  39.50200 46.82100 21.95700
H  39.42600 47.41200 20.33200
H  39.04500 44.43600 20.69000
H  40.64000 45.04400 20.65000
H  39.65200 45.25500 19.23100
H  37.31300 42.32200 24.72300
H  38.66400 42.46600 25.79200
H  38.72700 43.20900 24.12800
H  37.10900 45.58600 29.82200
H  35.34400 43.53700 32.77800
H  34.33500 42.97200 31.35300
H  33.96400 44.48800 32.19000

