158

Mg 50.31500 46.63600 41.67400
C  47.10200 46.98700 40.26600
C  50.08700 43.38000 40.78500
C  53.65800 46.45300 41.74000
C  50.47200 50.01600 42.05200
N  48.69900 45.39700 40.79600
C  47.48900 45.66300 40.32600
C  46.66900 44.47500 39.86900
C  47.57000 43.30200 40.40500
C  48.88800 44.05800 40.73400
C  47.02700 42.48800 41.60700
C  46.34100 44.49300 38.31900
C  44.96700 44.10400 37.85600
H  44.78200 43.21700 36.59800
N  51.72300 45.11000 41.47500
C  51.39000 43.83400 41.07100
C  52.55400 43.02200 41.05500
C  53.71300 43.80400 41.42100
C  53.09700 45.17900 41.61100
C  52.42900 41.62000 40.70700
C  55.19600 43.38800 41.58200
O  55.48800 42.21800 41.57100
C  56.27900 44.36700 42.05600
N  51.91600 48.07300 41.76500
C  53.17000 47.72600 41.91800
C  54.12300 48.95000 42.06500
C  53.01900 50.15400 42.29500
C  51.71800 49.42600 41.96100
C  55.26400 48.91100 43.11600
C  53.33600 51.45300 41.39200
C  53.35700 52.84700 42.18600
N  48.97300 48.29000 41.37400
C  49.22100 49.62900 41.60500
C  48.08600 50.38100 41.11000
C  47.17800 49.38300 40.54500
C  47.84200 48.17200 40.68600
C  47.88200 51.87900 41.36500
C  45.94500 49.11000 39.95800
O  44.98500 49.87900 39.58000
C  45.79800 47.53700 39.76000
C  44.68000 47.32900 40.69700
O  44.81700 47.28700 41.94100
O  43.58000 47.08700 39.89400
C  42.41400 46.70200 40.75900
H  50.12200 42.29100 40.70200
H  54.74800 46.38300 41.74400
H  50.57600 51.07500 42.29800
H  45.75600 44.56300 40.45800
H  47.96300 42.59800 39.67200
H  45.96300 42.68500 41.74600
H  47.55900 42.78800 42.50900
H  47.15800 41.42500 41.40700
H  46.95500 43.67700 37.93800
H  46.68600 45.44600 37.91800
H  44.53600 45.05300 37.53500
H  44.41100 43.73800 38.71900
H  52.08000 41.56500 39.67600
H  51.77100 41.00700 41.32200
H  53.36100 41.05500 40.69300
H  55.86100 44.98800 42.84800
H  56.61200 44.97900 41.21800
H  57.01200 43.76900 42.59800
H  54.69900 49.01100 41.14100
H  53.06300 50.46800 43.33800
H  56.06100 48.63300 42.42500
H  55.14700 48.11200 43.84800
H  55.44900 49.88500 43.56900
H  52.53400 51.51800 40.65700
H  54.29100 51.36500 40.87500
H  54.19400 53.44200 41.82100
H  53.43700 52.63700 43.25300
H  52.41500 53.31600 41.90200
H  47.98700 52.45700 40.44700
H  48.52300 52.25300 42.16300
H  46.82100 52.05400 41.54000
H  45.51500 47.34800 38.72400
H  41.69400 47.49100 40.97600
H  42.60700 46.04300 41.60600
H  41.89700 46.02800 40.07700
Mg 9.13500 48.59300 26.02200
C  7.07900 48.95100 28.90700
C  11.76500 49.86300 27.80000
C  11.00700 48.59000 23.16600
C  6.13800 48.33700 24.04200
N  9.28700 49.21800 28.16700
C  8.41900 49.25100 29.17100
C  9.05100 49.55600 30.51000
C  10.41300 50.22000 30.02500
C  10.50900 49.73500 28.57500
C  10.41800 51.79400 30.08600
C  9.20700 48.27100 31.36900
C  8.81700 48.49000 32.85900
H  8.50000 47.32600 33.77200
N  11.16100 48.83500 25.60800
C  12.07300 49.40200 26.50300
C  13.38300 49.28700 25.90500
C  13.20000 48.76600 24.59200
C  11.73500 48.73800 24.40100
C  14.67800 49.65700 26.61600
C  14.20200 48.30500 23.52900
O  13.84400 47.84300 22.44400
C  15.66100 48.21300 23.91000
N  8.61500 48.75000 23.89000
C  9.61900 48.60200 22.93800
C  9.06000 47.97200 21.64200
C  7.49100 47.90300 21.88300
C  7.37400 48.51500 23.32600
C  9.44900 48.59100 20.25800
C  6.86800 46.46400 21.73800
C  7.45100 45.41400 22.72900
N  7.09300 48.56200 26.36300
C  6.02800 48.38200 25.44100
C  4.78900 48.36700 26.16600
C  5.15900 48.52900 27.55500
C  6.55900 48.58800 27.61800
C  3.40800 48.44800 25.61200
C  4.59600 48.71300 28.90000
O  3.40300 48.82800 29.10900
C  5.85100 48.94600 29.83900
C  5.70800 47.86600 30.89500
O  6.16700 46.73800 30.71200
O  4.96600 48.26200 31.94500
C  4.36300 47.17300 32.76800
H  12.61200 50.30300 28.33000
H  11.64000 48.60800 22.27600
H  5.22400 48.29900 23.44600
H  8.41200 50.31200 30.96600
H  11.24300 49.91400 30.66200
H  9.51300 52.08600 30.61900
H  10.44100 52.27300 29.10700
H  11.32600 51.99500 30.65400
H  10.27900 48.11600 31.24100
H  8.85700 47.34500 30.91400
H  7.87600 49.03300 32.76800
H  9.67900 48.95900 33.33300
H  15.25400 50.50300 26.24100
H  15.22000 48.72100 26.48300
H  14.56700 49.61200 27.69900
H  16.30800 47.69900 23.19900
H  15.82400 47.60100 24.79700
H  16.09700 49.20000 24.06700
H  9.33300 46.92500 21.51200
H  6.94100 48.60100 21.25200
H  10.22700 49.31600 20.49700
H  8.55400 49.11200 19.91900
H  9.61600 47.82300 19.50200
H  7.00100 46.13900 20.70600
H  5.78300 46.56500 21.75000
H  7.53100 45.85300 23.72300
H  8.37700 45.07600 22.26300
H  6.80800 44.53500 22.77300
H  3.08700 49.48900 25.61700
H  2.72700 47.87900 26.24500
H  3.45300 48.16900 24.55900
H  5.90900 49.91000 30.34300
H  3.50000 46.92000 32.15100
H  3.89500 47.49300 33.69900
H  4.98700 46.30200 32.97100

