158

Mg 41.00200 9.52100 30.24100
C  43.07000 10.64100 32.58300
C  38.89500 8.12500 32.63300
C  38.95400 8.37500 27.74300
C  43.30300 10.60500 27.74400
N  40.98700 9.32400 32.28600
C  41.92900 10.02200 33.09300
C  41.58400 9.92300 34.57900
C  40.35700 8.85100 34.57700
C  40.11200 8.69400 33.07800
C  40.62300 7.53800 35.35700
C  41.25900 11.29300 35.31300
C  41.96500 11.48600 36.64700
H  41.32300 12.21000 37.90300
N  39.17100 8.45000 30.17700
C  38.49000 7.97800 31.30000
C  37.16600 7.41000 30.79800
C  37.18300 7.41700 29.36500
C  38.48300 8.09200 29.01500
C  36.18500 6.69900 31.69700
C  36.19700 6.83300 28.36500
O  36.37700 6.67200 27.17200
C  34.92700 6.18200 28.87400
N  41.11200 9.58900 28.03400
C  40.15700 8.93900 27.27000
C  40.41700 9.16700 25.69200
C  41.83500 9.86300 25.75500
C  42.12400 10.04000 27.25300
C  40.26100 7.84100 24.87900
C  41.90000 11.18200 24.87300
C  41.19100 12.40800 25.54100
N  42.96700 10.33900 30.10700
C  43.68600 10.85900 29.09100
C  44.84500 11.52800 29.59900
C  44.69200 11.51600 31.01600
C  43.51600 10.73300 31.23900
C  45.96700 12.10700 28.83300
C  45.12200 11.98000 32.31300
O  46.09400 12.66100 32.68800
C  44.14200 11.38700 33.38000
C  44.92500 10.65400 34.38600
O  45.32100 9.47900 34.33300
O  45.08600 11.42400 35.48200
C  45.66700 10.90400 36.74000
H  38.08500 7.91700 33.33600
H  38.40300 8.02200 26.86900
H  44.00900 10.79000 26.93200
H  42.50500 9.63900 35.08800
H  39.43900 9.27900 34.98000
H  40.61100 6.72200 34.63400
H  39.97100 7.39800 36.21900
H  41.65000 7.49700 35.72000
H  40.20800 11.32700 35.60000
H  41.42400 12.12100 34.62300
H  42.81900 12.08600 36.33400
H  42.46100 10.58000 36.99500
H  36.49800 6.68100 32.74100
H  36.06300 5.65900 31.39600
H  35.20300 7.16800 31.74600
H  34.24500 5.85200 28.09000
H  34.45300 7.00400 29.41000
H  35.04700 5.29100 29.49100
H  39.78000 9.99900 25.39600
H  42.52700 9.07400 25.46000
H  39.99700 6.94700 25.44400
H  41.07000 7.45600 24.25900
H  39.38500 8.06400 24.26900
H  41.36200 11.08900 23.93000
H  42.92400 11.41500 24.58000
H  40.69700 12.95200 24.73700
H  42.03500 12.97600 25.93200
H  40.44100 11.95300 26.18900
H  45.73100 12.94000 28.17000
H  46.27200 11.33100 28.13100
H  46.73700 12.27500 29.58700
H  43.75000 12.29300 33.84300
H  46.32500 10.05400 36.56000
H  44.89300 10.66400 37.46900
H  46.28100 11.74100 37.07200
Mg -5.13000 25.03600 25.53900
C  -3.89700 26.71700 28.19800
C  -6.87100 22.71300 27.65200
C  -5.87500 22.95900 22.82000
C  -3.03600 26.78400 23.45100
N  -5.19100 24.67800 27.59600
C  -4.81400 25.62000 28.49700
C  -5.23400 25.25300 29.97600
C  -5.92100 23.85200 29.70100
C  -6.06500 23.77700 28.20500
C  -5.16600 22.62100 30.30900
C  -6.11500 26.34800 30.53100
C  -6.31700 26.39400 32.08600
H  -5.53700 25.39500 32.99300
N  -6.37500 23.23100 25.23600
C  -6.96200 22.45800 26.23600
C  -7.93600 21.47700 25.59500
C  -7.61000 21.50700 24.15900
C  -6.53100 22.57300 24.02300
C  -8.88900 20.59000 26.40200
C  -8.23400 20.78900 23.03800
O  -7.84500 20.97200 21.87700
C  -9.33200 19.82900 23.29800
N  -4.39800 24.77200 23.48300
C  -4.93500 23.91400 22.58000
C  -4.21900 24.03300 21.25100
C  -3.25500 25.21200 21.40900
C  -3.58800 25.67800 22.81600
C  -3.61700 22.77900 20.61100
C  -3.38400 26.32700 20.29900
C  -2.14800 27.03200 19.94300
N  -3.82700 26.56700 25.70100
C  -3.04600 27.23400 24.81000
C  -2.30000 28.27600 25.46700
C  -2.67100 28.15700 26.78800
C  -3.54000 27.06100 26.91100
C  -1.27800 29.20200 24.67900
C  -2.35000 28.57200 28.13700
O  -1.53800 29.38900 28.59500
C  -3.19100 27.68300 29.12400
C  -2.23400 27.03500 30.08000
O  -1.44000 26.12800 29.84700
O  -2.36700 27.78700 31.24500
C  -1.62500 27.32500 32.30600
H  -7.31400 22.04600 28.39400
H  -6.08900 22.34200 21.94500
H  -2.20200 27.16500 22.85900
H  -4.40100 25.19300 30.67600
H  -6.95700 23.88500 30.03800
H  -5.03200 21.82800 29.57300
H  -5.79900 22.32100 31.14400
H  -4.24700 22.95200 30.79300
H  -7.10900 26.20900 30.10700
H  -5.90500 27.34400 30.14100
H  -7.35900 26.24100 32.36700
H  -5.92700 27.36000 32.40500
H  -9.31200 19.85300 25.71900
H  -9.67400 21.25100 26.76900
H  -8.45900 20.13300 27.29300
H  -10.20200 20.34600 23.70400
H  -8.89200 19.02900 23.89400
H  -9.51900 19.30000 22.36300
H  -4.99200 24.38800 20.57100
H  -2.26100 24.78800 21.54800
H  -2.60800 22.94900 20.23400
H  -4.26100 22.33500 19.85200
H  -3.64100 21.99900 21.37200
H  -4.09300 27.05000 20.70300
H  -3.78200 25.81900 19.42000
H  -2.17900 27.11100 18.85600
H  -1.25800 26.49400 20.26900
H  -2.07200 28.07900 20.23700
H  -1.81000 29.71000 23.87400
H  -0.50500 28.60700 24.19400
H  -1.00300 30.06300 25.28800
H  -3.78900 28.39200 29.69700
H  -1.11800 28.18300 32.74800
H  -0.80500 26.60900 32.24400
H  -2.30100 26.93400 33.06600

