158

Mg 40.85000 8.35900 29.47800
C  42.59800 9.90900 32.13800
C  38.48000 7.22700 31.83300
C  39.43600 6.50500 27.08300
C  43.56100 9.07000 27.36500
N  40.59300 8.56300 31.75300
C  41.35800 9.36700 32.58900
C  40.78900 9.48300 33.95700
C  39.51100 8.46500 33.81600
C  39.48100 8.11600 32.35600
C  39.48200 7.30700 34.82900
C  40.44300 10.92800 34.48500
C  41.06000 11.22900 35.83300
H  40.17200 11.95200 36.80300
N  39.14200 7.11800 29.43200
C  38.29600 6.73900 30.50500
C  37.19500 6.06200 29.95500
C  37.36200 5.92300 28.56800
C  38.64600 6.49600 28.29200
C  36.09200 5.45300 30.76600
C  36.45200 5.23900 27.43100
O  36.77100 5.16900 26.19100
C  35.14500 4.77800 27.84200
N  41.36600 7.83700 27.46600
C  40.65500 7.07500 26.71300
C  41.27000 6.92900 25.31200
C  42.59800 7.68900 25.40600
C  42.49600 8.26000 26.82800
C  41.37800 5.47100 24.78800
C  42.84400 8.71700 24.28300
C  41.93200 9.95200 24.31100
N  42.64800 9.30800 29.62300
C  43.69900 9.49200 28.73300
C  44.73600 10.24800 29.32500
C  44.34600 10.43700 30.64600
C  43.06400 9.81800 30.80100
C  45.99300 10.73100 28.68100
C  44.83300 11.00400 31.90100
O  45.91800 11.47300 32.27300
C  43.59200 10.77500 32.89500
C  44.18000 10.12300 34.09800
O  44.55300 9.00500 34.23100
O  44.33900 11.13300 35.03100
C  44.98300 10.91100 36.28200
H  37.72800 7.19200 32.62400
H  38.96000 5.88500 26.32100
H  44.28800 9.40600 26.62200
H  41.60900 9.07700 34.55100
H  38.59100 9.03600 33.94300
H  39.44900 6.29200 34.43200
H  38.58500 7.30300 35.44700
H  40.33400 7.37400 35.50500
H  39.35500 10.93800 34.55000
H  40.68900 11.72000 33.77800
H  41.85700 11.87300 35.46100
H  41.55500 10.40300 36.34400
H  36.17200 4.36600 30.77200
H  35.05100 5.55800 30.46000
H  36.11500 5.72900 31.82000
H  34.71200 4.19600 27.02800
H  34.58700 5.61100 28.27000
H  35.28200 3.94100 28.52600
H  40.76800 7.54900 24.57000
H  43.34700 6.89700 25.43800
H  40.83000 5.41800 23.84800
H  40.95300 4.71300 25.44600
H  42.41200 5.27100 24.50700
H  42.85900 8.24800 23.29900
H  43.84700 9.13200 24.38100
H  41.15600 9.95400 25.07700
H  41.42700 10.11600 23.35900
H  42.56900 10.79200 24.58900
H  46.24200 9.89700 28.02400
H  46.74300 10.86900 29.46000
H  45.85000 11.71300 28.23000
H  43.17400 11.76400 33.08600
H  44.28400 10.44900 36.97900
H  45.36700 11.81400 36.75600
H  45.72200 10.19800 35.91600
Mg -11.07400 40.51800 40.92600
C  -10.11700 37.14600 40.13500
C  -8.02800 41.46800 39.95400
C  -12.35000 43.59400 40.93900
C  -14.35700 39.16500 41.42300
N  -9.35100 39.35100 40.07200
C  -9.14700 38.03700 39.84500
C  -7.76400 37.74200 39.26500
C  -7.03200 39.11900 39.48400
C  -8.15400 40.03800 39.95200
C  -5.80600 39.17100 40.47800
C  -7.70700 37.26300 37.81800
C  -7.15200 35.87200 37.55800
H  -6.31500 35.78900 36.24600
N  -10.24100 42.38000 40.59900
C  -8.97500 42.51900 40.15900
C  -8.66400 43.96400 40.17000
C  -9.98600 44.59900 40.33600
C  -10.97100 43.50200 40.66400
C  -7.28000 44.59400 39.83200
C  -10.23400 46.11100 40.18000
O  -9.27500 46.71300 39.78100
C  -11.54300 46.76300 40.23200
N  -12.97900 41.22200 41.21100
C  -13.22500 42.59800 41.34800
C  -14.70800 42.91300 41.65400
C  -15.29000 41.45900 41.83800
C  -14.16900 40.54800 41.36800
C  -14.82000 43.83300 42.92000
C  -16.67700 41.27600 41.04500
C  -17.86600 40.74300 41.87900
N  -12.01400 38.56800 41.00000
C  -13.34500 38.17700 41.22400
C  -13.47600 36.74000 41.21600
C  -12.19300 36.30200 40.79700
C  -11.38100 37.41300 40.67400
C  -14.80900 35.92700 41.48500
C  -11.42400 35.15800 40.49000
O  -11.71200 33.95300 40.53000
C  -10.10600 35.68500 40.00700
C  -9.11400 34.86400 40.96000
O  -8.85700 35.03400 42.14400
O  -8.59400 33.82600 40.19200
C  -7.84600 32.86300 40.95600
H  -6.97400 41.72200 39.82200
H  -12.92200 44.52400 40.92900
H  -15.38300 38.87500 41.65800
H  -7.36100 37.02900 39.98400
H  -6.77100 39.40200 38.46400
H  -5.96000 39.89200 41.28000
H  -4.87300 39.46900 40.00000
H  -5.61700 38.19100 40.91800
H  -7.16200 37.97400 37.19700
H  -8.75000 37.26200 37.50200
H  -7.88300 35.07300 37.43800
H  -6.44000 35.65500 38.35400
H  -7.27700 44.93100 38.79600
H  -6.47800 43.89500 40.06500
H  -7.29300 45.53000 40.39100
H  -12.02500 46.48400 41.17000
H  -12.17300 46.74100 39.34300
H  -11.26200 47.79200 40.45800
H  -14.97400 43.39400 40.71200
H  -15.40000 41.07900 42.85300
H  -15.11200 43.36000 43.85700
H  -15.42900 44.72100 42.75100
H  -13.83100 44.26900 43.06400
H  -16.50500 40.61900 40.19300
H  -16.93900 42.20100 40.53100
H  -17.61200 40.17100 42.77100
H  -18.47700 40.19500 41.16100
H  -18.55000 41.54600 42.15200
H  -14.59600 34.91200 41.81900
H  -15.26800 35.65200 40.53600
H  -15.53800 36.40500 42.13900
H  -10.00500 35.36800 38.96900
H  -8.41900 32.57200 41.83600
H  -6.87800 33.25400 41.27000
H  -7.64500 32.00800 40.31000

