158

Mg 46.80100 16.79900 27.86700
C  44.97300 16.22400 30.88500
C  48.94800 18.76500 29.71300
C  48.37100 17.65700 25.02800
C  44.24100 15.57400 26.15000
N  46.82100 17.56200 30.12300
C  46.05900 17.06300 31.19200
C  46.58700 17.58800 32.53200
C  47.75100 18.54600 32.10700
C  47.90600 18.18700 30.56200
C  47.83600 20.03500 32.50400
C  46.89300 16.36700 33.47900
C  46.00000 16.29400 34.72100
H  45.69800 17.55900 35.43200
N  48.45100 18.04100 27.45600
C  49.21400 18.74000 28.35900
C  50.28700 19.32400 27.60100
C  50.14700 19.00200 26.25000
C  48.94800 18.18400 26.18200
C  51.31800 20.26600 28.27400
C  51.08200 19.28900 25.03100
O  50.84700 18.91600 23.90800
C  52.37600 19.96400 25.23200
N  46.49700 16.44100 25.92100
C  47.25900 16.85000 24.89700
C  46.65700 16.66500 23.52800
C  45.49000 15.68100 23.83000
C  45.37100 15.89200 25.40300
C  46.28000 17.98000 22.72900
C  45.75200 14.24200 23.26000
C  46.01300 13.10000 24.28300
N  44.95600 15.95600 28.33300
C  44.00200 15.46000 27.51700
C  42.90100 14.91300 28.31200
C  43.22000 15.15600 29.62800
C  44.46900 15.84700 29.58800
C  41.87300 14.09300 27.57600
C  42.76100 14.99300 30.96600
O  41.72300 14.48800 31.43800
C  43.88600 15.71100 31.86100
C  43.14200 16.78200 32.58600
O  43.03700 17.92400 32.22100
O  42.51600 16.25400 33.65800
C  41.64000 17.15300 34.37600
H  49.60400 19.42100 30.28800
H  48.91400 17.83800 24.09900
H  43.47100 15.13700 25.51100
H  45.84500 18.28000 32.93000
H  48.58000 18.09400 32.65300
H  46.96000 20.22100 33.12600
H  47.79800 20.70100 31.64200
H  48.66400 20.15800 33.20200
H  47.94300 16.37000 33.77000
H  46.69200 15.45100 32.92300
H  46.59500 15.65700 35.37500
H  45.05300 15.79400 34.51700
H  51.56900 21.09500 27.61200
H  52.18400 19.65700 28.53400
H  50.85400 20.60200 29.20100
H  53.06700 19.43500 25.88900
H  52.03900 20.92100 25.62900
H  53.04100 20.12600 24.38400
H  47.39100 16.15700 22.90300
H  44.63400 16.06500 23.27600
H  45.31000 17.99800 22.23200
H  47.03500 18.34000 22.03000
H  46.19100 18.77800 23.46600
H  46.64100 14.13900 22.63800
H  44.85300 13.90800 22.74200
H  46.75100 13.49100 24.98300
H  46.32800 12.21600 23.72800
H  45.07100 12.96000 24.81400
H  41.05500 14.66900 27.14400
H  41.46200 13.44300 28.34900
H  42.31100 13.46800 26.79700
H  44.06000 14.85100 32.50800
H  42.16700 18.06000 34.67100
H  41.23300 16.65400 35.25600
H  40.78700 17.40600 33.74600
Mg 10.26400 47.23900 26.25100
C  8.22900 47.29000 29.14200
C  12.77800 48.54500 28.06200
C  12.16500 47.30000 23.41700
C  7.37300 46.82700 24.32100
N  10.50500 47.58500 28.40400
C  9.54700 47.60800 29.40000
C  10.10800 48.16000 30.77600
C  11.36600 48.91700 30.20600
C  11.62500 48.22900 28.85100
C  11.18100 50.51200 30.11700
C  10.45000 47.06000 31.81000
C  10.61200 47.41900 33.32900
H  10.41900 46.22400 34.31300
N  12.20400 47.70000 25.86500
C  13.11000 48.19100 26.74300
C  14.41400 48.30200 26.13600
C  14.28600 47.83000 24.77000
C  12.80100 47.61200 24.60100
C  15.67700 48.71800 26.82000
C  15.30500 47.69600 23.57500
O  15.05100 47.47300 22.37800
C  16.86200 47.88400 23.88100
N  9.86600 46.94400 24.12200
C  10.81400 47.08700 23.11400
C  10.13300 46.83700 21.74800
C  8.67500 46.46700 22.16400
C  8.64200 46.86500 23.62400
C  10.30100 47.97900 20.75200
C  8.10400 45.01500 21.82300
C  8.78800 43.84000 22.53000
N  8.27300 47.04500 26.66500
C  7.20200 46.79800 25.75200
C  6.01800 46.41800 26.48700
C  6.38400 46.71100 27.81500
C  7.72600 47.07400 27.84500
C  4.63300 45.99400 25.90600
C  5.89900 46.70600 29.22900
O  4.83300 46.48000 29.66800
C  7.11500 47.11000 30.10400
C  7.33700 45.91000 31.00300
O  7.81600 44.83000 30.71600
O  6.76300 46.16800 32.21700
C  6.87900 45.02000 33.18300
H  13.58100 49.04800 28.60400
H  12.81600 47.41200 22.54800
H  6.43400 46.84700 23.76400
H  9.42200 48.86500 31.24600
H  12.27300 48.77000 30.79100
H  11.46100 50.81200 29.10700
H  11.84100 50.94500 30.86900
H  10.21100 50.93100 30.38200
H  11.36000 46.67600 31.34900
H  9.76100 46.23800 31.61700
H  9.95300 48.21600 33.67300
H  11.62000 47.82300 33.41800
H  16.51800 48.03700 26.94300
H  15.43100 49.05300 27.82800
H  16.13100 49.63500 26.44400
H  17.03400 48.87700 24.29700
H  17.38300 47.65700 22.95100
H  17.26500 47.23200 24.65600
H  10.60600 45.99000 21.24900
H  7.93800 47.12000 21.69700
H  10.89600 48.71800 21.28800
H  9.33200 48.44000 20.56100
H  10.92100 47.75500 19.88400
H  8.22200 44.78100 20.76500
H  7.05300 44.99300 22.11100
H  9.39000 44.13700 23.38900
H  9.36000 43.16500 21.89400
H  8.01600 43.15100 22.87300
H  4.15300 46.85700 25.44400
H  3.93700 45.46800 26.55900
H  4.90800 45.24200 25.16600
H  6.86200 48.09200 30.50500
H  6.59300 45.11600 34.23100
H  7.95200 44.83200 33.18100
H  6.27700 44.14800 32.92600

