158

Mg 8.17300 1.17000 28.23800
C  9.68000 -0.37700 31.11400
C  6.18900 2.82400 30.44900
C  6.44600 2.18700 25.63500
C  9.79000 -1.21200 26.23100
N  8.09400 1.24400 30.55700
C  8.89000 0.68300 31.45500
C  8.73200 1.24300 32.83200
C  7.39600 2.14500 32.63700
C  7.18000 2.09500 31.13600
C  6.15100 1.76400 33.45300
C  10.01200 2.02900 33.35200
C  10.22900 1.95300 34.92400
H  9.01300 1.69600 35.85600
N  6.62100 2.46100 28.11400
C  5.94200 3.02200 29.11900
C  4.94100 3.92100 28.57000
C  5.10600 3.88000 27.10600
C  6.05700 2.81400 26.88900
C  3.92300 4.68400 29.33600
C  4.40200 4.73000 25.95200
O  4.64000 4.51400 24.76400
C  3.63600 5.93200 26.25000
N  8.10400 0.53800 26.22200
C  7.38500 1.24200 25.32000
C  7.66100 0.79900 23.87700
C  8.80400 -0.25400 24.01800
C  8.88400 -0.32800 25.55500
C  6.33600 0.18500 23.32800
C  10.13900 0.24400 23.26900
C  11.21400 0.92400 24.11600
N  9.45500 -0.37400 28.51500
C  9.99300 -1.29300 27.61300
C  10.91200 -2.20400 28.34800
C  10.81300 -1.84800 29.67500
C  9.92700 -0.81400 29.79700
C  11.70400 -3.23400 27.73200
C  11.40400 -2.19400 31.01100
O  12.28100 -3.03700 31.31700
C  10.63400 -1.25400 31.96700
C  9.88400 -2.08300 32.98700
O  8.76200 -2.58000 32.84000
O  10.65100 -2.14500 34.20100
C  9.94800 -2.84200 35.26400
H  5.52400 3.39100 31.10500
H  5.89400 2.61900 24.79900
H  10.43400 -1.86500 25.63800
H  8.54400 0.43000 33.53300
H  7.65400 3.18800 32.81600
H  5.91500 2.67100 34.01000
H  6.40100 1.01700 34.20600
H  5.18800 1.60000 32.97000
H  9.87600 3.08800 33.13200
H  10.91100 1.68100 32.84200
H  10.91400 2.73800 35.24400
H  10.87400 1.07600 34.98000
H  3.02600 4.31300 28.84100
H  4.10400 5.74300 29.14800
H  3.81000 4.49600 30.40400
H  3.59600 6.70200 25.47900
H  4.24900 6.35700 27.04500
H  2.62900 5.73700 26.61800
H  7.93000 1.74300 23.40400
H  8.52600 -1.25400 23.68400
H  5.50500 0.31800 24.02000
H  6.42500 -0.86400 23.04300
H  5.93600 0.75100 22.48700
H  9.87600 0.96800 22.49800
H  10.51200 -0.65600 22.78000
H  10.80500 1.33200 25.03900
H  11.65000 1.75400 23.55900
H  11.89000 0.12400 24.41700
H  11.10000 -3.88900 27.10400
H  12.09300 -3.88500 28.51600
H  12.56900 -2.85200 27.19100
H  11.31600 -0.68600 32.60000
H  9.21500 -2.21800 35.77600
H  10.76800 -3.01900 35.95900
H  9.45800 -3.78800 35.03100
Mg 48.33400 34.65600 26.76400
C  46.23000 33.79900 29.45800
C  49.03500 37.54000 28.31000
C  49.77600 35.64600 23.91400
C  47.15500 31.74600 25.06800
N  47.81400 35.40800 28.74100
C  46.99000 34.95300 29.72400
C  47.33700 35.62600 31.03200
C  47.91900 37.03000 30.57100
C  48.30700 36.67500 29.10800
C  47.04700 38.36600 30.84000
C  48.36800 34.82800 31.87300
C  48.08800 34.63600 33.35800
H  47.05100 35.63300 34.03900
N  49.39500 36.35200 26.24900
C  49.56700 37.42100 27.02400
C  50.32700 38.44300 26.33800
C  50.65700 37.84300 25.09200
C  49.96900 36.54700 25.01200
C  50.66100 39.85500 27.05900
C  51.50900 38.37200 23.96200
O  51.61300 37.86600 22.83600
C  52.18100 39.67300 24.27600
N  48.62000 33.75300 24.73600
C  49.22400 34.40800 23.72800
C  49.26900 33.53100 22.47200
C  48.58600 32.24300 22.98400
C  48.04500 32.57100 24.39400
C  48.67000 34.20200 21.23000
C  49.79200 31.20700 23.17400
C  49.80400 30.15300 21.96200
N  46.94400 33.11100 27.09400
C  46.61500 31.97100 26.38800
C  45.62200 31.22100 27.06300
C  45.45000 31.95200 28.25300
C  46.26600 33.07200 28.27700
C  44.90600 30.07400 26.48900
C  44.70000 31.89300 29.52200
O  43.87200 31.04200 29.89100
C  45.18700 33.11700 30.37500
C  45.39900 32.71400 31.79400
O  46.31100 31.95200 32.14300
O  44.39500 33.06900 32.59000
C  44.17500 32.34700 33.86300
H  49.38500 38.38700 28.90400
H  50.24400 35.92800 22.96900
H  46.76500 30.89300 24.50900
H  46.40200 35.84600 31.54700
H  48.88300 37.31000 30.99500
H  46.18600 38.03100 31.41900
H  46.77400 38.82700 29.89100
H  47.61000 39.07900 31.44200
H  49.39200 35.19400 31.80100
H  48.32800 33.80600 31.49400
H  48.99300 34.72400 33.95900
H  47.63600 33.65400 33.50300
H  50.21300 40.67200 26.49200
H  51.74000 39.93400 26.93000
H  50.38000 39.93600 28.10900
H  52.89700 39.48800 25.07600
H  51.37600 40.38200 24.47200
H  52.78000 39.95200 23.41000
H  50.34500 33.43900 22.32700
H  47.76100 31.87900 22.37200
H  47.94900 33.57500 20.70500
H  49.54100 34.30900 20.58500
H  48.25000 35.20400 21.32600
H  49.78500 30.66100 24.11800
H  50.77400 31.66000 23.03500
H  50.67700 30.16300 21.31000
H  48.87900 30.03800 21.39700
H  49.94600 29.23400 22.53100
H  44.43600 30.41700 25.56700
H  44.15400 29.80000 27.22800
H  45.57500 29.24300 26.26200
H  44.30900 33.76200 30.39200
H  43.10600 32.16800 33.97600
H  44.39300 32.99600 34.71200
H  44.71100 31.41900 34.06200

