158

Mg 48.09400 34.15900 27.12400
C  46.25300 32.72000 29.75400
C  48.97200 36.64000 29.35600
C  49.90600 35.43200 24.69800
C  47.27000 31.33500 25.08900
N  47.65000 34.56100 29.24100
C  46.99100 33.80400 30.16200
C  47.34400 34.27000 31.62500
C  47.79300 35.71900 31.37200
C  48.11400 35.66600 29.84300
C  46.66600 36.71100 31.65100
C  48.39900 33.44700 32.29700
C  48.34900 33.41900 33.85400
H  47.36700 34.26500 34.78300
N  49.16200 35.89800 26.97800
C  49.42000 36.84200 28.06000
C  50.41500 37.77800 27.52300
C  50.73900 37.38500 26.20200
C  49.88700 36.19800 25.88800
C  50.99300 38.88600 28.48000
C  51.68100 38.07400 25.17200
O  51.94400 37.55300 24.07100
C  52.32100 39.46100 25.52500
N  48.36000 33.55900 25.09400
C  49.18300 34.29500 24.22800
C  49.54000 33.53100 22.93000
C  48.78800 32.11100 23.15500
C  48.03700 32.31000 24.51600
C  49.22800 34.29000 21.59100
C  49.75900 30.89900 23.16600
C  50.02900 30.23700 21.83200
N  46.84600 32.52600 27.30900
C  46.61200 31.48200 26.40900
C  45.67300 30.56000 26.98900
C  45.50800 31.01000 28.31400
C  46.25900 32.17600 28.45600
C  45.11200 29.34900 26.31600
C  44.84300 30.68300 29.55500
O  44.14700 29.69000 29.84000
C  45.26200 31.82200 30.57000
C  45.86500 31.07300 31.62900
O  46.85500 30.37200 31.51400
O  45.05800 31.03600 32.73600
C  45.62300 30.25300 33.83800
H  49.14500 37.51000 29.99200
H  50.57500 35.71100 23.88200
H  47.22000 30.43300 24.47500
H  46.50700 34.26600 32.32400
H  48.65300 36.01500 31.97300
H  45.95500 36.40100 32.41700
H  46.10000 36.82000 30.72500
H  47.09900 37.67400 31.91800
H  49.37600 33.86200 32.05300
H  48.45100 32.45700 31.84500
H  49.36400 33.71900 34.11500
H  48.30200 32.39600 34.22600
H  51.99100 38.57400 28.78700
H  50.27600 39.00600 29.29200
H  51.13200 39.85200 27.99300
H  51.56700 40.23500 25.66700
H  53.01000 39.65000 24.70300
H  52.88500 39.26600 26.43700
H  50.61500 33.36300 22.99100
H  48.01800 32.10700 22.38300
H  48.69900 35.23100 21.74400
H  48.62800 33.71900 20.88100
H  50.17500 34.23900 21.05500
H  49.62100 30.18400 23.97700
H  50.74300 31.32600 23.35800
H  49.54400 30.72000 20.98300
H  49.61300 29.22900 21.82400
H  51.09500 30.08500 21.66700
H  45.00000 29.59400 25.26000
H  44.14300 29.10400 26.75100
H  45.87300 28.58800 26.48600
H  44.40900 32.41600 30.90000
H  45.60500 29.24000 33.43500
H  44.96600 30.21700 34.70700
H  46.64800 30.47200 34.13700
Mg 35.69400 47.86700 25.64400
C  35.51400 46.35800 28.79400
C  34.27500 50.74800 27.06500
C  35.29300 49.30600 22.42900
C  36.71400 44.95500 24.24100
N  34.84300 48.42700 27.65000
C  35.13800 47.74400 28.84000
C  34.94600 48.63100 30.11400
C  34.36800 49.98000 29.47100
C  34.49000 49.70000 27.97300
C  32.83100 50.36800 29.79300
C  36.28400 48.79500 30.88700
C  36.36700 48.31700 32.36200
H  35.10200 48.16300 33.20700
N  34.91400 49.82500 24.79700
C  34.36600 50.82400 25.63200
C  34.00900 51.92300 24.71600
C  34.36500 51.49700 23.39900
C  34.84500 50.13900 23.46700
C  33.52400 53.28900 25.16900
C  34.18200 52.28400 22.07300
O  34.40500 51.78300 21.00100
C  33.76000 53.62800 22.02500
N  35.83100 47.19400 23.65500
C  35.81000 48.00700 22.51600
C  36.46700 47.37700 21.32200
C  37.06200 46.07700 21.87100
C  36.54600 46.06600 23.38900
C  35.53900 47.12200 20.10000
C  38.62000 46.01600 21.94300
C  39.25400 46.23000 20.56300
N  36.15900 46.04900 26.31600
C  36.51800 44.89100 25.64300
C  36.69800 43.78300 26.62500
C  36.17700 44.34400 27.84000
C  35.96000 45.68400 27.62000
C  37.27800 42.40200 26.30900
C  36.05100 44.02500 29.26600
O  36.27600 43.06200 29.93800
C  35.49600 45.32900 29.87400
C  34.16700 45.16500 30.54600
O  33.06400 45.12200 30.01800
O  34.39000 45.02900 31.86800
C  33.15200 44.85300 32.62800
H  33.92700 51.68800 27.49800
H  35.42100 49.84800 21.49000
H  37.14100 44.05200 23.80000
H  34.26000 48.05800 30.73700
H  34.99800 50.85200 29.64400
H  32.57100 49.82000 30.69900
H  32.14700 50.06000 29.00300
H  32.76600 51.45200 29.89400
H  36.58000 49.84300 30.83100
H  37.03100 48.28300 30.28100
H  36.99100 48.93000 33.01300
H  36.95600 47.40200 32.29700
H  34.23700 54.00100 24.75400
H  33.60400 53.44700 26.24500
H  32.52600 53.58500 24.84600
H  32.88300 53.82300 22.64300
H  33.49300 53.82300 20.98600
H  34.52200 54.34200 22.33700
H  37.15600 48.14600 20.97200
H  36.60400 45.27100 21.29900
H  35.92000 46.27300 19.53200
H  35.47700 48.05500 19.54000
H  34.53000 46.78800 20.34300
H  38.91700 45.02700 22.29300
H  38.90600 46.78200 22.66300
H  38.47500 46.34800 19.80900
H  39.85000 45.39600 20.19300
H  39.85800 47.10200 20.81300
H  37.81300 42.44600 25.36100
H  36.56600 41.59600 26.12900
H  37.87900 42.24800 27.20500
H  36.24800 45.52200 30.63900
H  32.43900 44.08200 32.33300
H  32.72900 45.84300 32.79900
H  33.29800 44.50700 33.65100

