158

Mg 36.28900 48.78900 26.18200
C  36.63100 46.78800 29.05600
C  35.00900 51.24700 28.08200
C  35.79100 50.50500 23.31800
C  37.32100 45.90500 24.22100
N  35.82400 48.95500 28.35800
C  36.12000 48.05600 29.34200
C  36.02600 48.71100 30.73600
C  35.25200 50.03400 30.33300
C  35.40400 50.14300 28.81800
C  33.80900 50.11600 30.76900
C  37.42100 48.93200 31.36100
C  37.54900 49.25200 32.88700
H  36.28400 49.37700 33.81600
N  35.52200 50.68900 25.71900
C  35.06100 51.56500 26.74400
C  34.69300 52.81600 26.00400
C  35.03300 52.59200 24.64600
C  35.42000 51.21400 24.47700
C  34.28800 54.05600 26.67700
C  34.96400 53.57700 23.43100
O  35.30600 53.29600 22.30000
C  34.48300 54.94300 23.54100
N  36.46200 48.26500 24.03500
C  36.29700 49.23700 23.10200
C  36.64100 48.69400 21.74800
C  37.30900 47.28100 22.06200
C  36.99900 47.05900 23.51900
C  35.41300 48.65200 20.74400
C  38.81000 47.27400 21.88700
C  39.43100 46.33100 20.79500
N  36.85200 46.81800 26.54400
C  37.29100 45.78100 25.66900
C  37.51400 44.61800 26.42900
C  37.29100 44.98800 27.80200
C  36.91700 46.34300 27.80300
C  37.92800 43.29800 25.85300
C  37.40700 44.45700 29.05500
O  37.89600 43.40900 29.42900
C  36.96900 45.61000 29.99500
C  35.87800 45.25200 30.98300
O  34.75600 44.89400 30.66500
O  36.25900 45.53500 32.21500
C  35.14200 45.53500 33.18000
H  34.76500 52.16300 28.62400
H  35.96600 51.10100 22.42000
H  37.71700 45.02300 23.71300
H  35.37100 48.05800 31.31400
H  35.75300 50.88600 30.79400
H  33.53200 49.12300 31.12500
H  33.22800 50.40400 29.89300
H  33.64000 50.85600 31.55100
H  37.90900 49.69800 30.75800
H  37.92900 47.97400 31.25300
H  38.05900 50.20400 33.03800
H  38.13100 48.47100 33.37600
H  33.78300 53.97500 27.63900
H  33.49700 54.55400 26.11700
H  35.21000 54.63800 26.68500
H  35.00400 55.43400 24.36300
H  33.44600 54.90600 23.87400
H  34.59700 55.42700 22.57100
H  37.31500 49.42900 21.30800
H  36.82900 46.52800 21.43600
H  35.01400 47.64100 20.82000
H  35.59200 48.98700 19.72200
H  34.62000 49.27900 21.15200
H  39.33500 47.05300 22.81500
H  39.17100 48.26800 21.62300
H  40.05500 46.98700 20.18800
H  38.66500 45.95100 20.11800
H  39.99400 45.46800 21.15000
H  38.91700 43.53600 25.46000
H  37.37800 43.10500 24.93200
H  37.78500 42.47000 26.54700
H  37.75400 45.81500 30.72300
H  35.40400 45.98400 34.13800
H  34.90100 44.49700 33.41000
H  34.36200 46.12100 32.69500
Mg 4.70800 55.40400 40.52200
C  3.52100 52.09100 40.67800
C  7.57600 54.34400 38.89400
C  5.67400 58.56300 40.06400
C  1.58400 56.50200 41.81300
N  5.30100 53.40800 39.67200
C  4.74300 52.20900 39.92300
C  5.42500 51.11400 39.08600
C  6.81400 51.77900 38.95200
C  6.57900 53.32200 39.15600
C  7.98600 51.23100 39.88300
C  4.56700 50.91100 37.77200
C  4.55200 49.50500 37.06000
H  5.18500 49.35800 35.63300
N  6.51500 56.31400 39.75200
C  7.61900 55.67200 39.26100
C  8.64900 56.62200 39.07200
C  8.06600 57.93600 39.20600
C  6.71400 57.65100 39.72100
C  10.02800 56.34200 38.50300
C  8.66900 59.24400 38.99300
O  9.78800 59.33900 38.50800
C  8.07500 60.55400 39.43000
N  3.66800 57.26500 40.72300
C  4.37000 58.40900 40.61600
C  3.54000 59.65100 41.14200
C  2.22000 58.94100 41.47500
C  2.50000 57.47700 41.40500
C  4.27300 60.39900 42.28500
C  1.06200 59.28600 40.46500
C  -0.26500 59.83700 41.08900
N  2.80900 54.53000 41.03100
C  1.68900 55.07900 41.63000
C  0.88100 54.04600 42.06100
C  1.47500 52.81800 41.67200
C  2.71500 53.21800 41.12600
C  -0.43700 54.17700 42.75700
C  1.42700 51.38000 41.75900
O  0.51800 50.71600 42.22000
C  2.78700 50.84900 41.08300
C  2.49700 49.87900 40.03800
O  1.69200 50.07400 39.14200
O  3.19700 48.72400 40.31800
C  2.78700 47.53900 39.50800
H  8.48800 53.92600 38.46300
H  6.07200 59.57900 40.04400
H  0.72500 56.92900 42.33400
H  5.29900 50.28800 39.78600
H  7.19500 51.61500 37.94400
H  7.73600 50.29200 40.37700
H  8.28900 51.91100 40.67800
H  8.81300 51.06200 39.19300
H  5.00500 51.43900 36.92500
H  3.63100 51.45100 37.91000
H  3.53300 49.14000 36.93500
H  5.09700 48.75400 37.63300
H  10.12600 55.27000 38.32900
H  10.79700 56.69700 39.19000
H  10.24900 56.88900 37.58700
H  8.78600 61.38000 39.39100
H  7.95400 60.62300 40.51100
H  7.13500 60.74700 38.91300
H  3.49100 60.41200 40.36300
H  1.95000 59.17200 42.50600
H  5.35400 60.26700 42.30900
H  3.75300 60.14900 43.21100
H  4.23100 61.47500 42.11900
H  0.80300 58.31900 40.03400
H  1.38100 59.97400 39.68200
H  -0.95400 59.76300 40.24800
H  -0.27300 60.86100 41.46300
H  -0.68800 59.29100 41.93300
H  -0.65400 55.21900 42.99100
H  -0.40800 53.55300 43.65000
H  -1.26200 53.83800 42.13100
H  3.42800 50.33200 41.79800
H  2.67100 47.80200 38.45600
H  1.80800 47.22600 39.87200
H  3.53100 46.75400 39.64700

