158

Mg 2.18400 8.20200 27.10800
C  2.30500 10.02200 30.09900
C  2.03100 5.31700 29.16700
C  2.27700 6.34000 24.29500
C  2.96200 11.14700 25.36100
N  2.19900 7.74300 29.42400
C  2.09800 8.67600 30.36500
C  1.71200 8.06200 31.70900
C  1.90800 6.51000 31.38700
C  2.07000 6.44900 29.93100
C  3.13300 5.81900 32.05300
C  0.32500 8.36900 32.30800
C  0.06300 8.04000 33.79700
H  1.22800 7.55500 34.74500
N  2.06400 6.07900 26.89000
C  2.05400 5.09400 27.80100
C  2.03400 3.86400 27.05700
C  2.09800 4.10300 25.66000
C  2.13900 5.54100 25.53100
C  1.93700 2.46900 27.75900
C  2.15200 3.15000 24.47500
O  2.30700 3.44800 23.31400
C  1.91800 1.68300 24.72100
N  2.49000 8.71100 25.11700
C  2.44100 7.70700 24.15600
C  2.79700 8.42500 22.79100
C  2.85300 9.96000 23.16000
C  2.80400 9.97000 24.63700
C  4.03300 7.87800 22.05100
C  1.87600 10.89400 22.49200
C  0.38500 10.88900 22.83100
N  2.47900 10.26000 27.57600
C  2.84300 11.34500 26.72000
C  2.86400 12.53100 27.56100
C  2.72400 12.07200 28.91200
C  2.50400 10.66000 28.84100
C  3.12500 13.87900 27.19300
C  2.71300 12.45400 30.27200
O  2.90000 13.58800 30.73000
C  2.41500 11.20100 31.08000
C  3.40900 11.01900 32.15200
O  4.52300 10.50900 32.07900
O  2.91300 11.50800 33.30300
C  3.71400 11.44300 34.50800
H  1.91100 4.41200 29.76600
H  2.17400 5.73300 23.39400
H  3.16100 12.05600 24.79000
H  2.53700 8.34600 32.36200
H  1.04200 5.89600 31.63500
H  3.66200 6.46500 32.75400
H  3.80900 5.42700 31.29300
H  2.76700 4.96200 32.61700
H  -0.30000 7.61900 31.82200
H  -0.05000 9.36900 32.09100
H  -0.74800 7.31800 33.88400
H  -0.41000 8.96000 34.13900
H  2.73700 1.74300 27.61200
H  0.98900 1.98400 27.52600
H  1.93100 2.71700 28.82000
H  2.66500 1.20600 25.35500
H  1.67700 1.10300 23.83000
H  0.95600 1.55200 25.21700
H  1.89900 8.43000 22.17300
H  3.82400 10.25500 22.76200
H  4.62400 7.39300 22.82700
H  4.61700 8.66400 21.57100
H  3.77600 7.13200 21.29900
H  1.87200 10.68800 21.42200
H  2.18600 11.93500 22.58800
H  -0.16900 10.64600 21.92500
H  0.11200 11.86900 23.22300
H  0.15600 10.15900 23.60700
H  3.21500 14.52800 28.06400
H  2.39000 14.28800 26.49900
H  4.01500 13.89400 26.56400
H  1.44600 11.19500 31.58000
H  4.27800 10.51300 34.57600
H  3.03700 11.59800 35.34800
H  4.44300 12.24800 34.41100
Mg 0.47700 44.25300 26.16700
C  3.03900 44.45600 28.70100
C  -1.72400 43.55500 28.67500
C  -1.81000 43.90400 23.71100
C  3.00800 44.79200 23.69600
N  0.66800 44.23100 28.42200
C  1.75300 44.40500 29.22900
C  1.33600 44.21400 30.66000
C  -0.14200 43.74100 30.67400
C  -0.44600 43.80400 29.15900
C  -0.37000 42.41400 31.37600
C  1.68500 45.57800 31.44600
C  1.49600 45.57300 32.94000
H  1.37900 44.25300 33.71700
N  -1.48900 43.75200 26.19600
C  -2.22100 43.55400 27.36200
C  -3.62700 43.50500 26.92300
C  -3.68400 43.49700 25.55600
C  -2.31600 43.73200 25.06800
C  -4.73500 43.34800 28.01200
C  -4.90300 43.48500 24.61800
O  -4.77300 43.60700 23.39300
C  -6.25600 43.34600 25.18200
N  0.54100 44.34000 24.03700
C  -0.48900 44.13400 23.25700
C  -0.10900 44.04300 21.78800
C  1.32000 44.66100 21.77700
C  1.68700 44.55900 23.26500
C  -0.26700 42.69900 21.07100
C  1.34600 46.04600 21.07100
C  2.49300 46.19300 20.14600
N  2.61900 44.50800 26.07300
C  3.49200 44.77100 25.04000
C  4.85300 44.94400 25.64700
C  4.68600 44.82500 27.00500
C  3.30700 44.54100 27.27100
C  6.06200 45.26100 24.90400
C  5.41000 44.83200 28.20000
O  6.62200 44.86300 28.47500
C  4.28800 44.70400 29.31300
C  4.73200 43.58700 30.25000
O  4.76500 42.40600 29.96400
O  5.06100 44.07500 31.57400
C  5.41400 43.04300 32.59900
H  -2.43800 43.40200 29.48700
H  -2.52500 43.61200 22.93900
H  3.77700 44.91200 22.93000
H  2.01300 43.46600 31.07200
H  -0.70900 44.48400 31.23500
H  0.62700 42.03600 31.60200
H  -0.80300 41.71300 30.66200
H  -0.99600 42.48100 32.26600
H  1.15600 46.42100 31.00200
H  2.74400 45.77600 31.28400
H  0.60500 46.16400 33.15300
H  2.36000 46.08800 33.36100
H  -5.48700 42.61200 27.72800
H  -5.25000 44.30800 27.98500
H  -4.49500 43.17500 29.06100
H  -6.25800 44.27000 25.76000
H  -6.42600 42.42100 25.73200
H  -7.01000 43.28800 24.39700
H  -0.81800 44.64400 21.21900
H  1.85300 43.93300 21.16500
H  -0.43900 41.87900 21.76800
H  0.60500 42.32200 20.53800
H  -0.98700 42.80400 20.25900
H  1.45300 46.73800 21.90700
H  0.43600 46.30500 20.53000
H  2.99600 47.14600 20.31100
H  2.16000 46.11100 19.11200
H  3.17800 45.35300 20.26300
H  5.77800 45.57600 23.90000
H  6.67500 44.37000 24.76500
H  6.72300 45.98500 25.38200
H  4.23900 45.63600 29.87700
H  5.96400 43.54100 33.39700
H  6.05100 42.28000 32.15100
H  4.57100 42.59600 33.12600

