158

Mg -1.99100 17.38700 27.08000
C  -2.54200 15.31800 29.81400
C  -2.82100 20.12600 28.99700
C  -1.82800 19.37500 24.36800
C  -2.09900 14.54600 24.98400
N  -2.74800 17.56100 29.07500
C  -2.64800 16.67000 30.11900
C  -2.83700 17.31200 31.48600
C  -3.15400 18.77300 31.15000
C  -2.85800 18.85400 29.60700
C  -4.54200 19.26200 31.55100
C  -1.64300 17.19200 32.48700
C  -2.01600 16.41000 33.83200
H  -0.85500 16.22700 34.92100
N  -2.06900 19.52800 26.76500
C  -2.46700 20.40900 27.69000
C  -2.55000 21.75400 27.09400
C  -2.04100 21.56100 25.77700
C  -1.98500 20.10600 25.57400
C  -3.01200 23.01100 27.75700
C  -1.72400 22.49600 24.74700
O  -1.60100 22.16200 23.54900
C  -1.48400 23.95600 25.10400
N  -2.01700 17.03500 24.98100
C  -1.90700 17.98100 24.05300
C  -1.69700 17.51800 22.62000
C  -1.54200 15.97300 22.84400
C  -1.88000 15.78800 24.37600
C  -2.77900 18.00600 21.66200
C  -0.21400 15.38000 22.34600
C  1.08600 15.92200 22.95000
N  -2.16500 15.36900 27.36500
C  -2.27500 14.35300 26.37100
C  -2.61500 13.20700 27.03300
C  -2.57400 13.46200 28.37200
C  -2.33400 14.80900 28.54900
C  -2.97700 11.83800 26.38400
C  -2.75900 12.88200 29.67300
O  -3.15800 11.77400 29.99800
C  -2.56700 14.07200 30.69300
C  -1.29700 13.81100 31.50000
O  -0.21900 14.33900 31.25800
O  -1.46200 12.79800 32.39500
C  -0.35600 12.40500 33.28800
H  -2.95400 20.98500 29.65800
H  -1.70200 19.91700 23.42800
H  -2.07300 13.66000 24.34500
H  -3.60800 16.73400 31.99500
H  -2.45400 19.39300 31.71000
H  -5.03500 19.40400 30.59000
H  -4.67100 20.18400 32.11800
H  -5.12900 18.47400 32.02200
H  -1.25200 18.13700 32.86400
H  -0.70500 16.78500 32.11000
H  -2.39900 15.40900 33.63600
H  -2.80600 16.92200 34.38200
H  -3.67700 23.45600 27.01700
H  -2.18700 23.67200 28.02400
H  -3.58400 22.76200 28.65000
H  -0.71100 24.39600 24.47500
H  -1.20900 24.12600 26.14500
H  -2.37700 24.56300 24.95400
H  -0.79900 17.98400 22.21400
H  -2.35200 15.46100 22.32400
H  -3.68000 17.45800 21.93600
H  -2.58800 17.80500 20.60800
H  -2.95600 19.08200 21.67900
H  -0.23600 15.61300 21.28100
H  -0.33400 14.29900 22.41400
H  1.75000 16.47300 22.28400
H  1.64000 15.05200 23.30300
H  0.82100 16.72000 23.64300
H  -2.70200 10.96800 26.98100
H  -2.33200 11.56200 25.55000
H  -4.00800 11.88100 26.03100
H  -3.41400 14.03200 31.37800
H  -0.81200 12.00300 34.19200
H  0.38900 13.13100 33.61400
H  0.12500 11.46000 33.03300
Mg -1.49900 34.23300 27.05000
C  -3.35500 32.42800 29.49000
C  -0.36100 36.27100 29.45400
C  -0.08500 36.22700 24.65900
C  -3.08100 32.37000 24.54900
N  -1.77900 34.32200 29.22400
C  -2.54400 33.45100 30.02900
C  -2.28700 33.82400 31.50900
C  -1.56900 35.20500 31.47700
C  -1.26300 35.33400 30.00600
C  -2.37400 36.44000 32.16300
C  -1.57700 32.66700 32.30400
C  -2.35100 32.13100 33.52500
H  -1.73400 32.26900 34.90100
N  -0.20100 35.85000 27.02300
C  0.14600 36.53400 28.15000
C  1.00300 37.59200 27.84700
C  1.02600 37.67700 26.42100
C  0.22200 36.56700 25.92900
C  1.62400 38.43700 28.93300
C  1.62800 38.69100 25.49700
O  1.33600 38.85400 24.34400
C  2.71200 39.57300 25.99500
N  -1.83600 34.41600 24.92900
C  -0.93300 35.17200 24.15200
C  -1.16300 34.98800 22.66900
C  -1.78200 33.56800 22.66700
C  -2.32900 33.43100 24.09700
C  -1.98300 36.09300 21.81800
C  -0.89900 32.37200 22.19600
C  -1.53800 31.43900 21.14000
N  -2.91800 32.71900 26.95300
C  -3.45700 32.10900 25.85200
C  -4.42200 31.17100 26.26900
C  -4.40300 31.24700 27.67700
C  -3.43000 32.17300 28.04100
C  -5.15100 30.06700 25.41800
C  -5.06400 30.75200 28.93100
O  -5.97500 29.99700 29.16800
C  -4.40500 31.50500 30.18700
C  -5.42200 32.37300 30.81900
O  -6.03100 33.26900 30.26300
O  -5.58300 31.86300 32.07600
C  -6.65600 32.45700 32.94600
H  -0.15000 37.00800 30.23300
H  0.38800 36.81500 23.86900
H  -3.38200 31.65800 23.77900
H  -3.30900 33.95400 31.86400
H  -0.62000 35.21300 32.01300
H  -3.19400 36.12200 32.80600
H  -2.79000 37.10800 31.40900
H  -1.73200 37.05500 32.79300
H  -0.53400 32.92600 32.48600
H  -1.48100 31.83800 31.60300
H  -2.61700 31.08900 33.34900
H  -3.34300 32.58000 33.48500
H  0.90600 39.15200 29.33500
H  2.53200 38.84500 28.49000
H  1.84700 37.77300 29.76800
H  3.59500 38.99800 26.27500
H  2.38900 40.36300 26.67200
H  3.01200 40.22000 25.17000
H  -0.15100 34.93200 22.26900
H  -2.58700 33.58900 21.93200
H  -2.79900 35.63900 21.25500
H  -1.32600 36.64700 21.14800
H  -2.47600 36.78800 22.49800
H  -0.46400 31.77800 23.00000
H  -0.05300 32.68400 21.58300
H  -1.56200 30.40600 21.48700
H  -0.97200 31.38700 20.21000
H  -2.56000 31.75800 20.93600
H  -6.20000 30.10900 25.71100
H  -4.68000 29.14400 25.75500
H  -5.03000 30.18700 24.34200
H  -3.95900 30.80500 30.89200
H  -7.02800 33.37300 32.48700
H  -6.21100 32.87600 33.84800
H  -7.57800 31.89900 33.10900

