158

Mg 1.41400 -0.56400 43.79600
C  4.92100 0.03200 43.12600
C  0.68400 2.53100 42.76500
C  -1.70000 -1.63900 43.59300
C  2.38300 -3.98500 44.41600
N  2.72600 0.93200 42.95900
C  4.05300 1.05700 42.83500
C  4.44000 2.48900 42.42800
C  3.14600 3.27200 42.55900
C  2.04000 2.19500 42.81600
C  3.10500 4.38700 43.64500
C  5.04700 2.50100 40.97200
C  6.21800 3.51300 40.65600
H  6.66600 3.71800 39.21700
N  -0.29900 0.30600 43.12500
C  -0.40400 1.64900 42.70400
C  -1.84500 1.91300 42.44800
C  -2.50600 0.67000 42.64800
C  -1.48000 -0.37200 43.13400
C  -2.37300 3.28200 42.11200
C  -4.04900 0.58100 42.51400
O  -4.66600 1.64000 42.30600
C  -4.71900 -0.75500 42.74400
N  0.50600 -2.65200 43.58200
C  -0.84000 -2.67800 43.83800
C  -1.27700 -3.98400 44.41400
C  0.02600 -4.78900 44.44200
C  1.08700 -3.74100 44.18000
C  -2.04200 -3.91200 45.86100
C  -0.03100 -6.08600 43.52000
C  0.22700 -7.44000 44.13700
N  3.18600 -1.74400 43.91000
C  3.45300 -3.02700 44.28700
C  4.87900 -3.20000 44.51200
C  5.45700 -2.03600 43.95300
C  4.46600 -1.21300 43.60500
C  5.55200 -4.44100 45.05000
C  6.72000 -1.44700 43.64900
O  7.80800 -1.93500 43.70800
C  6.44800 -0.03200 43.05900
C  7.14500 0.96900 43.96300
O  6.67400 1.32200 45.03300
O  8.26600 1.52000 43.37800
C  8.71700 2.70900 44.16000
H  0.54200 3.59900 42.58200
H  -2.73500 -1.91600 43.80200
H  2.59200 -4.99900 44.76400
H  5.13700 2.90700 43.15400
H  2.97700 3.76700 41.60200
H  2.23100 4.28500 44.28800
H  2.92300 5.28500 43.05500
H  4.09300 4.31700 44.10100
H  4.34300 2.67100 40.15700
H  5.27400 1.46200 40.73400
H  6.99000 3.27200 41.38600
H  5.90900 4.43800 41.14400
H  -2.99400 3.11000 41.23300
H  -1.61500 3.93500 41.67900
H  -2.76100 3.80400 42.98700
H  -5.78500 -0.65500 42.53900
H  -4.69000 -1.14900 43.76000
H  -4.24900 -1.47600 42.07500
H  -2.01000 -4.44500 43.75100
H  0.32700 -5.08200 45.44800
H  -1.99200 -2.86300 46.15300
H  -1.49200 -4.50400 46.59300
H  -3.05900 -4.25500 45.67400
H  0.79600 -5.90300 42.83400
H  -0.90500 -6.09600 42.86800
H  -0.44300 -8.09600 43.58200
H  -0.04300 -7.49800 45.19200
H  1.26200 -7.77100 44.05800
H  5.43100 -5.36200 44.48000
H  5.09800 -4.80500 45.97200
H  6.56900 -4.32800 45.42500
H  6.89900 0.04300 42.07000
H  8.61000 2.54100 45.23100
H  8.26600 3.66300 43.88600
H  9.79900 2.65700 44.03400
Mg 53.36700 23.48300 44.78500
C  50.61100 25.40400 43.84900
C  51.71600 20.59300 43.86300
C  56.33000 22.00900 44.93400
C  54.88500 26.52000 45.79000
N  51.40500 23.06500 43.86800
C  50.42200 23.99500 43.59900
C  49.21300 23.32200 42.98700
C  49.43000 21.82100 43.47500
C  50.92200 21.78600 43.77600
C  48.37500 21.47700 44.53500
C  49.27200 23.49400 41.47400
C  47.88000 23.43500 40.73900
H  47.70700 23.44300 39.23200
N  53.98100 21.56300 44.36100
C  53.16500 20.52400 44.03800
C  53.97500 19.35500 44.10500
C  55.36100 19.71000 44.32500
C  55.32000 21.18600 44.51700
C  53.51100 17.90000 43.76300
C  56.53500 18.75500 44.38600
O  56.50000 17.63300 43.89400
C  57.86100 19.19900 45.06700
N  55.34300 24.13000 45.39900
C  56.43500 23.38000 45.32600
C  57.72700 24.06100 45.73100
C  57.15100 25.41700 46.26700
C  55.73100 25.35100 45.78500
C  58.56000 23.34600 46.81100
C  58.04200 26.56100 45.70500
C  59.52300 26.79500 46.21300
N  52.92500 25.55400 44.76600
C  53.60500 26.61700 45.25000
C  52.83100 27.83200 45.28500
C  51.64300 27.44900 44.68900
C  51.78100 26.08100 44.31100
C  53.31100 29.19000 45.74100
C  50.30700 27.84900 44.34400
O  49.63000 28.85600 44.55800
C  49.66800 26.60100 43.70300
C  49.41000 27.08300 42.32900
O  50.26300 27.62100 41.61100
O  48.13000 26.80400 41.97300
C  47.71700 27.28900 40.68200
H  51.14400 19.67600 43.70800
H  57.32200 21.57200 44.80400
H  55.28100 27.46500 46.16800
H  48.30700 23.80000 43.35900
H  49.19700 21.14600 42.65100
H  47.75000 20.69000 44.11500
H  47.70500 22.26000 44.89100
H  48.84300 21.13200 45.45700
H  49.79400 22.61000 41.10600
H  49.77500 24.42400 41.21000
H  47.34900 24.30000 41.13800
H  47.47600 22.52200 41.17700
H  53.62700 17.68500 42.70100
H  52.44800 17.73100 43.93200
H  54.06400 17.12600 44.29600
H  58.42800 19.79100 44.35000
H  58.42400 18.27700 45.21600
H  57.62100 19.65200 46.02900
H  58.34400 24.12600 44.83500
H  57.17000 25.52700 47.35200
H  58.67500 23.98200 47.68900
H  59.59100 23.14600 46.51800
H  57.94100 22.51700 47.15100
H  57.70000 27.58400 45.86800
H  58.21900 26.40400 44.64100
H  59.60700 26.29800 47.18000
H  59.85100 27.82800 46.33200
H  60.24400 26.31400 45.55300
H  52.51900 29.91400 45.55000
H  54.07600 29.49700 45.02700
H  53.63300 29.05700 46.77400
H  48.73000 26.37700 44.21000
H  47.84500 26.52000 39.92100
H  48.21600 28.21300 40.39000
H  46.64100 27.46200 40.70500

