158

Mg -10.46400 38.93300 41.11600
C  -8.64300 36.04400 40.38800
C  -8.00500 40.76200 39.42000
C  -12.42700 41.57400 41.00700
C  -13.00000 36.98200 42.45400
N  -8.58200 38.56200 40.04400
C  -8.10800 37.25100 39.84800
C  -7.02100 37.21400 38.76800
C  -6.60000 38.69900 38.74200
C  -7.85300 39.42400 39.34900
C  -5.24200 39.09300 39.47900
C  -7.47300 36.61900 37.38500
C  -6.71300 35.52000 36.78500
H  -6.13100 35.70400 35.41600
N  -10.19400 40.91000 40.53300
C  -9.13600 41.43600 39.78800
C  -9.33500 42.85200 39.71700
C  -10.59900 43.13500 40.21300
C  -11.15000 41.86600 40.62200
C  -8.32800 43.69700 39.05900
C  -11.16300 44.56900 40.40500
O  -10.54900 45.50400 40.01600
C  -12.42500 44.78100 41.17300
N  -12.44300 39.22500 41.49100
C  -13.00300 40.38600 41.42000
C  -14.46000 40.35000 41.98700
C  -14.78900 38.80100 42.06900
C  -13.31700 38.26300 42.05700
C  -14.52700 41.18600 43.37900
C  -15.42400 38.12000 40.78100
C  -16.49100 37.08000 41.04000
N  -10.77400 36.90800 41.52600
C  -11.81600 36.25400 42.21400
C  -11.40900 34.88000 42.35200
C  -10.22700 34.72500 41.65300
C  -9.86700 36.01300 41.15200
C  -12.15300 33.79700 43.10800
C  -9.18100 33.81500 41.17200
O  -9.08900 32.60200 41.34500
C  -8.19200 34.59700 40.29300
C  -6.80400 34.42500 40.89300
O  -6.02800 33.55200 40.52100
O  -6.55200 35.33900 41.86600
C  -5.15800 35.44600 42.20000
H  -7.16100 41.28600 38.96700
H  -13.13400 42.40500 40.94900
H  -13.82900 36.39500 42.85500
H  -6.24600 36.59500 39.21900
H  -6.52200 39.03200 37.70700
H  -4.50200 38.29300 39.50500
H  -5.40300 39.33600 40.53000
H  -4.65000 39.88000 39.01200
H  -7.25900 37.41500 36.67200
H  -8.55500 36.49200 37.35900
H  -7.30300 34.60400 36.75100
H  -5.94200 35.23800 37.50200
H  -8.16700 44.62700 39.60400
H  -8.62100 43.94500 38.03900
H  -7.33400 43.25300 39.11900
H  -12.41200 45.82200 41.49800
H  -12.41700 44.16000 42.06800
H  -13.32100 44.63000 40.57100
H  -15.14900 40.78800 41.26500
H  -15.17600 38.63900 43.07500
H  -13.54200 41.61900 43.55100
H  -14.77200 40.58300 44.25300
H  -15.26400 41.98100 43.26300
H  -14.59200 37.67800 40.23400
H  -15.85900 38.94200 40.21300
H  -16.84800 37.27500 42.05100
H  -16.16700 36.04000 40.98200
H  -17.25700 37.23100 40.28000
H  -12.71500 33.13100 42.45300
H  -12.88000 34.31100 43.73800
H  -11.41200 33.32200 43.75000
H  -8.15700 34.20300 39.27700
H  -4.99000 36.51300 42.05200
H  -4.54200 34.84100 41.53400
H  -4.98200 35.24100 43.25600
Mg -10.18200 17.02600 41.47600
C  -6.86400 16.71000 41.25800
C  -9.88500 20.47000 40.77500
C  -13.60900 17.16100 40.92600
C  -10.52500 13.46000 41.39700
N  -8.55100 18.40800 40.93600
C  -7.24700 17.94900 41.00000
C  -6.30400 19.17900 40.76600
C  -7.26500 20.43400 41.00700
C  -8.63500 19.75500 40.76500
C  -7.12100 21.09100 42.40000
C  -5.77100 19.19000 39.32200
C  -4.30000 18.65400 39.05700
H  -4.14200 17.37800 38.32200
N  -11.59800 18.60500 40.97300
C  -11.24000 19.95000 40.82500
C  -12.46800 20.65100 40.72300
C  -13.57600 19.74200 40.82900
C  -12.97100 18.43900 40.85100
C  -12.50000 22.08300 40.48000
C  -15.00800 20.13700 40.72800
O  -15.40900 21.28400 40.58000
C  -16.08300 19.16900 40.82400
N  -11.86900 15.54300 41.09400
C  -13.12000 15.86000 40.96600
C  -14.04200 14.63500 41.01200
C  -13.03500 13.37300 41.06700
C  -11.71300 14.21500 41.23900
C  -15.17800 14.70000 42.14100
C  -13.11600 12.45500 39.80200
C  -12.79100 10.94200 40.09200
N  -9.02300 15.44100 41.66600
C  -9.25700 14.04800 41.54200
C  -8.04600 13.32500 41.57500
C  -7.04800 14.31100 41.45600
C  -7.69300 15.60800 41.57900
C  -7.75600 11.85800 41.54500
C  -5.61300 14.61900 41.30500
O  -4.65300 13.88900 41.17400
C  -5.48000 16.12900 41.35900
C  -4.69200 16.60800 42.60700
O  -3.96300 17.58100 42.71300
O  -4.79200 15.68400 43.63000
C  -3.65200 15.47300 44.66400
H  -9.89800 21.56100 40.73900
H  -14.70100 17.18100 40.94900
H  -10.62700 12.37300 41.42700
H  -5.56000 19.20900 41.56200
H  -7.06100 21.17500 40.23400
H  -8.04500 21.22700 42.96300
H  -6.70200 22.07100 42.17100
H  -6.32700 20.60600 42.96800
H  -5.91900 20.15900 38.84500
H  -6.39200 18.49200 38.76100
H  -3.82400 18.53200 40.03000
H  -3.71000 19.44000 38.58600
H  -13.39500 22.52200 40.92000
H  -12.15200 22.28500 39.46700
H  -11.68600 22.62700 40.96000
H  -15.93700 18.44500 40.02200
H  -17.05400 19.62900 40.63800
H  -16.15800 18.74000 41.82300
H  -14.56700 14.66400 40.05700
H  -13.11400 12.75800 41.96400
H  -15.22100 15.63100 42.70600
H  -14.91500 13.89300 42.82600
H  -16.15400 14.54400 41.68100
H  -12.43800 12.81000 39.02600
H  -14.08900 12.44500 39.31100
H  -13.74400 10.44400 39.91000
H  -12.66100 10.83300 41.16800
H  -11.92900 10.62500 39.50500
H  -7.71300 11.48700 40.52100
H  -8.44600 11.20100 42.07300
H  -6.78800 11.80300 42.04300
H  -4.96600 16.39800 40.43600
H  -3.83200 15.78100 45.69400
H  -2.65500 15.81700 44.38800
H  -3.59000 14.38600 44.70600

