158

Mg 47.52900 35.09900 27.75900
C  45.74000 33.37900 30.33400
C  48.09700 37.70000 30.09900
C  48.30900 37.29800 25.24500
C  46.63400 32.75400 25.55400
N  46.86500 35.47000 30.02300
C  46.33200 34.55600 30.87800
C  46.41400 35.16900 32.28700
C  46.71900 36.70800 32.12300
C  47.26600 36.65700 30.67400
C  45.51400 37.67400 32.20300
C  47.57000 34.51800 33.13400
C  47.06700 34.34700 34.56500
H  47.71300 35.35500 35.55900
N  48.30400 37.13100 27.74800
C  48.50400 37.98900 28.80800
C  49.13700 39.18700 28.35300
C  49.27900 39.11300 26.97100
C  48.62200 37.81000 26.60700
C  49.53800 40.25800 29.36500
C  50.01600 39.98700 25.97900
O  50.28100 39.60300 24.88600
C  50.75600 41.27800 26.42300
N  47.47500 35.09200 25.64800
C  47.71100 36.09300 24.79700
C  47.68100 35.66000 23.32900
C  47.33800 34.09700 23.53000
C  47.16700 33.93200 25.01800
C  46.64100 36.36700 22.49100
C  48.36400 33.16500 22.84500
C  47.90900 32.00700 22.00200
N  46.52300 33.43700 27.89200
C  46.37200 32.47200 26.87400
C  45.73000 31.29700 27.45400
C  45.47400 31.54300 28.85000
C  45.90100 32.93000 29.03300
C  45.23600 30.09300 26.62700
C  44.89200 31.05900 30.07200
O  44.26100 30.05000 30.36800
C  44.97800 32.25400 31.07100
C  45.45800 31.87400 32.42700
O  46.50500 31.31300 32.68200
O  44.44100 32.05100 33.28200
C  44.47200 31.31500 34.54500
H  48.40700 38.38000 30.89600
H  48.64300 38.04800 24.52500
H  46.35200 32.04800 24.77000
H  45.47000 34.87900 32.74800
H  47.52700 37.06900 32.75900
H  45.44000 38.15600 33.17800
H  44.57400 37.12600 32.15000
H  45.42500 38.46100 31.45400
H  48.45100 35.14700 33.00500
H  47.83100 33.55900 32.68500
H  47.37000 33.38400 34.97600
H  45.97900 34.36000 34.63600
H  48.82500 40.19400 30.18700
H  49.51600 41.25800 28.93300
H  50.54800 40.08100 29.73500
H  51.48400 40.90100 27.14200
H  49.99300 41.96800 26.78200
H  51.36100 41.68100 25.61100
H  48.60500 35.85200 22.78300
H  46.36700 33.89700 23.07600
H  46.67800 36.11900 21.43000
H  46.59200 37.45300 22.57300
H  45.66100 35.96900 22.75300
H  49.03900 32.79800 23.61800
H  49.04600 33.75900 22.23600
H  48.13700 32.24700 20.96300
H  46.83800 31.82800 22.08900
H  48.37100 31.05200 22.25400
H  44.26200 30.32500 26.19400
H  45.04900 29.21500 27.24600
H  45.96100 29.92400 25.83200
H  43.99600 32.69300 31.24900
H  45.37800 30.73100 34.71000
H  43.63200 30.63400 34.68000
H  44.37200 32.13300 35.25800
Mg 16.09100 51.47300 25.38900
C  17.80600 50.64900 28.32700
C  13.61500 52.80100 27.34700
C  14.32300 52.06200 22.64900
C  18.64800 49.74700 23.55900
N  15.85100 51.78100 27.53500
C  16.60400 51.26500 28.56800
C  16.04500 51.61500 29.97600
C  14.64500 52.29800 29.68000
C  14.69700 52.35400 28.10200
C  13.40800 51.54300 30.22800
C  17.05600 52.53200 30.86600
C  17.02400 52.53500 32.37800
H  15.96200 51.70700 33.09400
N  14.28500 52.37300 24.98300
C  13.37900 52.78700 25.93500
C  12.26500 53.39300 25.30900
C  12.45600 53.26100 23.90100
C  13.70700 52.55300 23.78400
C  11.11800 54.13600 25.97400
C  11.63900 53.87700 22.77100
O  11.92700 53.61800 21.60200
C  10.32800 54.54900 22.97000
N  16.43000 50.93300 23.47700
C  15.51700 51.30300 22.45700
C  16.04000 51.02100 20.94500
C  17.38500 50.20700 21.32600
C  17.54400 50.36200 22.89400
C  14.98600 50.34500 20.03200
C  18.67600 50.68300 20.65400
C  19.31700 51.93000 21.14200
N  17.87200 50.39000 25.80700
C  18.79800 49.79300 24.97800
C  19.95200 49.43200 25.73100
C  19.64100 49.61600 27.08000
C  18.34800 50.29800 27.06000
C  21.08700 48.71600 25.13800
C  20.06200 49.44100 28.46200
O  20.98200 48.89400 29.00600
C  18.87500 50.05600 29.30800
C  18.35000 49.03100 30.26700
O  17.27400 48.43600 30.25000
O  19.20300 48.84700 31.26300
C  18.85000 47.92700 32.39100
H  12.76200 53.09200 27.96400
H  13.87000 52.11900 21.65700
H  19.51600 49.24100 23.13200
H  15.92700 50.67300 30.51200
H  14.73300 53.31600 30.05900
H  12.69200 51.14100 29.51100
H  12.85900 52.27800 30.81600
H  13.87000 50.86400 30.94400
H  16.81000 53.56000 30.59900
H  18.07400 52.36400 30.51400
H  16.93700 53.59900 32.60100
H  18.01800 52.22500 32.70000
H  10.15600 53.73200 25.66100
H  11.31600 55.18000 25.73400
H  11.07200 53.98800 27.05300
H  9.90100 54.59600 21.96800
H  10.39000 55.58100 23.31500
H  9.66500 53.95300 23.59700
H  16.33600 52.01100 20.59800
H  17.26000 49.13900 21.14800
H  14.50800 51.03100 19.33300
H  14.27700 49.69400 20.54300
H  15.57200 49.67000 19.40900
H  18.20700 50.86400 19.68600
H  19.39800 49.92700 20.34300
H  20.30100 51.63900 21.50800
H  18.77400 52.49300 21.90200
H  19.38800 52.63500 20.31400
H  20.75000 48.01900 24.37000
H  21.48700 48.02900 25.88400
H  21.81200 49.42600 24.74000
H  19.53400 50.70400 29.88600
H  17.94300 48.21100 32.92600
H  19.70900 47.84800 33.05800
H  18.69300 46.97300 31.88800

