158

Mg 9.11900 4.39500 27.50700
C  10.02000 2.59800 30.35600
C  7.16500 6.40000 29.35200
C  8.43400 6.24000 24.75400
C  10.51400 1.98700 25.51100
N  8.58100 4.36400 29.60200
C  9.20500 3.66600 30.65500
C  8.88000 4.32700 32.04900
C  7.83500 5.47300 31.67300
C  7.77400 5.37100 30.09400
C  6.48200 5.45400 32.46700
C  10.13200 4.60900 32.94400
C  9.65700 5.27200 34.22100
H  10.08200 4.62800 35.55100
N  7.98800 6.16600 27.11200
C  7.20700 6.82100 28.04900
C  6.36900 7.82100 27.41500
C  6.93400 7.87600 26.11700
C  7.86800 6.71900 25.92900
C  5.37700 8.68700 28.13300
C  6.69500 8.94300 25.00800
O  7.25500 8.87500 23.88200
C  5.67500 10.03000 25.17500
N  9.43800 4.13900 25.46600
C  9.15900 5.04300 24.48400
C  9.44800 4.51000 23.06700
C  9.99100 3.08300 23.34100
C  9.93200 3.03500 24.87200
C  8.20800 4.65400 22.11800
C  11.30300 2.72500 22.63300
C  11.30500 1.41100 21.87500
N  10.06500 2.57800 27.77000
C  10.66700 1.72000 26.88500
C  11.35400 0.60700 27.59100
C  11.15600 1.00000 28.98100
C  10.32300 2.08900 29.01500
C  12.06700 -0.56600 27.07800
C  11.51900 0.66600 30.32000
O  12.18700 -0.31100 30.63900
C  10.82100 1.67600 31.24500
C  9.96900 0.96100 32.20300
O  8.84400 0.59700 32.00800
O  10.57300 0.82100 33.40600
C  9.84200 0.22900 34.51500
H  6.58700 7.00900 30.05100
H  8.12600 6.71600 23.82000
H  11.00600 1.22800 24.89900
H  8.37800 3.59600 32.68200
H  8.24700 6.46900 31.83500
H  5.65600 5.42100 31.75600
H  6.24000 6.36800 33.00800
H  6.45700 4.64900 33.20100
H  10.75400 5.23900 32.30900
H  10.70500 3.70500 33.15100
H  8.56800 5.30400 34.21200
H  10.13100 6.25300 34.18300
H  5.59800 9.74000 27.95400
H  5.46700 8.58000 29.21400
H  4.35100 8.39700 27.90600
H  5.74500 10.74700 24.35700
H  6.04300 10.54300 26.06300
H  4.73500 9.50400 25.33900
H  10.24400 5.11700 22.63500
H  9.23500 2.36600 23.02100
H  7.99000 3.65400 21.74200
H  8.47300 5.25300 21.24700
H  7.39700 5.09300 22.70000
H  12.18600 2.76000 23.27200
H  11.51500 3.52500 21.92400
H  10.31600 1.02000 21.63500
H  11.78800 0.76200 22.60500
H  11.78000 1.43300 20.89500
H  11.40000 -1.08500 26.38900
H  12.38000 -1.17700 27.92500
H  12.96000 -0.25100 26.53800
H  11.62100 2.10500 31.84900
H  9.07600 0.95800 34.78000
H  10.40200 -0.07600 35.39900
H  9.30600 -0.65200 34.16100
Mg 17.07800 -1.24600 27.04500
C  16.33300 0.84400 29.80600
C  18.75300 -3.31600 29.31200
C  18.71100 -2.73400 24.41200
C  15.91000 1.09200 24.99100
N  17.45100 -1.22200 29.36700
C  16.94300 -0.34300 30.28100
C  17.34900 -0.72300 31.74900
C  18.27200 -1.97000 31.47500
C  18.17000 -2.21700 29.95000
C  19.70100 -1.79100 31.92800
C  16.11400 -0.92600 32.72400
C  16.09400 -0.09600 34.02800
H  17.35800 0.33000 34.79200
N  18.35600 -2.98900 26.87500
C  18.93200 -3.65300 27.92100
C  19.79200 -4.71000 27.39700
C  19.73900 -4.62000 25.99100
C  18.98400 -3.40100 25.70200
C  20.61700 -5.62400 28.23600
C  20.41800 -5.47100 24.86500
O  20.31900 -5.34500 23.65500
C  21.20700 -6.65100 25.28200
N  17.40600 -0.72100 25.05900
C  17.92400 -1.61200 24.16900
C  17.83900 -1.05300 22.72200
C  16.89000 0.09600 22.94900
C  16.65000 0.18800 24.39000
C  19.21600 -0.70600 22.15800
C  15.56900 0.11200 22.04500
C  15.26000 1.29600 21.14200
N  16.21700 0.52700 27.27500
C  15.71700 1.34100 26.36500
C  15.01800 2.43200 27.03200
C  15.22200 2.34500 28.35300
C  15.95500 1.19200 28.46000
C  14.13700 3.36200 26.36900
C  15.00400 2.99600 29.67900
O  14.57200 4.10000 29.98700
C  15.68200 1.92500 30.62300
C  16.54400 2.63300 31.55200
O  17.79700 2.77300 31.52900
O  15.65600 3.13700 32.51000
C  16.17900 3.95800 33.52100
H  19.33700 -3.98900 29.94200
H  19.07800 -3.26300 23.52900
H  15.43300 1.85800 24.37700
H  17.88100 0.17300 32.06800
H  17.90200 -2.92100 31.85900
H  20.20200 -1.40000 31.04200
H  20.17200 -2.74600 32.16200
H  19.70700 -1.02500 32.70500
H  15.96700 -1.98300 32.94900
H  15.25200 -0.55600 32.16900
H  15.76500 -0.89800 34.68900
H  15.36100 0.70600 34.11000
H  20.41400 -5.74200 29.30000
H  21.65100 -5.29800 28.12000
H  20.54800 -6.65400 27.88500
H  22.14700 -6.44500 25.79500
H  21.52800 -7.15700 24.37200
H  20.57900 -7.31000 25.88100
H  17.36100 -1.76700 22.05100
H  17.49800 0.96100 22.68400
H  19.71900 -0.10600 22.91700
H  19.27400 -0.11900 21.24200
H  19.80600 -1.61500 22.04600
H  14.65400 0.08000 22.63600
H  15.55900 -0.80500 21.45500
H  14.30300 1.72100 21.44300
H  15.40500 0.95400 20.11700
H  15.99300 2.06700 21.37800
H  14.61400 4.26100 25.98000
H  13.36600 3.70100 27.06200
H  13.58500 2.90600 25.54700
H  14.98400 1.35700 31.23700
H  17.14700 3.62700 33.89400
H  15.39300 4.08700 34.26600
H  16.24200 4.96800 33.11400

