158

Mg 55.32800 24.66000 45.66200
C  52.52300 26.31600 44.54700
C  53.93600 21.71400 44.78300
C  58.37700 23.23800 46.08600
C  56.63200 27.76800 46.59900
N  53.46600 24.12500 44.73400
C  52.54300 24.94500 44.26900
C  51.32200 24.20400 43.81800
C  51.64500 22.71200 44.30700
C  53.11000 22.79300 44.62500
C  50.70300 22.33900 45.58300
C  51.28500 24.23600 42.21900
C  49.84800 24.01900 41.63000
H  49.59700 22.91600 40.58900
N  56.00800 22.70700 45.62700
C  55.28500 21.64700 45.24500
C  56.11100 20.45800 45.22400
C  57.39900 20.89400 45.62500
C  57.34700 22.36700 45.87200
C  55.55200 19.05100 44.78400
C  58.55900 19.92900 45.89200
O  58.54800 18.73400 45.47400
C  59.89700 20.32200 46.46500
N  57.26300 25.44700 46.04200
C  58.35800 24.64200 46.35500
C  59.59900 25.48800 46.65400
C  58.94400 26.89100 46.97600
C  57.49300 26.72200 46.53800
C  60.61000 24.96500 47.82300
C  59.80200 28.10600 46.54500
C  59.56600 28.72800 45.22600
N  54.68500 26.70900 45.67300
C  55.27100 27.80800 46.17400
C  54.32700 28.93600 46.14600
C  53.19000 28.40900 45.47600
C  53.51000 27.12100 45.17200
C  54.49500 30.30000 46.71600
C  51.80500 28.63100 45.01600
O  51.04400 29.59800 45.04800
C  51.31600 27.31800 44.28700
C  50.99700 27.58400 42.83900
O  51.80500 27.85800 41.90800
O  49.72500 27.33300 42.63400
C  49.20100 27.55000 41.24900
H  53.43600 20.82800 44.38700
H  59.35000 22.74600 46.03000
H  57.12300 28.69600 46.89900
H  50.45600 24.64300 44.31300
H  51.51500 22.01000 43.48300
H  50.16700 21.44400 45.26500
H  50.09800 23.17600 45.93000
H  51.29400 22.11700 46.47100
H  51.81400 23.43200 41.70700
H  51.70000 25.16100 41.81900
H  49.41300 24.89600 41.15000
H  49.25300 23.73500 42.49800
H  56.16600 18.19800 45.07100
H  55.53200 18.98500 43.69600
H  54.54200 18.85900 45.14600
H  60.42400 20.90100 45.70700
H  60.48600 19.46200 46.78400
H  59.63500 20.93700 47.32600
H  60.14200 25.44000 45.71000
H  58.79500 26.92100 48.05500
H  60.46900 24.01400 48.33500
H  60.64300 25.72900 48.60000
H  61.62100 25.01600 47.41800
H  60.80200 27.67200 46.52900
H  59.65500 28.75200 47.41100
H  58.75800 28.38400 44.58000
H  60.46100 28.54700 44.63100
H  59.35500 29.79500 45.29700
H  54.21900 31.06200 45.98800
H  55.56300 30.45200 46.87600
H  54.01100 30.35800 47.69100
H  50.39600 27.02300 44.79100
H  49.25100 28.59300 40.93800
H  48.12500 27.38000 41.21100
H  49.68200 26.95000 40.47600
Mg 48.36400 15.25300 28.32000
C  46.35000 15.04300 31.16100
C  50.57400 17.15400 30.05100
C  50.22200 15.48200 25.52500
C  45.64200 14.16700 26.46200
N  48.43200 16.01100 30.39200
C  47.57800 15.63400 31.43200
C  48.00600 16.21500 32.73900
C  49.23800 17.07100 32.33500
C  49.45900 16.77800 30.83400
C  49.21500 18.60900 32.66700
C  48.35800 15.13000 33.84500
C  47.93000 15.31300 35.26600
H  48.00100 16.79600 35.82700
N  50.24800 16.16800 27.90100
C  51.05900 16.83900 28.75800
C  52.25200 17.22700 28.07100
C  52.17000 16.69500 26.74300
C  50.84400 16.08600 26.66000
C  53.40900 17.99200 28.76100
C  53.27500 16.73900 25.66600
O  53.13600 16.13900 24.60800
C  54.50400 17.47900 25.85300
N  47.98500 14.92600 26.29200
C  48.94400 15.11600 25.32900
C  48.46000 14.66500 23.91500
C  46.96000 14.32400 24.14700
C  46.81000 14.47700 25.72000
C  48.56400 15.96000 22.93300
C  46.51600 12.90000 23.56100
C  47.19600 11.64700 24.19200
N  46.51000 14.65300 28.71400
C  45.50300 14.24500 27.82500
C  44.31700 13.83600 28.49500
C  44.58600 14.24200 29.82100
C  45.93600 14.64900 29.91500
C  42.96200 13.28800 28.00100
C  44.06700 14.26800 31.17900
O  42.99200 13.92300 31.61000
C  45.18700 14.73000 32.08900
C  44.61700 15.76600 32.89400
O  44.43700 16.88000 32.47400
O  44.35400 15.28600 34.16400
C  43.59600 16.28000 35.00500
H  51.37100 17.73200 30.52400
H  50.79300 15.51000 24.59500
H  44.84700 13.70100 25.87600
H  47.25800 16.91700 33.10700
H  50.10500 16.74900 32.91300
H  48.46200 18.82600 33.42400
H  49.01200 19.18900 31.76600
H  50.21800 18.78900 33.05300
H  49.43600 14.97500 33.89800
H  47.92800 14.17100 33.55600
H  48.44900 14.60700 35.91500
H  46.87900 15.02700 35.32500
H  53.50100 18.97500 28.30000
H  54.34900 17.44000 28.74100
H  53.22500 18.21900 29.81000
H  55.20600 17.27700 25.04400
H  54.93900 17.14700 26.79500
H  54.46900 18.54700 26.07000
H  48.95700 13.76700 23.54700
H  46.29500 15.05100 23.68100
H  49.07500 16.83800 23.32700
H  47.57900 16.27300 22.58600
H  49.04100 15.65500 22.00100
H  46.60400 12.95000 22.47600
H  45.43800 12.79700 23.68900
H  47.42500 10.82700 23.51100
H  46.52200 11.12400 24.87100
H  48.10300 11.94800 24.71700
H  42.14300 13.65000 28.62200
H  42.84500 12.20500 28.04500
H  42.78900 13.67500 26.99600
H  45.44400 13.95000 32.80600
H  42.76100 16.53700 34.35300
H  44.04800 17.25900 35.16400
H  43.36700 15.76800 35.93900

