158

Mg 42.03300 40.57600 27.02900
C  41.15200 42.95800 29.55200
C  42.99600 38.43000 29.59400
C  43.23700 38.75500 24.82600
C  41.39100 43.23000 24.68500
N  42.06100 40.73400 29.28700
C  41.54100 41.70600 30.07100
C  41.50600 41.35300 31.53100
C  42.27700 39.96200 31.58800
C  42.52800 39.66400 30.03000
C  43.54600 39.85100 32.51800
C  40.11500 41.44300 32.16600
C  39.86000 40.58800 33.44100
H  39.09600 41.20600 34.60800
N  42.93700 38.82100 27.11600
C  43.18000 38.02300 28.25300
C  43.71100 36.73200 27.83500
C  43.78600 36.75000 26.45300
C  43.29000 38.16700 26.06100
C  44.10300 35.64800 28.81300
C  44.18100 35.65500 25.47900
O  44.18800 35.86200 24.26800
C  44.60700 34.32200 26.00900
N  42.21000 40.96000 25.00900
C  42.88500 40.02800 24.30700
C  43.08800 40.41500 22.78100
C  42.42700 41.85700 22.80000
C  41.97500 42.04500 24.22100
C  44.51300 40.33400 22.29000
C  41.23800 41.95100 21.80600
C  40.05500 41.01000 22.09800
N  41.40200 42.68800 27.05400
C  41.16100 43.57600 26.01400
C  40.54500 44.83500 26.48900
C  40.55200 44.59900 27.95500
C  41.06800 43.29100 28.19900
C  40.02400 45.94700 25.70500
C  40.18900 45.20600 29.18900
O  39.73600 46.27700 29.46500
C  40.49200 44.13000 30.28600
C  41.36000 44.82200 31.30800
O  42.55900 45.14800 31.28900
O  40.57800 45.14900 32.41000
C  41.06400 46.00400 33.49800
H  43.28100 37.70800 30.36200
H  43.74100 38.16900 24.05500
H  41.18100 43.99700 23.93600
H  42.08500 42.13000 32.02900
H  41.63000 39.11900 31.83000
H  43.36100 39.04600 33.22900
H  43.82600 40.80300 32.96800
H  44.38300 39.50700 31.91000
H  39.47100 41.07000 31.37000
H  39.94800 42.50000 32.37400
H  40.82400 40.29200 33.85500
H  39.40700 39.61900 33.23300
H  44.02700 35.71200 29.89800
H  45.12900 35.31900 28.64500
H  43.42100 34.82900 28.58600
H  44.05500 33.86200 26.82900
H  45.64000 34.55500 26.26800
H  44.82900 33.64600 25.18300
H  42.43700 39.76800 22.19300
H  43.13700 42.64700 22.55300
H  44.65300 40.12600 21.23000
H  44.92400 39.49100 22.84500
H  45.06400 41.20300 22.64900
H  41.62300 41.52400 20.88000
H  40.94800 43.00100 21.84200
H  40.03600 40.74400 23.15500
H  40.08400 40.22800 21.33900
H  39.22100 41.70600 22.01100
H  39.01500 46.09300 26.09100
H  39.87500 45.73300 24.64600
H  40.70300 46.79600 25.78200
H  39.53700 43.84300 30.72600
H  41.75500 46.76600 33.13600
H  41.51400 45.40000 34.28500
H  40.19100 46.48100 33.94400
Mg 35.73000 47.89200 25.87100
C  36.21600 46.00200 28.77800
C  34.61100 50.47100 27.68900
C  34.84600 49.30800 22.88100
C  36.74900 44.96000 24.09600
N  35.41600 48.14300 27.97300
C  35.83200 47.32600 29.01700
C  35.62000 47.98600 30.34300
C  34.84700 49.30300 29.99300
C  34.92900 49.31400 28.45000
C  33.41000 49.36100 30.63600
C  37.02500 48.24600 31.00700
C  37.03000 48.69100 32.48400
H  35.66900 48.65100 33.17600
N  34.71600 49.60000 25.36300
C  34.48800 50.58400 26.29500
C  34.11100 51.73200 25.55800
C  33.99500 51.43300 24.19200
C  34.43200 50.01400 24.06400
C  33.86000 53.10800 26.21100
C  33.53600 52.26800 23.00200
O  33.52600 51.83900 21.88000
C  33.27200 53.68400 23.20200
N  35.90600 47.27900 23.85000
C  35.49600 48.07800 22.78800
C  35.63500 47.38200 21.49000
C  36.38900 46.06000 21.84600
C  36.40800 46.10200 23.36000
C  34.28100 47.21600 20.67500
C  37.86100 46.13600 21.36000
C  38.58900 44.83300 21.04500
N  36.27700 45.79900 26.25800
C  36.67800 44.76700 25.45800
C  37.14400 43.64700 26.22600
C  36.86300 44.05600 27.51400
C  36.42400 45.43800 27.48500
C  37.80800 42.28600 25.80500
C  36.86000 43.64200 28.91100
O  37.25600 42.63400 29.46900
C  36.45000 44.94300 29.69500
C  35.24600 44.63200 30.44400
O  34.17500 44.39500 29.97300
O  35.52700 44.67100 31.77000
C  34.51300 44.44400 32.76600
H  34.32500 51.35500 28.26300
H  34.62200 49.69800 21.88600
H  37.18400 44.06100 23.65400
H  35.03000 47.21100 30.83300
H  35.38900 50.16500 30.38200
H  33.12700 48.41200 31.09200
H  32.63700 49.60000 29.90600
H  33.44500 50.08900 31.44600
H  37.44400 49.10500 30.48300
H  37.66900 47.37800 30.86300
H  37.53300 49.64800 32.62000
H  37.58900 47.91100 33.00200
H  33.01600 53.53000 25.66500
H  34.71100 53.78000 26.09300
H  33.60700 53.00100 27.26500
H  34.07000 54.12900 23.79600
H  32.25900 53.77000 23.59500
H  33.09900 54.16200 22.23800
H  36.18000 48.08400 20.85900
H  35.91500 45.14200 21.50000
H  33.59800 47.94000 21.11900
H  33.95700 46.17700 20.61900
H  34.30600 47.62200 19.66400
H  38.54900 46.50000 22.12300
H  38.00800 46.75400 20.47400
H  37.93500 44.02100 20.72900
H  39.14000 44.56700 21.94700
H  39.18900 45.24200 20.23200
H  38.14500 42.25500 24.76900
H  37.11400 41.44700 25.85700
H  38.69800 42.20300 26.42700
H  37.23400 45.12000 30.43100
H  33.55700 44.81800 32.39800
H  34.72600 45.06100 33.63800
H  34.52700 43.38000 33.00200

