158

Mg 36.29500 2.61500 30.33000
C  33.86100 3.43000 32.80800
C  38.61600 2.64100 32.71100
C  38.50400 2.17800 27.93400
C  33.72400 2.87100 27.89400
N  36.18700 2.84600 32.48100
C  35.13500 3.23000 33.29600
C  35.58500 3.21200 34.81400
C  37.08100 3.03900 34.72100
C  37.31000 2.78300 33.24300
C  38.02200 4.26400 35.21200
C  34.83000 2.12200 35.71400
C  34.04400 2.73700 36.84800
H  34.54900 3.96300 37.61900
N  38.33200 2.50300 30.29100
C  39.13000 2.49700 31.41000
C  40.46700 2.20700 30.99900
C  40.54400 2.12700 29.61200
C  39.07900 2.28200 29.17300
C  41.58900 1.94200 32.00900
C  41.66400 1.92500 28.68200
O  41.49600 1.75800 27.45600
C  43.03000 2.37200 29.18500
N  36.08700 2.48700 28.20400
C  37.19300 2.22000 27.43800
C  36.87500 2.21200 25.98400
C  35.26200 2.26300 26.05000
C  34.96600 2.49400 27.44900
C  37.42200 3.37400 25.08100
C  34.34800 1.23600 25.39400
C  35.02000 -0.16800 25.13400
N  34.24500 3.03100 30.27100
C  33.36300 3.21600 29.22000
C  32.09200 3.56600 29.73400
C  32.24000 3.73500 31.12100
C  33.54600 3.24600 31.42100
C  30.92500 3.94600 28.87300
C  31.55500 3.99000 32.36900
O  30.43300 4.43900 32.58400
C  32.56400 3.83800 33.57700
C  32.50100 5.16500 34.15300
O  32.98900 6.14200 33.63600
O  31.87600 5.02800 35.35300
C  31.51300 6.29500 36.01600
H  39.37700 2.48200 33.47800
H  39.30700 2.19600 27.19400
H  32.92500 2.79400 27.15400
H  35.33500 4.13800 35.33100
H  37.44200 2.25300 35.38400
H  37.39200 5.03200 35.66100
H  38.63600 4.83400 34.51400
H  38.71500 3.93500 35.98600
H  35.40800 1.24100 35.99300
H  34.08700 1.77100 34.99800
H  34.04000 1.95400 37.60700
H  33.00100 2.83700 36.54600
H  42.10400 2.90000 32.07700
H  42.33300 1.24200 31.63000
H  41.32200 1.53200 32.98300
H  43.61600 2.53000 28.27900
H  43.41900 1.48600 29.68700
H  42.88500 3.16300 29.92100
H  37.16200 1.29800 25.46300
H  35.00000 3.22500 25.60800
H  38.01400 4.01300 25.73600
H  36.57600 3.87200 24.60600
H  38.10900 2.98600 24.32900
H  34.09100 1.61200 24.40400
H  33.38400 1.16700 25.89800
H  34.38300 -0.83100 25.72000
H  36.00500 -0.31400 25.57700
H  35.08700 -0.48600 24.09400
H  30.12800 3.20300 28.84500
H  31.37400 4.09500 27.89100
H  30.53500 4.85700 29.32800
H  32.14500 3.00500 34.14000
H  30.90400 6.92600 35.36800
H  32.36900 6.96400 36.10000
H  31.06400 6.01800 36.97000
Mg 5.51200 52.91200 41.10100
C  4.87100 49.43700 40.80900
C  8.55300 52.35000 39.61700
C  5.69000 56.17700 40.63300
C  2.08800 53.31200 41.96900
N  6.57600 51.06400 40.33300
C  6.11000 49.77600 40.27100
C  7.17300 48.86100 39.56200
C  8.49000 49.77300 39.62900
C  7.82100 51.16700 39.94900
C  9.37900 49.36600 40.86400
C  6.82000 48.47000 38.12800
C  5.85200 49.40400 37.36900
H  6.57600 50.41200 36.39000
N  6.96100 54.07900 40.33600
C  8.08200 53.67600 39.63900
C  8.86500 54.82000 39.28400
C  8.10800 55.93100 39.67100
C  6.84200 55.39000 40.22800
C  10.21900 54.72200 38.76500
C  8.47600 57.40500 39.48500
O  9.52200 57.74800 38.97400
C  7.56900 58.53500 39.88200
N  4.02700 54.46900 41.19200
C  4.44300 55.79200 41.13200
C  3.23300 56.77500 41.27300
C  2.01300 55.86600 41.54700
C  2.72700 54.43200 41.57100
C  3.54700 57.64200 42.55200
C  0.97600 55.88200 40.37000
C  0.08700 57.14800 40.40100
N  3.88800 51.74300 41.51300
C  2.60600 52.00200 41.95600
C  1.95000 50.81000 42.38500
C  2.82100 49.74900 41.95400
C  3.95900 50.35600 41.34400
C  0.61300 50.75800 43.21900
C  2.93500 48.35000 41.81600
O  2.12500 47.57300 42.21400
C  4.28400 48.05100 41.12300
C  4.01400 47.15600 39.95100
O  3.35700 47.44000 38.93900
O  4.52400 45.88300 40.18500
C  3.79600 44.86500 39.42400
H  9.56000 52.16200 39.23600
H  5.68500 57.26200 40.51100
H  1.12000 53.51700 42.43000
H  7.34000 47.92000 40.08600
H  9.13400 49.74200 38.75000
H  9.07300 48.37400 41.19600
H  9.35300 50.12900 41.64100
H  10.41100 49.26500 40.52700
H  6.29400 47.51900 38.21700
H  7.68200 48.26200 37.49400
H  5.20400 50.04100 37.97200
H  5.16500 48.77700 36.80100
H  10.35500 54.42900 37.72400
H  10.71500 53.93100 39.32800
H  10.80600 55.62100 38.95300
H  8.18400 59.42500 39.74800
H  7.44900 58.49900 40.96500
H  6.71900 58.61900 39.20400
H  3.23200 57.32800 40.33400
H  1.54100 56.05300 42.51100
H  4.43400 57.26300 43.05900
H  2.72600 57.62500 43.26800
H  3.78700 58.68600 42.35000
H  0.38200 54.99000 40.57000
H  1.31500 55.85000 39.33500
H  0.03400 57.50400 39.37200
H  0.55900 57.83900 41.09800
H  -0.94500 56.88700 40.63700
H  -0.13400 50.07200 42.82000
H  0.15000 51.74500 43.21900
H  0.75500 50.51600 44.27200
H  4.89800 47.48800 41.82600
H  4.25500 44.74200 38.44300
H  2.76100 45.12100 39.19800
H  3.86900 43.90800 39.93900

