158

Mg 54.59300 24.96900 45.44400
C  52.03200 26.84600 43.88700
C  53.37800 22.14900 43.91300
C  57.73500 23.53400 45.60900
C  55.99500 28.05600 46.38000
N  53.01900 24.59200 43.95100
C  52.04000 25.49300 43.50800
C  51.02900 24.71900 42.62500
C  51.21500 23.29300 43.09800
C  52.64300 23.33100 43.66400
C  50.13700 22.75000 44.17600
C  51.41700 24.94800 41.12500
C  50.32100 25.07600 40.01500
H  50.79800 25.80700 38.79500
N  55.34400 23.03900 45.15500
C  54.67600 21.99100 44.52800
C  55.38300 20.81500 44.59000
C  56.74600 21.21200 44.91900
C  56.65900 22.62700 45.27400
C  54.90500 19.51100 44.13700
C  57.97900 20.23300 44.68200
O  57.74800 19.03400 44.34000
C  59.43400 20.69800 44.89000
N  56.64100 25.74600 45.68200
C  57.74000 24.93500 45.73300
C  58.99000 25.79300 46.18200
C  58.34600 27.15600 46.69000
C  56.91500 27.03100 46.14300
C  59.89200 25.13400 47.34100
C  59.21800 28.35000 46.23900
C  59.41100 29.46900 47.32800
N  54.11400 27.00700 45.27500
C  54.71300 28.10800 45.86100
C  53.84900 29.24000 45.75000
C  52.73700 28.77500 45.06800
C  53.07900 27.49700 44.67200
C  54.14000 30.60200 46.27200
C  51.40300 29.18100 44.57800
O  50.77000 30.19300 44.79100
C  50.97100 27.92000 43.76300
C  50.57000 28.39200 42.42400
O  51.37500 28.65800 41.57200
O  49.18800 28.29600 42.23600
C  48.74500 28.46400 40.88900
H  52.88000 21.25100 43.54100
H  58.73900 23.10500 45.61800
H  56.37000 28.99000 46.80400
H  49.99900 25.04800 42.77000
H  51.19800 22.54200 42.30800
H  49.46500 22.02100 43.72300
H  49.44300 23.57700 44.32700
H  50.54800 22.36200 45.10800
H  51.93400 24.03800 40.82100
H  52.18100 25.72500 41.14200
H  49.37200 25.53200 40.29900
H  49.96200 24.11600 39.64200
H  55.11100 19.20600 43.11100
H  53.83000 19.34400 44.21400
H  55.41900 18.73500 44.70500
H  59.64100 20.97100 45.92500
H  59.47700 21.63400 44.33400
H  60.13700 20.09200 44.31900
H  59.61400 25.95600 45.30300
H  58.27400 27.18400 47.77700
H  59.16400 24.56500 47.91900
H  60.33800 25.92200 47.94800
H  60.72600 24.57000 46.92300
H  58.66600 28.79300 45.41100
H  60.23500 28.03300 46.00600
H  58.84100 30.39100 47.20700
H  60.44100 29.79300 47.18300
H  59.13800 29.12200 48.32400
H  54.39600 31.23500 45.42200
H  54.96700 30.72100 46.97200
H  53.21700 31.03100 46.66100
H  50.01900 27.67100 44.23300
H  47.76500 27.98900 40.86200
H  49.38200 27.84600 40.25500
H  48.72500 29.50900 40.58100
Mg 16.52400 51.98200 26.43400
C  18.30600 50.61300 29.17100
C  14.15100 52.99500 28.56400
C  15.00600 53.10300 23.80800
C  18.91200 50.39400 24.27100
N  16.23500 51.72000 28.62000
C  17.09000 51.20600 29.61100
C  16.45000 51.36000 30.95200
C  15.16700 52.13700 30.70700
C  15.13300 52.23400 29.17700
C  13.92900 51.62000 31.44400
C  17.47700 52.02800 31.95600
C  16.77600 52.54900 33.20600
H  16.09200 51.50500 34.04100
N  14.81000 53.00600 26.18700
C  13.97900 53.34900 27.22200
C  12.81400 53.98000 26.61000
C  13.10900 54.10500 25.22200
C  14.41200 53.44400 25.04900
C  11.60200 54.52200 27.38400
C  12.24300 54.58000 24.11200
O  12.59500 54.68000 22.93100
C  10.82900 54.89600 24.43100
N  16.92100 51.72500 24.37200
C  16.15500 52.34300 23.54100
C  16.60200 52.24800 22.05500
C  17.95600 51.48200 22.17900
C  17.94000 51.14100 23.65200
C  15.63700 51.38500 21.15800
C  19.19300 52.26700 21.78400
C  20.15700 51.39300 20.95700
N  18.21600 50.60200 26.62400
C  19.06000 50.13300 25.68400
C  20.12400 49.32500 26.32600
C  19.92400 49.59500 27.71400
C  18.67500 50.31600 27.80800
C  21.10200 48.51800 25.51700
C  20.37800 49.30100 29.04100
O  21.45300 48.74600 29.40000
C  19.36200 49.90500 30.00600
C  18.80100 48.85200 30.90600
O  17.97600 47.95500 30.69200
O  19.33600 49.02800 32.16200
C  18.93900 47.97100 33.19800
H  13.43700 53.41700 29.27600
H  14.54900 53.53500 22.91500
H  19.69300 49.88300 23.70300
H  16.28700 50.35600 31.34600
H  15.28500 53.14600 31.10400
H  13.25500 51.18700 30.70500
H  13.49400 52.51900 31.88100
H  14.29000 50.83600 32.10800
H  18.05000 52.86000 31.54600
H  18.18700 51.27200 32.29200
H  16.20300 53.47300 33.13100
H  17.65300 52.89000 33.75800
H  12.00700 54.48600 28.39500
H  10.71000 53.90500 27.27000
H  11.36100 55.56300 27.17000
H  10.39600 54.09000 25.02400
H  10.22800 54.99400 23.52800
H  11.01400 55.86200 24.90200
H  16.77100 53.19800 21.54700
H  17.85700 50.52000 21.67600
H  14.77000 51.99100 20.89300
H  15.31800 50.45100 21.62200
H  16.06600 51.15600 20.18300
H  19.64100 52.48400 22.75300
H  19.05300 53.16000 21.17300
H  19.73400 50.41800 20.71800
H  21.13500 51.29500 21.42900
H  20.23600 51.96800 20.03400
H  21.52600 47.76500 26.18200
H  21.89400 49.19400 25.19500
H  20.56600 48.01400 24.71300
H  19.99100 50.56700 30.60200
H  17.86700 48.08600 33.35300
H  19.42700 48.17200 34.15200
H  19.19000 46.97100 32.84500

