158

Mg 2.49400 -0.36100 43.43800
C  5.93700 -0.00000 43.45400
C  2.14600 2.62900 41.78400
C  -0.86800 -1.21400 42.91200
C  3.02900 -3.64500 44.60800
N  3.89600 1.15100 42.75500
C  5.27000 1.03800 42.76400
C  5.92000 2.27600 42.07200
C  4.60000 3.18100 41.81900
C  3.45800 2.27000 42.09000
C  4.51100 4.51000 42.59800
C  6.73300 1.99200 40.75600
C  6.04500 1.08500 39.68700
H  5.74200 1.62400 38.28500
N  0.84300 0.68100 42.57700
C  0.93000 1.90800 42.01700
C  -0.41200 2.27500 41.67500
C  -1.31200 1.14700 41.93900
C  -0.46500 0.07900 42.44000
C  -0.77100 3.65100 41.23200
C  -2.80300 1.18400 41.53200
O  -3.39300 2.16900 41.04900
C  -3.62800 -0.07600 41.71500
N  1.27500 -2.14100 43.55800
C  -0.08000 -2.24700 43.39800
C  -0.58500 -3.58700 43.83800
C  0.71400 -4.45800 43.89100
C  1.72200 -3.34100 44.01700
C  -1.36200 -3.55400 45.19900
C  1.01200 -5.31900 42.67300
C  1.54200 -6.72900 43.01100
N  4.16600 -1.58600 44.06300
C  4.17000 -2.84800 44.59300
C  5.48700 -3.15600 45.09300
C  6.25800 -2.08600 44.60100
C  5.37500 -1.16000 44.04400
C  6.03100 -4.38900 45.85200
C  7.63900 -1.55100 44.40700
O  8.75900 -2.03200 44.74500
C  7.50000 -0.23100 43.68800
C  8.24900 0.86700 44.33500
O  9.14600 1.56700 43.85900
O  7.79100 1.03100 45.62000
C  8.54800 2.09500 46.34700
H  2.00200 3.55600 41.22500
H  -1.93600 -1.44100 42.92600
H  3.13400 -4.68600 44.92100
H  6.54900 2.74700 42.82700
H  4.65300 3.46700 40.76800
H  3.45800 4.73400 42.76900
H  4.96800 5.33700 42.05300
H  4.96900 4.35000 43.57400
H  7.58900 1.43900 41.14400
H  7.09500 2.94000 40.35700
H  5.11300 0.63100 40.02500
H  6.85100 0.35700 39.59300
H  -0.77300 3.80400 40.15200
H  -0.04900 4.27800 41.75500
H  -1.74700 3.97400 41.59400
H  -3.68400 -0.34000 42.77200
H  -3.36800 -0.92200 41.07800
H  -4.58700 0.14800 41.25000
H  -1.24700 -3.97200 43.06200
H  0.82700 -5.09100 44.77100
H  -0.96600 -4.13900 46.02900
H  -2.31700 -3.98000 44.89400
H  -1.46900 -2.56300 45.64200
H  1.56000 -4.78000 41.90000
H  0.10300 -5.58600 42.13300
H  2.37400 -6.83000 42.31500
H  0.93100 -7.62100 42.87100
H  1.97200 -6.68400 44.01100
H  5.71500 -4.23400 46.88400
H  7.11200 -4.48800 45.75000
H  5.54000 -5.23000 45.36200
H  7.85200 -0.29900 42.65800
H  9.55500 1.73700 46.56200
H  8.13200 2.14600 47.35400
H  8.37000 3.01800 45.79500
Mg 25.93800 49.63100 26.26100
C  23.76300 50.47700 28.82100
C  28.21100 48.57100 28.50900
C  28.15000 49.10900 23.68500
C  23.68000 50.92500 23.91200
N  26.02500 49.75800 28.52100
C  24.93000 49.92900 29.31200
C  25.28100 49.55000 30.75400
C  26.76200 49.02600 30.66400
C  27.05100 49.12500 29.10700
C  27.88500 49.72200 31.55200
C  24.21800 48.56600 31.43700
C  23.75200 49.02300 32.85600
H  24.70400 49.66500 33.96300
N  27.87900 48.95700 26.13900
C  28.58600 48.41400 27.16700
C  29.81000 47.79900 26.72000
C  29.84100 48.00700 25.23900
C  28.59200 48.70500 24.97200
C  30.81000 46.99900 27.61700
C  30.94000 47.54700 24.28600
O  30.83700 47.74300 23.10000
C  32.01500 46.66800 24.78900
N  25.95000 49.97500 24.06100
C  26.97500 49.72700 23.26700
C  26.68900 50.03000 21.82900
C  25.15800 50.30500 21.84800
C  24.82600 50.36700 23.31700
C  27.57200 51.18400 21.28300
C  24.36200 49.20600 21.05800
C  24.06300 47.86500 21.76100
N  24.14200 50.53500 26.32300
C  23.34800 51.01800 25.27200
C  22.08400 51.54700 25.84000
C  22.18500 51.33100 27.21500
C  23.50800 50.79300 27.45600
C  20.91600 52.06700 25.08400
C  21.49800 51.58000 28.46400
O  20.43100 52.13500 28.66100
C  22.50200 51.00200 29.57300
C  22.83800 52.08700 30.63200
O  23.62100 53.05600 30.51300
O  22.04200 51.90200 31.79200
C  22.26800 52.88300 32.83800
H  28.81300 47.92500 29.15200
H  28.82700 48.81300 22.88100
H  22.89700 51.28400 23.24100
H  25.29500 50.52600 31.23800
H  26.87200 47.97700 30.93600
H  28.56500 48.98200 31.97200
H  27.47700 50.32900 32.36000
H  28.60300 50.20600 30.89000
H  24.69500 47.58700 31.47100
H  23.27200 48.37800 30.93000
H  23.39800 48.03800 33.15900
H  22.78600 49.52600 32.81500
H  31.79300 47.44400 27.46100
H  30.74900 45.93900 27.37300
H  30.69700 47.00400 28.70100
H  32.69500 47.21200 25.44500
H  32.69300 46.36400 23.99100
H  31.56200 45.77700 25.22300
H  26.95000 49.25200 21.11100
H  24.90100 51.29000 21.45800
H  28.48700 51.17200 21.87500
H  27.06700 52.13300 21.46300
H  27.79700 50.98400 20.23600
H  24.87900 48.89300 20.15100
H  23.39300 49.63000 20.79700
H  24.01800 46.95000 21.17100
H  23.07600 47.99200 22.20700
H  24.73300 47.67600 22.60000
H  21.00100 53.15100 25.15800
H  20.06400 51.77000 25.69500
H  20.71400 51.71000 24.07400
H  21.96400 50.25700 30.15900
H  23.00400 52.48500 33.53700
H  21.39100 52.97600 33.47900
H  22.62900 53.86300 32.52700

