158

Mg 24.41900 -4.41200 45.99200
C  25.63200 -1.60000 44.26300
C  21.28200 -3.63900 44.70400
C  23.35200 -7.57400 46.78500
C  27.63800 -5.08900 46.99500
N  23.64400 -2.83400 44.62300
C  24.27500 -1.79700 44.06100
C  23.30400 -0.99000 43.14700
C  21.94700 -1.25900 43.90700
C  22.31400 -2.67400 44.45400
C  21.47400 -0.18900 44.95400
C  23.32500 -1.46400 41.69100
C  23.74800 -0.54000 40.54800
H  24.95300 -0.93900 39.76800
N  22.66400 -5.47700 45.59500
C  21.48300 -4.93300 45.15700
C  20.46100 -5.92200 45.14600
C  21.07200 -7.15500 45.68100
C  22.38000 -6.72000 46.11000
C  18.98200 -5.61900 44.66700
C  20.37000 -8.56100 45.79200
O  19.20300 -8.65000 45.45200
C  21.00600 -9.80200 46.34900
N  25.37700 -6.09600 46.76500
C  24.66800 -7.26700 47.08900
C  25.68800 -8.36800 47.58900
C  27.02400 -7.54500 47.76100
C  26.66000 -6.15800 47.15000
C  25.26600 -9.25100 48.76700
C  28.32700 -8.23100 47.29200
C  28.59600 -8.18200 45.87000
N  26.28900 -3.46200 45.86100
C  27.51400 -3.89100 46.28200
C  28.43800 -2.84800 45.96200
C  27.80900 -1.98200 45.06600
C  26.48000 -2.36200 45.13000
C  29.87000 -2.98100 46.35000
C  27.95000 -0.83100 44.19900
O  28.94600 -0.28300 43.84800
C  26.53300 -0.47100 43.67400
C  26.16600 0.90700 44.17300
O  25.30200 1.14700 44.98600
O  26.90000 1.91100 43.63500
C  26.76000 3.28600 44.16100
H  20.28500 -3.22100 44.55000
H  23.20000 -8.64200 46.95700
H  28.58900 -5.32700 47.47700
H  23.40700 0.09400 43.09100
H  21.15400 -1.37800 43.16800
H  21.35900 -0.62900 45.94500
H  20.54100 0.25500 44.60700
H  22.29000 0.51900 45.09800
H  22.31900 -1.80900 41.45300
H  24.00300 -2.31400 41.62100
H  23.81600 0.48600 40.90900
H  22.94000 -0.51600 39.81600
H  18.57100 -6.60000 44.42600
H  19.10700 -4.93800 43.82500
H  18.46300 -5.01700 45.41200
H  20.23500 -10.57200 46.34400
H  21.19700 -9.67200 47.41500
H  21.84500 -10.15800 45.75100
H  25.86400 -9.01300 46.72800
H  27.20700 -7.37800 48.82200
H  25.76600 -10.20700 48.60600
H  24.20200 -9.38400 48.57000
H  25.52400 -8.84300 49.74400
H  28.30200 -9.24000 47.70300
H  29.12800 -7.70900 47.81500
H  29.61600 -7.80100 45.82000
H  27.95200 -7.70900 45.12900
H  28.69400 -9.19700 45.48600
H  30.52300 -2.11100 46.28200
H  30.29400 -3.83200 45.81600
H  29.84100 -3.18000 47.42100
H  26.47200 -0.37800 42.58900
H  27.36500 3.51000 45.04000
H  25.76900 3.59800 44.49000
H  27.09300 3.99100 43.39900
Mg -4.62600 25.50200 25.08100
C  -3.25200 27.00500 28.09700
C  -6.69600 23.66800 27.06600
C  -5.91700 24.18600 22.35200
C  -2.45900 27.47000 23.32300
N  -4.77200 25.30700 27.31400
C  -4.19900 25.99200 28.35500
C  -4.73500 25.60400 29.73200
C  -5.57000 24.27300 29.35300
C  -5.76700 24.40400 27.79500
C  -4.96700 22.91400 29.79300
C  -5.57500 26.77300 30.41700
C  -6.43700 26.39100 31.63400
H  -6.01800 25.32800 32.64600
N  -6.08400 24.05200 24.76000
C  -6.86000 23.39200 25.68000
C  -7.74700 22.47400 24.97600
C  -7.65600 22.75700 23.59100
C  -6.52200 23.71900 23.50600
C  -8.65400 21.52200 25.69400
C  -8.43000 22.17400 22.39500
O  -8.06900 22.45900 21.28900
C  -9.52200 21.28300 22.61000
N  -4.13300 25.70000 23.12600
C  -4.90200 25.15300 22.16600
C  -4.28800 25.50600 20.77600
C  -3.24400 26.59600 21.01100
C  -3.26400 26.60000 22.57700
C  -3.56400 24.25500 20.06200
C  -3.59000 27.98600 20.43700
C  -2.44400 28.87300 19.95900
N  -3.09100 26.91400 25.60700
C  -2.32800 27.64900 24.74100
C  -1.55800 28.60800 25.43300
C  -1.85000 28.44700 26.81200
C  -2.79200 27.35700 26.86000
C  -0.59700 29.64400 24.83500
C  -1.54400 28.74700 28.16800
O  -0.71200 29.58000 28.61600
C  -2.42400 27.74400 29.07000
C  -1.56900 26.93600 29.91200
O  -0.53400 26.41000 29.55400
O  -2.04900 27.00200 31.24500
C  -1.17100 26.25500 32.18300
H  -7.30600 23.03600 27.71500
H  -6.37900 23.89000 21.40800
H  -1.79500 28.07500 22.70300
H  -3.95700 25.55600 30.49400
H  -6.57600 24.30800 29.76900
H  -5.17000 22.15100 29.04100
H  -5.41500 22.55100 30.71800
H  -3.88100 22.96600 29.87600
H  -6.31300 27.05300 29.66500
H  -4.99200 27.68400 30.55200
H  -7.41000 26.02200 31.30900
H  -6.67200 27.31200 32.16700
H  -8.34200 20.52100 25.39800
H  -9.69000 21.64500 25.37500
H  -8.63500 21.66600 26.77400
H  -9.27300 20.42500 23.23400
H  -9.89900 21.02500 21.62100
H  -10.31700 21.80900 23.13800
H  -5.14700 25.76400 20.15600
H  -2.29600 26.24100 20.60800
H  -3.93200 23.26100 20.31700
H  -2.48700 24.32000 20.21500
H  -3.83600 24.36000 19.01200
H  -4.08100 28.60600 21.18800
H  -4.29700 27.86100 19.61600
H  -2.75900 29.22900 18.97800
H  -1.61600 28.17700 19.82000
H  -2.12000 29.62200 20.68100
H  -0.49600 29.60700 23.75000
H  0.44500 29.64500 25.15300
H  -0.96500 30.64200 25.07600
H  -3.04600 28.28000 29.78700
H  -0.64800 26.88000 32.90700
H  -0.52600 25.49100 31.74900
H  -1.95100 25.73600 32.74100

