158

Mg 42.83900 41.42100 26.47800
C  41.49500 43.64500 28.72000
C  43.60300 39.24000 29.02200
C  43.93800 39.29800 24.17100
C  41.80600 43.66500 23.94600
N  42.67600 41.48100 28.61600
C  42.07900 42.57000 29.35100
C  42.07600 42.18100 30.85000
C  42.82200 40.79200 30.94800
C  43.05100 40.45800 29.42600
C  44.18900 40.75600 31.74700
C  40.69300 42.12500 31.53600
C  40.44200 43.05500 32.74600
H  39.93400 42.43600 34.06900
N  43.65200 39.51100 26.58500
C  43.88500 38.77500 27.75200
C  44.42700 37.55300 27.36300
C  44.79100 37.54900 25.99600
C  44.09300 38.82700 25.51500
C  44.68100 36.52800 28.39400
C  45.53200 36.59500 25.01700
O  45.85000 36.83700 23.85900
C  45.84600 35.30600 25.58900
N  42.79700 41.49900 24.40700
C  43.33700 40.49300 23.66900
C  43.03800 40.62600 22.18200
C  42.42200 42.08200 22.01700
C  42.31900 42.46300 23.56600
C  44.22600 40.33700 21.26000
C  41.14400 42.38100 21.16300
C  41.22900 43.66400 20.24400
N  41.92500 43.30600 26.33700
C  41.63700 44.11000 25.28100
C  40.94400 45.31900 25.71800
C  40.88400 45.16000 27.08600
C  41.48000 43.89300 27.38700
C  40.42400 46.38200 24.86300
C  40.45400 45.82200 28.24500
O  39.83200 46.86500 28.38900
C  40.86600 44.87100 29.45100
C  41.65000 45.68900 30.39000
O  42.78700 46.08900 30.18200
O  40.94000 45.97200 31.51300
C  41.55800 46.52900 32.67100
H  44.04300 38.55600 29.75200
H  44.21900 38.50100 23.47900
H  41.58400 44.34600 23.12300
H  42.68700 42.88800 31.41200
H  42.13300 40.08500 31.41200
H  44.05500 39.92400 32.43900
H  44.27300 41.66600 32.34000
H  45.03600 40.70800 31.06300
H  40.47400 41.17600 32.02500
H  39.90800 42.26700 30.79300
H  39.65600 43.72000 32.38900
H  41.37700 43.53400 33.03700
H  44.77100 35.58700 27.85100
H  43.93400 36.42800 29.18200
H  45.66300 36.72100 28.82500
H  46.60700 35.53900 26.33400
H  46.35700 34.68200 24.85700
H  45.08100 34.62200 25.95700
H  42.24300 39.88600 22.09500
H  43.22400 42.73500 21.67300
H  44.99900 39.75000 21.75600
H  44.70400 41.26200 20.93700
H  43.91300 39.77100 20.38300
H  40.34300 42.49900 21.89300
H  40.80800 41.51700 20.59100
H  41.66900 43.44500 19.27100
H  41.97800 44.35300 20.63400
H  40.33800 44.29100 20.19900
H  40.81700 46.37600 23.84700
H  40.73500 47.28500 25.38800
H  39.34600 46.22200 24.87600
H  39.92800 44.66000 29.96500
H  42.47600 47.09700 32.52100
H  41.79800 45.76400 33.40900
H  40.91100 47.28600 33.11400
Mg 26.56000 49.52700 25.83000
C  24.47000 50.79300 28.36000
C  28.74100 48.49200 28.10700
C  28.65800 49.02300 23.23900
C  24.42400 51.01800 23.50000
N  26.51600 49.50300 28.10300
C  25.59200 50.12400 28.97300
C  26.05100 50.03100 30.41700
C  27.49100 49.36700 30.21900
C  27.57100 49.05000 28.72400
C  28.61500 50.27300 30.79100
C  25.06800 49.21900 31.30400
C  24.77500 49.81600 32.68200
H  25.94400 50.40000 33.49100
N  28.42200 48.81200 25.69500
C  29.13300 48.33000 26.77800
C  30.37300 47.91700 26.22400
C  30.44500 48.17000 24.82300
C  29.13300 48.63800 24.47900
C  31.48600 47.36400 27.12100
C  31.58100 48.10900 23.82200
O  31.51000 48.54000 22.71400
C  32.86800 47.59800 24.28400
N  26.58600 50.10900 23.68800
C  27.49800 49.65300 22.85300
C  27.09600 49.89600 21.35700
C  25.61900 50.32700 21.49800
C  25.56900 50.51800 22.94600
C  28.03900 50.87200 20.54900
C  24.46900 49.39600 21.00000
C  23.21000 50.05300 20.30800
N  24.70500 50.56700 25.86800
C  24.00600 51.09000 24.87000
C  22.75600 51.71300 25.33900
C  22.94600 51.69900 26.73000
C  24.11600 50.95500 26.98200
C  21.91100 52.61500 24.60400
C  22.40300 52.19900 27.95000
O  21.45900 52.98200 28.07900
C  23.32700 51.64400 29.12700
C  23.91100 52.86500 29.82600
O  24.94200 53.35300 29.61300
O  23.21700 53.05100 30.99500
C  24.03100 53.79000 32.02700
H  29.39200 48.02900 28.85200
H  29.27900 48.92800 22.34500
H  23.63600 51.29300 22.79500
H  26.14800 51.06000 30.76100
H  27.50900 48.39600 30.71300
H  29.29100 50.75500 30.08400
H  29.26600 49.76200 31.50100
H  28.25000 51.11900 31.37200
H  25.29600 48.15400 31.36500
H  24.13000 49.29700 30.75500
H  24.29400 49.07600 33.32100
H  23.96700 50.49800 32.41400
H  31.85600 46.43400 26.68800
H  31.20000 47.12600 28.14500
H  32.32100 48.06400 27.15500
H  32.69300 46.56300 24.57500
H  33.12200 48.10200 25.21700
H  33.62500 47.52600 23.50200
H  27.10600 48.93200 20.84900
H  25.47500 51.27300 20.97500
H  28.81200 51.23600 21.22600
H  27.47100 51.60700 19.97800
H  28.64100 50.22000 19.91700
H  24.19900 48.68500 21.78100
H  25.02100 48.72800 20.33900
H  23.13400 49.90300 19.23100
H  23.13400 51.07100 20.68700
H  22.36200 49.50600 20.71900
H  22.57500 53.41700 24.28000
H  21.31500 53.14600 25.34600
H  21.41400 52.08800 23.79000
H  22.70900 51.01600 29.76900
H  23.62100 53.65500 33.02800
H  23.97900 54.86800 31.87900
H  25.09400 53.55000 32.00500

