158

Mg 25.46300 1.83000 29.58800
C  27.90000 1.40000 32.39400
C  23.15700 1.95900 32.00000
C  23.29100 2.04100 27.15800
C  28.14800 1.16700 27.44300
N  25.51500 1.60000 31.96300
C  26.58600 1.57900 32.86500
C  26.04400 1.79200 34.32600
C  24.48300 1.70900 34.14700
C  24.34200 1.74000 32.60400
C  23.98000 0.39800 34.90600
C  26.62700 3.07400 35.07700
C  26.91300 2.96500 36.52000
H  26.26900 4.15500 37.43000
N  23.51200 2.06500 29.50000
C  22.75300 2.19100 30.64800
C  21.37300 2.50200 30.24700
C  21.34000 2.44900 28.82700
C  22.71100 2.13500 28.44000
C  20.21500 2.68200 31.21000
C  20.04800 2.44500 27.91700
O  20.15100 2.38200 26.70100
C  18.81300 2.69400 28.44000
N  25.68600 1.43800 27.59400
C  24.66100 1.81800 26.72900
C  25.15300 1.80100 25.29300
C  26.73900 1.71400 25.44400
C  26.89000 1.37900 26.90100
C  24.44400 0.65300 24.40900
C  27.61600 2.96000 24.98800
C  27.23300 4.30100 25.64400
N  27.52900 1.24500 29.78800
C  28.42700 0.99700 28.79700
C  29.72000 0.82800 29.34800
C  29.54100 0.86800 30.71000
C  28.18300 1.21300 30.93900
C  30.98300 0.56300 28.56000
C  30.24000 0.80100 31.99600
O  31.35200 0.53200 32.23200
C  29.19300 1.17900 33.10900
C  29.05600 0.15800 34.17100
O  28.27900 -0.79900 34.19100
O  29.93200 0.42300 35.22300
C  29.79600 -0.52700 36.35700
H  22.30700 2.08600 32.67300
H  22.69100 2.37200 26.30700
H  28.93200 1.15800 26.68300
H  26.44700 0.89100 34.78900
H  24.00900 2.60000 34.55800
H  24.61400 0.29700 35.78700
H  23.85200 -0.43200 34.21200
H  22.97100 0.72400 35.15700
H  25.90200 3.87100 34.91200
H  27.47200 3.51200 34.54600
H  27.98400 2.77400 36.59900
H  26.42900 2.08500 36.94300
H  19.82300 3.66800 30.96100
H  20.44200 2.63700 32.27600
H  19.54600 1.87300 30.91600
H  18.26400 1.87400 28.90200
H  18.16400 2.97900 27.61100
H  18.86700 3.49600 29.17600
H  25.04900 2.77600 24.81500
H  27.06700 0.89900 24.79900
H  23.58100 0.24600 24.93600
H  25.24200 -0.02100 24.09900
H  24.06500 1.06800 23.47500
H  27.54400 3.08600 23.90700
H  28.65800 2.73400 25.21400
H  28.02100 4.70700 26.27900
H  26.37500 4.26600 26.31600
H  27.01500 5.04400 24.87600
H  31.79400 0.83700 29.23500
H  31.06900 1.14900 27.64400
H  31.07300 -0.51300 28.40900
H  29.67200 2.01600 33.61700
H  28.90600 -0.15500 36.86500
H  30.68400 -0.51500 36.98800
H  29.55900 -1.54900 36.06000
Mg 43.19900 41.55100 26.74500
C  42.36300 43.66800 29.46400
C  44.40000 39.29900 28.84700
C  44.21700 39.77800 24.05700
C  42.76800 44.30400 24.64500
N  43.32400 41.58800 28.90500
C  42.86900 42.43400 29.81000
C  42.98500 41.87000 31.19500
C  43.71100 40.49000 31.04100
C  43.81500 40.40200 29.47700
C  45.13900 40.28400 31.68200
C  41.52600 41.84500 31.95200
C  41.43400 42.64000 33.24000
H  40.90200 42.03900 34.61400
N  44.10000 39.76300 26.46400
C  44.40700 38.91300 27.49900
C  44.87400 37.63600 26.96000
C  44.79700 37.75600 25.58800
C  44.37300 39.11400 25.27900
C  45.45300 36.53700 27.83100
C  45.18300 36.74600 24.53900
O  45.32800 37.02500 23.34200
C  45.66200 35.28300 24.87700
N  43.80600 42.06800 24.60900
C  43.94900 41.09400 23.72000
C  43.89100 41.66300 22.23400
C  43.28200 43.06300 22.47600
C  43.30600 43.17300 23.99300
C  45.28800 41.83700 21.36200
C  41.92200 43.40200 21.81400
C  41.67300 44.89400 21.55800
N  42.55500 43.53100 26.90000
C  42.38200 44.52700 25.95200
C  41.71800 45.74400 26.53800
C  41.71500 45.41400 27.93100
C  42.28900 44.10300 28.10300
C  41.45400 47.07000 25.89200
C  41.51400 45.88200 29.26900
O  41.14800 46.98900 29.60100
C  41.91000 44.81500 30.26700
C  43.00000 45.42900 31.11100
O  44.16300 45.57600 30.74300
O  42.43400 45.77700 32.31300
C  43.43300 46.07200 33.32300
H  44.70600 38.58300 29.61300
H  44.24000 39.14300 23.17000
H  42.52900 45.15400 24.00300
H  43.67300 42.47000 31.79100
H  43.08500 39.68400 31.42200
H  45.89300 40.13300 30.90900
H  44.94800 39.33700 32.18600
H  45.46400 41.02000 32.41700
H  41.25400 40.79400 32.05200
H  40.78100 42.19200 31.23600
H  40.85800 43.52700 32.97600
H  42.43100 42.99400 33.50100
H  45.35400 36.66900 28.90800
H  46.52700 36.41500 27.68600
H  44.93300 35.61500 27.57100
H  46.13800 35.32700 25.85600
H  46.37400 34.93200 24.12900
H  44.82000 34.59400 24.93100
H  43.18900 41.05500 21.66300
H  43.94300 43.84500 22.10200
H  46.05900 41.42200 22.01200
H  45.52200 42.90100 21.32800
H  45.47300 41.30400 20.42900
H  41.18100 43.04500 22.53000
H  41.74400 42.81000 20.91600
H  41.31300 44.98500 20.53300
H  42.55800 45.49200 21.77600
H  40.84600 45.25400 22.17000
H  42.07100 47.13800 24.99700
H  41.59600 47.87900 26.60900
H  40.42500 47.01700 25.53600
H  41.02800 44.52800 30.83900
H  44.12900 45.24800 33.16600
H  43.00000 46.10900 34.32300
H  43.84800 47.07900 33.38400

