158

Mg -0.00400 7.73800 26.54500
C  1.00900 9.86500 28.98200
C  -0.27300 5.17100 28.78300
C  -0.91500 5.63200 24.01800
C  0.68100 10.32900 24.19500
N  0.47900 7.57600 28.69900
C  0.66300 8.60000 29.52800
C  0.59700 8.13200 30.96400
C  0.58100 6.54600 30.88500
C  0.31100 6.38400 29.35400
C  1.84500 5.73700 31.37700
C  -0.65800 8.76500 31.61400
C  -0.73400 8.80900 33.17100
H  0.53000 8.52800 34.03700
N  -0.63400 5.71400 26.43400
C  -0.74000 4.83700 27.46300
C  -1.37300 3.58200 27.02800
C  -1.59300 3.80100 25.66200
C  -1.02900 5.09200 25.28600
C  -1.55400 2.31300 27.88800
C  -2.24000 2.75600 24.62800
O  -2.28400 2.90100 23.37400
C  -2.87600 1.46100 25.14500
N  -0.05400 7.87000 24.38600
C  -0.44900 6.87400 23.54400
C  -0.35100 7.28400 22.06800
C  0.27900 8.70600 22.11500
C  0.33800 9.01400 23.61000
C  0.29600 6.33600 21.04400
C  -0.47400 9.79100 21.41100
C  -1.87600 10.06700 21.95700
N  0.92800 9.64600 26.51300
C  0.95600 10.61400 25.52800
C  1.36900 11.90300 26.05900
C  1.47800 11.64000 27.45700
C  1.20500 10.26500 27.60900
C  1.84900 13.19500 25.38700
C  1.77400 12.25500 28.77100
O  2.13200 13.41000 29.17100
C  1.46500 11.09600 29.74300
C  2.63000 10.82900 30.53300
O  3.59800 10.12100 30.27400
O  2.48200 11.63600 31.61100
C  3.46900 11.34700 32.63200
H  -0.45900 4.35900 29.48900
H  -1.35700 5.05700 23.20100
H  0.64600 11.22300 23.56900
H  1.41500 8.54500 31.55400
H  -0.37700 6.23300 31.30200
H  1.49600 4.87900 31.95200
H  2.46400 6.43900 31.93700
H  2.32900 5.30600 30.50100
H  -1.50700 8.23900 31.17700
H  -0.80400 9.74600 31.16400
H  -1.51500 8.12000 33.49100
H  -1.04800 9.83000 33.38900
H  -1.00200 2.48700 28.81200
H  -1.08700 1.47900 27.36500
H  -2.58600 2.06400 28.13500
H  -3.22000 0.93600 24.25400
H  -3.78000 1.82600 25.63200
H  -2.18000 0.78300 25.63900
H  -1.36400 7.35900 21.67200
H  1.32300 8.85400 21.83900
H  0.79300 6.96700 20.30800
H  -0.50900 5.79000 20.55200
H  0.95200 5.62300 21.54300
H  -0.78500 9.44700 20.42500
H  0.06300 10.73900 21.37400
H  -2.59700 10.08000 21.14000
H  -1.85700 11.13000 22.19700
H  -2.21100 9.39900 22.75100
H  0.99800 13.62800 24.86200
H  2.52900 12.86100 24.60400
H  2.37800 13.83200 26.09700
H  0.60600 11.35500 30.36100
H  4.47600 11.46100 32.23100
H  3.46600 10.34200 33.05400
H  3.35500 12.01400 33.48700
Mg -5.14500 26.30600 26.37600
C  -3.54800 27.45700 29.22900
C  -6.77200 24.04000 28.38700
C  -6.28000 24.81900 23.57900
C  -3.28700 28.40400 24.51100
N  -5.13900 25.86900 28.56900
C  -4.48700 26.50800 29.52800
C  -4.98800 26.07500 30.95100
C  -5.76000 24.78700 30.62700
C  -5.92000 24.87700 29.10800
C  -4.98400 23.52100 31.08200
C  -5.92400 27.19300 31.52100
C  -5.81600 27.26700 33.08400
H  -5.33700 26.18600 34.07000
N  -6.47400 24.77200 26.05900
C  -7.07700 23.94900 27.00400
C  -7.99400 23.03700 26.31300
C  -7.75000 23.16100 24.91800
C  -6.80300 24.34100 24.79800
C  -8.95100 22.14100 27.10800
C  -8.33100 22.44000 23.68300
O  -8.13600 22.73600 22.52300
C  -9.21700 21.28100 23.85000
N  -4.92700 26.65500 24.35700
C  -5.38700 25.89700 23.37400
C  -4.82300 26.30000 21.98200
C  -4.02100 27.59800 22.27100
C  -4.09900 27.55500 23.84700
C  -4.00400 25.27300 21.22600
C  -4.72000 28.91600 21.61400
C  -4.27900 29.06900 20.11200
N  -3.76200 27.73800 26.76000
C  -3.11400 28.49800 25.87900
C  -2.17000 29.27300 26.59300
C  -2.35400 28.93700 27.91800
C  -3.27700 27.97400 27.94800
C  -1.22900 30.24400 25.97900
C  -2.00000 29.29900 29.29700
O  -1.26000 30.18400 29.67500
C  -2.71500 28.31500 30.17200
C  -1.72900 27.53900 30.89900
O  -1.48800 26.39500 30.61000
O  -1.26000 28.17700 32.03400
C  -0.57500 27.29800 33.05900
H  -7.26600 23.35800 29.08200
H  -6.60800 24.43900 22.60900
H  -2.66100 28.98600 23.83100
H  -4.10100 25.94900 31.57200
H  -6.76200 24.80400 31.05500
H  -4.16200 23.76800 31.75300
H  -4.53600 22.99900 30.23600
H  -5.63800 22.87100 31.66300
H  -6.98900 27.04900 31.33600
H  -5.60100 28.15700 31.12800
H  -6.79500 27.64200 33.38400
H  -5.15700 28.13400 33.13500
H  -9.89600 22.00300 26.58200
H  -9.09600 22.41800 28.15200
H  -8.47200 21.16300 27.15000
H  -9.40700 20.67600 22.96300
H  -10.17600 21.65300 24.21000
H  -8.84600 20.68900 24.68700
H  -5.68800 26.62300 21.40300
H  -3.03100 27.45300 21.84000
H  -4.00500 25.56000 20.17400
H  -4.42800 24.27800 21.35700
H  -2.96800 25.25600 21.56200
H  -4.45700 29.85100 22.10900
H  -5.77500 28.64600 21.67400
H  -5.16300 28.96800 19.48200
H  -3.62000 28.23600 19.86700
H  -3.76900 30.03000 20.06300
H  -0.89900 30.95400 26.73800
H  -1.70000 30.71800 25.11800
H  -0.34800 29.68600 25.66000
H  -3.34700 28.83000 30.89600
H  -1.30700 27.18200 33.85800
H  0.28900 27.91300 33.30800
H  -0.25100 26.30700 32.73900

