158

Mg 8.06100 2.06300 28.19800
C  9.74800 0.75400 30.93200
C  6.23300 4.05400 30.37600
C  6.17000 3.22400 25.59400
C  9.35200 -0.44200 26.20200
N  7.84500 2.15200 30.45900
C  8.84600 1.72800 31.27900
C  8.71200 2.41400 32.69400
C  7.48400 3.34700 32.62700
C  7.10400 3.17800 31.04200
C  6.37600 2.87800 33.64800
C  10.04300 3.02700 33.32500
C  10.55700 2.58400 34.73800
H  10.90800 3.69800 35.78500
N  6.51400 3.40800 27.97900
C  5.85900 4.12800 28.99800
C  4.92800 5.02600 28.45000
C  4.85600 4.75500 27.06500
C  5.86400 3.77700 26.81200
C  4.12400 5.94700 29.27100
C  3.96100 5.39700 25.98500
O  4.06700 5.05800 24.78400
C  2.97800 6.43500 26.38700
N  7.82700 1.46800 26.24000
C  7.09200 2.16800 25.27700
C  7.45000 1.76900 23.77700
C  8.31700 0.52800 24.11500
C  8.59200 0.56100 25.59400
C  6.30600 1.50800 22.79300
C  9.75100 0.56700 23.45400
C  10.20500 -0.77400 22.90600
N  9.29700 0.54500 28.43700
C  9.69400 -0.45200 27.59400
C  10.57400 -1.36200 28.29900
C  10.60500 -0.91100 29.58700
C  9.82600 0.20900 29.66300
C  11.41100 -2.49800 27.85100
C  11.21700 -1.22100 30.84500
O  11.94100 -2.08900 31.25800
C  10.69200 -0.07700 31.81000
C  10.05700 -0.70200 32.99300
O  9.04900 -1.36300 32.97100
O  10.83500 -0.45800 34.14400
C  10.34900 -1.07000 35.44300
H  5.75800 4.72800 31.09100
H  5.72300 3.52400 24.64400
H  9.79300 -1.29700 25.68600
H  8.52500 1.64300 33.44100
H  7.64200 4.42000 32.73200
H  6.16400 3.78500 34.21400
H  6.90300 2.14800 34.26300
H  5.42300 2.48000 33.30000
H  9.96800 4.11400 33.29800
H  10.82600 2.69100 32.64500
H  11.42200 1.95900 34.51400
H  9.85500 1.88300 35.18900
H  4.21900 5.70500 30.32900
H  3.05200 5.91300 29.07900
H  4.36400 7.00500 29.16500
H  2.48900 6.74500 25.46400
H  3.41400 7.29800 26.89100
H  2.21900 5.96400 27.01100
H  8.01300 2.60600 23.36600
H  7.71500 -0.34000 23.84700
H  5.34600 1.67400 23.28000
H  6.44700 0.48600 22.44000
H  6.45000 2.12200 21.90400
H  10.53500 0.94200 24.11300
H  9.79900 1.25200 22.60700
H  9.36100 -1.45600 23.00400
H  10.88900 -1.30600 23.56700
H  10.69300 -0.83500 21.93400
H  12.36100 -2.04300 27.57000
H  11.01800 -2.91200 26.92300
H  11.51300 -3.14300 28.72400
H  11.61500 0.37300 32.17700
H  10.02600 -0.27300 36.11300
H  11.17300 -1.61100 35.90600
H  9.66100 -1.89100 35.24200
Mg 6.18200 53.92400 40.92400
C  5.54800 50.42600 40.51700
C  9.56400 53.30900 40.36500
C  6.69800 57.22900 40.68700
C  2.81400 54.34900 41.29600
N  7.36500 52.09100 40.60200
C  6.94500 50.78600 40.43900
C  8.08100 49.76200 40.31700
C  9.31300 50.70000 40.63300
C  8.73600 52.18500 40.52700
C  10.11700 50.49300 41.97400
C  8.34300 49.13600 38.89100
C  8.14200 50.09600 37.62600
H  7.19400 49.62900 36.50200
N  7.88000 55.12900 40.55200
C  9.13300 54.66900 40.31500
C  9.93200 55.83000 40.00100
C  9.21000 57.01000 40.19800
C  7.85700 56.50600 40.47200
C  11.31500 55.55200 39.40900
C  9.64800 58.37400 40.01600
O  10.79100 58.58600 39.63800
C  8.81700 59.50700 40.41000
N  4.91200 55.56300 41.10300
C  5.37400 56.80100 41.03600
C  4.25200 57.85500 41.18100
C  3.02300 56.89100 41.15600
C  3.59700 55.51300 41.15300
C  4.35800 58.70600 42.41400
C  2.18300 57.00000 39.89900
C  0.66300 56.81700 40.08000
N  4.42200 52.69600 40.89600
C  3.16400 53.01000 41.19000
C  2.30600 51.85700 41.12400
C  3.19800 50.80600 40.95600
C  4.50000 51.40700 40.77100
C  0.80200 51.83900 41.29500
C  3.30600 49.37500 40.79800
O  2.44400 48.55000 40.83400
C  4.82400 49.03300 40.57500
C  4.98800 48.33200 39.27900
O  4.61900 48.71800 38.19500
O  5.61900 47.10500 39.57400
C  5.76300 46.38200 38.32600
H  10.63900 53.15100 40.25800
H  6.58200 58.31400 40.64700
H  1.75600 54.57900 41.44300
H  7.93300 48.94800 41.02700
H  10.12100 50.58600 39.91000
H  11.16900 50.51700 41.69000
H  9.76100 49.60200 42.49100
H  9.95800 51.34900 42.63000
H  7.73500 48.24400 38.74300
H  9.40000 48.89200 38.79000
H  9.09600 50.18500 37.10600
H  8.01500 51.16000 37.82800
H  11.35000 54.69200 38.74000
H  12.10200 55.62200 40.16000
H  11.66000 56.35200 38.75400
H  9.52100 60.32800 40.54600
H  8.35300 59.20000 41.34700
H  8.05100 59.70700 39.66100
H  4.22600 58.47800 40.28600
H  2.40300 57.00300 42.04600
H  5.11800 58.31900 43.09400
H  3.40500 58.74500 42.94200
H  4.67800 59.73400 42.24300
H  2.28600 56.15000 39.22500
H  2.37900 57.87500 39.28100
H  0.35100 56.39700 41.03600
H  0.28600 56.10800 39.34300
H  0.17000 57.78500 39.98500
H  0.41000 52.77900 40.90700
H  0.59400 51.68700 42.35500
H  0.47800 50.98400 40.70100
H  5.26700 48.38800 41.33400
H  6.33200 46.96900 37.60500
H  4.79200 46.07900 37.93200
H  6.30500 45.45000 38.48600

