158

Mg 1.86900 -0.97600 43.40200
C  5.26000 -0.51500 43.05500
C  1.27900 1.88900 41.64400
C  -1.45500 -1.78700 43.41700
C  2.54600 -4.21200 44.71500
N  3.12400 0.49500 42.49100
C  4.51800 0.48100 42.42900
C  5.03500 1.47400 41.47600
C  3.75700 2.34400 41.08100
C  2.63900 1.50900 41.78100
C  3.79800 3.90600 41.39400
C  5.66700 0.86200 40.21300
C  7.08900 1.36200 39.86400
H  7.27700 2.42700 38.75400
N  0.15200 -0.00100 42.79800
C  0.13500 1.14200 42.04600
C  -1.19100 1.57600 41.86400
C  -1.97200 0.48500 42.31900
C  -1.07900 -0.50000 42.89900
C  -1.47100 2.81600 41.13100
C  -3.49800 0.38500 42.25200
O  -4.19500 1.25200 41.83100
C  -4.42100 -0.80800 42.77000
N  0.68900 -2.80100 43.88900
C  -0.62600 -2.83600 43.80900
C  -1.22600 -4.15000 44.25700
C  0.02700 -4.90400 44.82600
C  1.20800 -3.91300 44.44200
C  -2.46100 -4.18900 45.22300
C  0.29800 -6.41600 44.39000
C  0.70000 -7.35800 45.53500
N  3.57400 -2.08200 44.03900
C  3.66300 -3.34600 44.48900
C  5.04100 -3.69300 44.73800
C  5.79900 -2.58200 44.13400
C  4.79400 -1.64800 43.71700
C  5.52000 -4.94600 45.40100
C  7.12400 -2.06500 43.66200
O  8.25300 -2.48900 43.82900
C  6.74800 -0.68500 42.98700
C  7.38400 0.27600 43.74600
O  7.02000 0.69100 44.86000
O  8.43400 0.86600 42.98600
C  8.93700 1.99900 43.69300
H  1.13600 2.85200 41.14900
H  -2.49400 -2.08300 43.26100
H  2.77300 -5.20300 45.11100
H  5.72200 2.15200 41.98300
H  3.52900 2.29100 40.01700
H  3.44800 4.44600 40.51400
H  4.85200 4.16100 41.50400
H  3.27300 4.29300 42.26700
H  5.03100 1.00500 39.34000
H  5.73400 -0.21600 40.36100
H  7.71600 0.50100 39.63300
H  7.45200 1.85600 40.76500
H  -1.02300 2.88300 40.13900
H  -0.99200 3.60100 41.71500
H  -2.54800 2.95100 41.03700
H  -5.46800 -0.50300 42.75500
H  -4.12800 -1.03500 43.79400
H  -4.32500 -1.69100 42.13700
H  -1.62500 -4.79400 43.47300
H  -0.01500 -4.90800 45.91500
H  -2.34400 -4.57400 46.23600
H  -3.23300 -4.77800 44.72800
H  -2.86500 -3.18400 45.34900
H  0.93600 -6.34800 43.50900
H  -0.57000 -6.83500 43.88100
H  0.41600 -6.89700 46.48100
H  1.75900 -7.61100 45.56400
H  0.13700 -8.29100 45.49100
H  4.81000 -5.65700 45.82400
H  6.19600 -4.65600 46.20400
H  6.07800 -5.51200 44.65500
H  7.22500 -0.69000 42.00700
H  9.47200 1.77100 44.61500
H  8.10800 2.67400 43.90500
H  9.75900 2.36600 43.07700
Mg 47.65600 15.14100 28.33400
C  45.34000 15.14700 31.07000
C  49.67400 17.02200 30.33600
C  49.47200 15.34900 25.77000
C  45.07300 13.58700 26.36300
N  47.46100 15.96100 30.51200
C  46.53000 15.77200 31.42100
C  46.84400 16.45200 32.78500
C  48.12700 17.20300 32.36200
C  48.44300 16.70800 30.99800
C  48.13400 18.74400 32.53200
C  47.05900 15.40200 34.01100
C  46.31500 15.59200 35.27100
H  46.24200 17.08200 35.68000
N  49.31800 16.11500 28.13300
C  50.07700 16.72000 29.02000
C  51.40000 16.97500 28.44400
C  51.32400 16.50000 27.08300
C  49.97900 15.93900 26.94700
C  52.54600 17.69800 29.15000
C  52.40800 16.54900 25.99800
O  52.24900 16.18700 24.86600
C  53.87500 17.10600 26.33400
N  47.21600 14.71000 26.29400
C  48.29200 14.77600 25.44900
C  47.97100 14.20400 24.05300
C  46.66300 13.46700 24.35500
C  46.20900 13.99500 25.67500
C  47.89600 15.45600 23.02300
C  46.76500 11.90600 24.42600
C  47.73500 11.20600 25.41700
N  45.64300 14.54300 28.62900
C  44.76400 13.86600 27.76000
C  43.59600 13.45300 28.47600
C  43.73100 14.03800 29.74500
C  45.00900 14.65300 29.82600
C  42.44400 12.63800 27.94400
C  43.13800 14.02500 31.06600
O  42.09000 13.59500 31.58600
C  44.14600 14.84300 31.95200
C  43.55800 16.00500 32.53700
O  43.76800 17.18200 32.24800
O  42.85000 15.69300 33.67900
C  42.23200 16.70200 34.53300
H  50.49200 17.44200 30.92500
H  50.12200 15.20500 24.90400
H  44.40100 12.99800 25.73500
H  46.08200 17.18900 33.03900
H  49.02700 16.85700 32.87000
H  47.12000 19.09100 32.73100
H  48.40900 19.26500 31.61400
H  48.79500 18.94500 33.37500
H  48.12800 15.32900 34.21300
H  46.58100 14.50100 33.62700
H  46.83100 14.98600 36.01600
H  45.26500 15.30300 35.32400
H  52.34500 18.07100 30.15400
H  52.84300 18.55500 28.54500
H  53.44600 17.08800 29.22500
H  53.77200 18.19100 26.35100
H  54.37000 16.81900 25.40600
H  54.28500 16.62600 27.22200
H  48.77300 13.51600 23.78500
H  45.95700 13.64200 23.54200
H  48.36700 15.23900 22.06500
H  48.27100 16.41200 23.38900
H  46.82400 15.48500 22.82800
H  47.14800 11.74000 23.41900
H  45.79900 11.40100 24.43000
H  47.02600 10.85700 26.16800
H  48.47000 11.92800 25.77400
H  48.25300 10.39500 24.90500
H  41.87200 12.28700 28.80300
H  42.80900 11.75100 27.42400
H  41.84600 13.23500 27.25600
H  44.47700 14.11500 32.69200
H  41.35600 17.08600 34.01000
H  42.96600 17.38900 34.95700
H  41.86900 16.22900 35.44500

