158

Mg 41.50200 41.35900 25.88200
C  40.64500 43.84700 28.33900
C  42.32100 39.27900 28.57400
C  42.36400 39.14500 23.66800
C  40.83100 43.68700 23.43700
N  41.45700 41.53600 28.08600
C  40.99700 42.55800 28.85600
C  40.83600 42.27600 30.38900
C  41.64500 40.90000 30.45000
C  41.78100 40.50900 28.95800
C  43.05300 40.90000 31.13700
C  39.35000 42.08800 30.77500
C  38.95000 42.88100 32.01500
H  38.76500 42.20800 33.43400
N  42.20800 39.42400 26.07300
C  42.50400 38.73400 27.26000
C  42.88700 37.38300 26.86300
C  42.92300 37.35900 25.47300
C  42.52300 38.65200 25.05400
C  43.23500 36.39100 27.93300
C  43.38900 36.26100 24.51700
O  43.29600 36.32000 23.30700
C  44.08700 35.04300 25.01100
N  41.75900 41.48800 23.88100
C  42.05100 40.36800 23.11000
C  41.89400 40.60600 21.62700
C  41.04300 41.94200 21.62900
C  41.24900 42.44100 23.04900
C  43.25100 40.68000 20.87300
C  39.58500 41.67500 21.20500
C  38.78700 40.88500 22.27000
N  40.96900 43.37700 25.85900
C  40.73000 44.19000 24.77200
C  40.47400 45.53000 25.16500
C  40.41300 45.45200 26.58900
C  40.66700 44.10100 26.91100
C  40.28700 46.75700 24.31500
C  40.16300 46.20000 27.84800
O  39.79900 47.35100 28.01900
C  40.37400 45.12600 29.00000
C  41.41400 45.60200 29.91400
O  42.63800 45.37700 29.84400
O  40.82500 46.21100 30.98500
C  41.64700 46.63200 32.08400
H  42.29700 38.77000 29.54000
H  42.55300 38.40700 22.88600
H  40.47800 44.41200 22.70100
H  41.28900 43.07400 30.97700
H  41.15200 40.09200 30.99000
H  43.32400 41.90900 31.44800
H  43.84900 40.55900 30.47500
H  43.06100 40.23600 32.00100
H  39.02100 41.05800 30.91400
H  38.79500 42.30600 29.86300
H  37.99300 43.39000 31.90400
H  39.67200 43.67200 32.21800
H  42.99800 36.64500 28.96600
H  44.28800 36.14000 28.06700
H  42.80100 35.40100 27.79200
H  45.05700 35.36500 25.39100
H  44.31200 34.40200 24.15900
H  43.48900 34.40300 25.65900
H  41.29300 39.81000 21.18600
H  41.53100 42.75100 21.08500
H  43.51700 41.72800 20.73400
H  43.16800 40.05700 19.98200
H  44.06100 40.25700 21.46900
H  39.58000 41.21900 20.21500
H  39.04600 42.61600 21.09500
H  38.00600 41.53200 22.66900
H  39.33400 40.48900 23.12700
H  38.29000 40.06600 21.75000
H  40.81400 47.57100 24.81200
H  39.27400 47.15500 24.25400
H  40.77400 46.60400 23.35200
H  39.43300 45.07800 29.54900
H  41.93100 47.68400 32.09000
H  42.57500 46.07700 32.22200
H  41.15400 46.37900 33.02300
Mg 16.39200 51.94800 25.22800
C  18.27400 51.07600 28.01900
C  13.80200 53.09600 27.20800
C  14.40300 52.25000 22.47700
C  18.83400 50.44200 23.13300
N  16.03000 52.00900 27.32900
C  17.02100 51.74400 28.27800
C  16.47000 52.01800 29.67000
C  15.06600 52.60600 29.39100
C  14.86200 52.47700 27.85100
C  13.87800 51.82900 30.16900
C  17.39000 52.99600 30.48700
C  17.85400 52.56300 31.91500
H  16.90100 51.79800 32.76200
N  14.41400 52.79400 24.88300
C  13.54800 53.27600 25.78000
C  12.34800 53.85000 25.09200
C  12.56200 53.61900 23.73500
C  13.88900 52.93800 23.59400
C  11.17200 54.36900 25.90100
C  11.55500 53.95800 22.62100
O  11.82900 53.62400 21.45600
C  10.11200 54.48500 22.88500
N  16.59300 51.40900 23.15400
C  15.58400 51.58200 22.20500
C  16.02100 51.05600 20.77500
C  17.51500 50.76800 21.02000
C  17.67200 50.91100 22.51200
C  15.22800 49.86300 20.21100
C  18.53100 51.59200 20.19700
C  18.45700 53.05700 20.56600
N  18.17300 50.90000 25.47200
C  19.13300 50.48600 24.52700
C  20.27900 49.90500 25.23300
C  20.01100 50.16000 26.60600
C  18.74900 50.69400 26.67900
C  21.42500 49.29500 24.64500
C  20.52000 50.05400 27.99700
O  21.63600 49.70100 28.39000
C  19.38500 50.56200 28.99000
C  18.91000 49.45800 29.93500
O  17.78500 48.94800 29.81400
O  19.82900 49.09900 30.83100
C  19.34100 48.16600 31.90800
H  12.96200 53.52700 27.75600
H  13.80800 52.30000 21.56300
H  19.61700 49.92800 22.57100
H  16.39900 51.14600 30.31900
H  14.98400 53.64600 29.70800
H  12.93900 51.92500 29.62400
H  13.70500 52.36700 31.10100
H  14.15500 50.82200 30.48000
H  16.85000 53.94200 30.46600
H  18.29100 53.17600 29.90100
H  17.94000 53.45600 32.53400
H  18.82800 52.07700 31.84700
H  11.29600 54.32100 26.98300
H  10.36300 53.69000 25.63300
H  11.01500 55.42700 25.68700
H  9.30900 53.77000 23.06100
H  9.82500 55.06600 22.00800
H  10.24800 55.32400 23.56800
H  15.94200 51.89900 20.08900
H  17.73400 49.77600 20.62500
H  14.51600 49.61300 20.99700
H  15.79300 48.93900 20.08700
H  14.58200 50.15800 19.38400
H  18.32800 51.52400 19.12800
H  19.58700 51.35400 20.32400
H  18.58600 53.25500 21.63000
H  17.52700 53.50300 20.21200
H  19.25300 53.61800 20.07600
H  21.76500 49.77000 23.72600
H  21.35000 48.21600 24.51100
H  22.17600 49.52000 25.40200
H  19.74500 51.35500 29.64600
H  20.11800 47.59400 32.41400
H  18.69600 47.34600 31.59400
H  18.79600 48.72500 32.66900

