158

Mg 8.81000 2.70300 27.88100
C  10.17700 1.16700 30.80600
C  7.01300 4.77300 29.93100
C  7.64100 4.19900 25.14600
C  10.45400 0.32800 25.91700
N  8.70400 2.98500 30.18600
C  9.40000 2.32400 31.13400
C  9.04300 2.86100 32.50100
C  7.96300 3.91100 32.18200
C  7.73800 3.78600 30.67200
C  6.60600 3.65100 32.91400
C  10.27400 3.27600 33.30200
C  10.10200 4.11700 34.55800
H  10.94500 3.65400 35.77000
N  7.42200 4.25500 27.57500
C  6.79500 4.99400 28.52600
C  5.95900 6.06100 27.91500
C  6.09100 5.91200 26.51800
C  7.11100 4.76800 26.35100
C  5.25000 7.12200 28.70700
C  5.39400 6.71100 25.36400
O  5.68700 6.54500 24.17400
C  4.22300 7.51200 25.70700
N  9.05400 2.33100 25.83100
C  8.43700 3.14100 24.84900
C  8.88500 2.73600 23.41900
C  9.54700 1.33200 23.67900
C  9.78700 1.32900 25.21300
C  7.67000 2.51400 22.44500
C  10.95900 1.13300 22.93000
C  11.03100 0.34500 21.62300
N  9.95700 0.99800 28.23500
C  10.64900 0.21600 27.32900
C  11.27900 -0.89000 28.04800
C  11.20000 -0.46500 29.39800
C  10.37200 0.64500 29.52300
C  12.08300 -2.10500 27.55800
C  11.69400 -0.76800 30.74300
O  12.49600 -1.55600 31.16200
C  11.00400 0.25900 31.73000
C  10.00900 -0.48300 32.59100
O  9.11800 -1.29200 32.17500
O  10.39900 -0.45700 33.89600
C  9.74100 -1.34800 34.80300
H  6.69100 5.64800 30.50000
H  7.45900 4.83800 24.28000
H  10.79500 -0.41400 25.19200
H  8.57300 2.09900 33.12200
H  8.38100 4.87000 32.48800
H  5.80100 3.52800 32.19000
H  6.33600 4.51700 33.51900
H  6.65100 2.82100 33.61900
H  10.86700 3.84500 32.58500
H  10.95500 2.45900 33.53800
H  9.10400 4.34200 34.93600
H  10.50700 5.07800 34.24300
H  5.39600 8.11500 28.28200
H  5.40200 7.07100 29.78500
H  4.19900 6.85700 28.59100
H  4.48600 8.42000 26.24800
H  3.64000 6.90900 26.40300
H  3.54400 7.81700 24.91000
H  9.56800 3.43000 22.92900
H  8.97300 0.44700 23.40400
H  7.56000 1.45400 22.21700
H  7.68900 3.29600 21.68500
H  6.73700 2.75600 22.95600
H  11.62900 0.72600 23.68800
H  11.37500 2.10300 22.65500
H  10.07800 0.48900 21.11300
H  11.06700 -0.73300 21.78300
H  11.93000 0.48000 21.02200
H  13.12100 -1.80900 27.71200
H  11.89900 -2.00600 26.48800
H  11.72900 -3.03700 27.99800
H  11.73400 0.81800 32.31600
H  9.02000 -0.77600 35.38700
H  10.56500 -1.54300 35.48800
H  9.40200 -2.28300 34.35600
Mg 6.76900 54.32100 41.03800
C  6.20900 50.84100 40.69600
C  9.99800 53.84200 40.22000
C  6.97100 57.70900 40.97700
C  3.46300 54.53600 42.00900
N  7.89200 52.55800 40.22800
C  7.52200 51.22200 40.27800
C  8.77100 50.27900 40.18300
C  9.91300 51.32700 40.25700
C  9.23800 52.67800 40.20700
C  10.88000 51.32900 41.55400
C  8.78100 49.24500 38.98600
C  8.81400 49.85100 37.58000
H  7.61600 49.80400 36.64600
N  8.30000 55.60200 40.68500
C  9.64000 55.19800 40.42600
C  10.48600 56.37900 40.30600
C  9.64100 57.50200 40.54600
C  8.23800 56.97100 40.79300
C  12.00700 56.31600 39.96500
C  10.11500 58.96400 40.59200
O  11.31700 59.30200 40.38600
C  9.10300 60.06400 40.84700
N  5.36800 55.91700 41.37200
C  5.73600 57.24500 41.26600
C  4.51500 58.11500 41.41800
C  3.46500 57.12700 42.00000
C  4.09000 55.76600 41.74900
C  4.68900 59.43300 42.22800
C  2.00000 57.18100 41.38100
C  1.89000 56.62300 39.95900
N  5.09100 53.02700 41.24000
C  3.87200 53.24400 41.74100
C  3.16000 52.02000 41.92300
C  4.02300 51.03800 41.47300
C  5.18900 51.70200 41.11300
C  1.78800 51.83300 42.38800
C  4.16500 49.61600 41.26600
O  3.42500 48.65800 41.52300
C  5.63700 49.43000 40.84100
C  5.39100 48.59100 39.69500
O  5.15700 48.96600 38.53900
O  5.50700 47.29500 40.10700
C  5.32200 46.18400 39.05700
H  11.06200 53.61600 40.12400
H  6.87700 58.79400 40.90100
H  2.52000 54.61900 42.55200
H  8.56700 49.66200 41.05800
H  10.52000 51.32500 39.35100
H  11.91900 51.46400 41.25300
H  10.86000 50.27500 41.83100
H  10.53900 51.99700 42.34500
H  8.05800 48.43300 39.06700
H  9.72200 48.73800 39.19400
H  9.65700 49.34800 37.10600
H  9.06600 50.90800 37.66500
H  12.52700 55.37100 40.11900
H  12.54400 56.95400 40.66700
H  12.13700 56.70700 38.95600
H  8.30200 59.97400 40.11200
H  9.45700 61.08400 40.70100
H  8.62400 59.92100 41.81500
H  4.12000 58.40600 40.44500
H  3.43100 57.21900 43.08600
H  5.71400 59.74800 42.42400
H  4.31500 59.32400 43.24600
H  4.17300 60.24300 41.71300
H  1.67000 58.21800 41.43600
H  1.24900 56.68600 41.99800
H  1.57900 55.58000 40.02000
H  2.79200 56.63200 39.34800
H  1.16400 57.27000 39.46500
H  1.20100 51.33800 41.61400
H  1.32800 52.77000 42.70200
H  1.79900 51.19600 43.27200
H  6.07100 48.83200 41.64200
H  6.28700 45.68000 38.99900
H  5.15200 46.62700 38.07500
H  4.52200 45.56500 39.46300

