158

Mg -1.88900 17.54100 25.60800
C  -2.31300 15.30600 28.36500
C  -2.70100 20.10100 27.72200
C  -2.16000 19.52400 22.89300
C  -1.83300 14.78100 23.53200
N  -2.52400 17.61700 27.74200
C  -2.38600 16.63400 28.75100
C  -2.47400 17.25200 30.19700
C  -2.73500 18.77100 29.90200
C  -2.68800 18.82300 28.37000
C  -4.12800 19.24400 30.51300
C  -1.13100 16.94100 31.07400
C  -0.94900 17.70000 32.39800
H  -1.19000 16.89700 33.63900
N  -2.12500 19.50600 25.36300
C  -2.38100 20.42800 26.36300
C  -2.49500 21.74200 25.79200
C  -2.14200 21.57100 24.40800
C  -2.16100 20.15100 24.13400
C  -2.78600 23.03700 26.56500
C  -1.82900 22.67300 23.35000
O  -1.55400 22.37400 22.17100
C  -1.80300 24.05200 23.75100
N  -2.16200 17.18700 23.53000
C  -2.09100 18.17000 22.57500
C  -2.12600 17.60000 21.16100
C  -1.56500 16.13400 21.42900
C  -1.84200 15.99000 22.90600
C  -3.54100 17.61200 20.44100
C  -0.03200 15.93700 21.12400
C  0.93600 16.76500 21.94200
N  -1.93300 15.48500 25.86600
C  -1.93900 14.48800 24.88600
C  -2.03900 13.18100 25.50800
C  -2.11800 13.47000 26.84400
C  -2.08600 14.85900 27.00300
C  -1.92300 11.90700 24.78300
C  -2.28200 12.84300 28.09300
O  -2.22500 11.67900 28.45000
C  -2.34600 14.00000 29.16600
C  -1.28600 13.79800 30.18500
O  -0.08900 13.91400 29.91000
O  -1.75600 13.35400 31.45400
C  -0.79700 13.22800 32.48200
H  -2.75600 20.80100 28.55900
H  -2.30600 20.13200 21.99800
H  -1.60200 13.89600 22.93500
H  -3.24600 16.78000 30.80600
H  -1.94500 19.29000 30.44400
H  -4.76400 19.67800 29.74200
H  -3.94100 19.95600 31.31600
H  -4.70000 18.43700 30.97100
H  -0.22200 16.88600 30.47500
H  -1.29200 15.89700 31.34100
H  -1.63400 18.54800 32.38100
H  0.05300 18.12500 32.46100
H  -1.91500 23.69000 26.59700
H  -2.99100 22.80800 27.61100
H  -3.71100 23.42600 26.13800
H  -2.80200 24.25700 24.13600
H  -1.67500 24.72600 22.90400
H  -1.00700 24.19800 24.48100
H  -1.37000 18.06300 20.52700
H  -2.12500 15.41800 20.82700
H  -3.45600 17.87300 19.38600
H  -4.15100 18.38400 20.91000
H  -4.07400 16.67400 20.59600
H  0.18500 16.08800 20.06600
H  0.29300 14.90800 21.27400
H  0.49600 17.74700 22.11300
H  1.81500 17.06400 21.37000
H  1.18000 16.19100 22.83600
H  -1.14100 12.15700 24.06600
H  -2.82300 11.67200 24.21400
H  -1.62600 11.08200 25.43000
H  -3.34100 13.77900 29.55100
H  -1.05800 14.06600 33.12800
H  0.26500 13.32600 32.25700
H  -0.90000 12.25200 32.95600
Mg 25.86400 0.04400 29.16300
C  27.49800 -0.23100 32.20000
C  22.92300 0.47600 30.95100
C  24.15100 -0.15800 26.25400
C  28.67500 -1.07700 27.56800
N  25.35800 0.30300 31.35800
C  26.19500 0.15400 32.39700
C  25.46800 0.37100 33.77000
C  23.99100 0.63500 33.31000
C  24.10100 0.46600 31.77300
C  22.85000 -0.22100 33.97200
C  26.04100 1.53100 34.60500
C  26.34000 1.25000 36.13800
H  26.00400 2.27900 37.14300
N  23.75500 0.24200 28.64200
C  22.73400 0.27700 29.52200
C  21.50600 0.27200 28.78600
C  21.79500 0.18000 27.40800
C  23.30400 -0.01500 27.39700
C  20.07400 0.27800 29.50200
C  20.95100 0.29000 26.19600
O  21.32200 -0.05600 25.06200
C  19.52800 0.83700 26.41900
N  26.31600 -0.54500 27.15400
C  25.48700 -0.39500 26.09700
C  26.19800 -0.62000 24.74000
C  27.65000 -0.99100 25.18800
C  27.58000 -0.86100 26.73800
C  25.56200 -1.61100 23.71000
C  28.78500 -0.06300 24.54400
C  28.88100 1.42000 25.06500
N  27.75300 -0.34300 29.66600
C  28.83400 -0.86600 28.93500
C  29.91400 -1.21600 29.88100
C  29.41900 -0.96500 31.13500
C  28.11800 -0.46900 30.96100
C  31.26300 -1.74400 29.53200
C  29.78500 -0.91300 32.59300
O  30.85400 -1.07100 33.16500
C  28.50800 -0.54000 33.27700
C  28.17400 -1.66900 34.16900
O  27.55600 -2.61100 33.84400
O  28.79700 -1.54000 35.40900
C  28.61400 -2.69000 36.39200
H  21.97000 0.69700 31.43800
H  23.66300 -0.05800 25.28300
H  29.54800 -1.28700 26.94600
H  25.41000 -0.55000 34.34900
H  23.75800 1.62800 33.69300
H  22.58300 -1.01800 33.27800
H  22.04000 0.47300 34.20000
H  23.19800 -0.67000 34.90200
H  25.38900 2.40400 34.61500
H  26.95300 1.98200 34.21200
H  27.40500 1.11000 36.32600
H  25.78700 0.38400 36.50200
H  19.58800 1.22900 29.28400
H  19.99600 0.13100 30.57900
H  19.67400 -0.55500 28.92400
H  18.94800 1.14900 25.55000
H  19.46800 1.73600 27.03300
H  18.92300 0.08800 26.93000
H  26.18900 0.35300 24.24900
H  27.92700 -1.98700 24.84400
H  26.27500 -2.41200 23.51500
H  25.31000 -1.17900 22.74200
H  24.72400 -2.12900 24.17700
H  28.59700 0.01800 23.47400
H  29.68400 -0.62200 24.80300
H  28.89400 1.98500 24.13300
H  29.85500 1.40100 25.55500
H  28.14500 1.69800 25.81900
H  31.40100 -2.14800 28.52900
H  31.40200 -2.60700 30.18400
H  32.08400 -1.12900 29.90100
H  28.90200 0.30300 33.84500
H  29.39000 -2.67700 37.15700
H  28.63800 -3.65800 35.89300
H  27.65100 -2.56800 36.88700

