158

Mg -2.41700 17.03200 25.43900
C  -2.65100 14.67900 28.15400
C  -3.06400 19.53600 27.67400
C  -2.47400 19.15200 22.85300
C  -2.17000 14.30300 23.24000
N  -2.76300 17.03100 27.71300
C  -2.72400 16.00900 28.58100
C  -3.08100 16.50500 29.99400
C  -3.21600 18.08400 29.79200
C  -2.94700 18.25600 28.28800
C  -4.64500 18.68400 30.23500
C  -2.00900 16.08300 31.02400
C  -1.98200 16.78500 32.38700
H  -1.36200 16.10700 33.61400
N  -2.54200 19.10700 25.31300
C  -2.73800 19.95500 26.36300
C  -2.70800 21.27900 25.81200
C  -2.42900 21.19600 24.47400
C  -2.41600 19.82100 24.14000
C  -3.07700 22.41700 26.71900
C  -2.29200 22.37300 23.57400
O  -2.38500 22.24700 22.37600
C  -1.94100 23.79700 24.16800
N  -2.68600 16.79200 23.37800
C  -2.58600 17.83700 22.49500
C  -2.53300 17.35500 21.03600
C  -2.09600 15.84400 21.18600
C  -2.34000 15.60800 22.70700
C  -3.75000 17.66200 20.20100
C  -0.63900 15.46700 20.75900
C  0.44300 15.66000 21.89100
N  -2.39500 14.92100 25.55200
C  -2.27000 13.91600 24.56700
C  -2.37400 12.62400 25.11100
C  -2.48800 12.86200 26.54100
C  -2.49700 14.28700 26.72700
C  -2.37800 11.30200 24.44000
C  -2.56000 12.26600 27.86000
O  -2.50300 11.08100 28.10500
C  -2.63900 13.36000 28.93900
C  -1.40400 13.21700 29.79500
O  -0.27900 13.64500 29.62000
O  -1.81100 12.61400 30.97000
C  -0.80300 12.53600 32.03900
H  -3.35600 20.37800 28.30500
H  -2.47400 19.80300 21.97700
H  -2.15700 13.46000 22.54600
H  -4.03800 16.04700 30.24700
H  -2.40700 18.59100 30.31700
H  -5.29200 19.01100 29.42000
H  -4.30400 19.58600 30.74300
H  -5.19500 18.05300 30.93300
H  -1.00500 16.17400 30.60900
H  -2.31000 15.05700 31.23400
H  -3.02400 17.06900 32.53300
H  -1.33500 17.65200 32.25000
H  -2.17900 22.82300 27.18600
H  -3.79400 22.06000 27.45900
H  -3.57200 23.23200 26.19200
H  -1.45800 24.34400 23.35800
H  -1.20200 23.61600 24.94800
H  -2.77300 24.30100 24.66100
H  -1.74400 17.91800 20.53700
H  -2.73100 15.19700 20.58000
H  -4.48900 18.18500 20.80800
H  -4.22200 16.79400 19.74000
H  -3.44800 18.31900 19.38600
H  -0.37300 16.20500 20.00300
H  -0.55100 14.42300 20.45800
H  -0.03500 16.29300 22.63900
H  1.31700 16.18300 21.50400
H  0.78700 14.70500 22.29000
H  -2.10200 11.45800 23.39700
H  -3.40900 10.95400 24.49200
H  -1.72900 10.57700 24.93100
H  -3.61700 13.27600 29.41400
H  0.01100 13.24200 31.87300
H  -0.42400 11.51500 32.00700
H  -1.25000 12.77300 33.00400
Mg -11.38800 16.85600 42.12200
C  -7.96800 16.98000 42.65500
C  -11.30600 20.33000 41.69600
C  -14.50200 16.68500 40.88700
C  -11.07400 13.40400 41.75900
N  -9.81500 18.45600 42.18100
C  -8.52700 18.22000 42.36100
C  -7.73500 19.51400 42.22900
C  -8.89900 20.57000 42.39800
C  -10.07800 19.72600 42.05100
C  -8.92800 21.15200 43.76100
C  -7.03300 19.72600 40.83700
C  -5.50900 19.93000 40.93400
H  -4.90300 20.74400 39.78900
N  -12.79600 18.33100 41.38900
C  -12.56100 19.69700 41.32200
C  -13.87700 20.40200 41.07500
C  -14.76200 19.35400 40.65400
C  -14.06200 18.01100 40.99600
C  -13.97500 21.88900 41.09600
C  -16.09600 19.48300 39.91100
O  -16.28100 20.63800 39.43600
C  -17.14000 18.46500 39.68200
N  -12.62700 15.32800 41.53000
C  -13.91700 15.45000 41.12100
C  -14.57100 14.07700 40.88900
C  -13.39200 13.06600 40.98500
C  -12.26500 13.98200 41.47800
C  -15.89200 13.80900 41.73800
C  -13.14600 12.30800 39.62600
C  -14.03100 11.03900 39.41200
N  -9.88800 15.41800 42.40000
C  -9.95800 14.05300 42.20200
C  -8.66700 13.51900 42.42200
C  -7.79400 14.56600 42.65400
C  -8.60700 15.70600 42.60700
C  -8.28300 12.07300 42.21600
C  -6.41900 15.01400 42.82400
O  -5.34800 14.36200 42.93600
C  -6.47500 16.59100 42.85300
C  -6.03900 17.03200 44.23700
O  -6.50000 16.59000 45.29900
O  -5.25400 18.12900 44.17500
C  -4.65600 18.76500 45.32900
H  -11.28300 21.42100 41.74100
H  -15.53500 16.48800 40.59300
H  -11.01200 12.33100 41.56800
H  -7.25000 19.56700 43.20300
H  -8.81300 21.36800 41.66100
H  -9.85900 20.86400 44.25000
H  -8.92700 22.24000 43.69500
H  -8.04000 21.04200 44.38300
H  -7.51800 20.42900 40.16000
H  -7.14500 18.73900 40.38800
H  -5.00300 18.96600 40.86700
H  -5.29800 20.44400 41.87200
H  -15.03600 22.11200 41.21400
H  -13.58300 22.29600 40.16400
H  -13.46700 22.29500 41.97100
H  -16.89100 17.71100 38.93500
H  -18.16400 18.83400 39.62700
H  -17.30700 17.83700 40.55700
H  -14.90900 14.07100 39.85300
H  -13.59700 12.48600 41.88500
H  -15.83800 12.86300 42.27600
H  -16.78600 13.83200 41.11500
H  -16.04400 14.53800 42.53400
H  -12.10500 11.98700 39.58200
H  -13.21900 12.96900 38.76200
H  -14.24600 10.50000 40.33500
H  -13.36900 10.31000 38.94500
H  -14.81800 11.11500 38.66200
H  -8.22300 11.77500 41.16900
H  -9.12400 11.56400 42.68800
H  -7.32100 11.82400 42.66300
H  -5.75700 16.89100 42.09000
H  -5.21900 18.56600 46.24000
H  -4.62300 19.85100 45.25000
H  -3.63400 18.39700 45.42400

