158

Mg 40.39600 9.88000 29.80300
C  42.67300 10.75700 32.34600
C  38.26700 8.67200 32.21400
C  38.46700 8.84100 27.43700
C  42.70900 10.95200 27.36300
N  40.55300 9.63200 32.02200
C  41.48800 10.17000 32.86100
C  41.13800 10.01400 34.37000
C  39.71600 9.25800 34.31000
C  39.46000 9.21700 32.81000
C  39.69800 7.90400 35.03600
C  41.02200 11.37900 35.14000
C  40.19600 11.40800 36.47500
H  40.71700 12.17500 37.63600
N  38.55500 8.89200 29.83600
C  37.84700 8.41700 30.90100
C  36.61200 7.80600 30.41900
C  36.62500 7.95200 29.00700
C  37.92500 8.55700 28.64500
C  35.65000 7.12000 31.40800
C  35.57500 7.58100 28.07400
O  35.69300 7.82900 26.90200
C  34.26500 7.08300 28.59100
N  40.67000 9.71100 27.72100
C  39.73000 9.20300 26.99200
C  39.88600 9.37600 25.53600
C  41.21400 10.09600 25.42000
C  41.59300 10.26200 26.93700
C  39.82600 7.96300 24.82300
C  41.15600 11.50100 24.60300
C  40.79400 12.79500 25.24800
N  42.32300 10.54000 29.82500
C  43.07800 11.05900 28.73600
C  44.28700 11.70700 29.26200
C  44.14400 11.56600 30.70700
C  42.99900 10.87700 30.97600
C  45.30500 12.45500 28.47000
C  44.78400 11.96400 31.98600
O  45.78800 12.63400 32.20400
C  43.73500 11.45200 33.13400
C  44.46800 10.53800 34.06700
O  45.26100 9.64900 33.70500
O  43.99700 10.80100 35.34600
C  44.37700 9.84100 36.38500
H  37.60100 8.32400 33.00600
H  37.84900 8.56600 26.57900
H  43.44200 11.42300 26.70400
H  41.96200 9.44400 34.80000
H  38.87300 9.89000 34.59000
H  39.39500 7.05300 34.42600
H  38.83000 7.79100 35.68500
H  40.61000 7.60500 35.55200
H  40.43900 12.02200 34.48100
H  42.00600 11.81200 35.31800
H  40.16200 10.38300 36.84400
H  39.16300 11.68400 36.26200
H  34.67100 7.59900 31.43300
H  36.13100 7.01400 32.38100
H  35.42000 6.12900 31.01500
H  34.49700 6.11100 29.02600
H  33.61500 6.86200 27.74500
H  33.77900 7.64300 29.39100
H  39.24300 10.17100 25.15800
H  42.02300 9.53500 24.95300
H  39.84100 7.25700 25.65400
H  40.69000 7.94900 24.15900
H  38.88500 7.78300 24.30400
H  40.50900 11.38800 23.73300
H  42.14800 11.56700 24.15800
H  41.59100 13.47800 24.95600
H  40.74900 12.63600 26.32600
H  39.81000 13.13500 24.92500
H  44.90100 12.88800 27.55500
H  46.06600 11.72600 28.19300
H  45.70200 13.22600 29.13000
H  43.52400 12.35900 33.69900
H  45.37000 10.03700 36.79100
H  44.28700 8.82100 36.01100
H  43.63100 10.03400 37.15500
Mg 47.76400 25.39600 28.45300
C  48.96300 27.42000 31.17500
C  46.54300 23.18500 30.94100
C  46.88500 23.20300 26.10700
C  49.62300 27.27700 26.36800
N  47.71200 25.38900 30.81600
C  48.24400 26.34600 31.67200
C  47.94300 25.98900 33.12600
C  47.14400 24.66900 33.02800
C  47.09900 24.39600 31.51000
C  47.65400 23.50300 33.90100
C  47.34700 27.24100 33.88900
C  47.82900 27.46600 35.41200
H  46.74800 27.58200 36.48200
N  46.74600 23.47900 28.53700
C  46.39100 22.75200 29.62600
C  45.52700 21.57700 29.16300
C  45.53200 21.58900 27.73100
C  46.39100 22.82300 27.41400
C  44.80600 20.60100 30.08800
C  44.89100 20.72700 26.70400
O  45.09600 20.86800 25.53200
C  44.02700 19.48900 27.02700
N  48.12800 25.28700 26.45100
C  47.58600 24.30900 25.65900
C  48.15400 24.43500 24.24600
C  49.06600 25.64800 24.40000
C  48.85000 26.21700 25.79200
C  48.91800 23.15700 23.91600
C  48.89100 26.69200 23.25400
C  48.79200 26.09000 21.84800
N  48.91900 27.07800 28.62700
C  49.69100 27.69900 27.69800
C  50.38100 28.81000 28.33100
C  50.16100 28.69400 29.65400
C  49.18400 27.70900 29.81800
C  51.47600 29.70200 27.60000
C  50.55000 29.23500 30.93100
O  51.40900 30.04500 31.25700
C  49.67000 28.49500 32.01100
C  50.55500 27.86900 33.09900
O  51.06600 26.71200 33.12000
O  50.85900 28.84800 33.98300
C  51.90900 28.54700 34.96200
H  46.23000 22.45400 31.68900
H  46.56900 22.53400 25.30400
H  50.22500 27.83800 25.65000
H  48.91900 25.77100 33.55900
H  46.12300 24.93600 33.30300
H  46.78600 23.16400 34.46600
H  48.48300 23.77000 34.55500
H  47.88300 22.55100 33.42200
H  46.28000 27.01700 33.91000
H  47.31700 28.19600 33.36500
H  48.34700 28.40600 35.60400
H  48.53400 26.65000 35.57000
H  44.82200 20.89200 31.13800
H  45.31700 19.65300 29.92000
H  43.79900 20.41500 29.71600
H  43.17000 19.95100 27.51700
H  44.49700 18.84500 27.77000
H  43.71100 18.91100 26.15900
H  47.33500 24.60900 23.54800
H  50.08300 25.26000 24.46800
H  49.15000 22.72900 24.89100
H  49.78400 23.47400 23.33500
H  48.36500 22.45600 23.29100
H  49.70300 27.39500 23.43800
H  47.97400 27.24100 23.46600
H  49.67100 26.39100 21.27700
H  47.94500 26.54800 21.33800
H  48.76200 25.00300 21.91700
H  52.21200 28.99800 27.21300
H  51.86300 30.44300 28.29900
H  50.97100 30.26200 26.81300
H  48.98500 29.23900 32.41700
H  52.83100 28.25500 34.45900
H  51.63500 27.93900 35.82400
H  52.27400 29.43100 35.48500

