158

Mg -0.09100 8.13200 26.89000
C  0.50800 10.01900 29.62500
C  -0.20800 5.30400 28.87500
C  -0.34600 6.27500 24.04200
C  0.23900 10.98200 24.85100
N  0.12900 7.73700 28.96300
C  0.31500 8.69300 29.90800
C  0.23800 8.03500 31.37800
C  0.29300 6.47400 31.09100
C  0.09200 6.49700 29.53000
C  1.65500 5.67600 31.41300
C  -1.11300 8.41500 32.05600
C  -1.19400 8.37600 33.60100
H  0.02600 7.92000 34.43900
N  -0.40900 6.13800 26.47400
C  -0.33500 5.13300 27.46600
C  -0.56300 3.84000 26.80900
C  -0.64300 4.06000 25.38700
C  -0.43700 5.53700 25.21000
C  -0.66400 2.49100 27.51700
C  -0.90400 3.07200 24.21600
O  -0.92200 3.44000 23.08900
C  -1.28500 1.66400 24.57400
N  -0.10800 8.58600 24.84900
C  -0.25400 7.64500 23.84100
C  -0.17600 8.32500 22.39400
C  -0.34000 9.80700 22.72100
C  0.00900 9.79500 24.19700
C  1.18200 8.11800 21.64600
C  -1.64400 10.48700 22.32500
C  -2.99900 9.80900 22.47200
N  0.40600 10.11700 27.17300
C  0.48700 11.17000 26.25200
C  0.86500 12.32700 26.99100
C  0.98000 11.91500 28.29900
C  0.58800 10.60200 28.35100
C  1.17900 13.66900 26.36900
C  1.27500 12.32900 29.65400
O  1.65900 13.46200 30.06000
C  0.84900 11.15200 30.55300
C  2.11900 10.85000 31.37700
O  3.14400 10.33100 30.98800
O  1.90200 11.13200 32.68600
C  2.90900 10.63000 33.63200
H  -0.27100 4.40500 29.49200
H  -0.24200 5.66200 23.14400
H  0.24200 11.85700 24.19700
H  1.14400 8.32000 31.91400
H  -0.45700 5.82900 31.54900
H  1.53200 4.72600 31.93300
H  2.25500 6.35500 32.01900
H  2.20500 5.46600 30.49600
H  -1.92000 7.78300 31.68500
H  -1.44100 9.42700 31.81500
H  -2.10200 7.84100 33.87600
H  -1.35600 9.41300 33.89500
H  -1.65400 2.06700 27.68300
H  -0.16200 2.62700 28.47600
H  -0.05300 1.74000 27.01600
H  -0.40000 1.07300 24.80800
H  -1.62500 1.25000 23.62400
H  -2.01800 1.74200 25.37600
H  -0.95400 8.03000 21.69000
H  0.43600 10.35300 22.18400
H  1.09100 7.33900 20.88900
H  1.97600 7.78000 22.31200
H  1.44400 8.92600 20.96400
H  -1.44800 10.70400 21.27500
H  -1.72600 11.39900 22.91600
H  -3.31600 9.53100 21.46700
H  -3.71000 10.49100 22.94000
H  -2.88600 8.95000 23.13300
H  1.20700 14.48400 27.09200
H  0.58900 14.01300 25.51900
H  2.16700 13.40800 25.98900
H  0.03400 11.47000 31.20300
H  2.73700 11.06900 34.61500
H  3.95100 10.78800 33.35300
H  2.67900 9.57300 33.76600
Mg 26.88800 49.91300 26.23900
C  24.91200 51.10900 28.82900
C  28.99500 48.52600 28.56900
C  28.89500 48.85200 23.64900
C  24.83900 51.57700 23.93000
N  26.93800 49.96800 28.44800
C  25.95200 50.37600 29.31900
C  26.30200 50.03700 30.75100
C  27.76000 49.42000 30.63500
C  27.89400 49.22500 29.08800
C  28.93500 50.27400 31.24100
C  25.18000 49.23000 31.44100
C  24.35200 49.73200 32.59600
H  24.41300 48.94000 33.88000
N  28.68500 48.88800 26.15400
C  29.36300 48.32500 27.25400
C  30.59400 47.70300 26.76800
C  30.47400 47.71600 25.35400
C  29.30300 48.54100 24.97800
C  31.63100 47.22300 27.67700
C  31.50600 47.17200 24.33300
O  31.37900 47.25500 23.11100
C  32.66500 46.49100 24.82800
N  26.81500 50.13800 24.08000
C  27.75800 49.62400 23.26400
C  27.38800 49.89300 21.75300
C  26.07300 50.69700 21.90000
C  25.87400 50.84700 23.39200
C  28.54800 50.55400 20.97700
C  24.85300 49.96500 21.26600
C  23.75100 50.86100 20.68400
N  25.26600 51.18100 26.23700
C  24.56300 51.84400 25.28400
C  23.46800 52.52100 25.88800
C  23.53400 52.22200 27.24700
C  24.66600 51.47200 27.43600
C  22.47300 53.35300 25.06500
C  22.93900 52.50500 28.54400
O  21.89200 53.11200 28.88600
C  23.75300 51.76900 29.63800
C  24.06300 52.65200 30.78300
O  25.12500 53.26100 31.02100
O  22.94400 52.75900 31.60000
C  23.27500 53.35600 32.93300
H  29.76100 48.28600 29.31000
H  29.49300 48.61600 22.76700
H  24.20400 52.10300 23.21300
H  26.42500 51.00000 31.24800
H  27.68900 48.43900 31.10300
H  28.45800 51.21400 31.51900
H  29.65300 50.33000 30.42300
H  29.43400 49.90700 32.13700
H  25.58500 48.32100 31.88600
H  24.42600 48.91700 30.71900
H  23.30100 49.80700 32.31700
H  24.68000 50.74300 32.83600
H  32.62500 47.51500 27.33900
H  31.58000 46.13500 27.61700
H  31.53900 47.41400 28.74600
H  33.18700 46.07000 23.96900
H  32.32000 45.72500 25.52300
H  33.37200 47.19300 25.26900
H  27.18100 48.88700 21.38800
H  26.11300 51.71300 21.50800
H  29.28100 50.64500 21.77900
H  28.27100 51.50400 20.52100
H  28.82900 49.91400 20.14100
H  24.40300 49.43200 22.10400
H  25.19900 49.21700 20.55300
H  22.99200 51.09400 21.43000
H  23.18200 50.43700 19.85700
H  24.27500 51.74600 20.32100
H  21.43100 53.37900 25.38400
H  22.44800 53.00500 24.03200
H  22.79600 54.39200 24.99300
H  23.15200 51.04600 30.18900
H  23.51000 52.67500 33.75200
H  22.33300 53.78600 33.27300
H  23.85200 54.26400 33.10900

