158

Mg 7.60100 2.88000 27.27900
C  9.09600 1.61000 30.33500
C  5.61400 4.94300 29.21200
C  6.46100 4.20400 24.45000
C  9.47200 0.50400 25.47000
N  7.36600 3.16400 29.50700
C  8.10300 2.61700 30.52600
C  7.69100 3.23400 31.84800
C  6.53600 4.18600 31.47400
C  6.40900 4.09400 29.94200
C  5.24000 3.81200 32.22400
C  8.78300 4.01600 32.60700
C  8.41200 4.43900 33.97900
H  9.28200 4.06800 35.21500
N  6.26600 4.47300 26.87400
C  5.55800 5.23400 27.78800
C  4.87300 6.27600 27.07700
C  5.08000 6.07900 25.71100
C  5.93100 4.87400 25.65600
C  4.06900 7.28700 27.73800
C  4.50500 6.81900 24.50700
O  4.59900 6.46300 23.34000
C  3.61800 7.95200 24.70200
N  7.79300 2.30500 25.30600
C  7.28200 3.06700 24.32400
C  7.74900 2.65500 22.93900
C  8.78400 1.53300 23.24700
C  8.71900 1.43000 24.81100
C  6.60500 2.21000 22.09100
C  10.22700 1.88700 22.65900
C  11.10000 2.89600 23.35100
N  8.90000 1.26400 27.81000
C  9.64900 0.41400 26.91100
C  10.47900 -0.49400 27.74900
C  10.31700 0.00500 29.06300
C  9.31000 1.03600 29.08200
C  11.54000 -1.53100 27.32600
C  10.69300 -0.27600 30.41200
O  11.38200 -1.19300 30.84300
C  10.02100 0.82900 31.31400
C  9.15200 0.16300 32.35300
O  8.12900 -0.45700 32.15400
O  9.74200 0.42900 33.56700
C  8.91400 0.13900 34.77400
H  5.12500 5.63500 29.90100
H  6.18000 4.54900 23.45300
H  10.14700 -0.11300 24.87200
H  7.54500 2.34600 32.46300
H  6.70700 5.21700 31.78200
H  5.41500 2.92300 32.83100
H  4.53900 3.50600 31.44800
H  4.81100 4.63600 32.79400
H  8.89600 4.96600 32.08500
H  9.74500 3.50400 32.65000
H  7.56400 3.82000 34.27100
H  8.03500 5.46100 34.03700
H  4.04400 7.06200 28.80400
H  3.08400 7.07100 27.32400
H  4.36600 8.27900 27.39700
H  3.92800 8.73700 25.39200
H  2.63900 7.55200 24.96500
H  3.45100 8.53600 23.79800
H  8.25400 3.50100 22.47200
H  8.52700 0.52200 22.93300
H  6.39300 2.94500 21.31400
H  5.67300 2.18800 22.65500
H  6.72500 1.27700 21.53900
H  10.04800 2.25300 21.64800
H  10.76200 0.93700 22.64000
H  10.99700 2.81900 24.43400
H  10.77800 3.87000 22.98100
H  12.15400 2.79100 23.09700
H  12.39800 -1.22700 27.92600
H  11.63900 -1.65000 26.24700
H  11.21000 -2.53500 27.59100
H  10.69300 1.60700 31.67700
H  8.06900 0.82700 34.77900
H  9.53600 0.06700 35.66700
H  8.52300 -0.87800 34.80300
Mg 35.08900 2.60800 29.45200
C  32.97300 3.53800 31.93700
C  37.67200 2.30700 31.72400
C  37.15700 1.61300 26.91600
C  32.50100 3.24800 27.15300
N  35.31300 2.95900 31.56500
C  34.25300 3.26500 32.43300
C  34.74200 3.41700 33.91600
C  36.35300 3.24400 33.74100
C  36.50700 2.84300 32.24900
C  37.31300 4.43800 34.19300
C  33.96900 2.34500 34.82600
C  33.49700 2.79000 36.26000
H  34.35900 3.78000 36.96800
N  37.11000 1.94300 29.35000
C  37.93800 1.80500 30.45200
C  39.12700 1.08900 30.00300
C  39.07000 0.98300 28.56700
C  37.73600 1.51400 28.19700
C  40.16100 0.79100 31.04400
C  40.15400 0.45500 27.67300
O  40.21100 0.66900 26.50200
C  41.34000 -0.23300 28.26200
N  34.76600 2.34200 27.39200
C  35.81500 2.00000 26.55700
C  35.38800 2.14400 25.09800
C  33.78600 2.39300 25.21000
C  33.68800 2.72400 26.68000
C  36.08200 3.42000 24.38600
C  32.90300 1.27400 24.68800
C  32.26400 0.23800 25.69000
N  33.14000 3.32200 29.45600
C  32.21600 3.58000 28.48700
C  30.96700 3.95000 29.10200
C  31.21000 4.05000 30.44400
C  32.55500 3.61700 30.61700
C  29.73200 4.05600 28.30100
C  30.58300 4.25000 31.67200
O  29.43000 4.56000 31.98600
C  31.71100 3.99200 32.74200
C  31.79800 5.22100 33.56900
O  32.50800 6.17000 33.33200
O  30.94500 5.12800 34.64700
C  30.93400 6.25500 35.52600
H  38.41500 2.14000 32.50600
H  37.81800 1.32600 26.09500
H  31.70900 3.43600 26.42500
H  34.45300 4.44100 34.15300
H  36.67800 2.41900 34.37500
H  38.03600 4.67600 33.41300
H  37.89500 4.12400 35.05900
H  36.70400 5.29900 34.47100
H  34.47900 1.39300 34.97300
H  33.09800 1.97600 34.28300
H  33.50400 1.88000 36.85900
H  32.45400 3.10600 36.23900
H  39.75200 0.71100 32.05200
H  41.01200 1.47000 30.98900
H  40.58400 -0.20500 30.91600
H  42.04800 -0.54200 27.49300
H  41.04800 -1.12500 28.81600
H  41.97000 0.34500 28.93800
H  35.58500 1.21300 24.56600
H  33.51500 3.29600 24.66400
H  35.37000 4.11000 23.93400
H  36.73500 2.96700 23.63900
H  36.66300 3.96300 25.13200
H  33.50000 0.67300 24.00200
H  32.03900 1.69300 24.17300
H  31.19200 0.04300 25.65000
H  32.47800 0.55300 26.71200
H  32.67600 -0.74600 25.46700
H  29.78800 3.31300 27.50500
H  29.66800 5.01300 27.78400
H  28.80800 3.91500 28.86100
H  31.33900 3.18400 33.37100
H  30.60800 7.19800 35.08700
H  31.92800 6.51000 35.89300
H  30.30300 6.08500 36.39800

