158

Mg 47.97400 16.64400 28.80300
C  45.90500 16.17600 31.65100
C  50.02600 18.63600 30.83800
C  49.81300 17.32000 26.07400
C  45.66600 14.97900 26.86400
N  47.94400 17.34300 30.99000
C  47.09200 16.84900 31.97100
C  47.48300 17.39700 33.38900
C  48.74800 18.27600 32.99600
C  48.93700 18.14000 31.49600
C  48.71700 19.77800 33.34500
C  47.79400 16.28800 34.46400
C  47.24900 16.40900 35.86800
H  47.10400 17.86500 36.41100
N  49.63800 17.90800 28.45500
C  50.38800 18.57900 29.45300
C  51.59700 19.08500 28.87000
C  51.61400 18.69400 27.50200
C  50.33300 17.90400 27.30100
C  52.62100 19.88200 29.64000
C  52.65300 18.97400 26.48600
O  52.50200 18.65700 25.31100
C  53.94300 19.69100 26.81400
N  47.72500 16.24400 26.67800
C  48.64800 16.62600 25.78300
C  48.28700 16.10600 24.39700
C  47.13600 15.00500 24.68400
C  46.76500 15.44500 26.15000
C  47.99600 17.15600 23.23200
C  47.56400 13.54800 24.63800
C  46.47700 12.65800 24.04000
N  46.18700 15.71300 29.15500
C  45.37000 15.03600 28.23300
C  44.17900 14.56900 28.91700
C  44.33500 14.98000 30.22800
C  45.60700 15.61200 30.32800
C  43.10700 13.82000 28.32000
C  43.71500 14.95300 31.56700
O  42.69800 14.44700 31.97800
C  44.79800 15.65700 32.54700
C  44.05200 16.62300 33.36000
O  43.74300 17.75700 33.02800
O  43.94300 16.11500 34.57800
C  43.01300 16.96300 35.44700
H  50.74300 19.19800 31.44000
H  50.47200 17.50700 25.22300
H  44.95100 14.37700 26.29800
H  46.54000 17.89400 33.61400
H  49.62900 17.85300 33.47800
H  47.88600 19.90100 34.04000
H  48.46500 20.39000 32.47900
H  49.65400 20.08000 33.81400
H  48.86900 16.26700 34.64700
H  47.37200 15.40800 33.98000
H  47.91200 15.84500 36.52500
H  46.25100 15.97200 35.89600
H  52.92200 20.67500 28.95600
H  53.47600 19.23800 29.85000
H  52.13000 20.42200 30.45000
H  53.73900 20.76100 26.78900
H  54.60000 19.61500 25.94800
H  54.50100 19.39900 27.70400
H  49.13300 15.44500 24.20700
H  46.19000 15.26900 24.21300
H  46.98100 17.02500 22.85700
H  48.72000 17.07500 22.42000
H  48.09100 18.14300 23.68600
H  47.75600 13.19500 25.65100
H  48.44600 13.38800 24.01800
H  46.91900 11.69300 23.79200
H  46.04400 13.05600 23.12200
H  45.68800 12.51900 24.77900
H  42.31800 13.63700 29.04900
H  43.46000 12.89700 27.85900
H  42.49900 14.31800 27.56600
H  45.06500 14.75700 33.10100
H  42.04200 17.14900 34.98800
H  43.41200 17.96200 35.62600
H  42.89900 16.48500 36.42000
Mg 31.03600 58.33200 39.75400
C  28.31400 56.49800 38.71800
C  33.07800 55.53100 39.08700
C  33.67700 60.25400 40.13400
C  28.95700 61.23000 39.92800
N  30.70400 56.25600 38.82800
C  29.50200 55.74800 38.61500
C  29.68900 54.20400 38.29000
C  31.15500 53.90400 38.46700
C  31.69300 55.30400 38.81900
C  31.53500 52.87200 39.47100
C  29.25500 53.75600 36.92200
C  29.78300 54.51800 35.69800
H  28.67100 55.17700 34.79900
N  33.18200 57.95800 39.46900
C  33.78800 56.77300 39.19300
C  35.23000 56.96900 39.27100
C  35.41000 58.29400 39.70700
C  34.09200 58.91800 39.76700
C  36.28300 55.89900 38.96200
C  36.66800 58.93100 39.97900
O  37.66800 58.22400 40.00500
C  36.87000 60.49000 40.25700
N  31.30700 60.46900 39.87100
C  32.46200 60.95600 40.21500
C  32.47600 62.48400 40.52900
C  30.96400 62.72500 40.70300
C  30.33200 61.51600 40.04700
C  33.41900 63.08700 41.60800
C  30.42300 64.07800 40.01200
C  29.61600 64.96600 41.00100
N  29.02200 58.87200 39.43800
C  28.32200 60.02000 39.59300
C  26.92500 59.76200 39.38700
C  26.83200 58.38100 39.01900
C  28.10100 57.87300 39.08600
C  25.78400 60.80900 39.44300
C  25.94200 57.30100 38.66100
O  24.72400 57.36900 38.45100
C  26.82700 56.03300 38.56700
C  26.32600 55.03100 39.54400
O  26.76600 54.81100 40.67100
O  25.42400 54.18400 38.93000
C  25.11100 52.96200 39.67500
H  33.68300 54.63600 38.92600
H  34.45600 60.94400 40.46300
H  28.22800 61.98400 40.23100
H  29.17700 53.58200 39.02500
H  31.62700 53.51900 37.56300
H  31.64700 51.88600 39.02000
H  30.88900 52.76300 40.34200
H  32.47400 53.13500 39.95700
H  28.17100 53.70200 36.81900
H  29.60900 52.73200 36.80800
H  30.35300 53.87300 35.02900
H  30.35500 55.39400 36.00300
H  36.59900 56.08400 37.93500
H  35.82700 54.90900 38.95600
H  37.03600 55.88600 39.74900
H  36.62700 60.73600 41.29000
H  36.35200 61.13100 39.54400
H  37.93000 60.74000 40.21600
H  32.71200 62.84300 39.52700
H  30.72200 62.64500 41.76300
H  32.80500 63.55400 42.37800
H  34.18100 63.69800 41.12400
H  34.04000 62.38200 42.16100
H  29.82400 63.88200 39.12200
H  31.20900 64.71200 39.60100
H  28.60600 64.91500 40.59500
H  29.98500 65.99100 40.95900
H  29.77300 64.57000 42.00400
H  25.69900 61.25200 38.45100
H  25.83900 61.59500 40.19600
H  24.90600 60.17700 39.58000
H  26.75700 55.50800 37.61500
H  24.68100 52.21200 39.01100
H  24.27800 53.15400 40.35200
H  25.86600 52.37200 40.19400

