158

Mg 10.20300 47.67000 25.38600
C  7.84600 47.81300 28.12200
C  12.65400 48.79500 27.53400
C  12.29500 47.76400 22.77100
C  7.45200 47.08400 23.23500
N  10.20400 48.25700 27.67600
C  9.14000 48.20900 28.57500
C  9.65100 48.65400 29.96800
C  11.08600 49.23700 29.66000
C  11.40100 48.73100 28.20100
C  11.00900 50.82400 29.70900
C  9.67800 47.51500 30.96900
C  9.42800 47.95100 32.45900
H  9.49100 46.80900 33.50000
N  12.26500 48.04600 25.19300
C  13.14500 48.49000 26.20400
C  14.40000 48.69000 25.66500
C  14.34300 48.25400 24.27000
C  12.92800 47.97800 24.04000
C  15.54700 49.25400 26.50900
C  15.40500 48.21800 23.23700
O  15.28100 47.89600 22.06500
C  16.85300 48.55800 23.62900
N  9.93900 47.42800 23.32100
C  10.98000 47.47100 22.45300
C  10.53000 47.06100 21.09100
C  9.01100 46.62000 21.25900
C  8.76100 47.12600 22.68200
C  10.66700 48.14800 19.97200
C  8.66900 45.06700 20.99400
C  8.96600 44.17900 22.20500
N  8.07200 47.51800 25.55000
C  7.13400 47.25000 24.61000
C  5.82600 47.22100 25.22000
C  6.07000 47.40700 26.60700
C  7.46000 47.55200 26.77700
C  4.46700 47.00100 24.60600
C  5.39800 47.52900 27.89300
O  4.19100 47.53000 28.18100
C  6.51100 47.89300 28.90100
C  6.27100 46.99900 30.13800
O  6.54600 45.81000 30.30000
O  5.51500 47.77500 30.97600
C  5.18100 47.12500 32.23000
H  13.38700 49.22700 28.21900
H  12.95000 47.75300 21.89700
H  6.70400 46.75900 22.50900
H  8.99800 49.45600 30.31200
H  11.79100 48.84200 30.39100
H  10.29400 51.24600 30.41500
H  10.71600 51.30700 28.77700
H  11.99600 51.17700 30.01000
H  10.61000 46.95400 30.89100
H  8.84800 46.91800 30.59300
H  8.42700 48.37500 32.54700
H  10.10900 48.75600 32.73500
H  15.97400 50.07800 25.93600
H  16.44600 48.63900 26.52900
H  15.31300 49.66900 27.49000
H  17.47100 48.18800 22.81100
H  17.04600 47.87700 24.45700
H  16.90400 49.60900 23.91400
H  11.14700 46.18900 20.87500
H  8.35100 47.12400 20.55300
H  10.01800 48.98900 20.21700
H  10.64000 47.74100 18.96200
H  11.65600 48.60400 20.01800
H  9.39500 44.78800 20.23000
H  7.64400 44.90700 20.66000
H  9.01700 44.59700 23.21000
H  9.91100 43.65200 22.07600
H  8.36500 43.27000 22.20800
H  4.45600 46.01000 24.15400
H  4.22000 47.88800 24.02200
H  3.80500 46.90800 25.46600
H  6.37700 48.91100 29.26700
H  4.72800 47.84400 32.91200
H  6.04100 46.74100 32.77900
H  4.48600 46.29500 32.10100
Mg -1.14000 34.52400 26.36900
C  -3.23300 33.33900 28.74100
C  -0.12200 37.03600 28.68400
C  0.58500 35.93200 23.94700
C  -2.91100 32.62700 23.86000
N  -1.76000 35.12800 28.36300
C  -2.46200 34.38200 29.24500
C  -2.22300 34.66900 30.69600
C  -1.51700 36.11700 30.64300
C  -1.08100 36.10900 29.16600
C  -2.30700 37.37900 31.05400
C  -1.28800 33.55200 31.41600
C  -1.95500 32.84500 32.55600
H  -1.30400 32.94100 33.87100
N  0.20400 36.18200 26.32500
C  0.47600 37.12000 27.36200
C  1.41700 38.03400 26.83800
C  1.71600 37.62300 25.47900
C  0.82600 36.50300 25.16500
C  1.94000 39.07100 27.71300
C  2.76800 38.12600 24.50200
O  3.03500 37.56100 23.41900
C  3.52800 39.36800 24.87500
N  -1.05400 34.19800 24.16900
C  -0.11400 34.83200 23.44100
C  -0.05800 34.28900 22.00000
C  -1.04400 33.12300 22.06300
C  -1.70900 33.29800 23.39800
C  -0.46200 35.34900 20.89000
C  -0.43600 31.76900 21.74000
C  0.25900 31.07200 22.85500
N  -2.70800 33.18500 26.23000
C  -3.31500 32.41200 25.24900
C  -4.27900 31.50800 25.77700
C  -4.32700 31.83500 27.18200
C  -3.36900 32.92100 27.35600
C  -5.05100 30.53800 25.02200
C  -4.82800 31.41000 28.44800
O  -5.59600 30.56000 28.71600
C  -4.13200 32.34200 29.51700
C  -5.25000 33.01900 30.31400
O  -5.64400 34.15400 30.25900
O  -5.69800 32.05400 31.19000
C  -6.62600 32.37400 32.24300
H  0.27900 37.68500 29.46500
H  1.16300 36.17900 23.05400
H  -3.42100 32.05000 23.08600
H  -3.16300 34.79000 31.23300
H  -0.60700 36.11400 31.24300
H  -3.05100 36.97900 31.74300
H  -2.63100 38.00700 30.22400
H  -1.59300 38.06900 31.50400
H  -0.26900 33.78800 31.72000
H  -1.25900 32.81000 30.61800
H  -2.06900 31.80500 32.24900
H  -2.96600 33.23400 32.67500
H  1.32800 39.24500 28.59800
H  1.99300 40.01100 27.16400
H  2.93000 38.90800 28.13900
H  3.86200 39.46700 25.90700
H  2.86300 40.21700 24.71700
H  4.30200 39.60300 24.14400
H  0.92300 33.88900 21.74600
H  -1.94100 33.13100 21.44400
H  -1.34400 35.09700 20.30000
H  0.36100 35.47100 20.18500
H  -0.52300 36.33600 21.34800
H  0.33800 31.99300 21.00600
H  -1.22200 31.19300 21.25200
H  0.03100 31.63600 23.75900
H  1.32700 31.18400 22.66600
H  -0.03500 30.02800 22.96300
H  -4.86800 30.64800 23.95400
H  -6.09100 30.76400 25.25900
H  -4.99400 29.50800 25.37600
H  -3.50400 31.68800 30.12200
H  -7.50900 32.82700 31.79300
H  -6.24800 33.08900 32.97400
H  -6.95700 31.45300 32.72300

