158

Mg 8.39300 3.45700 28.05500
C  9.87300 2.14600 30.85900
C  6.32300 5.38500 30.07000
C  6.74800 4.49000 25.18900
C  10.23400 1.26800 26.01900
N  8.18700 3.73700 30.23600
C  8.94100 3.13000 31.16400
C  8.62800 3.74800 32.62700
C  7.36800 4.56300 32.38300
C  7.32700 4.61300 30.78900
C  6.11400 3.92700 32.96600
C  9.86900 4.65200 33.02000
C  10.57000 4.19900 34.32500
H  10.72500 5.22000 35.41300
N  6.80900 4.81400 27.68900
C  6.09300 5.48400 28.64400
C  5.16200 6.33100 27.98300
C  5.27200 6.09500 26.58700
C  6.29100 5.02800 26.45000
C  4.31900 7.25500 28.82500
C  4.56500 6.81700 25.41300
O  4.84600 6.58200 24.23500
C  3.70400 7.93300 25.80200
N  8.40300 2.98600 25.92200
C  7.59500 3.44000 24.95700
C  7.96000 2.92700 23.53600
C  9.24000 2.07900 23.79300
C  9.30400 2.15100 25.33900
C  6.84200 2.16300 22.83700
C  10.58900 2.46100 23.18200
C  11.29800 1.33200 22.27200
N  9.76700 2.01100 28.30300
C  10.39600 1.19100 27.39200
C  11.32900 0.35700 28.12300
C  11.21400 0.73000 29.45500
C  10.22900 1.70000 29.54000
C  11.91400 -0.88600 27.60200
C  11.70500 0.45000 30.74000
O  12.50700 -0.39000 31.13100
C  10.88500 1.41000 31.72300
C  10.31900 0.44800 32.72900
O  9.31800 -0.22500 32.61800
O  11.05100 0.57600 33.85700
C  10.34700 0.23200 35.12800
H  5.72300 5.98300 30.75900
H  6.12300 4.73700 24.32800
H  10.75000 0.58100 25.34400
H  8.44200 2.96700 33.36300
H  7.44400 5.55500 32.82800
H  6.37900 3.03800 33.53900
H  5.28500 3.72000 32.29000
H  5.74400 4.58400 33.75400
H  9.45100 5.65500 33.10300
H  10.60800 4.70500 32.22100
H  11.42500 3.53500 34.20000
H  9.83000 3.67400 34.93000
H  4.68600 8.25000 28.57500
H  4.20800 7.08900 29.89700
H  3.30700 7.08200 28.46000
H  2.76500 7.54700 26.19600
H  3.48400 8.46700 24.87800
H  4.04000 8.75700 26.43300
H  8.27400 3.79400 22.95500
H  9.13000 1.06400 23.40900
H  5.98500 1.86500 23.44000
H  7.19700 1.29500 22.28200
H  6.32100 2.81900 22.13800
H  11.24400 2.76500 23.99800
H  10.43600 3.32500 22.53600
H  11.22700 1.58000 21.21300
H  10.85200 0.34800 22.41200
H  12.36600 1.20100 22.44100
H  11.24800 -1.53500 27.03300
H  12.33800 -1.51400 28.38500
H  12.77300 -0.66100 26.97000
H  11.62800 2.08700 32.14600
H  10.28300 -0.85500 35.19100
H  9.44500 0.81200 35.32200
H  10.98800 0.57900 35.93700
Mg 6.49100 53.06900 40.56300
C  6.01600 49.60300 40.05800
C  9.83700 52.74000 39.96900
C  6.81700 56.40200 40.32200
C  3.11500 53.41700 41.09000
N  7.73800 51.41300 40.07200
C  7.37600 50.09500 39.88000
C  8.69300 49.19300 39.89300
C  9.81800 50.21700 40.15400
C  9.09400 51.54900 40.02700
C  10.55500 50.13600 41.50300
C  8.98200 48.44100 38.54600
C  8.74200 49.17500 37.22000
H  7.66600 48.78000 36.26900
N  8.16800 54.40000 40.32200
C  9.45300 54.06700 40.00600
C  10.24300 55.27400 39.94100
C  9.39900 56.35300 40.11000
C  8.05500 55.76200 40.26800
C  11.76400 55.21300 39.65300
C  9.80700 57.82000 40.07700
O  10.99700 58.07100 39.85600
C  8.91600 58.95900 40.20700
N  5.21900 54.64400 40.46400
C  5.54300 55.92100 40.49800
C  4.32400 56.86500 40.77000
C  3.22400 55.88100 41.22400
C  3.91500 54.55100 40.95800
C  4.56200 58.04900 41.79000
C  1.81000 56.07500 40.50800
C  0.65900 56.34500 41.43300
N  4.84100 51.78300 40.62700
C  3.58000 52.06200 40.99400
C  2.84700 50.83100 41.15000
C  3.76900 49.81100 40.72400
C  4.96400 50.47900 40.37600
C  1.36000 50.70600 41.40600
C  4.00500 48.37300 40.61000
O  3.21800 47.45300 40.92700
C  5.47800 48.22100 40.16600
C  5.50300 47.50400 38.94300
O  5.16800 48.06800 37.90300
O  5.93300 46.27400 39.14700
C  5.90700 45.28200 38.01100
H  10.89200 52.46500 39.89800
H  6.82100 57.48400 40.17000
H  2.11700 53.39500 41.53300
H  8.49800 48.46400 40.68000
H  10.58400 50.17700 39.37900
H  10.27300 51.03600 42.05100
H  11.63600 50.04300 41.39900
H  10.30100 49.27700 42.12400
H  8.43900 47.49600 38.58400
H  10.02000 48.12100 38.63200
H  9.60500 49.05900 36.56500
H  8.60500 50.22400 37.48000
H  11.92700 55.63700 38.66200
H  12.13200 54.18700 39.62400
H  12.32100 55.77900 40.40000
H  9.38200 59.94200 40.14900
H  8.37800 58.84800 41.14800
H  8.08200 58.95000 39.50500
H  4.05400 57.29800 39.80700
H  3.07900 56.01000 42.29700
H  4.75000 58.98100 41.25600
H  5.36000 57.76700 42.47700
H  3.65100 58.22500 42.36000
H  1.65200 55.27300 39.78700
H  1.76600 56.94900 39.85800
H  0.02900 55.48900 41.67900
H  -0.00400 57.10700 41.02400
H  1.11200 56.66800 42.37000
H  0.68600 51.15300 40.67600
H  1.30000 51.21600 42.36700
H  1.15200 49.70200 41.77400
H  5.97500 47.68600 40.97500
H  5.41400 44.38500 38.38500
H  6.93600 44.96500 37.84200
H  5.48600 45.65100 37.07500

