158

Mg 46.89400 35.15700 28.82500
C  45.67400 33.21400 31.34200
C  47.33300 37.76700 31.01800
C  47.40700 37.40500 26.24100
C  45.89600 32.78500 26.47200
N  46.38600 35.45900 30.84700
C  46.05800 34.49200 31.78400
C  46.24500 35.00300 33.21900
C  46.37100 36.52300 33.08300
C  46.63900 36.61500 31.52900
C  45.12000 37.33400 33.56000
C  47.50900 34.31900 33.84000
C  47.46300 34.08500 35.39100
H  46.98800 35.20900 36.29400
N  47.47300 37.25100 28.63800
C  47.72500 38.04300 29.69400
C  48.31200 39.30600 29.19600
C  48.31000 39.25200 27.77800
C  47.69900 37.93300 27.47200
C  48.91900 40.36400 30.10200
C  48.78400 40.29500 26.77100
O  48.79000 40.08600 25.59400
C  49.18700 41.70200 27.23400
N  46.57800 35.17900 26.68500
C  46.95400 36.13500 25.84500
C  47.01800 35.69700 24.39600
C  46.40900 34.19700 24.45200
C  46.34000 33.97700 25.92900
C  46.39400 36.62000 23.37000
C  47.19800 33.21100 23.53900
C  46.30800 32.17600 22.82800
N  46.03200 33.33400 28.88100
C  45.65400 32.49600 27.83900
C  45.23900 31.22500 28.41000
C  45.18600 31.50200 29.74800
C  45.62800 32.78900 29.99900
C  44.90500 30.03500 27.48500
C  44.89700 30.90000 31.03600
O  44.53400 29.81400 31.32100
C  45.01000 32.03400 32.07000
C  45.71700 31.34500 33.14700
O  46.93600 31.21100 33.27600
O  44.82800 30.94700 34.08000
C  45.29600 30.15400 35.19300
H  47.63000 38.51500 31.75600
H  47.72700 38.13300 25.49300
H  45.64600 31.99400 25.76200
H  45.35200 34.73000 33.78000
H  47.26100 36.87200 33.60700
H  44.83800 37.97800 32.72600
H  45.39000 38.02200 34.36100
H  44.25400 36.69500 33.73400
H  48.33800 35.02300 33.77600
H  47.67900 33.36400 33.34400
H  48.27500 33.49500 35.81700
H  46.60200 33.41700 35.39200
H  48.92200 40.09900 31.16000
H  48.51400 41.36900 29.98800
H  49.92800 40.61300 29.77300
H  50.12100 41.67000 27.79500
H  48.38500 41.97800 27.91700
H  49.25600 42.35400 26.36300
H  48.10200 35.67400 24.28700
H  45.39400 34.25500 24.05800
H  47.01700 37.45100 23.03900
H  45.50900 37.02100 23.86500
H  46.10800 36.02800 22.50100
H  47.90600 32.63100 24.13200
H  47.81900 33.76400 22.83400
H  45.68200 32.44300 21.97600
H  45.61100 31.99700 23.64700
H  46.70900 31.18900 22.59900
H  44.30600 30.34300 26.62800
H  44.52100 29.19200 28.05900
H  45.88800 29.98400 27.01600
H  43.99800 32.23300 32.42400
H  45.01800 30.60500 36.14600
H  46.36600 29.95200 35.23000
H  44.76800 29.20200 35.14900
Mg 30.07700 60.27400 40.37400
C  26.90200 59.13800 39.46500
C  31.36800 57.29000 39.05900
C  33.03300 61.69300 40.50600
C  28.54600 63.59600 40.91700
N  29.16200 58.43300 39.23600
C  27.87600 58.16900 39.11700
C  27.71500 56.88800 38.32700
C  29.00600 56.16100 38.58100
C  29.96700 57.37200 38.92300
C  29.09600 54.95600 39.53100
C  27.20400 57.24800 36.81500
C  25.90400 56.56000 36.36700
H  26.09100 55.58200 35.18800
N  32.01700 59.48600 39.97100
C  32.33400 58.25500 39.48500
C  33.73000 58.19800 39.48300
C  34.27300 59.47400 39.84400
C  33.05000 60.31300 40.17400
C  34.57600 57.00900 39.05700
C  35.74500 59.75300 39.90000
O  36.61500 58.90400 39.57600
C  36.30900 61.01800 40.37400
N  30.71400 62.46700 40.64200
C  32.01300 62.65900 40.74200
C  32.28800 64.18600 41.00400
C  30.86700 64.80700 41.21100
C  29.98400 63.58400 40.95900
C  33.26500 64.46400 42.18000
C  30.47200 65.96400 40.23700
C  30.04900 67.30300 40.96400
N  28.22800 61.19100 40.33500
C  27.76000 62.47000 40.64000
C  26.27300 62.38000 40.70500
C  25.93100 61.11500 40.17200
C  27.11100 60.42700 40.07300
C  25.40000 63.54900 41.15800
C  24.81000 60.32200 39.76500
O  23.62700 60.51800 39.83500
C  25.45500 58.96300 39.26100
C  24.81300 57.76600 39.84600
O  24.97500 57.44200 41.01100
O  23.92500 57.20000 39.00500
C  23.43300 55.85700 39.40800
H  31.92300 56.36700 38.88200
H  34.01200 62.16900 40.59100
H  28.14900 64.59800 41.09400
H  26.95500 56.24000 38.76500
H  29.45300 55.82000 37.64700
H  28.27300 54.24600 39.60700
H  29.20900 55.35900 40.53700
H  30.00300 54.42100 39.25000
H  28.02700 56.90400 36.18800
H  27.06400 58.32900 36.83200
H  25.19400 57.32400 36.05100
H  25.50100 55.95200 37.17600
H  35.07800 57.17400 38.10300
H  33.89500 56.17500 38.89200
H  35.27900 56.64000 39.80400
H  37.38600 60.97800 40.53500
H  35.89400 61.13200 41.37500
H  36.10400 61.84300 39.69300
H  32.66400 64.61500 40.07600
H  30.71900 65.03000 42.26800
H  33.51900 63.51700 42.65600
H  32.72800 65.00200 42.96100
H  34.14500 65.03000 41.87700
H  29.68100 65.59900 39.58100
H  31.25700 66.26600 39.54500
H  30.52900 67.33200 41.94200
H  28.96600 67.19100 41.02300
H  30.36800 68.23200 40.49100
H  24.78300 63.98600 40.37300
H  26.07600 64.30800 41.55100
H  24.64500 63.24300 41.88200
H  25.27200 59.02400 38.18800
H  22.40600 55.86100 39.77400
H  24.11400 55.36000 40.09900
H  23.38600 55.30300 38.47000

