158

Mg 35.91300 2.04100 30.52900
C  33.24900 3.11000 32.59400
C  38.04800 2.73000 33.10900
C  38.40500 1.02100 28.44900
C  33.61000 2.05100 27.78800
N  35.65400 2.80200 32.60600
C  34.46600 3.15800 33.28000
C  34.70300 3.26700 34.84000
C  36.25100 3.31300 34.89400
C  36.71400 2.92000 33.46400
C  36.89600 4.69100 35.35800
C  34.09000 2.10300 35.63200
C  33.80700 2.24900 37.11300
H  34.21000 3.57800 37.76000
N  37.91100 1.86800 30.72100
C  38.59300 2.09200 31.91400
C  39.90400 1.57100 31.76400
C  40.08700 1.20500 30.36300
C  38.77300 1.39900 29.76500
C  40.96900 1.50400 32.85900
C  41.29400 0.70900 29.65200
O  41.29700 0.66200 28.43700
C  42.71700 0.41200 30.32900
N  36.02200 1.60500 28.48300
C  37.16600 1.11900 27.86900
C  36.81200 0.74500 26.39900
C  35.34500 1.10900 26.21100
C  34.91800 1.60900 27.60600
C  37.76300 1.24800 25.30800
C  34.42600 -0.14100 25.76600
C  33.21400 0.11200 24.89400
N  33.75900 2.43000 30.20500
C  33.02300 2.43600 29.03400
C  31.56300 2.77200 29.37500
C  31.68100 3.02700 30.73300
C  33.01200 2.90800 31.18800
C  30.30000 2.78900 28.47000
C  30.88500 3.33900 31.94500
O  29.68800 3.51900 32.11400
C  31.89400 3.42300 33.08300
C  31.74400 4.75600 33.72200
O  32.19600 5.86000 33.34400
O  31.17900 4.49200 34.95200
C  30.88900 5.69700 35.71400
H  38.77200 2.74000 33.92600
H  39.19000 0.74300 27.74300
H  33.14900 2.18900 26.80800
H  34.39200 4.23500 35.23200
H  36.56300 2.45300 35.48600
H  36.13500 5.44100 35.57500
H  37.50000 5.12700 34.56100
H  37.66000 4.59400 36.12900
H  34.71500 1.22500 35.46700
H  33.10500 2.04300 35.16800
H  34.27500 1.46100 37.70400
H  32.74600 2.00700 37.17500
H  41.54300 0.57900 32.90800
H  40.50600 1.90000 33.76300
H  41.71100 2.25700 32.59300
H  43.39400 0.46800 29.47600
H  42.66000 -0.53600 30.86300
H  43.04500 1.19700 31.01100
H  36.84800 -0.33500 26.53900
H  35.21100 1.97600 25.56500
H  38.73900 1.68100 25.52500
H  37.17900 1.96100 24.72600
H  38.02800 0.39900 24.67800
H  34.06000 -0.67700 26.64100
H  35.09100 -0.77100 25.17600
H  33.39800 -0.37400 23.93500
H  32.95200 1.15500 24.71600
H  32.36800 -0.38900 25.36500
H  30.11500 1.84300 27.96100
H  30.36500 3.59300 27.73700
H  29.45500 2.99000 29.12900
H  31.61100 2.64600 33.79400
H  31.71200 6.41100 35.73300
H  30.63400 5.53300 36.76100
H  29.96700 6.11000 35.30500
Mg 10.13600 48.37700 25.57900
C  7.67300 48.49900 28.22600
C  12.37000 49.80400 27.84400
C  12.42800 48.42400 23.23900
C  7.65300 47.41500 23.49600
N  10.04500 49.11800 27.82000
C  8.89900 48.98300 28.68300
C  9.32000 49.37000 30.09000
C  10.66200 50.11000 29.89100
C  11.06900 49.74100 28.39000
C  10.63000 51.61200 30.14800
C  9.44800 48.06400 31.04900
C  10.50100 48.00700 32.19000
H  10.10000 47.14800 33.42600
N  12.09700 48.89700 25.59700
C  12.85700 49.37500 26.61300
C  14.28300 49.36000 26.14900
C  14.29900 48.74300 24.90200
C  12.90400 48.66400 24.53900
C  15.45100 49.90100 27.04600
C  15.47400 48.22200 24.04500
O  15.39500 47.79000 22.94200
C  16.79900 48.33300 24.65700
N  9.99000 48.14900 23.64000
C  11.10000 48.20800 22.79300
C  10.72800 47.71700 21.38800
C  9.25100 47.30400 21.52600
C  8.92700 47.64500 22.97100
C  11.04800 48.74900 20.23700
C  8.87300 45.88700 21.08600
C  8.87700 44.74100 22.16100
N  8.08100 47.97800 25.79500
C  7.17900 47.58200 24.80000
C  5.83300 47.48800 25.35400
C  6.03500 47.71700 26.71300
C  7.35600 48.03700 26.91300
C  4.43200 47.18100 24.61700
C  5.31500 47.84000 28.01600
O  4.09500 47.72000 28.28400
C  6.37700 48.30600 29.08700
C  6.62000 47.23200 30.02500
O  7.22700 46.14600 29.89500
O  5.99500 47.58500 31.20000
C  5.88300 46.50400 32.20200
H  13.11900 50.30400 28.46200
H  13.10400 48.23400 22.40300
H  6.93200 46.82900 22.92300
H  8.57200 49.92600 30.65600
H  11.40900 49.66200 30.54600
H  10.79800 52.03300 29.15700
H  11.43100 51.84800 30.84800
H  9.72500 52.04000 30.58000
H  9.65500 47.12300 30.53900
H  8.46800 48.09900 31.52500
H  10.94400 48.96700 32.45400
H  11.34500 47.35600 31.95900
H  15.11600 50.00400 28.07800
H  15.83500 50.85100 26.67500
H  16.23000 49.15600 27.20500
H  16.91500 47.68200 25.52400
H  17.00500 49.34700 25.00100
H  17.58700 48.13200 23.93200
H  11.24500 46.77000 21.24100
H  8.61600 47.99300 20.96700
H  11.99300 49.25800 20.42800
H  10.20600 49.44100 20.21800
H  11.05300 48.13900 19.33400
H  9.52100 45.52800 20.28600
H  7.95800 46.03800 20.51300
H  9.33800 44.99800 23.11500
H  9.46600 43.95300 21.69200
H  7.94800 44.27300 22.48800
H  4.09500 46.14600 24.68200
H  4.62000 47.42600 23.57200
H  3.55900 47.76800 24.90400
H  6.01600 49.16000 29.65900
H  6.78100 46.56700 32.81600
H  5.88200 45.53900 31.69300
H  5.01200 46.60000 32.84900

