158

Mg 23.77600 -5.49100 46.13900
C  26.12300 -3.21400 44.76800
C  21.40300 -4.13700 44.18200
C  21.78600 -8.21500 46.93900
C  26.38200 -6.88400 48.02700
N  23.82000 -3.88500 44.63700
C  24.82400 -2.98100 44.36800
C  24.32600 -1.86400 43.44300
C  22.78100 -2.04900 43.45400
C  22.67100 -3.46200 44.03800
C  21.88000 -1.05800 44.27000
C  25.06300 -2.06500 42.07500
C  25.21800 -0.75600 41.27500
H  24.58200 -0.76400 39.88000
N  21.86700 -6.03100 45.63600
C  21.01600 -5.34000 44.80500
C  19.77800 -6.03100 44.72200
C  19.82500 -7.14800 45.51500
C  21.18600 -7.19200 46.10400
C  18.67200 -5.53500 43.78600
C  18.69100 -8.20200 45.61500
O  17.63600 -8.00200 45.00000
C  18.76200 -9.37100 46.63800
N  24.04400 -7.43800 47.19500
C  23.11600 -8.31100 47.46300
C  23.60000 -9.47300 48.33000
C  25.00300 -8.88500 48.95100
C  25.15200 -7.65600 48.02000
C  22.54400 -10.00200 49.47600
C  26.22600 -9.84800 48.83400
C  26.87900 -10.18400 50.14200
N  25.86600 -5.17300 46.43800
C  26.75800 -5.81900 47.19900
C  27.97700 -5.12900 47.14900
C  27.81100 -4.11900 46.21700
C  26.52000 -4.21700 45.70700
C  29.20800 -5.28800 47.92900
C  28.44500 -2.98700 45.51700
O  29.66000 -2.64000 45.58000
C  27.38100 -2.37700 44.53100
C  27.26500 -0.94400 44.75200
O  26.59500 -0.44400 45.61800
O  27.99700 -0.29700 43.81100
C  27.91800 1.13000 43.81300
H  20.57100 -3.64200 43.67800
H  21.31400 -9.17200 47.17000
H  27.18900 -7.31300 48.62500
H  24.60700 -0.87800 43.81400
H  22.31000 -1.87900 42.48600
H  22.60600 -0.53800 44.89500
H  21.12500 -1.58300 44.85500
H  21.41600 -0.43400 43.50600
H  24.61700 -2.83300 41.44300
H  26.11200 -2.34900 42.16400
H  26.28500 -0.58000 41.14200
H  24.78000 0.07800 41.82300
H  18.64100 -6.36100 43.07500
H  18.77200 -4.55900 43.31000
H  17.75100 -5.55200 44.36800
H  17.85000 -9.93900 46.81900
H  19.18800 -9.06900 47.59500
H  19.45600 -10.11700 46.25400
H  23.72000 -10.34100 47.68100
H  24.82300 -8.47500 49.94500
H  21.58000 -9.51300 49.33500
H  22.89400 -9.87700 50.50100
H  22.29900 -11.03200 49.22000
H  26.90100 -9.49900 48.05300
H  25.85700 -10.85100 48.62000
H  27.91600 -9.85700 50.22200
H  26.83200 -11.27300 50.17200
H  26.39300 -9.76700 51.02400
H  30.06000 -5.70100 47.38800
H  28.97000 -5.81900 48.85100
H  29.58600 -4.31400 48.23900
H  27.74900 -2.44000 43.50700
H  27.94800 1.63800 44.77600
H  26.98300 1.53300 43.42400
H  28.76500 1.55500 43.27500
Mg 48.60500 35.34200 26.30000
C  46.58200 34.11600 28.81300
C  48.84400 38.33600 27.97700
C  49.96000 36.71700 23.56200
C  47.53000 32.64500 24.31100
N  47.81100 36.16200 28.13600
C  47.16000 35.43700 29.11300
C  46.99600 36.25500 30.43900
C  47.30000 37.70500 29.93100
C  48.05900 37.41300 28.62900
C  46.08600 38.65100 29.80800
C  47.86400 35.67400 31.55200
C  47.32800 35.99800 33.01200
H  46.60600 37.35400 33.16000
N  49.42900 37.21300 25.92100
C  49.53600 38.26500 26.75200
C  50.22700 39.35900 26.05900
C  50.49900 38.92600 24.72100
C  49.93600 37.59200 24.67000
C  50.61300 40.63200 26.85400
C  51.22500 39.69700 23.63400
O  51.48300 39.15600 22.57400
C  51.65700 41.14600 23.77600
N  48.60000 34.83800 24.23700
C  49.40000 35.46300 23.42600
C  49.54700 34.77700 22.01800
C  48.81300 33.41600 22.28800
C  48.22200 33.62000 23.67700
C  48.89000 35.57500 20.83700
C  49.66800 32.03200 22.36800
C  49.17700 30.83700 21.51400
N  47.46700 33.64300 26.56300
C  47.14000 32.62200 25.63200
C  46.22600 31.71200 26.27900
C  45.93600 32.29200 27.56400
C  46.72100 33.44900 27.66700
C  45.60900 30.52400 25.75900
C  45.22000 32.07800 28.82200
O  44.48800 31.20600 29.19300
C  45.71200 33.24200 29.67400
C  46.38300 32.59200 30.80900
O  47.50000 32.02700 30.82900
O  45.62500 32.76900 31.96500
C  46.15100 31.99800 33.12600
H  48.96300 39.28400 28.50700
H  50.59600 36.94600 22.70400
H  47.27600 31.73800 23.75900
H  45.95300 36.14300 30.73400
H  48.01100 38.24000 30.56100
H  45.20500 38.10000 30.13700
H  45.74300 38.91800 28.80800
H  46.17200 39.47100 30.52000
H  48.78500 36.24700 31.44600
H  47.96800 34.59300 31.46500
H  48.19600 35.83100 33.64900
H  46.64700 35.23700 33.39300
H  51.46800 41.24200 26.56000
H  50.90800 40.29900 27.84900
H  49.78000 41.33000 26.93800
H  50.88300 41.78500 24.20200
H  51.72100 41.43300 22.72700
H  52.61500 41.48500 24.17000
H  50.60000 34.60500 21.79200
H  47.95300 33.25300 21.63900
H  48.08400 36.18900 21.24000
H  48.43600 34.85100 20.16100
H  49.56800 36.19800 20.25300
H  49.69500 31.66300 23.39300
H  50.63100 32.30400 21.93400
H  48.15700 31.06100 21.20000
H  49.24800 29.84100 21.95100
H  49.78800 30.86300 20.61200
H  45.43800 30.61100 24.68600
H  44.71200 30.19700 26.28400
H  46.41900 29.81300 25.92800
H  44.92500 33.82400 30.15500
H  46.15400 30.92000 32.96500
H  45.47900 32.16800 33.96600
H  47.18400 32.21700 33.39800

