158

Mg 8.43400 3.35000 27.68700
C  10.01000 2.06200 30.42600
C  6.44400 5.28500 29.79500
C  6.58600 4.29400 24.96600
C  10.26400 1.06200 25.66800
N  8.24800 3.57300 29.83900
C  8.98900 2.93600 30.81300
C  8.57100 3.43400 32.27800
C  7.45300 4.48300 31.93600
C  7.36600 4.48000 30.42100
C  6.08800 4.19300 32.60400
C  9.81600 3.98800 33.03400
C  9.52100 5.11800 34.10700
H  10.20200 5.02400 35.47800
N  6.78000 4.53800 27.38400
C  6.17900 5.32200 28.35900
C  5.18900 6.27900 27.71600
C  5.28300 6.02200 26.33200
C  6.24000 4.89500 26.16700
C  4.35200 7.29300 28.41900
C  4.57500 6.75800 25.19800
O  4.68500 6.45900 23.99300
C  3.61400 7.86200 25.50000
N  8.25300 2.56700 25.68400
C  7.49200 3.29500 24.71200
C  7.97100 2.92300 23.28900
C  9.25600 2.12900 23.52000
C  9.25100 1.90700 25.03600
C  6.79600 2.13700 22.49200
C  10.57800 2.83000 22.97100
C  11.28100 3.90100 23.86000
N  9.72300 1.71000 27.97000
C  10.40000 0.94500 27.04700
C  11.43200 0.23400 27.70700
C  11.29700 0.60300 29.12600
C  10.26400 1.49900 29.18900
C  12.47100 -0.68600 26.96900
C  11.83500 0.43400 30.43800
O  12.71800 -0.34900 30.80100
C  11.04900 1.38700 31.36500
C  10.38700 0.62300 32.43300
O  9.47300 -0.18100 32.26200
O  11.07000 0.72400 33.59900
C  10.42100 0.08800 34.72600
H  5.76500 5.89000 30.40000
H  6.21800 4.77000 24.05500
H  10.96300 0.45800 25.08700
H  8.20900 2.51100 32.73100
H  7.76400 5.49700 32.18900
H  5.49300 3.47300 32.04200
H  5.74400 5.22600 32.55900
H  6.11600 3.79500 33.61800
H  10.52600 4.34300 32.28800
H  10.35900 3.23200 33.60000
H  8.44400 5.02700 34.25300
H  9.73900 6.00000 33.50500
H  3.27800 7.24100 28.24200
H  4.67600 8.29600 28.14200
H  4.44400 7.16700 29.49800
H  2.71500 7.43000 25.94000
H  3.37400 8.16200 24.48100
H  4.14800 8.65400 26.02600
H  8.14100 3.85500 22.74900
H  9.11200 1.19900 22.97100
H  5.88400 2.08100 23.08700
H  7.02600 1.12900 22.14600
H  6.51600 2.76700 21.64800
H  10.28300 3.28000 22.02300
H  11.35200 2.08700 22.77500
H  10.70800 4.04600 24.77600
H  11.27000 4.87000 23.36200
H  12.27000 3.51900 24.11400
H  12.77800 -0.09600 26.10600
H  11.93300 -1.61200 26.76700
H  13.25700 -0.91500 27.68800
H  11.76000 2.08300 31.81000
H  9.90900 0.90900 35.22800
H  11.23300 -0.27300 35.35700
H  9.76200 -0.74500 34.48200
Mg 10.05400 48.53400 25.81000
C  8.14700 49.03700 28.65500
C  12.72400 50.01600 27.44200
C  11.86900 47.98600 23.09800
C  7.16000 47.87300 23.98100
N  10.44300 49.25200 27.91100
C  9.50000 49.34000 28.91300
C  10.05900 49.93300 30.15500
C  11.34400 50.71100 29.55800
C  11.50600 50.02300 28.17800
C  11.44800 52.26100 29.51200
C  10.26100 48.89000 31.27900
C  9.51900 49.19900 32.57600
H  9.33300 48.09500 33.58000
N  12.05700 48.83400 25.38600
C  12.97800 49.43200 26.19800
C  14.23200 49.15800 25.58800
C  14.05600 48.51000 24.28600
C  12.62200 48.39900 24.18100
C  15.49500 49.40700 26.29500
C  15.10800 48.04600 23.31800
O  14.85500 47.53200 22.29100
C  16.56200 48.17500 23.62100
N  9.50600 48.10200 23.78300
C  10.46600 47.83300 22.88600
C  9.89600 47.23400 21.55300
C  8.35500 47.17500 21.83900
C  8.29900 47.75700 23.24800
C  10.33800 48.07500 20.25200
C  7.80400 45.76100 21.67100
C  7.94300 44.80600 22.88500
N  8.11500 48.33600 26.18200
C  7.02200 48.13900 25.33200
C  5.81300 48.29800 26.06100
C  6.20900 48.64800 27.36100
C  7.64400 48.64400 27.36900
C  4.44900 48.35200 25.54200
C  5.70700 48.87600 28.78300
O  4.53400 48.85000 29.18800
C  6.97000 49.06800 29.68100
C  7.01900 47.96000 30.54900
O  7.72100 46.93400 30.44100
O  6.18900 48.05700 31.62000
C  6.07100 46.94900 32.60500
H  13.49500 50.54900 28.00300
H  12.56000 47.82400 22.26800
H  6.24500 47.68300 23.41600
H  9.45400 50.74200 30.56400
H  12.18900 50.30300 30.11200
H  10.47900 52.72600 29.69100
H  11.68500 52.77100 28.57900
H  12.15700 52.71200 30.20700
H  11.32000 48.92200 31.53500
H  9.99700 47.93200 30.83100
H  8.48800 49.49900 32.38900
H  10.00300 50.02900 33.09100
H  15.36000 49.38900 27.37700
H  15.97600 50.35700 26.06300
H  16.29000 48.67000 26.17800
H  16.88100 49.20100 23.80700
H  17.09500 47.84700 22.72800
H  16.65500 47.51900 24.48600
H  10.28500 46.22100 21.44500
H  7.76800 47.84300 21.20900
H  10.98800 48.79300 20.75100
H  9.46500 48.61900 19.89100
H  10.85500 47.57800 19.43000
H  8.36100 45.28000 20.86800
H  6.73800 45.74700 21.44200
H  8.64100 45.18300 23.63300
H  8.23600 43.82600 22.50800
H  6.96200 44.83700 23.35900
H  4.03100 47.36000 25.37200
H  4.35300 48.93200 24.62500
H  3.82200 48.77500 26.32800
H  6.94900 49.99800 30.24800
H  5.04500 46.59000 32.52500
H  6.25000 47.33900 33.60600
H  6.70100 46.10000 32.34000

