158

Mg 42.70200 41.30800 26.19000
C  41.61700 43.74300 28.58600
C  43.69500 39.35600 28.72400
C  43.89500 39.17400 23.82800
C  42.38300 43.88700 23.83300
N  42.82100 41.59900 28.47000
C  42.18700 42.61800 29.22800
C  42.09200 42.22400 30.73200
C  42.79200 40.82800 30.74300
C  43.19900 40.57300 29.21500
C  43.92600 40.43500 31.68000
C  40.69900 42.15800 31.26600
C  40.35200 43.10400 32.42900
H  39.82100 42.41900 33.69600
N  43.61100 39.48700 26.25600
C  43.86100 38.84200 27.36700
C  44.40600 37.54500 27.02400
C  44.46200 37.43200 25.62700
C  44.00200 38.76600 25.15200
C  44.84300 36.50100 28.03300
C  45.01900 36.35300 24.71800
O  45.05400 36.42600 23.47600
C  45.37300 35.00400 25.31400
N  43.21700 41.53100 24.16400
C  43.56800 40.43500 23.38800
C  43.58100 40.79000 21.87900
C  42.85000 42.18400 21.90500
C  42.76400 42.58700 23.39100
C  45.00600 40.87000 21.30500
C  41.42300 42.15200 21.15200
C  40.19500 41.55800 21.85500
N  42.20000 43.46100 26.18700
C  42.03100 44.26800 25.11400
C  41.43800 45.53900 25.48500
C  41.26200 45.38500 26.89800
C  41.66300 44.07700 27.24200
C  41.20800 46.64600 24.55200
C  40.74000 45.96500 28.12300
O  40.09200 47.00800 28.28100
C  40.95900 44.89600 29.27600
C  41.87300 45.56500 30.22300
O  43.11800 45.56300 30.16100
O  41.10600 46.10200 31.23300
C  41.76000 46.74000 32.41300
H  43.96800 38.66800 29.52700
H  43.94600 38.42000 23.04000
H  42.18200 44.60500 23.03600
H  42.72300 42.86900 31.34400
H  42.09500 39.99100 30.78100
H  44.81300 40.11900 31.13000
H  43.76700 39.56100 32.31200
H  44.00500 41.24400 32.40600
H  40.44100 41.13400 31.53500
H  40.12500 42.41100 30.37400
H  39.69300 43.94100 32.19800
H  41.32900 43.52600 32.66600
H  44.64500 36.69700 29.08700
H  45.92000 36.34200 27.97900
H  44.53000 35.47500 27.84300
H  46.11800 35.18800 26.08800
H  45.90300 34.41600 24.56400
H  44.44500 34.52500 25.62400
H  43.10500 40.00900 21.28600
H  43.44400 42.98500 21.46500
H  45.74800 40.38900 21.94300
H  45.42100 41.79800 20.91300
H  44.92300 40.21400 20.43800
H  41.50900 41.58900 20.22300
H  41.00800 43.12900 20.90400
H  40.33800 40.94400 22.74400
H  39.64600 40.92600 21.15700
H  39.68400 42.44200 22.23800
H  42.24300 46.89500 24.31600
H  40.51400 47.39200 24.93800
H  40.81800 46.33700 23.58200
H  39.98000 44.78700 29.74100
H  41.63900 46.02700 33.22800
H  41.20300 47.63800 32.68200
H  42.83300 46.92500 32.36200
Mg 27.30500 51.07600 25.96700
C  25.28600 52.03500 28.72900
C  29.55200 49.89900 28.17100
C  29.17100 50.27500 23.31100
C  24.84900 52.43600 23.90500
N  27.35000 51.09000 28.21300
C  26.39500 51.36700 29.10100
C  26.85100 51.12800 30.43900
C  28.32400 50.56600 30.33500
C  28.40300 50.44800 28.80300
C  29.38900 51.54000 30.83400
C  25.84100 50.26500 31.35600
C  25.41400 50.64200 32.79300
H  26.58700 50.94400 33.73000
N  29.27400 50.35200 25.75200
C  29.99300 49.82900 26.80500
C  31.26700 49.31300 26.26000
C  31.14700 49.37300 24.83700
C  29.88800 50.01600 24.56400
C  32.33300 48.81500 27.16800
C  32.09400 48.85200 23.81700
O  31.88600 48.97400 22.60300
C  33.29100 47.97900 24.28300
N  27.10900 51.58800 23.95000
C  27.91200 50.90900 23.03800
C  27.35300 50.94300 21.59200
C  25.97900 51.60000 21.75400
C  25.95100 51.87300 23.28100
C  28.37500 51.60800 20.62400
C  24.67300 50.92100 21.14900
C  24.32900 49.56900 21.85900
N  25.50200 52.10000 26.22400
C  24.66500 52.64000 25.31200
C  23.62600 53.38200 25.91800
C  23.79400 53.17800 27.24900
C  24.95700 52.41700 27.41700
C  22.54700 54.18300 25.21700
C  23.25300 53.44200 28.59700
O  22.26000 54.10700 29.00900
C  24.19700 52.62100 29.55500
C  24.78800 53.69200 30.46900
O  25.79600 54.37600 30.23800
O  23.85500 53.93200 31.47500
C  24.11800 55.07000 32.30600
H  30.25100 49.57000 28.94200
H  29.57500 49.72100 22.46200
H  24.10000 52.87000 23.24000
H  26.89100 52.12900 30.87000
H  28.37800 49.56700 30.76700
H  30.32400 51.50000 30.27600
H  29.60800 51.29300 31.87300
H  29.05700 52.57300 30.72800
H  26.32500 49.29200 31.43400
H  24.94900 50.01800 30.78000
H  24.90100 49.83600 33.31700
H  24.74600 51.49600 32.91100
H  32.35700 47.75200 27.40800
H  32.23100 49.24700 28.16400
H  33.28500 49.18500 26.78900
H  33.63300 47.33700 23.47100
H  32.92100 47.23100 24.98400
H  34.20900 48.48300 24.58700
H  27.19800 49.95200 21.16500
H  26.05900 52.58500 21.29400
H  29.24900 52.12400 21.02100
H  27.82000 52.31700 20.00900
H  28.72500 50.84900 19.92500
H  24.73000 50.83200 20.06500
H  23.83000 51.59500 21.30000
H  24.83400 49.47000 22.82000
H  24.66800 48.74700 21.22900
H  23.25700 49.46800 22.03000
H  21.95900 54.70600 25.97100
H  21.83900 53.52800 24.70900
H  22.85900 55.05100 24.63600
H  23.70600 51.82100 30.10900
H  24.85700 54.70400 33.01800
H  23.20700 55.37900 32.81800
H  24.44500 55.89100 31.66700

