158

Mg -1.54100 18.14300 27.24300
C  -1.94900 16.12400 30.05500
C  -2.46700 20.75900 29.12400
C  -1.19500 20.02600 24.52500
C  -1.48600 15.34400 25.22800
N  -2.24800 18.38000 29.41300
C  -2.13500 17.47600 30.42600
C  -2.51900 18.07000 31.79800
C  -2.85900 19.55600 31.43200
C  -2.54400 19.57700 29.91800
C  -4.33800 19.97200 31.73300
C  -1.24900 17.98500 32.78500
C  -1.50700 17.22900 34.06700
H  -0.26200 16.94000 34.99300
N  -1.53000 20.08900 26.95400
C  -1.89900 21.00600 27.86900
C  -1.71300 22.32900 27.30300
C  -1.24100 22.14200 25.97200
C  -1.36100 20.73900 25.75600
C  -1.83200 23.66100 27.99100
C  -0.78900 23.07800 24.89300
O  -0.46800 22.79900 23.76000
C  -0.63800 24.43000 25.25200
N  -1.18800 17.79500 25.21400
C  -1.14000 18.71300 24.22200
C  -1.03400 18.19200 22.79400
C  -1.04800 16.65000 23.12100
C  -1.24400 16.54400 24.64700
C  -2.16400 18.48700 21.81700
C  0.21400 15.88100 22.62900
C  1.37000 15.94600 23.57900
N  -1.59500 16.06600 27.51000
C  -1.61900 15.05300 26.62000
C  -1.86500 13.78500 27.29800
C  -1.89300 14.13000 28.66500
C  -1.77300 15.55200 28.73900
C  -2.06400 12.40200 26.76300
C  -2.02000 13.56900 29.97800
O  -2.18200 12.40800 30.34300
C  -1.99900 14.84900 30.95000
C  -0.79900 14.68200 31.84900
O  0.19000 15.33500 31.81100
O  -1.08600 13.72800 32.84900
C  -0.04700 13.47800 33.86900
H  -2.85600 21.61100 29.68600
H  -1.11900 20.63000 23.61800
H  -1.38700 14.40200 24.68400
H  -3.37600 17.57900 32.25800
H  -2.29200 20.34600 31.92300
H  -4.94100 20.03700 30.82700
H  -4.24900 20.94900 32.20800
H  -4.91100 19.25500 32.32100
H  -0.93200 18.99600 33.04200
H  -0.38600 17.54200 32.28900
H  -1.84400 16.21100 33.87100
H  -2.27700 17.69300 34.68400
H  -2.43200 23.44000 28.87400
H  -2.31900 24.43200 27.39300
H  -0.87800 24.14900 28.18600
H  0.07000 24.55800 26.07100
H  -1.60900 24.88800 25.43800
H  -0.13200 24.86600 24.39100
H  -0.05700 18.46000 22.39300
H  -1.92300 16.11700 22.74700
H  -3.01800 17.81100 21.80300
H  -1.72000 18.53100 20.82200
H  -2.58600 19.48100 21.95900
H  0.48000 16.39400 21.70500
H  -0.06600 14.84200 22.46100
H  1.20900 16.62200 24.41900
H  2.28000 16.20200 23.03700
H  1.55900 14.99100 24.07100
H  -2.17900 12.32800 25.68200
H  -2.93300 11.99800 27.28200
H  -1.25800 11.69500 26.96000
H  -2.85600 14.96600 31.61300
H  0.82900 14.05100 33.56500
H  0.16000 12.42500 33.67800
H  -0.53900 13.59900 34.83400
Mg 45.30100 3.88100 47.82600
C  43.37100 6.77700 47.33100
C  42.60500 2.00400 46.92200
C  47.27500 1.15200 47.77000
C  48.21600 5.92300 47.72600
N  43.21600 4.36900 47.22800
C  42.60700 5.57900 46.95300
C  41.23200 5.45000 46.29600
C  41.01700 3.84600 46.53100
C  42.37400 3.35100 46.97100
C  39.83400 3.38200 47.42100
C  41.27800 5.97700 44.89100
C  40.09000 6.83000 44.37900
H  39.55600 6.49800 42.99600
N  44.95600 1.80400 47.55900
C  43.74100 1.21100 47.20100
C  43.95100 -0.21000 46.93200
C  45.36800 -0.47200 47.14800
C  45.97800 0.85300 47.56200
C  42.86200 -0.97700 46.26600
C  45.97900 -1.84900 46.86600
O  45.22600 -2.76400 46.58200
C  47.40300 -1.98100 46.94100
N  47.49900 3.62300 47.75700
C  48.00000 2.33300 47.81000
C  49.53500 2.41000 47.61300
C  49.81200 3.93400 47.43300
C  48.43100 4.56900 47.67900
C  50.41100 1.58800 48.64900
C  50.47800 4.31200 46.03300
C  51.86400 4.98200 45.87900
N  45.76700 5.92500 47.83000
C  46.94700 6.59200 47.79800
C  46.62000 8.08000 47.66100
C  45.23300 8.15400 47.66500
C  44.76500 6.84900 47.67300
C  47.63000 9.19500 47.59600
C  44.16900 9.09300 47.62100
O  44.18100 10.35100 47.64200
C  42.82600 8.17700 47.31500
C  41.79400 8.37500 48.38600
O  41.59300 7.64800 49.29700
O  41.05100 9.52300 48.10300
C  39.86900 9.84400 48.87800
H  41.73900 1.41000 46.62500
H  48.00200 0.33700 47.74400
H  49.11200 6.54400 47.66500
H  40.44500 5.90700 46.89500
H  40.94600 3.45800 45.51500
H  38.95500 3.35000 46.77900
H  39.71400 4.07400 48.25400
H  40.10500 2.39900 47.80900
H  41.62200 5.13300 44.29400
H  42.21700 6.51300 44.75100
H  40.42100 7.86300 44.27700
H  39.15800 6.72600 44.93600
H  41.83900 -0.60900 46.34700
H  42.88000 -2.00500 46.62900
H  43.12500 -0.93400 45.20900
H  47.81000 -1.79800 47.93500
H  47.74200 -1.22000 46.23800
H  47.75100 -2.94600 46.57400
H  49.73800 1.92600 46.65800
H  50.49000 4.28400 48.21200
H  49.76400 1.08200 49.36500
H  51.09900 2.30700 49.09400
H  50.87400 0.79200 48.06600
H  49.82100 5.08500 45.63400
H  50.45000 3.44900 45.36800
H  52.54900 4.31400 45.35800
H  52.15000 5.07000 46.92700
H  51.68600 5.91100 45.33800
H  47.09300 10.14200 47.54600
H  48.15500 9.17200 46.64000
H  48.40600 9.11800 48.35800
H  42.29300 8.48600 46.41500
H  39.01500 9.63500 48.23400
H  39.90800 10.91800 49.06000
H  39.59400 9.41000 49.83900

