158

Mg 6.54800 53.68600 41.68900
C  5.68200 50.37400 41.12300
C  9.56100 53.21500 40.19400
C  7.00500 56.96100 41.86000
C  3.13900 54.21000 42.69900
N  7.41200 52.00900 40.59400
C  6.96200 50.75000 40.62500
C  7.86600 49.84100 39.72700
C  9.18400 50.63700 39.98400
C  8.70500 52.11100 40.30500
C  10.16300 50.20500 41.03500
C  7.47800 49.59400 38.24300
C  6.48700 50.53200 37.66400
H  6.23600 50.52100 36.14100
N  8.09100 54.94600 41.19500
C  9.26900 54.55900 40.58400
C  10.16500 55.66700 40.60800
C  9.45000 56.77600 41.13600
C  8.08000 56.27600 41.45000
C  11.61300 55.50700 40.23300
C  10.00500 58.16700 41.34900
O  11.00600 58.62200 40.77800
C  9.24800 59.05600 42.36200
N  5.23700 55.41800 41.97900
C  5.75100 56.71600 42.15200
C  4.65700 57.67700 42.84000
C  3.44300 56.66600 43.07000
C  3.98100 55.34100 42.52300
C  5.10500 58.37700 44.16400
C  2.00200 56.97900 42.51600
C  1.65700 58.47600 42.31700
N  4.74700 52.53800 41.84800
C  3.51500 52.86500 42.39900
C  2.66100 51.61500 42.51200
C  3.54900 50.62600 42.00300
C  4.73600 51.21600 41.62500
C  1.32500 51.53800 43.16300
C  3.61100 49.16700 41.69200
O  2.80700 48.28700 41.85400
C  5.10800 48.97600 41.28600
C  4.97000 48.12000 40.04300
O  4.33500 48.34900 39.08500
O  5.48900 46.89400 40.30000
C  5.24400 45.79000 39.34900
H  10.57800 52.96400 39.88300
H  7.10500 58.04700 41.91500
H  2.19200 54.36300 43.22100
H  8.00700 48.89300 40.24500
H  9.77400 50.69100 39.06900
H  9.62400 49.48700 41.65300
H  10.43200 51.10500 41.58800
H  10.98300 49.67500 40.55000
H  7.09600 48.57500 38.29400
H  8.31500 49.72300 37.55600
H  6.85700 51.50700 37.98000
H  5.53500 50.51200 38.19400
H  11.71500 55.40600 39.15300
H  12.13900 54.74400 40.80600
H  12.13600 56.43400 40.46800
H  9.87600 59.88700 42.68500
H  8.88000 58.42400 43.17000
H  8.39200 59.51400 41.86700
H  4.47900 58.56000 42.22600
H  3.39800 56.46400 44.14000
H  5.03300 59.45800 44.04800
H  6.15700 58.11900 44.28400
H  4.57100 58.12200 45.08000
H  1.25800 56.51900 43.16700
H  1.80900 56.41300 41.60400
H  0.62300 58.68700 42.58700
H  1.91600 58.83500 41.32000
H  2.37800 59.07500 42.87400
H  0.62100 52.18900 42.64600
H  1.25500 51.68400 44.24100
H  0.90800 50.54200 43.01500
H  5.65900 48.43000 42.05200
H  5.55700 44.79200 39.65700
H  5.89300 46.08300 38.52400
H  4.24700 45.73800 38.91300
Mg 0.84100 43.00300 24.82400
C  2.98200 42.39400 27.65700
C  -1.89300 42.24200 26.92300
C  -1.26800 42.90500 22.21200
C  3.57400 43.21500 22.88500
N  0.67400 42.40500 27.05300
C  1.61500 42.40000 28.02200
C  0.93600 42.25500 29.43700
C  -0.56500 42.04100 29.09400
C  -0.62900 42.28000 27.55400
C  -1.05200 40.57800 29.45500
C  1.28400 43.46400 30.39400
C  1.82700 43.07200 31.84300
H  0.84600 43.03800 33.01600
N  -1.33500 42.81400 24.65200
C  -2.18500 42.35900 25.59100
C  -3.47900 42.01600 24.95000
C  -3.36800 42.36700 23.59100
C  -1.96300 42.71600 23.44700
C  -4.58400 41.39400 25.71900
C  -4.44200 42.22200 22.50300
O  -4.23800 42.46900 21.32200
C  -5.87700 41.82600 22.86700
N  1.09200 43.07700 22.83700
C  0.13100 43.08200 21.92900
C  0.75100 43.11600 20.49400
C  2.19300 43.58800 20.79900
C  2.31700 43.28600 22.27400
C  0.63300 41.87700 19.57200
C  2.56000 44.99200 20.36600
C  2.85100 45.10400 18.90900
N  2.82800 42.82800 25.14500
C  3.84800 42.97200 24.26700
C  5.20300 42.80000 24.90000
C  4.87600 42.57100 26.27600
C  3.48700 42.62400 26.34800
C  6.45100 42.77900 24.19400
C  5.52800 42.27800 27.58500
O  6.69900 42.28100 27.94900
C  4.25000 42.15200 28.57200
C  4.25200 40.98500 29.39300
O  3.85000 39.93500 28.96000
O  4.57100 41.23200 30.73400
C  4.36800 40.00500 31.58500
H  -2.79200 42.19900 27.54100
H  -1.87000 42.71000 21.32100
H  4.41500 43.38100 22.20900
H  1.37800 41.35000 29.85400
H  -1.21800 42.74100 29.61500
H  -1.36000 39.97800 28.59900
H  -1.98000 40.66000 30.02000
H  -0.26100 40.06300 30.00100
H  0.35900 44.01600 30.55900
H  1.86900 44.19600 29.83700
H  2.44200 43.91600 32.15400
H  2.42200 42.15900 31.80700
H  -4.25400 41.05800 26.70200
H  -5.07800 40.50800 25.32200
H  -5.36600 42.12800 25.91500
H  -5.86000 40.78200 23.18000
H  -6.48800 41.94300 21.97200
H  -6.32900 42.50800 23.58700
H  0.32900 43.98300 19.98600
H  2.83800 42.93300 20.21300
H  -0.39500 41.61600 19.31700
H  1.04600 41.01800 20.09900
H  1.20900 42.08800 18.67100
H  3.45600 45.17000 20.96000
H  1.75300 45.67800 20.62500
H  3.86800 45.33600 18.59300
H  2.18200 45.91200 18.61100
H  2.48300 44.30500 18.26500
H  7.28800 43.20600 24.74600
H  6.37300 43.36900 23.28100
H  6.66600 41.75600 23.88500
H  4.30800 43.02700 29.22000
H  4.53100 40.39000 32.59200
H  5.10100 39.25400 31.29100
H  3.31100 39.75800 31.48500

