158

Mg 24.92200 -5.49600 45.69400
C  26.84600 -2.82800 44.01300
C  22.38400 -4.86600 43.60700
C  23.66700 -8.19400 46.81300
C  28.01900 -6.16500 47.30000
N  24.77100 -4.13900 43.83000
C  25.57300 -3.09000 43.42700
C  24.87400 -2.38400 42.27500
C  23.38800 -2.85600 42.38700
C  23.49000 -4.03800 43.32300
C  22.37900 -1.71500 42.81300
C  25.56200 -2.55100 40.90500
C  25.35700 -1.41000 39.89200
H  26.21100 -1.42400 38.62200
N  23.14300 -6.40600 45.32700
C  22.20600 -6.04000 44.38900
C  21.05400 -6.90900 44.64200
C  21.40800 -7.94800 45.55600
C  22.84300 -7.54100 45.95400
C  19.75600 -6.71300 43.84800
C  20.48100 -9.06600 46.12200
O  19.35800 -9.20700 45.73300
C  20.91800 -9.94300 47.34400
N  25.74300 -6.97000 46.84300
C  24.97500 -8.01300 47.18700
C  25.78800 -9.09200 47.90800
C  27.16400 -8.39000 48.17000
C  26.97600 -7.10400 47.36300
C  25.17100 -9.58500 49.27100
C  28.42800 -9.17800 47.69400
C  29.57300 -9.23100 48.74200
N  26.98800 -4.50100 45.94200
C  28.09300 -4.89900 46.61700
C  29.13300 -3.98800 46.44100
C  28.78300 -3.18500 45.38600
C  27.43500 -3.52100 45.14800
C  30.42800 -4.10700 47.08400
C  29.22700 -2.15200 44.44800
O  30.40400 -1.76800 44.25900
C  27.97300 -1.92400 43.45000
C  27.66600 -0.46600 43.26600
O  26.94700 0.18900 44.00900
O  28.53800 0.07800 42.32500
C  28.50500 1.53400 41.98500
H  21.45900 -4.63300 43.07600
H  23.18800 -9.14300 47.06600
H  28.92400 -6.40600 47.86200
H  24.95800 -1.35400 42.62100
H  23.09300 -3.17400 41.38700
H  21.88300 -1.52500 41.86100
H  22.79000 -0.74400 43.09000
H  21.68400 -2.11700 43.55000
H  25.10000 -3.44100 40.47700
H  26.60900 -2.78000 41.10400
H  25.70100 -0.52600 40.43000
H  24.29800 -1.25800 39.68500
H  19.38300 -7.66400 43.47000
H  19.88400 -6.10700 42.95100
H  18.97800 -6.12300 44.33200
H  20.01700 -10.33700 47.81400
H  21.33800 -9.33400 48.14500
H  21.57200 -10.76900 47.06400
H  25.86100 -9.97300 47.27000
H  27.19700 -8.05900 49.20800
H  24.16000 -9.19900 49.40600
H  25.83600 -9.42900 50.12100
H  24.98300 -10.65400 49.18000
H  28.81100 -8.78600 46.75200
H  28.09900 -10.17100 47.38700
H  29.54800 -10.18400 49.27000
H  29.33100 -8.55900 49.56500
H  30.54500 -9.05500 48.28100
H  31.05500 -3.22300 46.96300
H  30.83800 -5.01600 46.64500
H  30.26700 -4.20800 48.15700
H  28.33900 -2.15300 42.44800
H  28.04500 1.73700 41.01800
H  29.49900 1.97200 41.89100
H  28.02100 2.12900 42.75900
Mg 17.09700 51.37300 26.21100
C  18.92000 49.96200 28.74400
C  14.50600 52.04300 28.50300
C  15.13900 52.48100 23.74700
C  19.50400 50.30900 23.94100
N  16.85100 51.04100 28.36100
C  17.66900 50.45400 29.20800
C  17.28700 50.75200 30.63700
C  15.80400 51.31500 30.53900
C  15.69500 51.50900 29.01200
C  14.72200 50.36300 31.18000
C  18.21200 51.79200 31.32800
C  18.67200 51.42400 32.66900
H  18.03300 52.05200 33.85100
N  15.05400 52.16300 26.12100
C  14.23300 52.40300 27.18700
C  13.10200 53.17700 26.74400
C  13.24300 53.30400 25.31500
C  14.52300 52.59400 24.97300
C  11.98800 53.64100 27.67800
C  12.32100 53.99800 24.38000
O  12.41200 53.97100 23.15900
C  11.08100 54.71600 24.90000
N  17.18600 51.17800 24.10900
C  16.29900 51.86400 23.34200
C  16.69600 51.78300 21.82200
C  18.10300 51.17900 21.85800
C  18.33200 50.87400 23.40800
C  15.70100 51.03000 20.82600
C  19.21200 52.14200 21.32800
C  20.44400 51.48500 20.66300
N  18.93300 50.42900 26.32200
C  19.77900 50.06700 25.31100
C  20.95900 49.40200 25.89800
C  20.66900 49.31100 27.26300
C  19.34900 49.90300 27.40800
C  22.09300 48.87000 25.13100
C  21.12800 48.85100 28.56700
O  22.10200 48.24700 28.80700
C  19.99300 49.29400 29.57500
C  19.52900 48.17300 30.40900
O  18.62500 47.40300 30.16500
O  20.20900 48.26700 31.64800
C  19.91800 47.28500 32.68500
H  13.75900 52.26000 29.26900
H  14.61300 52.99900 22.94200
H  20.25500 49.98700 23.21700
H  17.26800 49.74400 31.05300
H  15.63600 52.27800 31.02100
H  14.22700 49.98000 30.28700
H  13.96800 50.89000 31.76400
H  15.12200 49.47800 31.67400
H  17.70800 52.75800 31.34800
H  19.05800 51.99000 30.67000
H  19.71400 51.71600 32.79800
H  18.46900 50.35800 32.76800
H  11.19100 52.90800 27.54900
H  11.67100 54.66200 27.46700
H  12.30200 53.73900 28.71700
H  11.23600 55.41000 25.72600
H  10.37700 53.92800 25.16900
H  10.67000 55.32800 24.09800
H  16.81500 52.76700 21.36800
H  18.07900 50.19700 21.38500
H  15.20000 51.72100 20.14900
H  14.95800 50.50000 21.42300
H  16.31100 50.25800 20.35700
H  19.63000 52.62100 22.21300
H  18.80300 52.89500 20.65400
H  20.45700 50.40500 20.80500
H  21.42000 51.94000 20.83500
H  20.18600 51.51000 19.60400
H  21.82200 47.88200 24.75900
H  22.95700 48.91400 25.79400
H  22.48300 49.41700 24.27300
H  20.45700 50.05100 30.20700
H  19.02300 47.63400 33.20000
H  20.76100 47.11800 33.35600
H  19.60500 46.32000 32.28600

