158

Mg 48.18900 34.91000 27.81900
C  46.29700 33.28500 30.22900
C  48.34800 37.66800 30.07400
C  49.37100 36.99900 25.39700
C  47.62700 32.44800 25.60800
N  47.39800 35.35200 29.92100
C  46.79400 34.45500 30.74600
C  46.86300 35.02800 32.20600
C  47.06000 36.50600 31.93300
C  47.68100 36.50600 30.55300
C  45.80600 37.41500 32.22300
C  48.14700 34.34800 32.87600
C  48.44700 34.51700 34.36700
H  47.54100 35.48600 35.20300
N  48.84800 36.98100 27.74900
C  48.90000 37.88900 28.81400
C  49.66300 39.02000 28.43500
C  49.91000 38.93600 27.02700
C  49.28500 37.61400 26.63200
C  49.95600 40.16800 29.39200
C  50.65100 39.92300 26.02900
O  50.80500 39.62700 24.86200
C  51.12300 41.29000 26.50800
N  48.22200 34.89100 25.73700
C  48.88300 35.74900 24.94400
C  48.99300 35.21900 23.51400
C  48.63900 33.69600 23.69900
C  48.16500 33.66900 25.12900
C  48.07500 36.07100 22.54600
C  49.83900 32.82700 23.33600
C  49.39400 31.58200 22.52900
N  47.23800 33.09500 27.87700
C  47.04300 32.17500 26.94100
C  46.41100 30.96700 27.43800
C  46.08600 31.36800 28.72900
C  46.58700 32.71900 28.95900
C  45.93600 29.69800 26.76000
C  45.31600 31.07100 29.99100
O  44.61800 30.08700 30.24500
C  45.38500 32.29200 30.93200
C  45.76200 31.74800 32.33100
O  46.66700 31.00500 32.59300
O  44.82400 32.12300 33.21900
C  45.11100 31.79400 34.62700
H  48.48500 38.39600 30.87600
H  49.75300 37.54700 24.53300
H  47.49000 31.71300 24.81100
H  45.98400 34.69200 32.75600
H  47.71000 36.95500 32.68400
H  44.92100 36.87200 32.55400
H  45.40600 38.05900 31.44100
H  45.91900 38.04400 33.10600
H  49.07500 34.66700 32.40100
H  48.18100 33.26400 32.77200
H  49.44700 34.89800 34.57300
H  48.43500 33.58200 34.92800
H  50.97000 40.54500 29.25400
H  49.92700 39.87900 30.44200
H  49.27100 41.00400 29.25300
H  50.43200 41.71800 27.23400
H  51.13300 41.91000 25.61100
H  52.13900 41.23400 26.89900
H  50.04000 35.34900 23.24000
H  47.75000 33.39600 23.14400
H  47.18400 35.44600 22.50300
H  48.47400 36.42300 21.59500
H  47.98200 37.00300 23.10400
H  50.34500 32.48400 24.23800
H  50.62300 33.38200 22.82000
H  48.82100 31.83200 21.63600
H  48.71800 31.02600 23.17800
H  50.18800 30.91400 22.19600
H  44.98200 29.56600 26.25000
H  45.73300 28.92700 27.50300
H  46.71400 29.35600 26.07700
H  44.44100 32.82700 31.03800
H  46.05300 31.28400 34.82800
H  44.25700 31.14100 34.80700
H  45.14400 32.74800 35.15400
Mg 35.89700 48.36300 26.21900
C  36.08500 46.51300 29.21700
C  34.33600 50.89500 28.03100
C  35.12300 49.80600 23.30300
C  36.69300 45.50300 24.50700
N  35.30500 48.66100 28.37300
C  35.52400 47.81900 29.40200
C  35.28900 48.45200 30.78500
C  34.49200 49.78200 30.35000
C  34.77500 49.86500 28.83500
C  32.92800 49.88500 30.76400
C  36.62700 48.84600 31.56700
C  36.91500 48.21300 32.90800
H  36.86300 49.23900 34.13800
N  34.91300 50.09500 25.75300
C  34.43500 51.04700 26.63800
C  33.98500 52.16700 25.92200
C  34.09900 51.90500 24.53900
C  34.76000 50.51900 24.45800
C  33.35700 53.40900 26.68500
C  33.67700 52.72500 23.31700
O  33.91100 52.44100 22.17200
C  32.91600 53.99100 23.57900
N  36.01800 47.79500 24.19900
C  35.70900 48.56000 23.13900
C  35.98900 47.93800 21.77400
C  36.56800 46.55600 22.22100
C  36.42400 46.65100 23.72300
C  34.74200 47.85600 20.96900
C  38.11800 46.37100 21.90600
C  38.47000 45.55300 20.71800
N  36.55000 46.41300 26.67000
C  36.79400 45.34300 25.86200
C  37.14200 44.19900 26.72200
C  36.91900 44.70000 28.04200
C  36.46600 45.98300 27.95900
C  37.36100 42.80900 26.20800
C  36.88700 44.23600 29.43200
O  37.16100 43.18300 29.90800
C  36.46500 45.48200 30.25900
C  35.42500 45.16300 31.21600
O  34.21300 45.16400 30.97600
O  35.99800 44.99800 32.49700
C  35.11900 44.95600 33.65300
H  33.90100 51.66600 28.67000
H  34.97100 50.35600 22.37200
H  36.92000 44.68800 23.81700
H  34.63400 47.81400 31.37900
H  34.97500 50.69800 30.69100
H  32.92200 50.57900 31.60500
H  32.62600 48.89200 31.09700
H  32.28100 50.19800 29.94500
H  36.66300 49.92600 31.70900
H  37.43600 48.66200 30.86000
H  37.94400 47.85500 32.86500
H  36.26000 47.35600 33.06700
H  33.47200 54.30700 26.07800
H  33.91800 53.52300 27.61200
H  32.28400 53.34000 26.87000
H  32.03800 53.89500 24.21800
H  32.56200 54.31800 22.60200
H  33.49700 54.77400 24.06700
H  36.72200 48.57600 21.28000
H  35.94900 45.74300 21.84100
H  34.40100 46.83800 20.77900
H  35.08500 48.30700 20.03800
H  33.92800 48.38100 21.46800
H  38.64500 46.00600 22.78800
H  38.55700 47.36000 21.77500
H  38.15200 44.51700 20.83200
H  39.54800 45.44000 20.60300
H  37.91000 45.82200 19.82200
H  36.84400 42.14600 26.90200
H  38.43000 42.59600 26.17700
H  37.01900 42.55700 25.20500
H  37.40100 45.70500 30.77100
H  34.10100 45.15600 33.32000
H  35.40000 45.75800 34.33500
H  35.24500 43.95200 34.05800

