158

Mg 0.78400 8.35400 25.24100
C  1.51200 10.24100 28.12000
C  0.95700 5.48800 27.17200
C  0.82000 6.61700 22.40000
C  0.97400 11.40100 23.39700
N  1.09000 7.92400 27.41500
C  1.29500 8.83400 28.36000
C  1.32000 8.18100 29.82100
C  1.32100 6.69700 29.48100
C  1.04900 6.67300 27.92500
C  2.61500 5.94900 29.80300
C  0.29900 8.69700 30.84000
C  0.62800 8.41700 32.34000
H  1.90900 7.62200 32.71700
N  0.77600 6.32800 24.83200
C  0.82600 5.31300 25.75900
C  0.85400 3.98000 25.06600
C  0.77500 4.28100 23.67800
C  0.82800 5.81000 23.59300
C  0.90300 2.62900 25.75800
C  0.63600 3.37700 22.46700
O  0.62500 3.80200 21.29400
C  0.36200 1.92300 22.66600
N  0.85900 8.95500 23.24400
C  0.86100 8.01900 22.25700
C  0.55600 8.65900 20.84700
C  0.71600 10.15900 21.17200
C  0.80500 10.18300 22.69200
C  1.43000 8.21100 19.70400
C  -0.40500 11.00200 20.53200
C  -1.71000 11.18300 21.36700
N  0.95400 10.52000 25.70100
C  1.08900 11.54000 24.79900
C  1.45200 12.76000 25.55000
C  1.62200 12.33900 26.88500
C  1.26500 10.94400 26.93900
C  1.64600 14.13000 24.91800
C  1.91800 12.72600 28.20300
O  2.20900 13.81100 28.67200
C  1.98600 11.45100 29.11200
C  3.25600 11.04600 29.81200
O  3.90300 10.13600 29.43600
O  3.40600 11.89600 30.90300
C  4.62300 11.53000 31.73400
H  1.09000 4.58700 27.77400
H  0.77600 6.01800 21.48900
H  1.04500 12.33200 22.83100
H  2.27400 8.43400 30.28400
H  0.40700 6.31200 29.93400
H  2.27600 5.09800 30.39300
H  3.35200 6.49400 30.39400
H  3.13600 5.52200 28.94600
H  -0.68400 8.24500 30.70400
H  0.21600 9.78000 30.75900
H  -0.19900 7.81100 32.70900
H  0.69000 9.32100 32.94700
H  -0.07000 2.17300 25.58000
H  0.99600 2.71200 26.84100
H  1.70500 1.95700 25.45100
H  1.14100 1.48500 23.29100
H  0.41900 1.35600 21.73800
H  -0.63500 1.87300 23.10200
H  -0.48000 8.43100 20.60000
H  1.69300 10.42200 20.76500
H  0.86100 7.46200 19.15300
H  2.35600 7.69900 19.96700
H  1.59000 9.07600 19.06000
H  -0.58500 10.44300 19.61400
H  -0.09800 12.01500 20.27300
H  -2.51700 11.18500 20.63300
H  -1.66500 12.06300 22.00900
H  -1.88100 10.26400 21.92700
H  1.73800 14.16300 23.83300
H  2.50300 14.53600 25.45500
H  0.70600 14.66000 25.07300
H  1.37000 11.68900 29.97900
H  4.71000 12.29900 32.50100
H  5.50600 11.56700 31.09700
H  4.53300 10.55700 32.21600
Mg 36.48500 49.27900 24.91900
C  36.15200 47.45500 27.79000
C  35.30300 52.09000 26.40200
C  36.32600 50.73500 21.86400
C  37.35200 46.20000 23.26600
N  35.61100 49.66400 26.88800
C  35.86700 48.83700 27.99300
C  35.41800 49.54200 29.26200
C  35.18800 51.06300 28.78000
C  35.45200 50.95200 27.23000
C  33.73500 51.77800 29.13400
C  36.36900 49.38800 30.56300
C  35.77700 48.87400 31.93500
H  34.26400 49.03700 32.18000
N  35.83600 51.12900 24.23800
C  35.46500 52.16500 24.99900
C  35.17400 53.31200 24.25200
C  35.36200 52.97100 22.85900
C  35.86800 51.62200 22.94200
C  34.60400 54.59700 24.92400
C  35.25100 53.80300 21.67000
O  35.40900 53.38400 20.51600
C  34.95800 55.26300 21.75200
N  37.03600 48.62000 22.83400
C  36.70800 49.41100 21.83800
C  37.08500 48.74900 20.52400
C  37.75400 47.41000 21.01300
C  37.40400 47.34300 22.45800
C  35.89900 48.58100 19.62100
C  39.30900 47.36900 20.73200
C  40.27500 48.01600 21.68900
N  36.79400 47.29100 25.41000
C  37.17200 46.15700 24.65100
C  37.28400 44.96600 25.54800
C  36.76000 45.41100 26.78700
C  36.56800 46.85400 26.63700
C  37.63800 43.53100 25.13400
C  36.41800 45.08600 28.15100
O  36.51000 44.03000 28.79100
C  36.08900 46.42300 28.88900
C  34.85200 46.27400 29.75500
O  33.75700 46.66600 29.55200
O  35.18800 45.46400 30.79300
C  34.07700 45.05900 31.61900
H  35.14900 53.02600 26.94400
H  36.11700 51.16500 20.88200
H  37.72100 45.29300 22.78200
H  34.45100 49.15000 29.58000
H  35.98000 51.71500 29.14800
H  33.12800 51.84700 28.23100
H  33.78900 52.71900 29.68300
H  33.32500 51.03000 29.81300
H  36.88400 50.30400 30.85400
H  37.15500 48.72100 30.20700
H  36.33800 49.28600 32.77400
H  35.97700 47.80400 31.88900
H  33.97000 55.22400 24.29700
H  35.36100 55.21100 25.41200
H  33.86400 54.32500 25.67700
H  33.90500 55.19100 22.02500
H  35.05900 55.78000 20.79800
H  35.52600 55.79900 22.51100
H  37.85900 49.37600 20.08100
H  37.45700 46.47000 20.54700
H  35.05900 49.24400 19.82900
H  35.48600 47.57200 19.61800
H  36.10600 48.83100 18.58000
H  39.40000 47.70400 19.69900
H  39.48900 46.29500 20.76700
H  39.83700 48.72100 22.39600
H  41.11600 48.48100 21.17400
H  40.64600 47.13000 22.20500
H  38.69200 43.27400 25.03400
H  37.19300 43.28600 24.17000
H  37.21800 42.86100 25.88400
H  36.84800 46.71100 29.61600
H  33.09500 44.98700 31.15200
H  34.09400 45.73000 32.47800
H  34.33300 44.06500 31.98500

