158

Mg -10.65200 40.24600 39.53900
C  -9.21300 36.98900 38.86800
C  -7.82400 41.60600 38.28200
C  -12.25200 43.10500 39.36300
C  -13.56300 38.56500 40.55700
N  -8.82000 39.39700 38.68200
C  -8.41000 38.06900 38.44800
C  -6.95800 37.99400 37.92100
C  -6.53100 39.40700 38.52100
C  -7.76600 40.23400 38.39000
C  -5.97000 39.34700 40.00200
C  -6.88500 37.88200 36.35900
C  -6.16600 36.66000 35.82700
H  -6.85800 35.91300 34.72500
N  -10.08300 42.12600 38.93800
C  -8.83600 42.54600 38.49700
C  -8.83200 43.94800 38.37900
C  -10.08300 44.42000 38.69300
C  -10.86600 43.22300 39.03700
C  -7.53600 44.73000 37.93000
C  -10.57400 45.81700 38.52400
O  -9.78300 46.61100 38.13200
C  -11.95700 46.35700 38.81500
N  -12.63000 40.76100 39.83900
C  -13.08500 42.04500 39.69300
C  -14.49700 42.21100 40.17700
C  -14.90200 40.73500 40.46400
C  -13.64600 39.97700 40.30800
C  -14.56500 43.00000 41.41600
C  -15.95500 40.22500 39.47300
C  -17.37400 40.15600 40.00900
N  -11.25200 38.16900 39.88500
C  -12.45600 37.69200 40.30000
C  -12.32100 36.23500 40.60300
C  -11.13500 35.93800 39.95300
C  -10.51600 37.15000 39.52400
C  -13.26800 35.30000 41.26900
C  -10.21800 34.83400 39.53800
O  -10.36700 33.64800 39.70900
C  -8.99400 35.48200 38.79800
C  -7.77500 35.00800 39.45700
O  -7.35700 35.51300 40.53900
O  -7.12300 34.00700 38.69800
C  -5.77800 33.68900 39.21100
H  -6.88900 41.93200 37.82100
H  -12.78400 44.05500 39.44100
H  -14.51200 38.09900 40.82900
H  -6.41800 37.16200 38.37300
H  -5.86100 39.97800 37.87900
H  -6.76500 39.67500 40.67100
H  -5.14900 40.05400 40.12300
H  -5.75400 38.31300 40.27100
H  -6.29600 38.73100 36.01200
H  -7.87900 37.82700 35.91500
H  -6.01200 35.87800 36.57100
H  -5.21100 36.90800 35.36400
H  -7.52000 44.91200 36.85600
H  -6.67400 44.12000 38.20100
H  -7.39400 45.66200 38.47800
H  -12.60600 46.08500 37.98300
H  -11.76200 47.42500 38.72000
H  -12.26700 45.96900 39.78600
H  -15.09900 42.71000 39.41800
H  -15.26600 40.62800 41.48600
H  -13.84300 42.53700 42.08800
H  -15.57600 43.08700 41.81400
H  -14.47900 44.08500 41.35200
H  -15.79700 39.22100 39.08000
H  -15.94000 40.96900 38.67700
H  -17.85600 39.28800 39.55900
H  -17.99000 41.03800 39.83400
H  -17.41300 40.02600 41.09000
H  -13.29200 35.52500 42.33500
H  -12.93700 34.30500 40.97100
H  -14.22700 35.35800 40.75500
H  -8.90300 35.18800 37.75200
H  -5.73000 33.71600 40.29900
H  -4.97400 34.38900 38.98000
H  -5.51400 32.66100 38.96300
Mg -5.09600 25.64900 25.91700
C  -3.87200 26.93300 28.91200
C  -6.98100 23.63800 27.73500
C  -5.49000 23.81200 23.10800
C  -2.78300 27.66700 24.20800
N  -5.28100 25.20800 28.11500
C  -4.85400 25.99500 29.14400
C  -5.39800 25.50900 30.52500
C  -6.36800 24.33500 30.14000
C  -6.18000 24.37800 28.55900
C  -6.03500 22.93700 30.73500
C  -6.15500 26.58200 31.30100
C  -5.87400 26.76900 32.78400
H  -5.43800 25.61100 33.65100
N  -6.14800 23.94400 25.48500
C  -6.94400 23.40300 26.39000
C  -7.77900 22.41500 25.72100
C  -7.19300 22.22600 24.41900
C  -6.23300 23.34300 24.27500
C  -8.99100 21.76400 26.41600
C  -7.50900 21.19700 23.31100
O  -6.93600 21.20900 22.27600
C  -8.47200 20.11600 23.75500
N  -4.23100 25.69700 23.99400
C  -4.66800 24.88100 23.00800
C  -3.94000 25.23600 21.71100
C  -3.26800 26.59400 22.02700
C  -3.50600 26.72200 23.47800
C  -2.94000 24.04900 21.26200
C  -3.92600 27.81200 21.36200
C  -3.03800 28.90400 20.76000
N  -3.63700 27.07500 26.33000
C  -2.84700 27.86900 25.55900
C  -2.02600 28.73100 26.43200
C  -2.38000 28.38500 27.74300
C  -3.37300 27.43200 27.62000
C  -0.99300 29.74300 26.01900
C  -2.19000 28.68500 29.08200
O  -1.43800 29.48800 29.65900
C  -3.09000 27.74300 29.94700
C  -2.16000 26.95200 30.86700
O  -1.27100 26.18600 30.55900
O  -2.29800 27.45900 32.15300
C  -1.39200 26.93500 33.15800
H  -7.66600 23.03500 28.33400
H  -5.75200 23.27800 22.19200
H  -2.15200 28.38300 23.67700
H  -4.58000 25.27300 31.20500
H  -7.40900 24.51300 30.40700
H  -6.96200 22.37900 30.86400
H  -5.57200 23.03000 31.71800
H  -5.34600 22.33600 30.14200
H  -7.22900 26.39700 31.26400
H  -5.86900 27.53500 30.85500
H  -6.80500 27.08000 33.25900
H  -5.25100 27.65000 32.93700
H  -9.84700 22.10100 25.83200
H  -9.15500 22.16500 27.41700
H  -8.89200 20.67900 26.41200
H  -8.51800 19.40200 22.93300
H  -9.46500 20.54500 23.88600
H  -8.03000 19.59700 24.60500
H  -4.77000 25.36400 21.01600
H  -2.20300 26.56000 21.79600
H  -2.92000 23.39600 22.13400
H  -1.94800 24.37500 20.94800
H  -3.34100 23.55700 20.37600
H  -4.49400 28.29400 22.15700
H  -4.68100 27.46800 20.65500
H  -2.98000 28.89600 19.67200
H  -1.99600 28.71900 21.02200
H  -3.31000 29.92900 21.01200
H  -0.49600 29.35900 25.12800
H  -0.21200 29.86200 26.77000
H  -1.44700 30.68500 25.71000
H  -3.75700 28.42400 30.47600
H  -1.68000 25.94700 33.51700
H  -1.16700 27.51400 34.05300
H  -0.38100 26.95400 32.75000

