158

Mg 27.10300 51.41900 27.02700
C  24.89500 52.49000 29.34700
C  29.19200 50.30600 29.57000
C  29.27100 50.43000 24.67900
C  25.14100 52.96600 24.53100
N  26.96400 51.36600 29.22200
C  25.93000 51.79200 29.99900
C  26.21600 51.63200 31.50800
C  27.67800 51.06700 31.46100
C  27.99300 50.87700 29.97400
C  28.78200 51.87400 32.18800
C  25.19800 50.62800 32.18300
C  24.44300 51.14600 33.43800
H  25.26400 51.26900 34.77900
N  29.01000 50.54700 27.11300
C  29.64300 50.06000 28.19000
C  30.85300 49.42300 27.77500
C  30.85800 49.35500 26.38600
C  29.60900 50.10200 25.97500
C  31.89600 48.95500 28.81800
C  31.84900 48.70700 25.48400
O  31.66700 48.61900 24.24900
C  33.14800 48.28900 25.98700
N  27.22000 51.68500 24.93700
C  28.20800 51.16100 24.14000
C  27.88300 51.25500 22.66800
C  26.63400 52.21100 22.62200
C  26.36400 52.40300 24.09300
C  29.10600 51.87800 21.93500
C  25.41100 51.67700 21.81800
C  24.79100 50.38900 22.43100
N  25.27100 52.46900 26.89900
C  24.55100 53.00000 25.79000
C  23.34900 53.53800 26.27600
C  23.40800 53.39100 27.68100
C  24.63700 52.74500 27.98700
C  22.29200 54.27700 25.58000
C  22.71700 53.65700 29.00700
O  21.70300 54.25400 29.23100
C  23.66900 52.98100 30.08300
C  24.07900 53.98100 31.07500
O  25.04500 54.66500 31.02100
O  23.16300 54.02100 32.06500
C  23.47700 54.93800 33.22500
H  29.94600 50.08400 30.32700
H  29.88300 50.05900 23.85400
H  24.62400 53.55300 23.76900
H  26.20100 52.58900 32.02900
H  27.72000 50.04900 31.84600
H  29.30600 52.43100 31.41100
H  29.53100 51.20500 32.61200
H  28.33300 52.57700 32.89100
H  25.64500 49.68400 32.49400
H  24.41900 50.48600 31.43300
H  23.56300 50.54600 33.66700
H  24.00300 52.12100 33.22600
H  32.49500 49.83500 29.05100
H  32.52700 48.12000 28.51100
H  31.40700 48.64400 29.74100
H  33.88200 48.32400 25.18100
H  33.13400 47.27000 26.37300
H  33.45600 48.99200 26.76100
H  27.59200 50.26400 22.32100
H  26.90600 53.20000 22.25400
H  29.75500 52.23400 22.73500
H  28.80500 52.68600 21.26800
H  29.53400 51.04200 21.38300
H  25.73900 51.36500 20.82700
H  24.64000 52.44400 21.73800
H  23.70400 50.43800 22.36800
H  25.12800 50.18900 23.44800
H  25.13500 49.48200 21.93200
H  22.05500 53.82700 24.61600
H  22.54800 55.31900 25.39200
H  21.50000 54.28000 26.32900
H  23.08000 52.25200 30.64000
H  24.34100 54.57200 33.78100
H  22.58600 55.14600 33.81800
H  23.72000 55.92000 32.82100
Mg 6.40300 55.59200 39.95200
C  5.58600 52.11500 39.62300
C  9.65400 54.80900 39.15300
C  6.95100 58.85500 39.84300
C  2.92600 56.15900 40.73600
N  7.43000 53.63900 39.18900
C  6.97400 52.35900 39.32300
C  8.14400 51.37300 39.19400
C  9.48200 52.24200 39.26600
C  8.79800 53.64300 39.24000
C  10.50900 52.05400 40.41400
C  8.05000 50.46800 37.90000
C  7.41100 51.29800 36.70600
H  7.12000 50.56000 35.35700
N  8.11900 56.65600 39.45100
C  9.35300 56.19800 39.24900
C  10.26100 57.29000 39.07800
C  9.54900 58.52700 39.25100
C  8.12700 58.04200 39.45800
C  11.76600 57.13800 38.99100
C  10.13900 59.91600 39.23900
O  11.38400 59.93300 39.39800
C  9.34500 61.15700 39.04900
N  4.99500 57.33800 39.92200
C  5.65100 58.50400 40.17400
C  4.60800 59.56800 40.67300
C  3.31000 58.67100 40.95800
C  3.77100 57.28300 40.52500
C  4.98000 60.42000 41.82100
C  2.04000 59.03300 40.22100
C  0.76200 59.11400 41.02200
N  4.59700 54.44700 40.15100
C  3.28600 54.79200 40.55500
C  2.54100 53.60100 40.71200
C  3.40100 52.57300 40.39300
C  4.60500 53.10600 39.99500
C  1.06900 53.43700 41.06000
C  3.47500 51.08600 40.28300
O  2.65700 50.22700 40.55600
C  4.91100 50.81200 39.89500
C  4.93500 49.84000 38.72900
O  4.71400 50.04100 37.51100
O  5.34400 48.63200 39.22900
C  5.49600 47.41600 38.38800
H  10.71100 54.60200 38.97100
H  7.16100 59.92700 39.86400
H  1.96000 56.29800 41.22600
H  8.02100 50.75400 40.08200
H  10.12300 52.23700 38.38500
H  10.11500 51.26900 41.06000
H  10.62400 52.88000 41.11600
H  11.48200 51.75100 40.02900
H  7.60100 49.50800 38.15500
H  9.07700 50.20700 37.64500
H  8.15700 52.05500 36.46600
H  6.46200 51.75600 36.98700
H  12.07900 56.10800 38.81800
H  12.23500 57.37300 39.94600
H  12.25500 57.69700 38.19300
H  10.02000 62.00000 38.90400
H  8.78800 61.40300 39.95300
H  8.79300 61.15500 38.10900
H  4.47900 60.24800 39.83000
H  3.24600 58.55100 42.03900
H  4.03900 60.73500 42.27200
H  5.41400 61.35800 41.47600
H  5.61200 59.95400 42.57800
H  1.92000 58.45000 39.30800
H  2.23900 60.05200 39.89000
H  0.11900 59.92800 40.68500
H  1.00900 59.18400 42.08200
H  0.06900 58.29600 40.82700
H  0.78300 52.45500 41.43900
H  0.62300 53.65900 40.09100
H  0.76000 54.22100 41.75200
H  5.41400 50.31200 40.72300
H  4.99100 47.58100 37.43600
H  4.96600 46.59800 38.87700
H  6.54200 47.13500 38.26900

