158

Mg 16.88000 -1.76000 27.19800
C  16.26800 0.39500 29.94100
C  18.88500 -3.67000 29.22800
C  17.66400 -3.55200 24.60400
C  15.10000 0.52900 25.14500
N  17.55000 -1.63800 29.29100
C  17.06500 -0.75400 30.21300
C  17.60600 -1.03300 31.63200
C  18.54300 -2.28100 31.33600
C  18.35800 -2.57600 29.87700
C  19.98300 -1.95200 31.75400
C  16.50200 -1.34700 32.71900
C  16.64700 -0.61600 34.00200
H  18.07000 -0.04200 34.47400
N  18.01100 -3.40600 26.94400
C  18.73500 -4.12500 27.93100
C  19.28700 -5.43000 27.34500
C  18.90300 -5.32400 25.96200
C  18.10900 -4.07600 25.77800
C  20.08500 -6.52900 28.03900
C  19.09800 -6.40100 24.87000
O  18.68500 -6.24200 23.73700
C  19.88600 -7.52200 25.05700
N  16.29300 -1.63700 25.17900
C  16.98100 -2.36500 24.31100
C  16.80900 -1.85100 22.86300
C  15.77100 -0.73500 23.04200
C  15.67200 -0.62300 24.49600
C  18.16900 -1.44600 22.10600
C  14.27500 -1.07300 22.49000
C  13.82400 -0.12500 21.41700
N  15.89100 0.10500 27.44300
C  15.16300 0.87800 26.51400
C  14.52400 1.93900 27.19600
C  14.93300 1.82600 28.61400
C  15.79900 0.71000 28.59900
C  13.56200 2.79100 26.54100
C  14.81200 2.38700 29.90600
O  14.13100 3.31100 30.35200
C  15.68200 1.47200 30.81000
C  16.71700 2.33400 31.55800
O  17.84900 2.50900 31.19300
O  16.04700 2.94600 32.60400
C  16.84400 3.99500 33.35300
H  19.37800 -4.43300 29.83300
H  17.98200 -4.09600 23.71200
H  14.74100 1.28600 24.44400
H  18.17500 -0.17400 31.98700
H  18.34500 -3.11900 32.00500
H  20.04900 -1.37400 32.67600
H  20.48500 -1.42600 30.94100
H  20.43500 -2.91900 31.97600
H  16.43700 -2.41200 32.94300
H  15.58600 -1.00500 32.23900
H  16.29800 -1.27600 34.79600
H  15.90600 0.18200 33.95900
H  20.56200 -6.05300 28.89600
H  20.85500 -6.88300 27.35400
H  19.41400 -7.34300 28.31400
H  19.51200 -8.18500 25.83700
H  20.90700 -7.15200 25.15900
H  19.70200 -8.10800 24.15700
H  16.45900 -2.69000 22.26100
H  16.20000 0.18000 22.63200
H  18.16100 -0.43200 21.70600
H  18.41100 -1.95400 21.17300
H  18.97700 -1.59300 22.82300
H  13.54800 -0.98400 23.29700
H  14.31200 -2.05200 22.01100
H  13.25700 0.69000 21.86700
H  13.25200 -0.68200 20.67500
H  14.62800 0.37900 20.88000
H  12.70900 2.20500 26.19900
H  14.07200 3.37600 25.77600
H  13.11900 3.51200 27.22800
H  15.07100 1.10000 31.63300
H  17.61000 4.48900 32.75500
H  17.34400 3.67200 34.26700
H  16.20000 4.81400 33.67000
Mg 0.08100 43.58900 26.16400
C  2.34700 42.88700 28.81300
C  -2.31100 42.17400 28.24800
C  -2.11500 43.54400 23.72100
C  2.70700 44.19600 23.99600
N  0.09100 42.76300 28.30100
C  1.07000 42.79600 29.27700
C  0.50700 42.31600 30.58600
C  -0.95300 41.94200 30.29100
C  -1.09100 42.32600 28.85600
C  -1.46000 40.48100 30.65300
C  0.47400 43.57500 31.57500
C  -0.19600 43.45000 32.97300
H  -0.55100 42.07100 33.54400
N  -2.05800 43.08600 26.01600
C  -2.79100 42.49000 26.95500
C  -4.18100 42.25500 26.49200
C  -4.14900 42.61500 25.14000
C  -2.76900 43.11900 24.90400
C  -5.24800 41.79900 27.41300
C  -5.32300 42.66400 24.11200
O  -5.22100 42.94000 22.93700
C  -6.70300 42.36400 24.56500
N  0.27400 43.91700 24.19100
C  -0.80200 43.95400 23.38700
C  -0.42900 44.21500 21.85000
C  1.05800 44.53400 22.02100
C  1.39600 44.21100 23.49800
C  -0.68700 42.97100 20.91600
C  1.53200 45.92800 21.69500
C  1.26100 47.14000 22.57900
N  2.16000 43.67800 26.34600
C  3.08900 43.92500 25.31900
C  4.43800 43.72400 25.95500
C  4.13500 43.42900 27.30300
C  2.77900 43.28900 27.47600
C  5.74300 43.93400 25.21400
C  4.86400 43.06200 28.49700
O  6.02200 42.94600 28.75200
C  3.63200 42.89500 29.62000
C  3.85600 41.74600 30.56500
O  3.68400 40.64700 30.20100
O  4.10200 42.16200 31.91800
C  4.29600 40.95800 32.83400
H  -3.06500 41.81100 28.95000
H  -2.75200 43.43800 22.84100
H  3.42800 44.58500 23.27500
H  1.11900 41.47900 30.92200
H  -1.55400 42.60100 30.91900
H  -0.71900 39.94600 31.24600
H  -1.77000 39.80100 29.85900
H  -2.32500 40.49900 31.31700
H  -0.05900 44.32500 30.99100
H  1.47800 43.96300 31.74800
H  -1.10600 44.03300 33.11200
H  0.54900 43.92900 33.60800
H  -5.64000 42.74000 27.79900
H  -4.95900 41.08100 28.18000
H  -6.11300 41.40000 26.88300
H  -6.95600 42.82400 25.52000
H  -6.71200 41.27800 24.66100
H  -7.48400 42.67600 23.87200
H  -1.02400 45.03500 21.44800
H  1.60800 43.84700 21.37800
H  0.23500 42.70600 20.39700
H  -1.55400 43.16700 20.28500
H  -0.95200 42.11100 21.53200
H  1.11600 46.24400 20.73800
H  2.60000 45.86500 21.48800
H  0.95500 47.95900 21.92900
H  2.23800 47.40200 22.98700
H  0.63100 46.95900 23.45100
H  5.50000 44.78600 24.57900
H  6.17800 43.16700 24.57300
H  6.50400 44.16700 25.95900
H  3.66300 43.79100 30.24000
H  3.68900 40.07100 32.65600
H  4.24300 41.24300 33.88500
H  5.32300 40.60700 32.73800

