158

Mg 44.86000 4.73700 47.47300
C  42.81600 7.50400 47.14300
C  42.07400 2.77600 46.92100
C  46.93700 2.11500 47.09600
C  47.52500 6.93800 47.51100
N  42.67500 5.17200 47.07400
C  42.06400 6.35600 46.96400
C  40.57700 6.22000 46.55300
C  40.34300 4.70900 46.96300
C  41.80300 4.15600 47.02800
C  39.46300 4.45400 48.26100
C  40.44300 6.41500 45.01600
C  39.72800 7.63900 44.58600
H  40.17600 8.38200 43.28700
N  44.51400 2.72800 47.18200
C  43.31500 2.12700 46.94900
C  43.49000 0.68500 46.75000
C  44.92200 0.46400 46.82300
C  45.55500 1.76900 47.05200
C  42.40800 -0.35600 46.49200
C  45.49300 -0.90900 46.72200
O  44.79900 -1.87200 46.59400
C  46.96600 -1.18600 46.82900
N  46.92100 4.55700 47.18200
C  47.55900 3.33600 47.33600
C  49.10200 3.48000 47.39800
C  49.25100 4.95500 47.72200
C  47.84100 5.54000 47.53600
C  49.70100 2.50300 48.42000
C  50.44900 5.70500 47.00300
C  51.36100 6.66000 47.75800
N  45.15300 6.79800 47.35800
C  46.31300 7.54700 47.32900
C  45.95300 8.99000 47.35200
C  44.60600 8.99900 47.31800
C  44.19500 7.63200 47.23800
C  46.95400 10.22000 47.37200
C  43.40200 9.80000 47.31900
O  43.29300 11.04400 47.40300
C  42.17700 8.87700 47.11200
C  41.25800 9.07300 48.33000
O  41.21600 8.32900 49.32900
O  40.34200 10.07800 48.04900
C  39.33300 10.29700 49.08300
H  41.16600 2.21900 46.68100
H  47.59300 1.24200 47.09400
H  48.34000 7.65900 47.59600
H  39.93800 6.92100 47.08900
H  40.00500 4.14200 46.09500
H  38.81800 5.31700 48.42600
H  40.18700 4.33200 49.06700
H  38.98400 3.47500 48.24400
H  39.94000 5.53600 44.61200
H  41.47900 6.42900 44.67900
H  39.69900 8.35700 45.40500
H  38.67300 7.44800 44.38900
H  42.62800 -0.85200 45.54600
H  41.44000 0.11400 46.31500
H  42.17400 -1.02800 47.31800
H  47.29000 -2.22000 46.71100
H  47.28800 -0.85100 47.81500
H  47.55600 -0.62400 46.10500
H  49.44400 3.21100 46.39800
H  49.31200 5.23100 48.77500
H  50.32200 3.05700 49.12500
H  50.36700 1.74900 48.00200
H  48.95400 1.94600 48.98600
H  49.96300 6.39300 46.31200
H  51.04500 5.01500 46.40600
H  51.06400 6.58400 48.80400
H  51.18100 7.69300 47.46000
H  52.43300 6.49400 47.65000
H  47.41900 10.36400 46.39700
H  47.72500 10.04400 48.12300
H  46.44200 11.14600 47.63500
H  41.65700 9.10700 46.18200
H  38.92900 11.27800 48.83200
H  39.70300 10.38300 50.10500
H  38.49300 9.62700 48.90100
Mg 35.74000 3.58200 30.15300
C  33.14300 4.09000 32.63700
C  37.97600 3.38100 32.70800
C  37.95800 2.81100 27.82700
C  33.30300 3.98600 27.59900
N  35.56400 3.94000 32.44900
C  34.44200 4.01500 33.19200
C  34.83500 3.95900 34.74800
C  36.39100 4.08600 34.69400
C  36.72300 3.69300 33.21300
C  37.08100 5.43400 35.14100
C  34.41900 2.65600 35.39900
C  33.74700 2.71000 36.76400
H  34.31600 3.72000 37.70000
N  37.75200 3.18500 30.31200
C  38.52800 3.21000 31.45300
C  39.88800 2.98600 30.98000
C  39.84600 2.61400 29.57500
C  38.45500 2.88700 29.17100
C  41.14100 3.12500 31.85300
C  40.91900 2.12500 28.62500
O  40.67100 2.02900 27.43100
C  42.38700 1.99500 29.06500
N  35.75500 3.71700 27.98600
C  36.79500 3.16400 27.22900
C  36.37100 2.90400 25.75200
C  34.85100 3.21100 25.79000
C  34.59000 3.65600 27.23400
C  37.13500 3.80700 24.81500
C  34.11100 1.87900 25.52600
C  33.09000 1.82700 24.37700
N  33.67600 4.07300 30.09400
C  32.80500 4.15700 28.96800
C  31.41900 4.33100 29.42400
C  31.50400 4.35800 30.83000
C  32.86600 4.15800 31.19100
C  30.16300 4.29000 28.52600
C  30.74500 4.39500 32.12100
O  29.55200 4.53900 32.24800
C  31.80500 4.23700 33.30400
C  31.71300 5.46500 34.13500
O  32.17700 6.54700 33.83200
O  31.24100 5.07000 35.33900
C  31.17600 6.08500 36.38700
H  38.74300 3.27600 33.47800
H  38.60300 2.57800 26.97700
H  32.48400 3.94300 26.87800
H  34.37000 4.81800 35.23200
H  36.82900 3.33400 35.35000
H  37.91200 5.71800 34.49600
H  37.50200 5.37500 36.14500
H  36.34400 6.23800 35.15700
H  35.28700 1.99800 35.44300
H  33.83200 2.17000 34.62000
H  33.87200 1.69900 37.15100
H  32.67600 2.84900 36.61500
H  41.49800 2.11800 32.06800
H  40.95500 3.66500 32.78100
H  41.94500 3.60200 31.29200
H  43.07600 1.58200 28.32800
H  42.28800 1.40300 29.97500
H  42.67700 3.01800 29.30600
H  36.63900 1.87800 25.50100
H  34.49100 3.99900 25.12900
H  36.45700 4.39500 24.19600
H  37.64200 3.12200 24.13600
H  37.81300 4.49100 25.32500
H  33.60500 1.50300 26.41500
H  34.72500 1.03100 25.22300
H  32.98100 2.75000 23.80700
H  32.16400 1.40700 24.77000
H  33.37200 1.15700 23.56500
H  30.09900 5.27400 28.06200
H  29.23200 4.20200 29.08700
H  30.26000 3.46400 27.82100
H  31.65900 3.40100 33.98800
H  30.47900 6.84700 36.03700
H  32.13600 6.57500 36.54900
H  30.69100 5.69000 37.28000

