158

Mg 24.71800 1.49300 29.53800
C  26.44800 1.14900 32.53600
C  21.83300 1.99300 31.37800
C  23.00500 1.36000 26.69400
C  27.75900 0.63500 27.78600
N  24.19800 1.56300 31.70700
C  25.11900 1.56400 32.69600
C  24.44300 1.87700 34.05400
C  22.94000 2.11200 33.70700
C  22.94200 1.77400 32.18400
C  22.02600 1.19800 34.45700
C  25.00300 3.11500 34.80700
C  25.46500 2.89300 36.20700
H  25.40900 4.03900 37.14100
N  22.70800 1.76100 29.12300
C  21.68800 1.97700 29.98000
C  20.47800 2.03100 29.27900
C  20.78200 1.91000 27.87500
C  22.24400 1.74900 27.84500
C  19.21300 2.33700 29.96400
C  19.79700 1.94100 26.71000
O  20.16100 1.68200 25.52800
C  18.40800 2.16300 26.81200
N  25.36700 1.21200 27.54700
C  24.41000 1.16800 26.54200
C  24.99500 0.66700 25.27300
C  26.48400 0.82100 25.56200
C  26.58700 0.92000 27.02000
C  24.46900 -0.73600 24.99100
C  27.16500 2.01700 24.76800
C  26.48300 3.40400 24.94000
N  26.74600 1.03000 29.99600
C  27.84100 0.76100 29.18900
C  28.98700 0.60100 30.05300
C  28.49200 0.78000 31.34000
C  27.11400 1.04800 31.28600
C  30.37000 0.25000 29.65900
C  28.90200 0.77500 32.67100
O  30.00900 0.66700 33.16400
C  27.61200 0.99600 33.50100
C  27.46100 -0.18200 34.42300
O  26.70700 -1.14900 34.35000
O  28.43600 -0.10300 35.39500
C  28.43400 -1.02800 36.50700
H  21.02900 2.30700 32.04700
H  22.44000 1.13600 25.78700
H  28.67400 0.45100 27.21900
H  24.59300 0.98000 34.65300
H  22.67000 3.13800 33.95600
H  21.57700 0.54500 33.70800
H  21.25600 1.73700 35.00800
H  22.63300 0.57800 35.11700
H  24.32900 3.97100 34.76200
H  25.87000 3.38600 34.20400
H  26.45600 2.44000 36.24600
H  24.89200 2.08900 36.66800
H  19.12100 2.46700 31.04200
H  18.56300 1.54300 29.59500
H  18.80700 3.25500 29.54000
H  18.26100 2.88300 27.61600
H  18.00300 1.18300 27.06600
H  17.88000 2.56200 25.94700
H  24.78800 1.32300 24.42700
H  27.00400 -0.09100 25.26900
H  23.74700 -0.54600 24.19600
H  24.02500 -1.18600 25.87900
H  25.16200 -1.42600 24.51000
H  27.18400 1.72400 23.71800
H  28.19700 2.22600 25.04800
H  25.75900 3.46600 25.75200
H  25.97500 3.68100 24.01600
H  27.25300 4.12600 25.21300
H  30.56500 0.47300 28.61000
H  30.62400 -0.80100 29.79100
H  31.03800 0.78800 30.33300
H  27.74600 1.84100 34.17600
H  27.59700 -0.68800 37.11700
H  29.28200 -1.04800 37.19200
H  28.25800 -2.06000 36.20400
Mg 9.67600 47.47400 26.58200
C  7.60500 47.78200 29.42500
C  12.23500 48.83800 28.38800
C  11.58700 47.52300 23.76100
C  6.73500 47.22600 24.58800
N  9.90000 48.26100 28.63300
C  8.96900 48.17200 29.68700
C  9.59800 48.51900 31.00500
C  10.88800 49.29800 30.53700
C  10.99100 48.81400 29.10900
C  10.77400 50.84200 30.65400
C  10.06200 47.33500 31.92000
C  10.17200 47.55100 33.46900
H  9.74600 46.36600 34.44300
N  11.65800 47.73900 26.26800
C  12.53400 48.30300 27.12700
C  13.82800 48.27400 26.54100
C  13.65200 47.79000 25.22700
C  12.25700 47.66800 25.03000
C  15.12700 48.65900 27.22100
C  14.65000 47.36500 24.16900
O  14.38000 47.04100 23.03700
C  16.07600 47.19700 24.47400
N  9.15400 47.43000 24.41700
C  10.16500 47.32100 23.53600
C  9.61900 46.95800 22.22200
C  8.09600 46.59100 22.49700
C  7.91600 47.12200 23.92400
C  9.86700 48.04100 21.10400
C  7.75700 45.10100 22.48200
C  8.79100 44.15100 23.14300
N  7.54400 47.53300 26.81700
C  6.49900 47.38200 25.90400
C  5.25400 47.24300 26.69000
C  5.71800 47.29500 28.06000
C  7.07800 47.55300 28.11200
C  3.88000 47.04400 26.23700
C  5.28700 47.11700 29.40000
O  4.19800 46.79000 29.79500
C  6.50300 47.48500 30.38600
C  6.74100 46.30400 31.20600
O  7.08400 45.21200 30.73100
O  6.41900 46.52700 32.44400
C  6.46600 45.35900 33.32300
H  13.00900 49.40500 28.90900
H  12.16500 47.44700 22.83800
H  5.79000 47.10900 24.05300
H  8.82100 49.06000 31.54500
H  11.74800 48.97900 31.12600
H  9.83000 51.21800 31.04700
H  10.90600 51.22800 29.64300
H  11.47000 51.26300 31.37900
H  11.03900 47.06300 31.52000
H  9.49500 46.44700 31.64000
H  9.50800 48.37900 33.71700
H  11.17200 47.82500 33.80600
H  14.81100 49.01100 28.20300
H  15.58400 49.51000 26.71700
H  15.83000 47.83800 27.36100
H  16.26500 46.36000 25.14600
H  16.49200 48.17000 24.73500
H  16.49900 46.80800 23.54700
H  10.15300 46.08900 21.83600
H  7.39100 47.10300 21.84200
H  10.68500 47.64500 20.50100
H  10.24600 48.96900 21.53000
H  8.96600 48.14200 20.49900
H  7.55700 44.72900 21.47800
H  6.94100 44.84300 23.15600
H  8.21600 43.63800 23.91400
H  9.67300 44.54700 23.64700
H  9.10700 43.38800 22.43100
H  3.34800 46.56500 27.06000
H  3.88400 46.29600 25.44500
H  3.32000 47.97400 26.13700
H  6.22800 48.28300 31.07600
H  7.06900 44.55700 32.89800
H  5.44000 45.09300 33.57800
H  6.93300 45.62900 34.27100

