158

Mg 24.94300 -8.49600 47.79200
C  27.04400 -5.99000 46.63200
C  22.51800 -7.61000 45.43500
C  23.13300 -11.17800 48.66800
C  27.70500 -9.92700 49.46800
N  24.91500 -7.19800 46.04700
C  25.89500 -6.19300 45.80300
C  25.44700 -5.20600 44.70600
C  23.98000 -5.66300 44.33800
C  23.81100 -6.91400 45.32000
C  22.90700 -4.48500 44.54700
C  26.45500 -5.15400 43.52900
C  26.79400 -3.81200 42.92200
H  26.98100 -3.85200 41.41300
N  23.02900 -9.20600 47.17900
C  22.21100 -8.65000 46.26800
C  21.05400 -9.43100 46.14200
C  21.16300 -10.59200 46.97000
C  22.51000 -10.43000 47.65700
C  19.89000 -9.05100 45.26400
C  20.26700 -11.82000 47.07200
O  19.16700 -11.83800 46.53700
C  20.59400 -12.98800 47.88800
N  25.46400 -10.32500 48.87200
C  24.42900 -11.11400 49.28400
C  24.95400 -12.12800 50.37300
C  26.49800 -11.85700 50.44200
C  26.52600 -10.59000 49.63900
C  24.32200 -11.95000 51.73800
C  27.39200 -13.03200 49.84200
C  27.86500 -14.07800 50.89900
N  26.89800 -8.03000 48.15900
C  27.95700 -8.74300 48.79900
C  29.16000 -7.82200 48.87300
C  28.82200 -6.73900 48.06100
C  27.46200 -6.93100 47.61300
C  30.41800 -8.14500 49.60200
C  29.24800 -5.48300 47.53700
O  30.30100 -4.84900 47.64600
C  28.09300 -4.98800 46.56100
C  27.79200 -3.60600 46.97400
O  27.51800 -3.28500 48.07800
O  27.86100 -2.80200 45.83500
C  27.78200 -1.37800 46.14000
H  21.73000 -7.18300 44.81200
H  22.66400 -11.99600 49.22000
H  28.57400 -10.42200 49.90600
H  25.51300 -4.18900 45.09400
H  23.96700 -6.05100 43.32000
H  22.70200 -4.04700 43.57000
H  23.27000 -3.77100 45.28700
H  21.88400 -4.62200 44.90000
H  26.00100 -5.65100 42.67100
H  27.34800 -5.56600 43.99900
H  27.73500 -3.44300 43.32900
H  26.00100 -3.09500 43.13000
H  20.05200 -9.67400 44.38400
H  19.94900 -8.01900 44.91900
H  18.93000 -9.18000 45.76300
H  21.67200 -13.11300 47.78400
H  20.05800 -13.81400 47.41900
H  20.34600 -12.81100 48.93400
H  24.92700 -13.16200 50.03000
H  26.90700 -11.55000 51.40400
H  23.29900 -11.61300 51.57400
H  24.77400 -11.17200 52.35300
H  24.42700 -12.88500 52.29000
H  28.23200 -12.66900 49.24900
H  26.83200 -13.47200 49.01700
H  28.81900 -14.50900 50.59800
H  27.04000 -14.78700 50.83100
H  27.90200 -13.61500 51.88600
H  31.16400 -7.44000 49.23500
H  30.85800 -9.12700 49.42400
H  30.13600 -7.92100 50.63100
H  28.55600 -4.95900 45.57500
H  28.07100 -1.04100 47.13500
H  26.75300 -1.09800 45.91800
H  28.27700 -0.78300 45.37200
Mg 45.56400 24.71400 29.04400
C  46.24100 27.16600 31.36000
C  44.62700 22.51900 31.39900
C  45.34300 22.32500 26.62700
C  46.75300 26.89200 26.48700
N  45.30700 24.85400 31.15400
C  45.78700 25.91400 31.91000
C  45.50300 25.63300 33.36500
C  45.07800 24.12300 33.36500
C  44.92500 23.81000 31.90600
C  46.13500 23.24500 34.03600
C  44.36700 26.52900 33.94700
C  44.77700 27.32200 35.25300
H  43.73100 27.42700 36.36200
N  44.80700 22.70600 29.03000
C  44.47200 22.00300 30.14200
C  43.98900 20.78900 29.67800
C  44.33800 20.60900 28.28800
C  44.83200 21.91600 27.87900
C  43.30500 19.86000 30.64700
C  44.22700 19.32100 27.33800
O  44.64300 19.27600 26.17100
C  43.71600 18.04500 27.90100
N  46.17600 24.56200 26.88400
C  45.91100 23.42700 26.12600
C  46.36600 23.63800 24.66600
C  46.49700 25.16000 24.57100
C  46.50200 25.60100 26.04800
C  47.69800 22.89600 24.34000
C  45.30400 25.72900 23.83600
C  43.93500 25.88800 24.55600
N  46.27700 26.60000 28.95700
C  46.73900 27.35500 27.85100
C  47.16200 28.67900 28.31000
C  46.97100 28.66500 29.68800
C  46.49900 27.37400 29.99200
C  47.66200 29.75200 27.43500
C  47.07000 29.40700 30.91600
O  47.50700 30.56900 31.03300
C  46.80700 28.44000 32.08800
C  48.01300 28.14500 32.90200
O  48.96700 27.47200 32.52100
O  47.85500 28.62600 34.16200
C  48.78800 28.20900 35.20200
H  44.36400 21.89300 32.25500
H  45.36800 21.53300 25.87500
H  46.76100 27.80000 25.88000
H  46.43400 25.80500 33.90600
H  44.07600 23.93900 33.75300
H  45.83400 22.19800 34.08100
H  46.14700 23.65400 35.04600
H  47.13500 23.10700 33.62400
H  43.40500 26.05600 34.14300
H  44.12700 27.28100 33.19500
H  45.13100 28.33100 35.03900
H  45.66700 26.85400 35.67500
H  42.36600 19.47700 30.24700
H  43.37400 20.12700 31.70100
H  43.90200 18.94900 30.68300
H  42.63600 18.17000 27.97500
H  44.23500 18.07400 28.85900
H  44.02100 17.20300 27.28000
H  45.66200 23.26300 23.92200
H  47.43500 25.46800 24.10900
H  47.59600 22.35400 23.40000
H  47.97600 22.20900 25.13900
H  48.54200 23.55400 24.13200
H  45.10100 25.25900 22.87400
H  45.48100 26.76200 23.54000
H  44.01600 26.90100 24.95000
H  43.73200 25.07300 25.25200
H  43.17000 25.94400 23.78300
H  48.00100 29.33700 26.48500
H  48.51900 30.18600 27.95000
H  46.93300 30.54800 27.28700
H  46.00900 28.77500 32.75100
H  49.72800 27.83700 34.79400
H  48.52800 27.37400 35.85300
H  49.06400 29.11000 35.75000

