158

Mg 35.74600 2.89900 30.28500
C  33.19600 3.70900 32.44300
C  38.08500 3.12900 32.79200
C  38.16300 2.25400 27.97600
C  33.41200 2.86200 27.69500
N  35.62400 3.27900 32.32000
C  34.47100 3.54600 33.05700
C  34.76400 3.39800 34.51000
C  36.29200 3.71300 34.57200
C  36.70800 3.30300 33.08900
C  36.67600 5.14600 34.91500
C  34.35400 2.08600 35.20700
C  33.88300 2.27500 36.65900
H  34.66100 3.32200 37.47100
N  37.85800 2.64400 30.36000
C  38.61100 2.71100 31.57100
C  40.01100 2.43800 31.22200
C  40.08900 2.19800 29.77000
C  38.68200 2.36400 29.29000
C  41.01700 2.45000 32.31100
C  41.19600 1.79300 28.90600
O  41.19000 1.70300 27.68400
C  42.49600 1.45600 29.57200
N  35.71000 2.66200 28.11300
C  36.86700 2.50500 27.40400
C  36.57400 2.11100 25.93300
C  35.01700 2.28300 25.86600
C  34.66300 2.43700 27.31500
C  37.39100 2.82900 24.90200
C  34.40400 1.00900 25.23300
C  34.00400 1.18900 23.73000
N  33.76700 3.32600 30.12200
C  32.94400 3.21900 28.97700
C  31.58900 3.63200 29.32400
C  31.57200 3.73500 30.70000
C  32.94400 3.56100 31.11400
C  30.46900 3.55100 28.43800
C  30.85400 3.88100 31.89800
O  29.64800 3.96300 32.16200
C  31.91000 3.86900 33.06200
C  31.73500 5.11900 33.85900
O  31.66600 6.23600 33.40200
O  31.75900 4.82200 35.20900
C  31.64300 5.95900 36.10800
H  38.81600 3.32800 33.57900
H  38.88600 1.96200 27.21200
H  32.61000 2.94200 26.95900
H  34.21400 4.25000 34.90800
H  36.80200 3.00400 35.22400
H  35.95100 5.70700 35.50400
H  37.02400 5.70700 34.04700
H  37.53500 5.08100 35.58300
H  35.09700 1.29000 35.17000
H  33.51500 1.66600 34.65200
H  33.85000 1.31600 37.17700
H  32.81000 2.47100 36.66200
H  41.60900 3.29600 31.96000
H  41.56000 1.51000 32.40400
H  40.69600 2.68600 33.32600
H  43.22300 1.36700 28.76400
H  42.41100 0.47400 30.03500
H  42.99700 2.15500 30.24200
H  36.92400 1.07900 25.95300
H  34.76500 3.24500 25.42100
H  38.22400 2.19400 24.60000
H  37.87800 3.76000 25.19300
H  36.73300 2.95100 24.04100
H  33.50700 0.68900 25.76400
H  35.08500 0.16300 25.32700
H  34.79400 1.63500 23.12600
H  33.10400 1.80300 23.69100
H  33.55900 0.26400 23.36400
H  30.57300 2.93000 27.54800
H  30.09200 4.53200 28.14900
H  29.69900 3.00900 28.98700
H  31.84100 2.96500 33.66600
H  32.33600 6.74800 35.81800
H  31.90900 5.62200 37.11000
H  30.58900 6.22800 36.03800
Mg 0.20400 44.03100 25.67000
C  1.93300 43.74200 28.77500
C  -2.67100 43.28200 27.58000
C  -1.31400 43.58400 22.86600
C  3.28600 44.30800 24.08800
N  -0.29900 43.75000 27.97600
C  0.57100 43.69100 29.04300
C  -0.16100 43.56900 30.34400
C  -1.66200 43.27200 29.94100
C  -1.55700 43.49400 28.37700
C  -2.26600 41.92100 30.32800
C  0.01800 44.93500 31.19600
C  0.33000 44.62500 32.70000
H  -0.33900 43.46800 33.42800
N  -1.77800 43.72800 25.26800
C  -2.78600 43.37100 26.16000
C  -3.96500 43.21100 25.42400
C  -3.70000 43.46500 24.06500
C  -2.17000 43.54200 23.96500
C  -5.30100 42.90900 26.04000
C  -4.55600 43.51100 22.78000
O  -4.12200 43.74000 21.67400
C  -6.07300 43.55100 22.91400
N  0.94600 43.91100 23.82400
C  0.03600 43.89000 22.78600
C  0.76000 43.67100 21.42800
C  2.21300 44.13400 21.83600
C  2.17300 44.27900 23.34000
C  0.69800 42.19900 21.00700
C  2.73900 45.35800 21.09900
C  2.86500 46.72900 21.75000
N  2.27300 44.02400 26.24400
C  3.35200 44.21300 25.48300
C  4.51900 44.29900 26.38500
C  4.02200 43.95100 27.68500
C  2.61000 43.91300 27.53700
C  5.92900 44.66300 25.98600
C  4.36600 43.85200 29.10800
O  5.44800 43.83900 29.67100
C  3.01400 43.64800 29.80900
C  3.08300 42.53100 30.77100
O  2.71300 41.35000 30.62500
O  3.51200 43.01400 31.97000
C  3.63500 42.10900 33.12800
H  -3.54700 42.98000 28.15700
H  -1.67900 43.48700 21.84200
H  4.22200 44.38800 23.53000
H  0.24500 42.68300 30.83300
H  -2.27900 44.07700 30.34000
H  -2.16300 41.19600 29.52100
H  -3.29600 42.07000 30.65200
H  -1.75500 41.59400 31.23400
H  -0.87500 45.55700 31.25900
H  0.82000 45.60500 30.88800
H  0.11600 45.53400 33.26200
H  1.39500 44.46100 32.86100
H  -6.10200 43.63700 25.91400
H  -5.15400 42.59600 27.07400
H  -5.67100 42.01600 25.53700
H  -6.55600 42.58200 23.04100
H  -6.39300 43.91900 21.93900
H  -6.34700 44.27700 23.68000
H  0.36800 44.30500 20.63200
H  2.85700 43.29000 21.58700
H  0.42600 41.61600 21.88700
H  1.55200 41.87000 20.41500
H  -0.24800 42.04100 20.48800
H  2.09400 45.57000 20.24700
H  3.68700 45.04400 20.66200
H  2.34400 46.64000 22.70300
H  2.29300 47.42200 21.13300
H  3.91500 47.01100 21.82900
H  6.42400 44.51300 26.94500
H  6.10900 45.71500 25.76500
H  6.23600 44.00500 25.17200
H  3.03200 44.52000 30.46300
H  4.68400 41.81300 33.12200
H  2.91300 41.29900 33.22700
H  3.51200 42.71000 34.02900

