158

Mg -11.90400 16.58300 42.86600
C  -8.48000 17.07000 42.90800
C  -12.40400 19.71100 41.95700
C  -15.22300 15.88200 42.69700
C  -11.24900 13.07600 43.26400
N  -10.58900 18.12800 42.47800
C  -9.23800 18.20800 42.65400
C  -8.70300 19.49400 42.08200
C  -9.96500 20.43500 41.97000
C  -11.08400 19.43200 42.23100
C  -9.92000 21.57800 42.97600
C  -7.99500 19.45400 40.65600
C  -6.75200 20.28700 40.40700
H  -5.53300 19.74800 39.71500
N  -13.57700 17.59600 42.24100
C  -13.54200 18.88900 41.90000
C  -14.90300 19.37200 41.65000
C  -15.78800 18.29800 41.95500
C  -14.86000 17.15800 42.31200
C  -15.26200 20.87700 41.31800
C  -17.32000 18.34500 41.93900
O  -17.83300 19.42500 41.77200
C  -18.17600 17.16600 42.16400
N  -13.11100 14.69200 42.60100
C  -14.47800 14.73400 42.81200
C  -14.91200 13.40400 43.33100
C  -13.67600 12.53800 43.42400
C  -12.64200 13.48400 43.11400
C  -15.87700 13.46800 44.58200
C  -13.51700 11.42200 42.32600
C  -13.02200 10.08300 42.84300
N  -10.21800 15.31800 43.11400
C  -10.10300 13.89600 43.18200
C  -8.74400 13.50100 43.36800
C  -8.00300 14.74700 43.26100
C  -8.97700 15.72400 43.07500
C  -8.23400 12.03800 43.44400
C  -6.74100 15.37900 43.21600
O  -5.60900 14.87700 43.29200
C  -7.01700 16.93800 43.06000
C  -6.45500 17.65800 44.27500
O  -6.98100 17.87400 45.33200
O  -5.18600 18.10100 44.02200
C  -4.46400 18.57800 45.22900
H  -12.55200 20.78600 41.83100
H  -16.28300 15.62100 42.72600
H  -11.10100 12.05100 43.61000
H  -7.95700 19.86500 42.78500
H  -10.25700 20.82200 40.99400
H  -8.90600 21.77000 43.32500
H  -10.39500 21.16900 43.86800
H  -10.45800 22.45800 42.62400
H  -8.69800 19.84200 39.91900
H  -7.74000 18.41100 40.46400
H  -6.40800 20.45900 41.42600
H  -7.10500 21.26100 40.06700
H  -15.46900 21.16100 40.28600
H  -14.56100 21.55200 41.80900
H  -16.13700 21.19400 41.88500
H  -19.21200 17.18400 41.82400
H  -18.18100 16.99000 43.23900
H  -17.77100 16.27400 41.68500
H  -15.42600 13.01600 42.45100
H  -13.57500 12.23200 44.46500
H  -15.88600 14.39000 45.16300
H  -15.75800 12.69800 45.34400
H  -16.89400 13.37300 44.20200
H  -12.77000 11.64900 41.56500
H  -14.42800 11.24800 41.75300
H  -13.77600 9.44000 42.38800
H  -13.30000 10.12700 43.89700
H  -11.99200 9.82100 42.60400
H  -7.33200 12.07600 44.05600
H  -7.88800 11.68300 42.47400
H  -8.92500 11.30000 43.84900
H  -6.33600 17.44200 42.37500
H  -4.82900 19.52800 45.61900
H  -3.39000 18.71800 45.10300
H  -4.53800 17.81800 46.00600
Mg -4.80400 25.60100 26.12300
C  -3.31500 27.01100 28.87900
C  -6.51000 23.34000 28.27400
C  -6.00700 23.99000 23.53300
C  -2.76900 27.63600 24.02400
N  -4.94100 25.28900 28.29200
C  -4.24700 26.04200 29.25000
C  -4.71900 25.69800 30.72500
C  -5.68200 24.42700 30.39200
C  -5.70500 24.36200 28.87900
C  -5.06300 23.15900 31.03400
C  -5.46400 26.95000 31.28500
C  -5.25400 27.17300 32.73100
H  -5.18500 25.99200 33.68300
N  -6.14500 23.90100 25.95800
C  -6.74000 23.14900 26.95200
C  -7.68500 22.28700 26.34100
C  -7.65200 22.51700 24.92100
C  -6.62100 23.52000 24.72100
C  -8.49400 21.33200 27.23600
C  -8.47200 21.91200 23.88500
O  -8.50700 22.34800 22.72600
C  -9.56200 20.89400 24.24800
N  -4.48400 25.85400 24.12200
C  -5.12000 25.00600 23.29300
C  -4.94000 25.45500 21.77400
C  -3.89600 26.63400 21.95100
C  -3.65400 26.67100 23.42800
C  -4.40500 24.36100 20.79100
C  -4.27400 28.01900 21.33400
C  -3.09000 28.73000 20.70200
N  -3.16700 26.86100 26.31400
C  -2.54400 27.72900 25.43000
C  -1.53800 28.54100 26.19200
C  -1.79000 28.32700 27.54800
C  -2.81600 27.28800 27.57000
C  -0.49000 29.50400 25.61400
C  -1.37600 28.68700 28.86500
O  -0.50800 29.48400 29.25800
C  -2.34100 27.84300 29.80000
C  -1.47300 27.05500 30.71500
O  -1.14200 25.89700 30.61600
O  -1.20600 27.92900 31.73200
C  -0.75000 27.39000 32.93400
H  -6.93800 22.63200 28.98700
H  -6.40100 23.65200 22.57200
H  -2.20400 28.33200 23.40000
H  -3.83200 25.48100 31.32100
H  -6.72300 24.53300 30.70000
H  -3.97600 23.16800 30.95000
H  -5.60400 22.28600 30.67100
H  -5.25700 23.22300 32.10500
H  -6.53700 26.83600 31.12600
H  -5.08600 27.81200 30.73600
H  -5.97100 27.86200 33.17700
H  -4.26100 27.59300 32.88800
H  -8.13600 20.30400 27.18900
H  -9.55900 21.20600 27.04600
H  -8.32100 21.63600 28.26900
H  -10.21500 20.51800 23.46100
H  -10.20800 21.43100 24.94200
H  -9.08600 20.01300 24.67700
H  -5.94800 25.71900 21.45400
H  -3.01400 26.39400 21.35600
H  -4.00200 23.50100 21.32600
H  -3.61000 24.70000 20.12800
H  -5.12600 24.09700 20.01600
H  -4.73000 28.69200 22.06000
H  -5.08600 27.81900 20.63500
H  -3.39800 29.05200 19.70700
H  -2.21700 28.09000 20.57600
H  -2.98400 29.64700 21.28100
H  0.08300 30.01600 26.38700
H  -1.18400 30.24400 25.21600
H  0.27000 29.18400 24.90100
H  -2.89900 28.65200 30.27100
H  0.33600 27.37500 33.03100
H  -1.16200 26.39600 33.10800
H  -1.10300 27.94600 33.80200

