158

Mg 16.84100 -3.47500 28.31300
C  15.73500 -1.27700 30.84900
C  18.67900 -5.08300 30.61800
C  18.10000 -5.26400 25.79700
C  15.26900 -1.38600 25.97200
N  17.21900 -3.10800 30.52000
C  16.65800 -2.21300 31.32300
C  16.99500 -2.43600 32.80700
C  18.10300 -3.53200 32.74000
C  17.98500 -3.99100 31.22700
C  19.48600 -3.01100 33.04800
C  15.73500 -2.98900 33.57000
C  15.67900 -2.53400 35.03100
H  16.93300 -2.08400 35.79300
N  18.08200 -5.12100 28.20900
C  18.69000 -5.70400 29.30500
C  19.25900 -6.93200 28.94500
C  19.14100 -7.02600 27.51900
C  18.34800 -5.80500 27.09900
C  20.01000 -7.87800 29.80800
C  19.72300 -8.00000 26.46300
O  19.47000 -7.90800 25.27400
C  20.46400 -9.19600 26.89800
N  16.82000 -3.30500 26.20600
C  17.45300 -4.15300 25.42500
C  17.38500 -3.77400 23.92000
C  16.28600 -2.71600 23.94300
C  16.13600 -2.37400 25.44900
C  18.71000 -3.36400 23.26400
C  14.85900 -3.14800 23.37100
C  14.42800 -2.24600 22.20200
N  15.81600 -1.70200 28.26300
C  15.06000 -1.10200 27.29100
C  14.28700 0.04100 27.80100
C  14.49600 -0.06200 29.15200
C  15.42000 -1.10600 29.43800
C  13.48500 0.94400 27.03400
C  14.28600 0.73000 30.37100
O  13.81400 1.85800 30.52000
C  14.92300 -0.17000 31.53300
C  15.68600 0.76000 32.37300
O  16.80300 1.22800 32.08300
O  14.95700 1.16100 33.44300
C  15.68200 2.07300 34.27300
H  19.31300 -5.56900 31.36200
H  18.53600 -5.86500 24.99600
H  14.80900 -0.72400 25.23500
H  17.25600 -1.45900 33.21300
H  18.02500 -4.42000 33.36700
H  19.45600 -2.10000 33.64500
H  20.05300 -2.80000 32.14100
H  20.09100 -3.74500 33.58100
H  15.89400 -4.06000 33.68800
H  14.76400 -2.73300 33.14700
H  15.27100 -3.40400 35.54600
H  15.08500 -1.62300 35.09100
H  21.06900 -7.62600 29.75100
H  20.05000 -8.95300 29.63200
H  19.66700 -7.86400 30.84300
H  19.90300 -9.90100 27.51100
H  21.18600 -8.55500 27.40200
H  20.89000 -9.66600 26.01200
H  17.07300 -4.68700 23.41200
H  16.58000 -1.82700 23.38500
H  18.65700 -2.36200 22.83900
H  18.80900 -3.99500 22.38100
H  19.54800 -3.46700 23.95300
H  14.06500 -3.00000 24.10300
H  14.91600 -4.14900 22.94200
H  13.66200 -1.62600 22.66800
H  13.95900 -2.86200 21.43400
H  15.10200 -1.65500 21.58100
H  13.94400 1.24000 26.09100
H  13.17900 1.87700 27.50600
H  12.67400 0.30700 26.68000
H  14.03500 -0.52200 32.05800
H  16.19900 2.85100 33.71000
H  16.28900 1.54200 35.00600
H  15.01400 2.67600 34.88800
Mg 34.71300 1.49100 28.92900
C  32.40300 2.83700 31.33600
C  37.17600 1.85900 31.23100
C  36.70600 0.62100 26.47200
C  31.95700 1.78000 26.54800
N  34.68400 2.19600 31.08500
C  33.67900 2.63800 31.86200
C  34.18600 2.79400 33.27700
C  35.71200 2.75400 33.16900
C  35.90800 2.30300 31.73800
C  36.45900 4.09800 33.43600
C  33.54000 1.82400 34.30600
C  32.99800 2.55200 35.53400
H  33.98000 3.09900 36.64300
N  36.69000 1.19200 28.88500
C  37.52500 1.39700 29.94000
C  38.89000 1.01000 29.51200
C  38.77000 0.70300 28.11600
C  37.35200 0.87300 27.74000
C  40.05600 0.89500 30.43800
C  39.88800 0.19800 27.19200
O  39.72200 0.07400 25.97200
C  41.29800 -0.16800 27.74600
N  34.31000 1.12500 26.89500
C  35.36100 0.84000 26.06200
C  34.96200 0.92800 24.51200
C  33.36300 1.05400 24.64700
C  33.20100 1.32300 26.13900
C  35.67400 2.10000 23.78200
C  32.57900 -0.21600 24.25300
C  32.09100 -0.16600 22.82600
N  32.58600 2.04500 28.91100
C  31.64000 2.09700 27.86500
C  30.36800 2.65000 28.41300
C  30.61700 2.85200 29.74500
C  31.93500 2.52000 30.01900
C  29.06300 2.78700 27.66500
C  30.01300 3.32400 31.01300
O  28.89500 3.58500 31.24300
C  31.15400 3.31100 32.09400
C  31.31300 4.75100 32.59700
O  31.82300 5.65600 31.97900
O  30.69100 4.82000 33.76400
C  30.60700 5.97400 34.66900
H  37.96700 2.08200 31.95100
H  37.34900 0.51400 25.59600
H  31.13100 1.97500 25.86100
H  33.79500 3.80100 33.42300
H  36.24000 2.01500 33.77100
H  35.69900 4.68700 33.95000
H  36.66900 4.61400 32.49900
H  37.36000 3.92200 34.02300
H  34.31300 1.13100 34.63700
H  32.72200 1.28200 33.83200
H  32.30500 1.80700 35.92600
H  32.38100 3.36400 35.15000
H  40.72900 1.72900 30.23500
H  40.78200 0.08200 30.46800
H  39.64300 1.16300 31.41100
H  41.88600 0.69400 28.06000
H  41.85600 -0.73100 26.99700
H  41.11700 -0.76600 28.63900
H  35.19000 0.04800 23.91100
H  33.00800 1.90200 24.06200
H  35.03800 2.92600 23.46400
H  36.15400 1.69600 22.89100
H  36.43700 2.62700 24.35600
H  31.64700 -0.32000 24.80800
H  33.15200 -1.11300 24.48700
H  32.25200 -1.11300 22.31100
H  32.69900 0.56900 22.29800
H  31.06200 0.18000 22.73100
H  28.61700 1.79300 27.62400
H  29.02500 3.38700 26.75600
H  28.60100 3.39200 28.44500
H  30.97400 2.62500 32.92200
H  30.26300 6.84400 34.11000
H  31.55400 6.08300 35.19800
H  29.97200 5.78100 35.53300

