158

Mg 36.13200 2.92800 30.52500
C  33.46400 3.85500 32.57600
C  38.24200 3.33300 33.19900
C  38.75600 2.28400 28.38800
C  34.01500 2.95700 27.68800
N  35.89600 3.72300 32.51100
C  34.67600 3.82300 33.20400
C  34.87700 3.81900 34.70200
C  36.37600 4.20000 34.79000
C  36.91700 3.79300 33.44500
C  36.52700 5.63100 35.10700
C  34.56900 2.40200 35.33000
C  34.09200 2.35200 36.79800
H  34.90500 3.28600 37.77900
N  38.14400 2.50000 30.81600
C  38.82500 2.76000 31.99300
C  40.13000 2.17500 31.75500
C  40.24100 1.81600 30.39400
C  39.02000 2.25100 29.78900
C  41.20500 2.17100 32.76000
C  41.42700 1.00700 29.63000
O  41.39400 0.78000 28.41600
C  42.73200 0.64200 30.33700
N  36.40500 2.82700 28.38700
C  37.56200 2.58800 27.72100
C  37.41500 2.32900 26.23000
C  35.88200 2.35500 26.03800
C  35.37600 2.68000 27.50000
C  38.17600 3.42100 25.44000
C  35.37500 0.95600 25.58700
C  33.96600 1.00700 24.96500
N  34.20200 3.40400 30.16600
C  33.43000 3.20100 28.97700
C  32.03400 3.45700 29.33500
C  32.05400 3.75100 30.72100
C  33.33100 3.62800 31.17700
C  30.83500 3.38400 28.45500
C  31.22400 4.18700 31.86500
O  30.03200 4.39100 31.88000
C  32.11000 4.22000 33.12000
C  32.03200 5.55600 33.80200
O  32.27900 6.66500 33.32500
O  31.73200 5.35900 35.12500
C  31.84500 6.57600 35.90400
H  38.95500 3.30800 34.02600
H  39.58000 1.94500 27.75600
H  33.27800 2.95000 26.88300
H  34.28800 4.59000 35.19800
H  36.95200 3.67200 35.55000
H  36.93900 6.29000 34.34200
H  37.14300 5.74100 36.00000
H  35.56800 6.08900 35.34800
H  35.41500 1.74300 35.13000
H  33.68800 2.01100 34.82100
H  34.23500 1.31700 37.10800
H  33.06800 2.69900 36.93800
H  41.59700 1.16100 32.88300
H  40.77800 2.43500 33.72800
H  42.04400 2.81800 32.50400
H  43.35000 1.54000 30.33700
H  43.35700 -0.02300 29.74000
H  42.73100 0.13700 31.30300
H  37.68500 1.30000 25.99300
H  35.55900 3.15700 25.37400
H  39.19900 3.06000 25.33500
H  38.16200 4.39400 25.93200
H  37.75500 3.33400 24.43900
H  35.37500 0.21400 26.38500
H  35.98400 0.47900 24.81900
H  33.59700 2.02000 24.80200
H  33.13200 0.55200 25.49900
H  33.95500 0.43700 24.03600
H  31.17100 2.75200 27.63200
H  30.45700 4.31900 28.04200
H  30.01400 2.89900 28.98300
H  31.63600 3.47400 33.75800
H  30.90000 7.11000 35.80300
H  32.74300 7.19100 35.84600
H  31.81100 6.22400 36.93500
Mg -10.57400 17.37200 41.26700
C  -7.15500 17.39400 41.52700
C  -10.32100 20.62000 40.08700
C  -13.79400 17.38700 40.35200
C  -10.59600 13.85400 41.62800
N  -8.89700 18.67200 40.69100
C  -7.56700 18.49400 40.81100
C  -6.73400 19.66900 40.34400
C  -7.83000 20.78700 40.39700
C  -9.14800 20.01400 40.28300
C  -7.74500 21.65100 41.71200
C  -6.13100 19.46700 38.97900
C  -4.61100 19.18900 38.86300
H  -4.19200 17.99400 38.06900
N  -11.83300 18.82800 40.44500
C  -11.58700 20.07900 40.07900
C  -12.77600 20.78600 39.87800
C  -13.81600 19.90400 40.15800
C  -13.17600 18.61300 40.39100
C  -12.86300 22.24400 39.56100
C  -15.34100 20.25700 40.21100
O  -15.70500 21.37500 39.96500
C  -16.43200 19.28300 40.70700
N  -12.02000 15.81600 41.01900
C  -13.25600 16.07500 40.48200
C  -14.13800 14.81400 40.61400
C  -13.09100 13.63900 40.96600
C  -11.86000 14.44300 41.22500
C  -15.29900 15.10900 41.62000
C  -12.98200 12.61900 39.83800
C  -13.63200 11.23600 40.07500
N  -9.31600 15.92700 41.75500
C  -9.40900 14.55100 41.90100
C  -8.13700 13.94600 42.21700
C  -7.25000 15.04400 42.08300
C  -8.01900 16.22600 41.74800
C  -8.00500 12.49300 42.54100
C  -5.84900 15.45600 42.17900
O  -4.84000 14.80000 42.37400
C  -5.71900 16.96600 41.83300
C  -5.14000 17.68000 43.00800
O  -3.96300 17.48200 43.43000
O  -6.03700 18.56100 43.59600
C  -5.60100 19.01500 44.87100
H  -10.30000 21.70200 39.94000
H  -14.88100 17.38700 40.24000
H  -10.54200 12.76500 41.56700
H  -5.87500 19.88300 40.97900
H  -7.75900 21.47100 39.55200
H  -7.83000 22.67000 41.33500
H  -6.77800 21.70400 42.21200
H  -8.64100 21.46500 42.30400
H  -6.29200 20.44600 38.52700
H  -6.82100 18.79500 38.46900
H  -4.09100 19.04600 39.81100
H  -4.13100 20.05000 38.39800
H  -12.39700 22.58600 38.63700
H  -12.36600 22.74600 40.39100
H  -13.86100 22.65500 39.40800
H  -16.60700 18.55800 39.91200
H  -17.34600 19.85600 40.86600
H  -16.08100 18.80900 41.62300
H  -14.59100 14.70300 39.62900
H  -13.43400 13.09900 41.84900
H  -15.12800 16.02700 42.18200
H  -15.34700 14.31700 42.36800
H  -16.27400 15.05900 41.13600
H  -11.92300 12.49700 39.60900
H  -13.51000 13.06300 38.99400
H  -13.97500 10.97400 41.07500
H  -12.88900 10.49300 39.78300
H  -14.43900 11.14600 39.34800
H  -8.79500 12.25900 43.25500
H  -7.01400 12.19500 42.88400
H  -8.16700 11.89500 41.64400
H  -5.10500 17.02900 40.93500
H  -6.38100 19.67200 45.25500
H  -4.70500 19.63300 44.80700
H  -5.35000 18.18000 45.52500

