158

Mg 8.09600 4.18200 27.60800
C  9.40800 2.50400 30.37700
C  6.37500 6.20300 29.77600
C  6.87300 5.66400 24.95000
C  9.57800 1.61100 25.57600
N  7.72000 4.16600 29.76300
C  8.51500 3.55600 30.71600
C  8.30300 4.07400 32.14800
C  7.24900 5.22100 31.94800
C  7.03300 5.16000 30.42600
C  6.01400 5.26000 32.82900
C  9.65400 4.57600 32.88000
C  9.45500 5.36800 34.21500
H  10.32800 4.92200 35.41400
N  6.80500 5.72400 27.40000
C  6.20300 6.45900 28.41000
C  5.39000 7.46800 27.75500
C  5.61100 7.35400 26.33700
C  6.41100 6.19300 26.16500
C  4.47200 8.42200 28.51000
C  5.06300 8.25800 25.21800
O  5.32700 7.99200 24.04600
C  4.38000 9.61000 25.47200
N  8.02400 3.61200 25.51900
C  7.58100 4.51600 24.58000
C  7.99400 4.10500 23.20200
C  8.82400 2.83000 23.46700
C  8.89000 2.69300 24.99500
C  6.70100 3.78400 22.39500
C  10.24100 2.95000 22.76200
C  10.96100 1.56100 22.56700
N  9.19300 2.44500 27.84100
C  9.74700 1.54200 26.98300
C  10.49300 0.50600 27.67400
C  10.41500 0.92500 29.06200
C  9.63400 2.01800 29.10800
C  11.27900 -0.66100 27.08400
C  10.89800 0.58600 30.42400
O  11.79000 -0.20400 30.76000
C  10.25900 1.73900 31.36100
C  9.52800 1.04600 32.52100
O  8.43100 0.40100 32.64800
O  10.49500 1.09400 33.53700
C  10.18000 0.23500 34.71800
H  5.84800 6.92400 30.40400
H  6.69000 6.20300 24.01700
H  10.13400 0.93800 24.91800
H  7.82700 3.26700 32.70500
H  7.83900 6.13500 32.02200
H  5.77300 6.10000 33.48200
H  6.06600 4.49700 33.60600
H  5.07000 5.28200 32.28400
H  10.27800 5.22300 32.26500
H  10.34400 3.73600 32.96700
H  8.42700 5.40500 34.57800
H  9.69200 6.41700 34.04200
H  4.80800 9.45200 28.38400
H  4.36300 8.13500 29.55600
H  3.46600 8.40100 28.09100
H  3.80900 9.91300 24.59500
H  5.16200 10.26400 25.85800
H  3.62600 9.44700 26.24200
H  8.66200 4.82100 22.72400
H  8.33000 1.92000 23.12800
H  6.57100 4.47000 21.55800
H  5.86500 4.00500 23.05900
H  6.79400 2.76900 22.01100
H  10.88700 3.61800 23.33200
H  10.12700 3.49500 21.82500
H  11.43600 1.52000 21.58600
H  10.25100 0.74800 22.71300
H  11.71400 1.34600 23.32600
H  11.87800 -0.35000 26.22800
H  10.60800 -1.44500 26.73200
H  11.78800 -1.20400 27.88000
H  11.15200 2.30600 31.62300
H  9.21500 -0.26900 34.77700
H  10.19600 0.95900 35.53200
H  11.10400 -0.27500 34.99200
Mg -1.94800 34.70900 26.49600
C  -3.93100 33.30200 29.08300
C  -0.69700 36.92600 28.78200
C  -0.60400 36.32000 23.89400
C  -3.70600 32.82000 24.23200
N  -2.37500 35.14200 28.71300
C  -3.06700 34.34900 29.53200
C  -2.81500 34.71900 31.00700
C  -1.85800 36.02300 30.90600
C  -1.59300 36.06900 29.41000
C  -2.29800 37.34900 31.46400
C  -2.17000 33.54300 31.81000
C  -1.57000 33.90000 33.20200
H  -2.49200 33.70700 34.41700
N  -0.83100 36.38400 26.36100
C  -0.39000 37.15900 27.41300
C  0.54500 38.08800 26.88200
C  0.62500 37.89100 25.47900
C  -0.28100 36.78400 25.16800
C  1.21700 39.16100 27.67800
C  1.57200 38.58800 24.51200
O  1.35800 38.57100 23.26900
C  2.81600 39.27500 25.07900
N  -2.15100 34.58600 24.31200
C  -1.51400 35.36700 23.51000
C  -1.74500 35.01500 22.01200
C  -2.81600 33.90000 22.12100
C  -2.91300 33.73900 23.64500
C  -2.10900 36.28100 21.12200
C  -2.48200 32.53700 21.45300
C  -1.16500 31.90000 22.02700
N  -3.51400 33.37300 26.56200
C  -4.15700 32.70300 25.54200
C  -5.14700 31.75500 26.03000
C  -5.08000 31.98800 27.39200
C  -4.16000 32.96000 27.70600
C  -6.05100 30.97000 25.26700
C  -5.53600 31.48200 28.71700
O  -6.22900 30.58800 28.94900
C  -4.85400 32.35200 29.82700
C  -5.75800 33.17000 30.69900
O  -6.68600 33.79600 30.28300
O  -5.46800 32.96600 32.01300
C  -6.44800 33.55900 32.99800
H  -0.04400 37.49200 29.45000
H  -0.36800 36.94000 23.02700
H  -4.15100 32.11100 23.53100
H  -3.75500 34.98700 31.49000
H  -0.82700 35.93300 31.24800
H  -1.48200 37.81700 32.01500
H  -3.13500 37.25200 32.15500
H  -2.53500 37.91200 30.56200
H  -1.37500 33.22400 31.13600
H  -2.95000 32.83800 32.09700
H  -1.46800 34.98600 33.19800
H  -0.62200 33.37100 33.30100
H  0.72700 39.33400 28.63600
H  1.24600 40.12300 27.16600
H  2.20900 38.78300 27.92700
H  2.73000 40.36100 25.11900
H  3.49900 39.04400 24.26100
H  3.28600 38.73800 25.90200
H  -0.86800 34.57500 21.53800
H  -3.79200 34.22400 21.75900
H  -2.12500 37.19800 21.71100
H  -3.08100 36.20400 20.63400
H  -1.45100 36.47400 20.27500
H  -2.25700 32.84600 20.43200
H  -3.29200 31.80900 21.49700
H  -0.40200 31.96900 21.25200
H  -1.43900 30.87700 22.28500
H  -0.77300 32.28400 22.96800
H  -5.54600 30.00600 25.20900
H  -6.13200 31.36400 24.25400
H  -7.06900 30.84800 25.63700
H  -4.23300 31.73100 30.47300
H  -7.32600 32.92200 33.09900
H  -6.85700 34.48800 32.59900
H  -6.12000 33.68400 34.03000

