158

Mg 35.89600 1.80000 29.32600
C  33.90200 3.15400 31.81200
C  38.64700 1.99600 31.60400
C  38.07500 1.55900 26.72300
C  33.34000 2.36700 27.06000
N  36.18900 2.39600 31.50400
C  35.18100 2.84200 32.27800
C  35.67700 2.89900 33.74800
C  37.26800 2.80800 33.65800
C  37.37800 2.37300 32.16400
C  38.13400 4.03500 33.99700
C  34.99900 1.88600 34.69300
C  34.27300 2.46200 35.89200
H  35.05200 3.49000 36.67000
N  38.00500 1.49800 29.23100
C  38.92800 1.62000 30.24600
C  40.21000 1.21200 29.72600
C  40.10600 1.21800 28.26900
C  38.67200 1.36800 27.96600
C  41.44400 0.85700 30.56200
C  41.17200 1.13300 27.26300
O  40.92800 1.22100 26.09600
C  42.56000 1.29100 27.62400
N  35.70300 1.81200 27.18900
C  36.77300 1.66100 26.35500
C  36.33900 1.58300 24.89000
C  34.78600 1.56400 25.03000
C  34.54400 1.88100 26.50400
C  36.95400 2.72700 23.98600
C  34.14600 0.24300 24.64500
C  33.24600 0.08400 23.33900
N  34.04600 2.56000 29.38000
C  33.08700 2.70600 28.38900
C  31.90200 3.30700 28.93200
C  32.13800 3.42200 30.29100
C  33.48500 2.96500 30.48800
C  30.62800 3.60900 28.14400
C  31.55700 3.79000 31.54600
O  30.45900 4.27200 31.71700
C  32.69400 3.62800 32.55800
C  32.90500 4.95100 33.26300
O  33.62200 5.84300 32.92600
O  32.04200 5.05000 34.32900
C  32.19800 6.13900 35.26300
H  39.41400 1.87500 32.37200
H  38.58900 1.53600 25.76100
H  32.43500 2.34100 26.45000
H  35.39200 3.92800 33.96500
H  37.60100 2.02200 34.33600
H  37.56500 4.68200 34.66500
H  38.65100 4.47500 33.14300
H  39.00400 3.65900 34.53600
H  35.72200 1.27000 35.22800
H  34.34700 1.21700 34.13300
H  33.93600 1.66500 36.55400
H  33.34500 2.93600 35.57100
H  41.74100 -0.19200 30.56100
H  41.23000 0.99700 31.62100
H  42.28800 1.50700 30.33300
H  42.83700 0.43400 28.23800
H  42.81800 2.21800 28.13600
H  43.14300 1.27500 26.70300
H  36.66000 0.59000 24.57300
H  34.31300 2.37800 24.48000
H  37.95900 2.44400 23.67200
H  37.02100 3.65800 24.54800
H  36.36800 2.96200 23.09700
H  33.44900 -0.08900 25.41400
H  34.94300 -0.49500 24.55600
H  32.20500 0.25200 23.61600
H  33.33300 -0.86900 22.81700
H  33.47200 0.99000 22.77600
H  30.05200 2.71800 27.89400
H  30.79200 4.25700 27.28400
H  30.01900 4.09100 28.90800
H  32.35500 2.84200 33.23300
H  31.26500 6.05300 35.82000
H  32.14700 7.12200 34.79400
H  32.97700 6.02600 36.01700
Mg 7.01300 54.25200 41.01600
C  6.78700 50.72900 40.69700
C  10.22000 54.11300 39.94400
C  6.96900 57.57500 40.75900
C  3.69300 54.22100 42.08100
N  8.28000 52.55700 40.27800
C  8.07400 51.23200 40.34800
C  9.38400 50.48300 40.18300
C  10.48800 51.61100 40.13900
C  9.58300 52.87300 40.08000
C  11.42600 51.64000 41.38200
C  9.38300 49.47300 39.03500
C  9.20100 50.14100 37.61200
H  8.01600 49.73400 36.77700
N  8.46700 55.70800 40.41300
C  9.71700 55.42300 40.09800
C  10.38400 56.70300 39.84400
C  9.42800 57.72900 39.91100
C  8.24900 57.03400 40.45400
C  11.90500 56.83000 39.56500
C  9.57000 59.26500 39.41500
O  10.68000 59.70300 39.10200
C  8.46500 60.24100 39.44000
N  5.53800 55.69700 41.33100
C  5.77000 57.03200 41.11800
C  4.52900 57.85600 41.32400
C  3.50900 56.80500 41.85400
C  4.22900 55.48000 41.76900
C  4.68600 59.20300 42.18700
C  2.26000 56.68400 40.90000
C  0.85500 56.87800 41.59000
N  5.47100 52.81800 41.34500
C  4.21900 52.94900 41.88600
C  3.71600 51.64900 42.28400
C  4.71100 50.71900 41.81600
C  5.65600 51.51600 41.17700
C  2.42400 51.35100 42.98700
C  5.08300 49.26500 41.79100
O  4.54200 48.27800 42.26100
C  6.39500 49.23700 40.97600
C  5.85300 48.57800 39.79800
O  5.12900 49.09900 38.87100
O  6.22800 47.22800 39.93700
C  5.55200 46.41300 38.95700
H  11.30100 54.13700 39.79400
H  6.85000 58.65700 40.67300
H  2.76500 54.04500 42.63000
H  9.45900 49.90000 41.10100
H  11.08000 51.55600 39.22500
H  12.37000 51.96900 40.94700
H  11.46400 50.64500 41.82400
H  11.29100 52.43900 42.11100
H  8.66400 48.68800 39.27000
H  10.36100 48.99200 39.03000
H  10.08600 49.95100 37.00400
H  9.11800 51.22700 37.65800
H  12.20500 56.97400 38.52700
H  12.48700 56.00500 39.97600
H  12.21700 57.70700 40.13300
H  7.71800 59.59900 38.97500
H  8.54000 61.17300 38.88000
H  8.24200 60.52800 40.46800
H  4.31000 58.21400 40.31800
H  3.19700 56.98400 42.88300
H  3.91000 59.27500 42.95000
H  4.58800 60.02800 41.48200
H  5.68500 59.16300 42.62300
H  2.32600 55.74300 40.35400
H  2.33500 57.49400 40.17400
H  0.55100 57.92000 41.49100
H  0.90100 56.46500 42.59800
H  0.17100 56.26800 41.00000
H  2.63400 51.03500 44.00900
H  1.93400 50.44100 42.64100
H  1.71900 52.17100 42.85200
H  7.11200 48.65600 41.55500
H  6.30100 46.25500 38.18100
H  4.53000 46.66200 38.67000
H  5.55400 45.44200 39.45300

