158

Mg 2.50500 -2.38300 44.33100
C  5.93500 -1.80700 43.60100
C  1.73900 0.19700 42.06200
C  -0.68700 -3.39800 44.25300
C  3.54100 -5.35200 45.78500
N  3.72400 -1.19700 42.79600
C  5.07400 -0.90300 42.95600
C  5.46100 0.33000 42.07800
C  4.09200 0.95100 41.68800
C  3.11400 -0.03800 42.24200
C  3.93300 2.41400 42.13100
C  6.28800 -0.01100 40.82400
C  7.52800 0.85700 40.39900
H  7.55700 1.65400 39.01600
N  0.72300 -1.55600 43.38000
C  0.61400 -0.53100 42.52500
C  -0.78600 -0.30500 42.25500
C  -1.52300 -1.41000 42.82300
C  -0.47300 -2.17400 43.50000
C  -1.21200 0.91700 41.40200
C  -3.03400 -1.61900 42.67800
O  -3.78800 -0.95500 42.01900
C  -3.62200 -2.78200 43.48800
N  1.63300 -4.14600 44.85400
C  0.27900 -4.34900 44.78700
C  -0.21800 -5.55000 45.71800
C  1.17800 -6.30400 45.68900
C  2.20600 -5.20600 45.52600
C  -0.52600 -5.09400 47.17800
C  1.30000 -7.39200 44.65600
C  1.23700 -8.82600 45.27200
N  4.35900 -3.39800 44.77200
C  4.57100 -4.51300 45.51400
C  5.96800 -4.71400 45.71200
C  6.57300 -3.54900 45.09300
C  5.51600 -2.91500 44.42000
C  6.74400 -5.81400 46.43600
C  7.81300 -2.85800 44.80400
O  8.96000 -3.12300 45.08500
C  7.43600 -1.78100 43.76800
C  8.03700 -0.50800 44.20100
O  7.98000 0.01700 45.27900
O  8.93400 -0.07300 43.24300
C  9.61800 1.18000 43.68900
H  1.38700 1.13200 41.62100
H  -1.68700 -3.80600 44.41600
H  3.87100 -6.21700 46.36300
H  6.09400 0.90200 42.75600
H  3.86400 1.01500 40.62400
H  4.66000 2.79100 42.85000
H  3.09300 2.54100 42.81500
H  3.76500 3.06200 41.27100
H  5.73000 0.04700 39.88900
H  6.46000 -1.08300 40.92200
H  8.23000 0.02500 40.34600
H  7.87800 1.45500 41.24000
H  -0.76100 0.68900 40.43600
H  -0.69200 1.79200 41.79400
H  -2.28900 1.08100 41.37600
H  -4.69500 -2.83200 43.30300
H  -3.54100 -2.62000 44.56200
H  -3.06000 -3.65100 43.14400
H  -0.83900 -6.28500 45.20600
H  1.44400 -6.86200 46.58700
H  0.12000 -4.23800 47.37200
H  -0.19000 -5.96000 47.74900
H  -1.58600 -4.85000 47.23400
H  2.16600 -7.16700 44.03300
H  0.49900 -7.29300 43.92300
H  0.36100 -9.34500 44.88400
H  1.07500 -8.81000 46.35000
H  2.04900 -9.48800 44.96900
H  6.09500 -6.46900 47.01800
H  7.47200 -5.40600 47.13700
H  7.34400 -6.38800 45.73000
H  8.02100 -2.06300 42.89200
H  10.20100 1.07600 44.60400
H  8.90600 2.00200 43.75900
H  10.33000 1.32700 42.87800
Mg -0.04300 43.76600 26.06700
C  2.09500 43.15500 28.79800
C  -2.65500 42.75700 28.09900
C  -2.07800 43.98600 23.39600
C  2.83800 44.02300 24.05100
N  -0.23900 42.95000 28.17200
C  0.76200 42.92100 29.10400
C  0.19000 42.72800 30.54700
C  -1.31000 42.27700 30.19100
C  -1.40700 42.60800 28.71500
C  -1.63500 40.75600 30.58500
C  0.28700 44.05900 31.33600
C  0.49100 43.98900 32.88200
H  0.39100 42.62300 33.64100
N  -2.12500 43.57800 25.82600
C  -3.05100 43.20100 26.79000
C  -4.41800 43.32800 26.28800
C  -4.22100 43.62400 24.90900
C  -2.72700 43.69900 24.63500
C  -5.67700 43.20800 27.07900
C  -5.31300 43.88100 23.87700
O  -4.97200 44.03700 22.68700
C  -6.79500 43.92200 24.23000
N  0.29400 43.89800 23.99600
C  -0.70500 44.08400 23.11800
C  -0.10200 44.37600 21.71300
C  1.41400 44.56000 22.00700
C  1.55900 44.13600 23.43500
C  -0.49700 43.26000 20.68000
C  1.98200 45.99400 21.82500
C  1.83100 46.99000 22.97300
N  2.07700 43.55800 26.34800
C  3.08900 43.76400 25.40700
C  4.40300 43.75200 26.09100
C  4.08700 43.53400 27.44200
C  2.65200 43.36900 27.52000
C  5.77300 44.00700 25.49100
C  4.60000 43.44300 28.77500
O  5.80300 43.49700 29.14700
C  3.31500 43.24800 29.73800
C  3.63200 42.01900 30.44500
O  3.54500 40.91400 29.99600
O  3.76800 42.22800 31.79600
C  4.12300 41.07300 32.60300
H  -3.46000 42.54600 28.80500
H  -2.83700 44.13100 22.62400
H  3.67700 44.07400 23.35500
H  0.67700 41.84100 30.95300
H  -2.07300 42.96600 30.55500
H  -1.21300 40.16100 29.77500
H  -2.71000 40.66700 30.42900
H  -1.33900 40.37300 31.56200
H  -0.64400 44.58000 31.11200
H  1.05100 44.62400 30.80300
H  -0.26200 44.68200 33.25700
H  1.40000 44.52000 33.16600
H  -5.48300 42.65700 28.00000
H  -6.48200 42.67000 26.57900
H  -6.08600 44.15800 27.42200
H  -7.18400 44.23000 23.26000
H  -7.03300 44.62600 25.02800
H  -7.08100 42.90800 24.50800
H  -0.47600 45.36200 21.43600
H  1.95300 43.85100 21.38000
H  0.38600 43.04700 20.07800
H  -1.20700 43.71800 19.99200
H  -0.83800 42.33600 21.14600
H  1.40300 46.51300 21.06000
H  3.04400 45.98000 21.58100
H  1.64600 46.63900 23.98900
H  1.11100 47.79100 22.80400
H  2.78900 47.46000 23.19900
H  5.85900 45.01900 25.09500
H  6.01500 43.30000 24.69700
H  6.56300 44.05200 26.24100
H  3.22000 43.94900 30.56800
H  5.19400 41.12300 32.79700
H  3.87700 40.14700 32.08300
H  3.54400 41.10400 33.52600

