158

Mg -9.23900 39.87800 39.89300
C  -8.24300 36.77400 38.67700
C  -6.20100 41.07000 38.98700
C  -10.60900 42.88400 40.00600
C  -12.50000 38.42300 40.30700
N  -7.50700 38.95700 38.66600
C  -7.19600 37.66200 38.62300
C  -5.78200 37.38100 38.03900
C  -5.12800 38.70100 38.55000
C  -6.35800 39.69700 38.78000
C  -4.11200 38.60800 39.66200
C  -5.96800 37.25700 36.43300
C  -5.41300 36.01700 35.62200
H  -6.37100 35.51700 34.55000
N  -8.46800 41.75300 39.66700
C  -7.19000 42.01600 39.32200
C  -7.04700 43.50700 39.19200
C  -8.27000 44.06800 39.62500
C  -9.24200 42.87600 39.79700
C  -5.85700 44.13200 38.60000
C  -8.48800 45.51100 39.74800
O  -7.56100 46.27800 39.51000
C  -9.80300 46.19400 40.26500
N  -11.31600 40.61700 40.04900
C  -11.61500 41.89500 40.08200
C  -13.16800 42.03900 40.24200
C  -13.70400 40.60300 40.45600
C  -12.38600 39.80600 40.25400
C  -13.73000 42.93000 41.36700
C  -14.92800 40.18400 39.61200
C  -16.06100 39.50200 40.41900
N  -10.17600 38.06300 39.68500
C  -11.46100 37.64000 39.90100
C  -11.52800 36.21900 39.71100
C  -10.31300 35.82700 39.22800
C  -9.60300 36.97800 39.12700
C  -12.77100 35.33400 39.89600
C  -9.53800 34.74300 38.78100
O  -9.78900 33.53000 38.70900
C  -8.17100 35.34000 38.45800
C  -7.20900 34.75700 39.40000
O  -6.91600 35.32200 40.41600
O  -6.57000 33.60700 38.95300
C  -5.38300 33.25300 39.72100
H  -5.19900 41.45400 38.79000
H  -11.07600 43.86300 40.13100
H  -13.54500 38.12500 40.41900
H  -5.57800 36.41900 38.50900
H  -4.64600 39.20000 37.71000
H  -4.51500 38.93200 40.62100
H  -3.24900 39.22600 39.41100
H  -3.73900 37.59200 39.79100
H  -5.63800 38.19300 35.98100
H  -7.04100 37.21800 36.24600
H  -5.04700 35.15300 36.17600
H  -4.51000 36.36300 35.11800
H  -6.01100 44.67600 37.66800
H  -5.12800 43.32300 38.55600
H  -5.45600 44.80000 39.36200
H  -10.70600 45.87100 39.74700
H  -9.65200 47.26400 40.12100
H  -9.81900 45.92800 41.32200
H  -13.53000 42.32600 39.25500
H  -13.92200 40.37600 41.49900
H  -12.96400 43.67200 41.59100
H  -14.09200 42.42700 42.26400
H  -14.56100 43.48100 40.92600
H  -14.57200 39.44000 38.89900
H  -15.23300 41.07000 39.05500
H  -16.26100 38.52800 39.97300
H  -16.98700 39.98400 40.10500
H  -16.06700 39.47400 41.50900
H  -13.09500 35.35700 40.93700
H  -12.53000 34.30200 39.64200
H  -13.68600 35.70500 39.43300
H  -7.90100 35.04400 37.44400
H  -5.65800 32.81500 40.68000
H  -4.70900 34.10200 39.83800
H  -4.72000 32.55400 39.21000
Mg -10.91000 18.18300 40.91000
C  -7.37200 17.45800 40.82200
C  -10.07500 21.47600 40.29100
C  -14.02200 18.74400 40.27500
C  -11.49300 14.67400 40.63800
N  -8.94500 19.31800 40.40500
C  -7.61100 18.79700 40.52500
C  -6.53100 19.94100 40.22400
C  -7.44100 21.22100 40.54400
C  -8.91900 20.66700 40.43400
C  -6.97500 21.88700 41.89000
C  -6.19400 19.86900 38.65900
C  -4.79900 19.32500 38.20200
H  -4.77600 18.06500 37.20100
N  -11.97900 19.88500 40.42800
C  -11.45900 21.11200 40.17900
C  -12.49400 22.03000 39.90900
C  -13.67300 21.28600 39.81100
C  -13.28300 19.91800 40.11700
C  -12.26900 23.54000 39.80000
C  -15.06000 21.87100 39.47800
O  -15.26300 23.10600 39.38000
C  -16.25800 21.01300 39.17800
N  -12.47500 16.90700 40.26300
C  -13.72300 17.40400 40.36900
C  -14.74900 16.30900 40.37500
C  -14.00700 14.94800 40.17500
C  -12.56700 15.50300 40.36800
C  -15.63100 16.22400 41.60400
C  -14.29400 14.04100 38.91700
C  -13.34500 14.12200 37.67600
N  -9.77500 16.44100 40.92700
C  -10.15000 15.11000 40.78200
C  -9.00700 14.21500 41.00800
C  -7.90100 15.06500 40.98100
C  -8.42200 16.43900 40.95500
C  -8.89200 12.73800 41.01400
C  -6.49900 15.14900 40.92300
O  -5.64600 14.29400 40.84700
C  -6.08900 16.68600 40.95100
C  -5.28600 16.94300 42.25600
O  -4.08500 17.29500 42.23400
O  -5.98000 16.56800 43.37000
C  -5.11000 16.64000 44.59100
H  -9.76300 22.50500 40.10100
H  -15.09200 18.87600 40.10200
H  -11.82000 13.63200 40.64800
H  -5.67800 19.90200 40.90100
H  -7.36500 22.00000 39.78500
H  -7.81500 21.85600 42.58400
H  -6.66400 22.91200 41.69000
H  -6.04800 21.45000 42.26200
H  -6.20900 20.84800 38.18000
H  -6.89400 19.25700 38.09100
H  -4.30500 19.06300 39.13700
H  -4.15000 20.12300 37.84100
H  -12.02000 23.79000 40.83100
H  -13.22900 24.02500 39.62300
H  -11.52100 23.83200 39.06200
H  -15.98200 20.23000 38.47200
H  -17.15800 21.58100 38.94200
H  -16.58500 20.47600 40.06900
H  -15.45700 16.58800 39.59400
H  -14.19700 14.25900 40.99900
H  -15.19100 16.90800 42.33000
H  -15.77900 15.20700 41.96600
H  -16.63500 16.59500 41.39500
H  -15.34100 14.26200 38.70900
H  -14.40900 12.99800 39.21400
H  -13.74700 14.65900 36.81600
H  -13.22800 13.09400 37.33300
H  -12.36500 14.50000 37.96700
H  -8.37400 12.48200 40.09000
H  -9.84500 12.21000 40.99500
H  -8.32200 12.39100 41.87600
H  -5.34500 17.01600 40.22600
H  -5.31900 15.68200 45.06800
H  -5.57000 17.44100 45.17000
H  -4.07400 16.94100 44.43900

