158

Mg 47.04000 17.20300 29.42300
C  45.11600 16.46700 32.21400
C  49.11700 19.00300 31.45400
C  48.68800 18.00900 26.78800
C  44.62000 15.55900 27.41700
N  47.13000 17.60100 31.68100
C  46.25600 17.17600 32.61000
C  46.64800 17.82000 33.94600
C  47.72600 18.90400 33.53800
C  48.07200 18.46000 32.17600
C  47.26500 20.38500 33.67300
C  47.13300 16.70100 34.95100
C  46.38400 16.62500 36.28600
H  46.09900 17.98900 36.92400
N  48.79400 18.26700 29.17300
C  49.52700 18.89600 30.13600
C  50.73900 19.40400 29.55800
C  50.69400 19.09400 28.15300
C  49.33000 18.43900 27.95700
C  51.87000 19.94300 30.31600
C  51.67400 19.39800 27.04600
O  51.47800 18.94800 25.89200
C  52.92000 20.18600 27.32500
N  46.54200 16.99100 27.34300
C  47.51300 17.38800 26.47700
C  47.16000 16.89200 25.07400
C  46.02500 15.80600 25.35700
C  45.76800 16.06900 26.80000
C  46.94200 18.04800 24.01900
C  46.41300 14.27100 25.11400
C  45.31100 13.42200 24.39900
N  45.17400 16.34600 29.66100
C  44.29500 15.70200 28.77400
C  43.21200 15.19300 29.51900
C  43.44700 15.46500 30.80400
C  44.71700 16.06100 30.87800
C  42.08000 14.32900 29.05000
C  42.91600 15.30000 32.15000
O  41.80600 14.89700 32.55800
C  43.98500 15.97400 33.10200
C  43.30600 17.15900 33.71400
O  42.90400 18.18500 33.10100
O  43.07400 16.89800 35.01200
C  42.47400 17.99100 35.70900
H  49.66100 19.67400 32.12200
H  49.18600 18.22900 25.84100
H  43.87800 15.00100 26.84200
H  45.73800 18.24100 34.37400
H  48.57600 18.73600 34.19800
H  46.83000 20.69200 32.72200
H  48.17600 20.95800 33.84200
H  46.56500 20.53000 34.49600
H  48.16900 16.95100 35.17900
H  47.18400 15.82200 34.30900
H  47.01400 16.14200 37.03300
H  45.58100 15.88900 36.23500
H  51.55100 20.36200 31.27000
H  52.43200 20.73600 29.82500
H  52.50900 19.06900 30.44600
H  53.40200 19.70400 28.17600
H  52.65900 21.22400 27.52900
H  53.50500 20.18000 26.40500
H  48.05600 16.33400 24.80200
H  45.12800 16.06600 24.79400
H  45.92000 18.18200 23.66400
H  47.58500 17.76700 23.18500
H  47.14400 19.00800 24.49500
H  46.68700 13.85400 26.08300
H  47.35800 14.27000 24.57000
H  45.71100 13.17100 23.41600
H  44.35000 13.92900 24.30600
H  45.06600 12.50600 24.93700
H  41.33300 15.01900 28.65800
H  41.66000 13.78300 29.89500
H  42.47900 13.70200 28.25200
H  44.21100 15.27300 33.90500
H  41.45700 18.09600 35.33300
H  43.17200 18.82200 35.61000
H  42.56700 17.85200 36.78700
Mg 47.62700 25.38300 27.97100
C  48.19500 27.75100 30.32400
C  46.47000 23.24900 30.29500
C  46.66700 23.50700 25.43800
C  49.03500 27.62200 25.48200
N  47.40700 25.51700 30.06600
C  47.62900 26.59900 30.89000
C  47.26300 26.32500 32.32700
C  46.73300 24.88000 32.31600
C  46.85100 24.52200 30.78700
C  47.26100 23.87300 33.31300
C  46.19600 27.29300 32.79700
C  45.46800 27.11100 34.13700
H  45.34000 28.34200 35.07100
N  46.82100 23.60700 27.85900
C  46.46700 22.82500 28.91700
C  45.97000 21.58100 28.38900
C  45.72800 21.78400 27.00900
C  46.40200 23.00100 26.74900
C  45.56200 20.42200 29.25300
C  44.85800 21.02900 26.06700
O  44.80400 21.30600 24.86100
C  44.07700 19.77500 26.38100
N  47.95600 25.55500 25.73400
C  47.36600 24.60200 24.94600
C  47.84700 24.81800 23.48000
C  48.43600 26.17200 23.48000
C  48.42500 26.51800 24.94700
C  48.89400 23.75200 23.03200
C  47.79800 27.33900 22.66000
C  48.75200 28.11900 21.67400
N  48.42900 27.25300 27.83500
C  49.01000 28.02700 26.81200
C  49.45800 29.27800 27.42500
C  49.17300 29.15400 28.78400
C  48.53200 27.96100 28.96000
C  50.11900 30.37100 26.75500
C  49.30800 29.89800 29.99900
O  49.84500 30.96900 30.28300
C  48.55400 29.00200 31.01500
C  49.60900 28.69600 32.08500
O  50.46500 27.82000 32.07200
O  49.50700 29.61700 33.04200
C  50.26500 29.24100 34.28600
H  46.10400 22.52000 31.02100
H  46.44100 22.88900 24.56700
H  49.46700 28.42000 24.87500
H  48.16700 26.32300 32.93700
H  45.65900 24.89900 32.50300
H  47.78500 23.11100 32.73500
H  46.41200 23.38700 33.79300
H  47.76600 24.42000 34.10900
H  45.39500 27.43600 32.07300
H  46.62800 28.29200 32.85500
H  45.96200 26.37500 34.77100
H  44.55200 26.63400 33.78700
H  44.47400 20.39700 29.30100
H  45.96200 20.56200 30.25800
H  46.00700 19.63200 28.64800
H  43.42500 19.95500 27.23700
H  44.70600 18.89300 26.50200
H  43.30200 19.57300 25.64200
H  46.98000 24.72200 22.82800
H  49.48800 26.13400 23.20000
H  49.87700 23.92900 23.46900
H  48.82500 23.50700 21.97200
H  48.51800 22.86100 23.53500
H  47.32600 28.00300 23.38400
H  47.02900 26.92500 22.00800
H  48.45700 29.16300 21.77800
H  48.64800 27.80500 20.63600
H  49.80000 27.90100 21.88000
H  51.17600 30.11300 26.68000
H  49.97700 31.32000 27.27100
H  49.74100 30.48500 25.73900
H  47.76700 29.59900 31.47500
H  51.28000 28.86100 34.17000
H  49.58200 28.52300 34.74000
H  50.32300 30.09100 34.96600

