158

Mg -10.51800 37.97700 40.98200
C  -9.30100 34.94200 40.28600
C  -7.57400 39.43700 39.72000
C  -12.09000 40.97800 40.84000
C  -13.44300 36.56300 41.96100
N  -8.77400 37.32300 39.96000
C  -8.45100 35.97100 39.87600
C  -7.05100 35.80700 39.17000
C  -6.45900 37.20600 39.30500
C  -7.68100 38.05100 39.62300
C  -5.31200 37.41600 40.41700
C  -7.16200 35.39500 37.65900
C  -6.08700 34.48900 37.17300
H  -5.83300 34.42400 35.65800
N  -9.92900 39.90500 40.32600
C  -8.68700 40.35700 39.90700
C  -8.73500 41.77700 39.85800
C  -10.08900 42.21200 40.04800
C  -10.75300 41.00500 40.48200
C  -7.48200 42.58600 39.56500
C  -10.57200 43.71400 39.79600
O  -9.76400 44.52500 39.35700
C  -12.01200 43.99200 39.66700
N  -12.48800 38.63800 41.11900
C  -12.86700 39.92700 41.10400
C  -14.24700 40.13600 41.75100
C  -14.76500 38.69900 41.77400
C  -13.47000 37.94000 41.69100
C  -14.12900 40.93000 43.12000
C  -15.74200 38.34500 40.65600
C  -17.17100 38.55400 40.87100
N  -11.19600 36.11200 41.37900
C  -12.37600 35.67700 41.84500
C  -12.33100 34.22100 41.99900
C  -11.16300 33.87400 41.29100
C  -10.49300 35.09200 40.97300
C  -13.40700 33.35200 42.61000
C  -10.33800 32.76200 40.79400
O  -10.48900 31.53200 40.89200
C  -9.11200 33.41500 40.04900
C  -7.83500 32.83200 40.60400
O  -7.22900 32.02200 39.97800
O  -7.49900 33.32600 41.84600
C  -6.23600 32.86100 42.46900
H  -6.58300 39.83100 39.48300
H  -12.52700 41.95600 41.05000
H  -14.42400 36.09500 42.06600
H  -6.38900 35.09400 39.66100
H  -6.02800 37.35800 38.31600
H  -5.08000 36.41800 40.78700
H  -5.63700 38.05600 41.23700
H  -4.45900 37.83400 39.88200
H  -7.23000 36.33700 37.11400
H  -8.05900 34.87900 37.31700
H  -6.41500 33.54000 37.59800
H  -5.10700 34.67800 37.61200
H  -7.54200 43.13200 38.62400
H  -6.53100 42.05500 39.61300
H  -7.43400 43.49100 40.17000
H  -12.45600 43.08100 39.26600
H  -12.21200 44.81200 38.97600
H  -12.26800 44.18800 40.70800
H  -14.70200 40.79700 41.01300
H  -15.20300 38.45700 42.74200
H  -13.17900 41.45900 43.04600
H  -13.99900 40.25000 43.96100
H  -14.93700 41.59900 43.41800
H  -15.49300 37.39500 40.18300
H  -15.59000 39.04500 39.83400
H  -17.61100 37.60800 41.18800
H  -17.76200 38.75700 39.97800
H  -17.30500 39.45700 41.46600
H  -13.58800 33.79900 43.58800
H  -12.99800 32.34400 42.66900
H  -14.35500 33.40700 42.07500
H  -9.27000 33.11900 39.01200
H  -5.61300 32.37800 41.71600
H  -6.33900 32.15700 43.29500
H  -5.56300 33.68000 42.72000
Mg -6.10800 25.09600 25.64500
C  -4.41900 26.16900 28.60200
C  -7.91600 22.94000 27.47300
C  -6.85700 23.55700 22.92800
C  -3.64900 27.07100 23.90800
N  -6.03700 24.51800 27.71600
C  -5.35200 25.08100 28.78800
C  -5.80800 24.50500 30.17400
C  -6.67200 23.36400 29.71900
C  -6.96200 23.65600 28.21400
C  -6.04300 21.91400 30.06300
C  -6.67600 25.60900 30.90300
C  -6.55400 25.60500 32.46600
H  -5.88700 24.45100 33.16400
N  -7.41200 23.64600 25.25500
C  -8.21100 22.98100 26.13900
C  -9.19800 22.16700 25.47500
C  -8.77100 22.23900 24.10900
C  -7.62800 23.14300 24.03800
C  -10.24600 21.31700 26.09900
C  -9.37700 21.55300 22.85400
O  -8.89500 21.64400 21.71900
C  -10.56500 20.70100 22.97800
N  -5.32100 25.25600 23.70400
C  -5.82700 24.51000 22.71400
C  -5.23700 24.84200 21.33800
C  -4.19000 25.98800 21.67700
C  -4.37100 26.13100 23.18900
C  -4.60300 23.64700 20.59100
C  -4.37400 27.30300 20.82500
C  -3.16200 28.16500 20.43300
N  -4.45900 26.51800 26.09700
C  -3.57000 27.16600 25.29700
C  -2.75400 28.01600 26.11700
C  -3.01000 27.67300 27.45900
C  -4.02000 26.68500 27.36200
C  -1.84000 29.08900 25.57800
C  -2.67500 27.91900 28.85800
O  -1.89300 28.73800 29.38100
C  -3.62900 26.92200 29.67100
C  -2.77600 26.04700 30.53200
O  -2.35500 24.94400 30.29700
O  -2.35100 26.69500 31.69900
C  -1.33700 26.09200 32.65000
H  -8.53900 22.19200 27.96800
H  -7.12900 23.15500 21.95000
H  -2.86000 27.61700 23.38700
H  -4.86500 24.31700 30.68600
H  -7.54100 23.50000 30.36300
H  -5.58300 21.52500 29.15400
H  -6.80500 21.23300 30.44300
H  -5.39100 22.02600 30.93000
H  -7.72400 25.68600 30.61200
H  -6.16600 26.47300 30.47800
H  -7.55800 25.69200 32.88000
H  -5.97400 26.51800 32.60400
H  -9.98800 20.25900 26.06200
H  -11.21300 21.36100 25.59800
H  -10.45700 21.64200 27.11800
H  -11.37600 21.27700 23.42600
H  -10.23700 19.82700 23.54000
H  -10.81900 20.34700 21.97900
H  -5.92300 25.32600 20.64200
H  -3.12400 25.78200 21.58400
H  -3.62400 23.89000 20.17700
H  -5.30100 23.31600 19.82200
H  -4.57700 22.89000 21.37500
H  -5.05700 27.86800 21.45900
H  -4.90300 27.00500 19.92000
H  -3.48700 29.16500 20.14700
H  -2.79800 27.83700 19.45900
H  -2.24600 28.17300 21.02400
H  -2.41500 29.64600 24.83900
H  -0.94200 28.59100 25.21200
H  -1.45300 29.77700 26.33000
H  -4.23000 27.45100 30.41000
H  -0.42400 26.67700 32.54000
H  -1.08600 25.03300 32.58500
H  -1.85600 26.30800 33.58300

