158

Mg -10.94100 16.70200 42.45700
C  -7.57500 17.40700 42.88500
C  -11.33300 20.05700 41.85900
C  -14.14500 16.07300 41.40000
C  -10.25400 13.30400 42.56500
N  -9.54300 18.48600 42.20400
C  -8.27000 18.54400 42.51600
C  -7.66900 19.93200 42.44900
C  -8.95300 20.75600 42.58200
C  -10.02900 19.74100 42.15600
C  -9.23700 21.28500 43.92900
C  -6.96500 20.01400 41.05500
C  -5.46300 20.11500 41.02700
H  -4.63400 19.03500 40.24500
N  -12.50600 17.87500 41.66700
C  -12.47800 19.22300 41.55800
C  -13.77100 19.67400 41.12300
C  -14.61800 18.52800 40.87500
C  -13.78800 17.45200 41.34800
C  -14.00100 21.18100 40.95700
C  -16.11200 18.54200 40.34000
O  -16.60700 19.63800 39.98800
C  -16.88400 17.28300 40.19200
N  -12.07100 14.95500 42.09600
C  -13.37300 14.92900 41.73200
C  -13.89200 13.48000 41.55000
C  -12.59200 12.65400 41.79200
C  -11.52300 13.72900 42.15200
C  -15.22600 12.99000 42.34800
C  -12.17100 11.63300 40.73000
C  -11.98200 10.11600 41.19300
N  -9.25500 15.53600 42.73700
C  -9.14100 14.17400 42.74300
C  -7.80100 13.86700 43.04000
C  -7.12500 15.05500 43.14700
C  -8.05300 16.05700 42.87500
C  -7.22000 12.49900 43.31500
C  -5.84500 15.67500 43.31800
O  -4.72200 15.17600 43.37600
C  -6.08200 17.29700 43.25600
C  -5.73100 17.70200 44.64800
O  -6.44500 17.65200 45.64900
O  -4.42000 18.06800 44.65200
C  -4.16100 18.90700 45.86000
H  -11.37900 21.14600 41.79200
H  -15.11000 15.66900 41.08800
H  -10.18800 12.22400 42.71100
H  -6.99400 19.95700 43.30400
H  -8.93800 21.52100 41.80600
H  -8.27600 21.41700 44.42600
H  -9.71100 20.54700 44.57600
H  -9.89200 22.15600 43.91000
H  -7.28500 20.97900 40.66300
H  -7.21200 19.25000 40.31700
H  -5.03700 20.22800 42.02400
H  -5.33300 21.07100 40.52000
H  -13.74700 21.53500 39.95800
H  -13.35200 21.71200 41.65400
H  -15.05300 21.33100 41.19700
H  -17.83700 17.41500 39.68100
H  -17.09800 17.04700 41.23400
H  -16.25800 16.57300 39.65100
H  -14.18800 13.31000 40.51500
H  -12.84200 12.12400 42.71000
H  -15.29200 13.64800 43.21500
H  -15.25400 12.01500 42.83600
H  -16.01100 13.18300 41.61700
H  -11.26500 11.99200 40.24300
H  -12.87700 11.57100 39.90200
H  -12.56300 9.42200 40.58600
H  -12.25200 10.14800 42.24900
H  -10.95900 9.74000 41.20200
H  -6.15900 12.60200 43.54200
H  -7.25700 11.95200 42.37300
H  -7.81600 11.92600 44.02500
H  -5.43000 17.83600 42.56800
H  -3.93200 19.92300 45.53700
H  -3.22100 18.53900 46.27100
H  -4.85400 19.00200 46.69500
Mg -4.55600 25.72400 25.76800
C  -3.34700 27.06600 28.62300
C  -6.21500 23.32400 27.85300
C  -6.01300 24.28500 23.07600
C  -2.70700 27.67400 23.87500
N  -4.88800 25.30600 28.10100
C  -4.29900 26.05800 28.98200
C  -4.77000 25.65200 30.33800
C  -5.58900 24.30300 30.12000
C  -5.55600 24.29600 28.62800
C  -5.00300 22.98500 30.77000
C  -5.58700 26.80500 31.02500
C  -5.69400 27.00900 32.57900
H  -5.28600 25.85300 33.56100
N  -5.84000 24.06800 25.47900
C  -6.29100 23.19200 26.42100
C  -7.10700 22.18400 25.79600
C  -7.08700 22.40500 24.35500
C  -6.29000 23.62000 24.22600
C  -7.84600 21.01900 26.58800
C  -7.62900 21.51300 23.28400
O  -7.43000 21.67800 22.06800
C  -8.55700 20.32900 23.62100
N  -4.30400 25.81700 23.71400
C  -5.13200 25.40300 22.84500
C  -5.06700 26.05700 21.47300
C  -3.93300 27.09700 21.66400
C  -3.64300 26.86800 23.19800
C  -4.71000 24.94700 20.29800
C  -4.18100 28.44700 21.20100
C  -4.70500 28.62300 19.78700
N  -3.26200 27.10000 26.09900
C  -2.52600 27.80700 25.24900
C  -1.73300 28.79400 25.99800
C  -1.96600 28.44200 27.32700
C  -2.96100 27.49200 27.32200
C  -0.89000 29.91300 25.40000
C  -1.72100 28.84800 28.63400
O  -1.08800 29.84000 29.04800
C  -2.61200 28.03000 29.53300
C  -1.80500 27.28900 30.43800
O  -1.10200 26.42200 30.08600
O  -2.01800 27.69300 31.70700
C  -1.36700 26.90300 32.77000
H  -6.77400 22.60300 28.45300
H  -6.54500 23.93200 22.19000
H  -2.20900 28.33600 23.16300
H  -3.99200 25.42000 31.06500
H  -6.57200 24.30100 30.59100
H  -4.69300 23.14800 31.80200
H  -4.06400 22.72100 30.28300
H  -5.73900 22.18200 30.75700
H  -6.59100 26.76200 30.60200
H  -5.18000 27.75300 30.67400
H  -6.73400 27.22600 32.82300
H  -5.17500 27.93600 32.81900
H  -7.83900 20.12900 25.95900
H  -8.87100 21.30200 26.82700
H  -7.29200 20.89100 27.51800
H  -7.81900 19.57700 23.90100
H  -9.16000 20.09900 22.74300
H  -9.25600 20.65600 24.39000
H  -6.03700 26.51800 21.28200
H  -3.04900 26.70200 21.16300
H  -4.04000 24.21200 20.74300
H  -4.21800 25.42000 19.44900
H  -5.61800 24.48400 19.91100
H  -3.24400 29.00200 21.25400
H  -4.94100 28.92300 21.82000
H  -4.92200 27.70000 19.25000
H  -3.96800 29.20400 19.23300
H  -5.58800 29.26200 19.75300
H  -1.17500 30.04600 24.35600
H  0.17400 29.68200 25.44000
H  -1.04900 30.83800 25.95500
H  -3.26600 28.73700 30.04400
H  -0.45500 27.39800 33.10500
H  -1.19400 25.87500 32.45100
H  -1.95100 26.76300 33.67900

