158

Mg 24.23700 -5.06600 45.66200
C  26.10400 -2.67900 44.27400
C  21.62100 -4.18900 43.34600
C  22.44300 -7.84100 46.39000
C  27.04200 -6.53300 47.21000
N  23.84300 -3.57400 43.95400
C  24.78500 -2.64300 43.62900
C  24.31600 -1.82300 42.40400
C  22.79700 -2.21500 42.27800
C  22.79300 -3.47000 43.17800
C  21.72900 -1.21600 42.64600
C  25.23200 -2.25600 41.19500
C  25.98700 -1.18600 40.30900
H  26.00400 -1.19100 38.79800
N  22.28800 -5.68900 45.12700
C  21.38300 -5.19900 44.24300
C  20.08900 -5.87700 44.24900
C  20.26600 -6.94700 45.14900
C  21.75000 -6.88100 45.55700
C  18.86700 -5.45500 43.51400
C  19.14700 -7.78900 45.69300
O  18.05200 -7.85700 45.06800
C  19.29200 -8.63200 46.97900
N  24.65700 -6.88900 46.73700
C  23.75100 -7.90500 46.82000
C  24.46500 -9.25300 47.25200
C  25.83600 -8.75600 47.82300
C  25.84900 -7.28100 47.24700
C  23.65700 -10.21000 48.16800
C  27.04300 -9.63200 47.24900
C  28.26100 -9.81100 48.17200
N  26.16800 -4.66700 45.95800
C  27.21300 -5.28700 46.53800
C  28.41400 -4.51800 46.33400
C  28.05300 -3.47100 45.47300
C  26.66700 -3.59200 45.28400
C  29.69100 -4.99700 46.79900
C  28.52600 -2.40100 44.66600
O  29.67000 -2.04300 44.42100
C  27.28700 -1.81000 43.88500
C  27.15400 -0.42300 44.21700
O  26.75000 -0.05400 45.29900
O  27.65900 0.41200 43.28300
C  27.76700 1.80000 43.66100
H  20.89300 -3.80700 42.62700
H  21.87100 -8.71300 46.71500
H  27.92500 -7.01800 47.63200
H  24.54600 -0.79900 42.69600
H  22.74100 -2.56200 41.24600
H  21.24800 -0.91800 41.71400
H  22.22000 -0.30700 42.99500
H  20.91600 -1.60000 43.26300
H  24.62300 -2.77600 40.45600
H  25.90500 -3.07100 41.46000
H  27.02200 -1.21000 40.64700
H  25.59700 -0.17900 40.45500
H  18.84200 -6.01800 42.58200
H  18.88300 -4.37900 43.33500
H  17.90800 -5.58000 44.01700
H  19.36300 -9.69700 46.75700
H  18.41200 -8.55900 47.61800
H  20.03400 -8.15100 47.61600
H  24.70100 -9.77400 46.32400
H  25.82600 -8.67400 48.91000
H  24.08600 -10.29500 49.16700
H  23.33200 -11.17100 47.76900
H  22.66500 -9.84800 48.43800
H  27.43100 -9.13300 46.36100
H  26.60200 -10.57800 46.93400
H  28.09500 -9.42900 49.17900
H  29.07500 -9.21800 47.75500
H  28.60000 -10.84700 48.17100
H  29.78200 -4.54600 47.78700
H  30.49000 -4.63600 46.15100
H  29.77100 -6.08100 46.71900
H  27.55700 -1.93900 42.83700
H  27.63600 2.53500 42.86700
H  28.75800 2.09400 44.00900
H  26.91200 2.05800 44.28700
Mg 35.28000 3.17800 29.43900
C  33.16100 4.13900 32.14000
C  37.85300 2.73900 31.64000
C  37.15200 2.00200 26.89700
C  32.68000 3.92200 27.18800
N  35.49900 3.51600 31.61100
C  34.52000 3.88800 32.54200
C  35.07500 3.85800 33.94400
C  36.64900 3.75800 33.67900
C  36.68200 3.30100 32.18200
C  37.47500 5.05100 33.91500
C  34.46100 2.81500 34.91100
C  34.17600 3.29600 36.30400
H  35.05700 4.39100 36.87100
N  37.22700 2.35700 29.29100
C  38.09900 2.23900 30.31700
C  39.34500 1.59400 29.83400
C  39.09100 1.26000 28.44500
C  37.70400 1.80900 28.15600
C  40.51100 1.16800 30.66200
C  39.96000 0.41300 27.47700
O  39.61100 0.22400 26.35600
C  41.35700 -0.23700 27.88400
N  35.02000 3.06500 27.45400
C  35.94500 2.64000 26.58300
C  35.46200 2.61600 25.13800
C  33.94000 2.88300 25.29300
C  33.86000 3.38800 26.67600
C  36.24800 3.68900 24.37300
C  32.84400 1.84600 24.97500
C  31.64500 2.39100 24.23700
N  33.37600 3.89700 29.57700
C  32.37600 4.03300 28.55300
C  31.15900 4.43000 29.13000
C  31.43600 4.46300 30.52900
C  32.80800 4.13400 30.73700
C  29.87500 4.66300 28.41400
C  30.83600 4.75800 31.79700
O  29.68200 5.11700 32.12000
C  31.92600 4.39000 32.94200
C  31.97100 5.62700 33.88000
O  32.46800 6.71700 33.68600
O  31.31200 5.40300 35.04500
C  31.23000 6.57400 35.98800
H  38.63500 2.54900 32.37700
H  37.62500 1.62400 25.98900
H  31.86400 4.00000 26.46700
H  34.77200 4.85000 34.28100
H  37.07800 3.03500 34.37300
H  36.80700 5.90400 34.03500
H  38.01000 5.25800 32.98800
H  38.14500 4.97600 34.77100
H  35.09800 1.93300 34.84500
H  33.51500 2.53000 34.45100
H  34.11100 2.51000 37.05800
H  33.18000 3.73000 36.39600
H  40.59200 0.08300 30.72200
H  40.37000 1.66500 31.62200
H  41.42100 1.45700 30.13700
H  42.08800 0.56000 28.01800
H  41.47400 -0.84400 26.98600
H  41.09500 -0.77100 28.79700
H  35.61200 1.64200 24.67300
H  33.73400 3.71400 24.61900
H  37.15600 3.96600 24.90900
H  35.73500 4.65100 24.36100
H  36.45300 3.21800 23.41200
H  32.57400 1.36900 25.91700
H  33.25700 1.07100 24.32900
H  30.76600 1.99900 24.75000
H  31.67100 1.94400 23.24300
H  31.58000 3.46800 24.08200
H  29.75800 4.01500 27.54500
H  29.73600 5.68100 28.05200
H  29.01100 4.34100 28.99500
H  31.52200 3.49300 33.41300
H  30.64600 7.34000 35.47700
H  32.17800 6.77100 36.48800
H  30.47000 6.31800 36.72600

