158

Mg 53.96100 24.56600 43.44200
C  51.36300 26.75800 42.86200
C  52.08100 22.11900 41.87400
C  56.89600 22.73600 42.69000
C  55.89600 27.20700 44.33800
N  52.02500 24.55100 42.37300
C  51.11200 25.48800 42.39000
C  49.77200 25.05600 41.83100
C  49.91500 23.56400 41.94500
C  51.42900 23.36200 42.06900
C  49.19800 23.07800 43.25200
C  49.46800 25.46100 40.30700
C  50.49700 24.98000 39.24600
H  50.85600 25.80100 37.98700
N  54.42600 22.59400 42.61100
C  53.46500 21.76400 42.04700
C  54.06900 20.56200 41.69000
C  55.46000 20.67900 42.00800
C  55.68000 22.04700 42.45200
C  53.33900 19.40400 41.10000
C  56.50300 19.55800 41.82000
O  56.14800 18.48700 41.33000
C  58.00400 19.59700 42.19800
N  56.13600 24.98000 43.35200
C  57.09800 24.04500 43.15600
C  58.51500 24.64600 43.33500
C  58.17700 26.07900 43.84200
C  56.65400 26.10100 43.87000
C  59.31000 23.76800 44.39600
C  58.86300 27.24300 43.07500
C  59.84400 28.33300 43.66700
N  53.66000 26.51600 43.82700
C  54.51800 27.50000 44.27700
C  53.80800 28.72500 44.49400
C  52.54800 28.44900 44.00300
C  52.55900 27.10700 43.48200
C  54.23100 30.01000 45.07600
C  51.26000 29.03500 43.68700
O  50.74100 30.15200 43.99800
C  50.47100 27.99500 42.92200
C  50.24000 28.50700 41.51600
O  51.10800 28.64700 40.64500
O  48.84900 28.72100 41.25800
C  48.42500 28.86800 39.89400
H  51.36000 21.32300 41.67700
H  57.80600 22.15300 42.53200
H  56.35100 28.12400 44.71700
H  48.95200 25.47500 42.41500
H  49.59900 23.08800 41.01600
H  48.96100 22.01500 43.21100
H  48.28400 23.64000 43.44400
H  49.90300 23.10000 44.08300
H  49.37700 26.54700 40.29900
H  48.50300 25.10500 39.94500
H  50.02000 24.11300 38.78900
H  51.50500 24.88700 39.65000
H  53.71200 18.52700 41.62900
H  53.58600 19.20700 40.05600
H  52.29700 19.32300 41.40900
H  58.03300 20.08900 43.17000
H  58.46700 20.29200 41.49800
H  58.44600 18.60100 42.19000
H  58.91100 24.57100 42.32200
H  58.51300 26.23400 44.86700
H  59.67700 22.80000 44.05200
H  58.71900 23.84100 45.30800
H  60.23600 24.27000 44.67700
H  58.06300 27.74200 42.52800
H  59.35800 26.67700 42.28600
H  60.51900 27.92500 44.42000
H  59.21400 29.12000 44.08000
H  60.48100 28.82000 42.92900
H  53.91900 30.17500 46.10700
H  53.74900 30.75900 44.44800
H  55.28100 30.29500 45.01200
H  49.53300 27.84400 43.45700
H  48.04600 29.87900 39.74400
H  47.69000 28.07900 39.73600
H  49.21500 28.73100 39.15600
Mg 6.35100 54.80100 41.09900
C  5.55500 51.29100 40.92800
C  9.61700 53.96800 40.21700
C  7.01400 58.02500 41.00900
C  2.90300 55.33800 41.46400
N  7.40700 52.84000 40.40500
C  6.89200 51.58300 40.46800
C  7.85400 50.58700 39.89800
C  9.19600 51.36000 39.91700
C  8.74500 52.83600 40.22900
C  10.21500 51.00200 40.99500
C  7.49400 49.96400 38.47700
C  7.77500 50.79000 37.20200
H  6.89000 50.44200 36.00600
N  8.08700 55.81800 40.72300
C  9.31300 55.33000 40.42800
C  10.28300 56.45100 40.34200
C  9.53700 57.61100 40.58300
C  8.18200 57.18400 40.86800
C  11.72200 56.22400 39.99500
C  10.10000 58.99800 40.56700
O  11.28600 59.15900 40.40000
C  9.34400 60.30000 40.75400
N  5.06600 56.46800 41.18300
C  5.61200 57.70000 41.15400
C  4.60200 58.80400 41.38900
C  3.22300 57.94500 41.56600
C  3.70400 56.49100 41.40400
C  4.94800 59.76800 42.59700
C  2.07600 58.41000 40.54800
C  0.80300 59.00100 41.12300
N  4.53800 53.61800 41.25400
C  3.25800 53.96900 41.53800
C  2.44900 52.74100 41.94400
C  3.34500 51.78900 41.74400
C  4.60000 52.27800 41.27500
C  1.05100 52.70500 42.53900
C  3.47300 50.37500 41.94900
O  2.74500 49.52300 42.42900
C  4.79400 49.99000 41.31200
C  4.44000 49.26700 40.10600
O  3.76100 49.73000 39.16300
O  4.72300 47.92400 40.27900
C  4.44800 47.05100 39.08800
H  10.65600 53.80000 39.92700
H  7.21900 59.09400 40.92300
H  1.88300 55.58900 41.76200
H  7.81200 49.70500 40.53700
H  9.75100 51.23400 38.98700
H  10.41700 51.80500 41.70400
H  11.11300 50.74300 40.43600
H  9.78500 50.12400 41.47700
H  6.45700 49.64200 38.56800
H  8.02300 49.02200 38.33300
H  8.85700 50.75500 37.07200
H  7.60900 51.84500 37.42000
H  12.31400 57.13500 40.07800
H  11.74600 55.90800 38.95200
H  12.11400 55.46600 40.67300
H  8.73300 60.62800 39.91300
H  10.08900 61.09600 40.75600
H  8.81200 60.24000 41.70300
H  4.52400 59.45800 40.52000
H  2.74600 58.05800 42.54000
H  4.94300 60.83400 42.37100
H  5.88900 59.52300 43.08900
H  4.24500 59.50400 43.38600
H  1.71100 57.58200 39.94100
H  2.47000 59.20400 39.91300
H  0.98200 59.19500 42.18100
H  -0.06600 58.35400 41.00000
H  0.57700 59.94400 40.62600
H  1.17100 52.17000 43.48100
H  0.29900 52.12000 42.01000
H  0.61400 53.68200 42.74700
H  5.46800 49.42500 41.95600
H  5.22000 46.28600 39.00600
H  4.29400 47.52700 38.11900
H  3.51600 46.53600 39.32100

