158

Mg 17.54500 -2.33900 27.83000
C  16.68600 -0.23500 30.49900
C  19.58100 -4.11600 30.11500
C  18.84400 -3.96500 25.24100
C  15.78300 -0.14400 25.74900
N  18.07700 -2.16400 30.02800
C  17.44100 -1.32200 30.93200
C  17.89100 -1.56600 32.35400
C  18.96400 -2.70000 32.13900
C  18.88100 -3.06900 30.63000
C  20.43500 -2.33200 32.51300
C  16.82300 -1.96400 33.40900
C  16.96400 -1.21700 34.80900
H  18.40800 -0.94000 35.24000
N  18.83000 -3.93000 27.67300
C  19.56400 -4.54500 28.75800
C  20.27500 -5.66300 28.26000
C  19.97000 -5.71200 26.89100
C  19.23600 -4.50600 26.50600
C  21.17300 -6.54400 29.10900
C  20.46600 -6.65400 25.85100
O  20.28200 -6.50800 24.62700
C  21.34200 -7.87200 26.36200
N  17.16600 -2.26000 25.84600
C  17.92500 -2.92600 24.93400
C  17.61800 -2.60400 23.39500
C  16.51900 -1.45800 23.64900
C  16.43100 -1.27800 25.15100
C  18.91200 -2.08500 22.51300
C  15.12100 -1.60500 22.97600
C  14.85000 -0.88800 21.65600
N  16.51800 -0.49100 28.00200
C  15.76800 0.19100 27.08000
C  15.07400 1.33200 27.68500
C  15.45800 1.17300 29.10900
C  16.27900 0.08400 29.16100
C  14.19200 2.25900 27.02200
C  15.12900 1.66700 30.36700
O  14.33600 2.51100 30.70000
C  16.08900 0.84100 31.34000
C  17.10000 1.72000 32.02400
O  18.21500 1.99600 31.51000
O  16.59800 2.15700 33.22000
C  17.41200 3.17300 33.87800
H  20.06600 -4.75500 30.85600
H  19.18000 -4.39000 24.29300
H  15.32900 0.52700 25.01700
H  18.35300 -0.61800 32.62700
H  18.69400 -3.62700 32.64600
H  20.38100 -1.32000 32.91600
H  21.12700 -2.29700 31.67100
H  20.71000 -3.10400 33.23200
H  16.77200 -3.00900 33.71500
H  15.87300 -1.78900 32.90300
H  16.59800 -1.79100 35.66000
H  16.50700 -0.23600 34.67700
H  21.08200 -7.61100 28.90800
H  20.88200 -6.48500 30.15800
H  22.15700 -6.16800 28.83100
H  21.73400 -8.50600 25.56700
H  20.63700 -8.54800 26.84400
H  22.15100 -7.43000 26.94500
H  17.13400 -3.46900 22.94100
H  16.97400 -0.54800 23.25900
H  18.75300 -1.10300 22.06700
H  18.97000 -2.88800 21.77800
H  19.76400 -1.99900 23.18700
H  14.44200 -1.13700 23.68800
H  14.81500 -2.65000 22.92100
H  13.89600 -0.39000 21.82800
H  14.92900 -1.50000 20.75700
H  15.57100 -0.07500 21.57500
H  13.17700 2.15900 27.40700
H  14.22300 2.08000 25.94700
H  14.53700 3.28100 27.17500
H  15.47400 0.40400 32.12600
H  17.20700 4.08800 33.32300
H  18.45400 2.87400 34.00000
H  16.93000 3.33100 34.84200
Mg 6.88600 56.54200 42.21200
C  6.03200 53.18000 42.21800
C  9.88400 55.67300 40.72500
C  7.20900 59.75200 41.64800
C  3.52500 57.25400 43.42300
N  7.77000 54.61900 41.30500
C  7.24800 53.35900 41.52900
C  8.09400 52.25500 40.80300
C  9.52900 52.99400 40.83600
C  9.09300 54.47600 41.00200
C  10.62200 52.57500 41.84500
C  7.51500 52.01800 39.40600
C  7.85400 50.54900 38.92300
H  6.91300 49.95600 37.86400
N  8.39700 57.54600 41.39100
C  9.59500 57.03400 40.92100
C  10.47000 58.16200 40.56500
C  9.69000 59.35300 40.72400
C  8.35400 58.93900 41.24600
C  11.88200 57.98200 39.85900
C  10.24800 60.74200 40.55900
O  11.29200 60.91700 39.95000
C  9.57700 61.99800 41.12500
N  5.48400 58.28900 42.39700
C  5.94600 59.49400 42.16900
C  4.82100 60.55200 42.46400
C  3.68400 59.75700 43.12900
C  4.20300 58.35800 42.92700
C  5.30800 61.73100 43.34300
C  2.27500 59.94600 42.50400
C  1.17700 60.53800 43.42500
N  5.11300 55.53200 42.68800
C  3.93300 55.87900 43.30600
C  3.16600 54.73800 43.68100
C  3.94300 53.62300 43.35300
C  5.10000 54.16600 42.74800
C  1.82800 54.66300 44.35400
C  4.09200 52.15400 43.36100
O  3.33200 51.25300 43.73100
C  5.45500 51.87400 42.66400
C  5.25100 50.87700 41.63800
O  4.67900 51.07000 40.56500
O  5.61800 49.71700 42.09300
C  5.27100 48.40500 41.50300
H  10.95600 55.53200 40.56800
H  7.44400 60.81500 41.72400
H  2.55100 57.52500 43.83500
H  8.11100 51.31600 41.35700
H  9.93100 52.71700 39.86100
H  11.50000 52.35600 41.23800
H  10.30400 51.75300 42.48600
H  10.76500 53.47100 42.44900
H  8.00600 52.66300 38.67800
H  6.45700 52.20500 39.21900
H  7.76900 49.94600 39.82700
H  8.85400 50.43600 38.50400
H  11.84800 57.59400 38.84200
H  12.44300 57.21500 40.39300
H  12.52300 58.86400 39.88100
H  9.29600 61.70800 42.13800
H  8.75900 62.31600 40.47800
H  10.24900 62.82900 41.33900
H  4.51100 60.77900 41.44400
H  3.75400 59.89100 44.20900
H  4.70300 61.91600 44.23100
H  5.30000 62.68400 42.81300
H  6.31000 61.46900 43.68200
H  2.03100 58.99600 42.02900
H  2.39400 60.76200 41.79100
H  1.08700 59.89700 44.30200
H  0.23800 60.46000 42.87700
H  1.37500 61.56400 43.73500
H  1.08600 55.36900 43.98100
H  1.96900 54.77000 45.42900
H  1.57300 53.61800 44.17500
H  6.21500 51.55000 43.37500
H  6.15600 48.16500 40.91400
H  4.37700 48.38100 40.88100
H  5.14100 47.64300 42.27100

