158

Mg 41.63100 8.93700 30.14500
C  43.50100 10.09100 32.81400
C  39.17700 7.93700 32.33200
C  39.96000 7.92900 27.44800
C  44.43400 9.48800 28.06500
N  41.34200 9.02900 32.33400
C  42.26600 9.50900 33.23900
C  41.71100 9.49600 34.70200
C  40.31300 8.51600 34.51900
C  40.25100 8.48000 32.96400
C  40.48400 7.08100 35.05400
C  41.49300 10.91600 35.26000
C  42.19400 11.29800 36.60300
H  41.41200 12.04000 37.70700
N  39.84300 8.00000 29.94600
C  38.91400 7.73700 30.93300
C  37.71600 7.25100 30.30800
C  37.95100 7.28100 28.88800
C  39.30300 7.78000 28.72300
C  36.58700 6.67500 31.07500
C  36.91600 7.07200 27.76200
O  37.22900 7.17800 26.54600
C  35.55900 6.73500 28.08800
N  42.12400 8.76800 28.07900
C  41.24400 8.36400 27.13300
C  41.81900 8.49600 25.66600
C  43.29300 8.92000 25.92600
C  43.37000 8.94100 27.45400
C  41.66000 7.21500 24.83400
C  43.76300 10.15800 25.14000
C  43.19700 11.50200 25.53900
N  43.53800 9.71600 30.34900
C  44.48600 9.98900 29.38000
C  45.59100 10.61500 30.05300
C  45.18700 10.74000 31.39000
C  44.03700 10.13500 31.50200
C  46.89500 10.88400 29.43500
C  45.69300 11.13100 32.67900
O  46.78900 11.55500 32.96800
C  44.57700 10.75800 33.72500
C  45.11500 9.76700 34.75400
O  45.28500 8.55300 34.59100
O  45.36200 10.47900 35.83600
C  46.13200 9.73700 36.90900
H  38.32700 7.63700 32.94800
H  39.33700 7.67400 26.58800
H  45.31700 9.68800 27.45400
H  42.41100 8.95000 35.33400
H  39.52000 9.01700 35.07400
H  41.51400 6.99100 35.40000
H  40.37300 6.29300 34.30900
H  39.80800 6.82800 35.87100
H  40.43800 10.88800 35.53200
H  41.57800 11.68100 34.48800
H  42.99400 12.00200 36.37600
H  42.70500 10.40600 36.96400
H  35.74400 7.36400 31.03300
H  36.81700 6.41900 32.10900
H  36.27700 5.71700 30.65700
H  34.96400 6.92000 27.19400
H  35.20600 7.44500 28.83700
H  35.56400 5.69300 28.40700
H  41.30000 9.30900 25.15800
H  43.99100 8.11600 25.69100
H  41.44100 6.32100 25.41600
H  42.51100 7.02700 24.17900
H  40.76300 7.29200 24.21800
H  43.50700 9.97900 24.09600
H  44.84500 10.10500 25.26000
H  42.38200 11.46100 26.26100
H  42.85200 11.93900 24.60200
H  43.96700 12.05800 26.07500
H  47.04600 11.90700 29.09000
H  46.89700 10.41900 28.44900
H  47.68800 10.49900 30.07700
H  44.25700 11.67500 34.21900
H  46.80900 8.94800 36.58100
H  45.43000 9.32500 37.63400
H  46.81300 10.38200 37.46400
Mg 16.98000 51.57300 26.19800
C  18.83700 50.11100 28.90600
C  14.45800 52.15000 28.44200
C  15.20200 52.33500 23.65900
C  19.15700 49.74900 24.05600
N  16.65900 51.13300 28.36800
C  17.60200 50.67200 29.28700
C  17.14100 50.88300 30.69200
C  15.60700 51.19200 30.52100
C  15.55300 51.55100 29.05000
C  14.72100 50.01100 30.85500
C  18.01300 52.06800 31.27800
C  18.30300 51.91800 32.79000
H  17.30500 51.09500 33.65100
N  15.14200 52.33900 26.10400
C  14.28000 52.53500 27.10300
C  13.15900 53.23300 26.54000
C  13.32400 53.22800 25.07400
C  14.59600 52.66000 24.84800
C  12.00700 53.59600 27.39300
C  12.36100 53.75300 24.02800
O  12.65500 53.86300 22.85700
C  11.05300 54.11800 24.42700
N  17.01700 50.97700 24.16200
C  16.30500 51.58200 23.32000
C  16.58500 51.17000 21.83100
C  18.00000 50.63500 21.99600
C  18.11700 50.49000 23.51000
C  15.56100 50.17200 21.21700
C  19.12600 51.54000 21.39000
C  19.68800 51.13800 20.02600
N  18.76100 50.38600 26.32800
C  19.50000 49.65500 25.42800
C  20.62500 48.93700 26.06200
C  20.38600 49.12700 27.43400
C  19.24800 49.96700 27.55800
C  21.70100 48.18700 25.34200
C  20.90500 48.70600 28.74300
O  21.91800 48.09000 29.06400
C  19.88500 49.35800 29.70200
C  19.31000 48.33100 30.55100
O  18.30600 47.59200 30.35700
O  20.21100 48.21800 31.62200
C  20.10900 47.07900 32.55200
H  13.69400 52.35400 29.19600
H  14.80700 52.77800 22.74200
H  19.85800 49.35500 23.31700
H  17.25100 50.04200 31.37600
H  15.27000 52.08400 31.04900
H  13.92400 50.25700 31.55600
H  15.31600 49.17900 31.23200
H  14.31400 49.71900 29.88700
H  17.45100 52.97900 31.07200
H  18.93400 52.04600 30.69500
H  18.27900 52.95000 33.13800
H  19.28700 51.53300 33.05700
H  11.17000 52.94700 27.13600
H  11.78100 54.65500 27.27000
H  12.18100 53.48000 28.46200
H  10.96000 55.00500 25.05300
H  10.71300 53.27400 25.02700
H  10.39700 54.17100 23.55800
H  16.63000 52.13900 21.33500
H  17.98800 49.61200 21.62100
H  14.84700 49.88900 21.99000
H  16.10900 49.31000 20.83900
H  14.94300 50.73400 20.51600
H  19.95900 51.79800 22.04400
H  18.64000 52.48100 21.13300
H  19.45800 51.80300 19.19400
H  19.34900 50.13000 19.78800
H  20.77700 51.13700 20.07000
H  21.97900 48.95200 24.61600
H  21.26300 47.28200 24.92100
H  22.66700 47.91400 25.76600
H  20.45100 50.06800 30.30500
H  19.63300 46.26600 32.00300
H  19.46900 47.53800 33.30500
H  21.03200 46.69100 32.98200

