158

Mg 53.72800 24.48900 44.58700
C  51.15500 26.95700 43.96000
C  51.62600 22.20900 43.08400
C  56.26800 22.56900 44.26900
C  55.83600 27.25800 45.37700
N  51.63400 24.63200 43.61400
C  50.76100 25.65400 43.56600
C  49.36400 25.16500 43.19100
C  49.47800 23.61300 43.13800
C  51.03400 23.44900 43.29800
C  48.66400 22.93800 44.24000
C  48.91000 25.82700 41.77900
C  49.90400 25.67600 40.63600
H  49.39700 25.44200 39.24900
N  53.90900 22.58000 43.97000
C  52.96000 21.80200 43.36700
C  53.54300 20.46300 43.09800
C  54.86100 20.50100 43.61900
C  55.05500 21.89200 44.02100
C  52.85700 19.26600 42.35800
C  55.75100 19.31700 43.69900
O  55.30400 18.16100 43.41400
C  57.12300 19.44600 44.33900
N  55.79700 24.94400 44.66900
C  56.63400 23.87700 44.57500
C  58.05700 24.26200 44.68700
C  57.99200 25.69200 45.34000
C  56.48000 25.97400 45.16100
C  58.96600 23.26100 45.49200
C  58.82600 26.78500 44.64500
C  59.43500 27.82100 45.66700
N  53.54800 26.66400 44.72100
C  54.46700 27.59900 45.18000
C  53.78700 28.82900 45.46900
C  52.45500 28.62300 44.99600
C  52.39000 27.33100 44.46700
C  54.33500 30.00400 46.09200
C  51.19900 29.22700 44.93200
O  50.90400 30.37000 45.35500
C  50.26800 28.21200 44.08600
C  49.90600 28.86800 42.79000
O  50.59200 28.75500 41.75900
O  48.75500 29.57800 42.86300
C  48.15200 30.03200 41.63800
H  51.01000 21.36300 42.77300
H  57.16600 22.02400 43.97300
H  56.41700 28.08700 45.78700
H  48.67500 25.60500 43.91200
H  49.16100 23.21400 42.17400
H  49.23700 22.44200 45.02300
H  47.95000 22.21300 43.85000
H  48.09500 23.71200 44.75500
H  48.50300 26.81500 41.99000
H  48.02400 25.26500 41.48300
H  50.58800 24.88400 40.94100
H  50.54200 26.56000 40.62000
H  53.55200 18.61900 41.82200
H  52.06100 19.63700 41.71400
H  52.34300 18.68200 43.12100
H  57.57600 18.46600 44.49100
H  56.98100 20.00600 45.26300
H  57.72700 20.12800 43.74200
H  58.53900 24.22600 43.71000
H  58.05100 25.67500 46.42900
H  58.31700 22.47700 45.87900
H  59.56700 23.77000 46.24600
H  59.60500 22.72500 44.79000
H  58.20400 27.42600 44.02000
H  59.58300 26.36400 43.98200
H  60.51600 27.74100 45.78200
H  59.03900 27.85500 46.68200
H  59.13000 28.79700 45.28900
H  53.49700 30.59700 46.45900
H  54.84000 30.60700 45.33800
H  54.93700 29.74200 46.96200
H  49.41100 27.93000 44.69800
H  47.06900 29.93200 41.70800
H  48.55800 29.43700 40.82000
H  48.25600 31.11200 41.53600
Mg -11.06600 39.09400 41.23300
C  -9.45100 35.94300 40.86600
C  -8.32900 40.55000 39.67500
C  -12.95200 41.87100 40.75200
C  -13.95700 37.34700 42.05800
N  -9.07300 38.35400 40.39100
C  -8.67500 37.04200 40.40400
C  -7.36500 36.85100 39.60500
C  -6.96900 38.37000 39.43200
C  -8.19100 39.20800 39.86800
C  -5.55500 38.81700 40.02900
C  -7.64700 36.02800 38.23200
C  -6.96600 34.71200 37.95400
H  -5.87800 34.85100 36.84700
N  -10.61100 41.00900 40.52500
C  -9.45100 41.38000 39.96400
C  -9.53100 42.81000 39.73000
C  -10.88300 43.24300 39.85700
C  -11.55100 42.05200 40.38700
C  -8.35000 43.59400 39.20400
C  -11.38600 44.59900 39.62300
O  -10.66200 45.55000 39.16300
C  -12.80900 44.86500 39.69300
N  -13.10800 39.53800 41.54200
C  -13.66700 40.78600 41.34100
C  -15.20200 40.86100 41.61900
C  -15.50000 39.39200 42.05600
C  -14.09300 38.72700 41.89000
C  -15.56400 41.96500 42.66900
C  -16.78200 38.78600 41.27000
C  -18.09700 38.94000 41.99800
N  -11.54800 37.13900 41.55000
C  -12.78000 36.61400 41.91500
C  -12.67800 35.15500 42.13900
C  -11.36800 34.81800 41.80700
C  -10.78200 36.10200 41.34700
C  -13.71200 34.25800 42.84600
C  -10.28100 33.81900 41.70500
O  -10.34700 32.64100 42.10900
C  -9.08800 34.52300 40.98800
C  -7.95700 34.28000 41.94600
O  -7.25600 33.34300 41.82300
O  -7.84700 35.31800 42.80900
C  -6.56600 35.35600 43.50000
H  -7.44100 41.05200 39.28600
H  -13.67100 42.64100 40.46200
H  -14.75900 36.70200 42.42300
H  -6.65000 36.29300 40.21000
H  -6.84400 38.47000 38.35400
H  -4.94200 38.02300 40.45500
H  -5.72300 39.25400 41.01300
H  -5.06300 39.52600 39.36400
H  -7.36600 36.70100 37.42300
H  -8.72000 35.86800 38.12300
H  -7.63200 33.95000 37.55000
H  -6.46800 34.33100 38.84600
H  -8.37100 44.64600 39.48900
H  -8.22400 43.56500 38.12100
H  -7.49300 43.16100 39.72000
H  -13.15000 44.17000 38.92600
H  -13.16100 45.86100 39.42200
H  -13.23700 44.68800 40.68000
H  -15.74200 41.07900 40.69800
H  -15.75100 39.32900 43.11500
H  -16.03700 41.56000 43.56400
H  -16.27700 42.68100 42.25900
H  -14.68200 42.56900 42.88000
H  -16.63600 37.71400 41.13700
H  -16.64200 39.15000 40.25300
H  -18.74400 39.41700 41.26200
H  -18.09600 39.53400 42.91200
H  -18.48900 37.96800 42.29800
H  -13.50300 34.20100 43.91500
H  -13.52600 33.27600 42.41100
H  -14.76200 34.45900 42.63200
H  -8.90900 34.04400 40.02500
H  -6.27800 36.39300 43.32700
H  -5.71800 34.90300 42.98600
H  -6.62200 35.16400 44.57100

