158

Mg 54.72400 22.87400 45.00400
C  52.64600 25.64100 44.39900
C  52.23200 20.77500 44.00800
C  57.06900 20.46800 44.81400
C  57.34700 25.27100 45.81100
N  52.79500 23.18400 44.07600
C  52.01700 24.37700 44.05200
C  50.56300 24.05400 43.48700
C  50.42700 22.58800 44.02200
C  51.90400 22.08800 44.00000
C  49.63400 22.31400 45.33400
C  50.39200 24.19200 41.95800
C  49.01600 24.81700 41.58000
H  48.19800 24.26800 40.39000
N  54.61200 20.89700 44.50000
C  53.52800 20.19700 44.13500
C  53.79000 18.80900 44.14300
C  55.18700 18.68100 44.30900
C  55.70700 20.07100 44.49600
C  52.71200 17.81500 43.98600
C  55.97900 17.33000 44.30500
O  55.45300 16.21300 44.19900
C  57.53300 17.34400 44.27200
N  56.94000 22.89300 45.21300
C  57.60200 21.70700 45.20700
C  58.99100 21.88400 45.74500
C  59.13100 23.46500 45.93200
C  57.71900 23.91800 45.62200
C  59.47200 20.89800 46.88900
C  60.23500 24.15700 45.08700
C  61.39900 24.91800 45.75300
N  55.02300 24.96700 45.11800
C  56.07400 25.79700 45.59600
C  55.65200 27.11500 45.58700
C  54.31700 27.08500 45.27000
C  53.99400 25.77000 44.85400
C  56.47100 28.37700 45.85200
C  53.19200 27.92800 45.13400
O  53.03100 29.09100 45.41800
C  52.07200 27.00400 44.42600
C  51.93300 27.57400 43.08700
O  52.62900 27.54200 42.12300
O  50.65100 28.10400 43.02400
C  50.19500 28.68600 41.80600
H  51.39000 20.10300 43.83000
H  57.88500 19.74300 44.81000
H  58.08700 26.03600 46.05500
H  49.92100 24.79000 43.97100
H  49.81700 22.03400 43.30700
H  49.09700 23.19700 45.68200
H  50.25000 21.97100 46.16500
H  48.93600 21.50700 45.10900
H  50.55700 23.19800 41.54100
H  51.19300 24.83300 41.59000
H  49.15200 25.87900 41.37800
H  48.29300 24.79900 42.39400
H  52.99400 16.77900 43.80000
H  52.00000 18.14200 43.22800
H  52.16000 17.87900 44.92300
H  57.85100 17.96600 43.43600
H  57.90400 16.32600 44.15100
H  57.93800 17.82800 45.16000
H  59.65000 21.62800 44.91600
H  59.30400 23.62700 46.99600
H  59.91600 21.36200 47.77000
H  60.30100 20.23700 46.63800
H  58.60900 20.34500 47.26300
H  59.85000 24.82500 44.31700
H  60.79600 23.39500 44.54500
H  61.20100 25.02200 46.82000
H  61.49000 25.86600 45.22300
H  62.34300 24.37800 45.68500
H  55.75000 29.04600 46.32100
H  57.09600 28.74700 45.03800
H  57.29500 28.09000 46.50600
H  51.08300 26.88600 44.86900
H  50.39900 27.97400 41.00600
H  50.68000 29.65200 41.66900
H  49.11800 28.82000 41.89900
Mg 6.22100 54.27900 39.38200
C  5.66900 50.74300 39.50800
C  9.28800 53.53800 38.23200
C  6.55000 57.53700 38.80200
C  2.83000 54.68500 40.09500
N  7.32100 52.26400 38.71000
C  6.91200 50.99400 38.87500
C  8.10700 50.01500 38.58300
C  9.40700 51.00200 38.57000
C  8.63100 52.35000 38.54000
C  10.36600 50.93100 39.74200
C  7.94500 49.31200 37.17500
C  7.47000 50.10100 35.96600
H  6.00400 50.21100 35.48100
N  7.71300 55.37100 38.64100
C  8.90900 54.93500 38.19100
C  9.85300 56.11600 38.06700
C  9.09600 57.25800 38.21700
C  7.69900 56.77600 38.56700
C  11.22900 55.94500 37.55500
C  9.56400 58.70000 38.16700
O  10.74500 58.83100 37.93000
C  8.70900 59.94900 38.22200
N  4.77300 55.84200 39.19200
C  5.23200 57.09300 38.99500
C  4.13800 58.13600 39.34200
C  2.94900 57.17100 39.66600
C  3.53700 55.77100 39.60600
C  4.50100 59.21400 40.47000
C  1.74500 57.36700 38.66500
C  0.82700 58.58100 39.07300
N  4.45800 53.02100 39.66700
C  3.27500 53.34000 40.15400
C  2.53000 52.13600 40.46900
C  3.46600 51.07800 40.28100
C  4.61700 51.64900 39.71600
C  1.03400 52.07800 40.88200
C  3.67000 49.62800 40.46400
O  2.96700 48.73400 40.89300
C  5.13100 49.35100 39.88900
C  4.79700 48.46400 38.68400
O  4.14000 48.81900 37.74100
O  5.41600 47.23600 38.75400
C  4.96200 46.10100 37.91900
H  10.30200 53.37100 37.86200
H  6.75600 58.60900 38.76600
H  1.83900 54.80000 40.54000
H  8.21600 49.26500 39.36600
H  10.05400 50.83800 37.70800
H  11.29700 50.73100 39.21300
H  10.11900 50.16300 40.47500
H  10.51300 51.87700 40.26500
H  7.18600 48.54900 37.34300
H  8.90200 48.80400 37.05700
H  8.09900 49.69200 35.17600
H  7.76800 51.10900 36.25600
H  11.93600 55.94700 38.38500
H  11.39700 56.72600 36.81400
H  11.35200 55.00300 37.02000
H  9.29000 60.84800 38.01200
H  8.19300 59.98000 39.18200
H  7.98100 59.70800 37.44800
H  4.01800 58.68800 38.41000
H  2.72400 57.36400 40.71500
H  5.57600 59.16500 40.64400
H  4.04300 59.01200 41.43800
H  4.39500 60.24500 40.13300
H  1.05700 56.52400 38.61100
H  2.09600 57.51200 37.64300
H  -0.02200 58.10900 39.56900
H  0.27400 59.02500 38.24600
H  1.30000 59.25200 39.79000
H  0.53500 53.04500 40.93700
H  0.88100 51.55800 41.82700
H  0.51900 51.43400 40.16900
H  5.68500 48.58100 40.42500
H  3.90100 45.92200 38.09400
H  5.53500 45.21400 38.18900
H  5.06100 46.33800 36.85900

