158

Mg 1.74400 -0.93600 44.07400
C  5.21100 -0.19400 43.38000
C  1.00600 1.74100 42.06300
C  -1.41100 -1.91800 44.30300
C  2.85000 -3.91200 45.63500
N  3.01200 0.51100 42.70100
C  4.32700 0.69700 42.73900
C  4.74900 1.94800 41.85900
C  3.38300 2.63600 41.66000
C  2.40800 1.59400 42.24000
C  3.14500 4.03500 42.38500
C  5.57200 1.72500 40.51000
C  6.47800 2.90500 40.06900
H  6.31100 3.57500 38.70100
N  0.00000 -0.15000 43.31900
C  -0.11200 0.91400 42.52300
C  -1.57900 1.20900 42.35700
C  -2.32400 0.14100 42.98400
C  -1.22800 -0.66300 43.60300
C  -2.11100 2.41800 41.63600
C  -3.76200 0.02100 42.99300
O  -4.46200 0.78600 42.27900
C  -4.53200 -0.97800 43.86500
N  0.85300 -2.69600 44.84200
C  -0.52400 -2.85400 44.88000
C  -0.97400 -4.07900 45.62500
C  0.40000 -4.68900 46.07300
C  1.47100 -3.75300 45.52700
C  -1.94100 -3.91100 46.81000
C  0.63200 -6.21000 45.71900
C  0.72100 -7.06100 47.07000
N  3.63700 -2.00100 44.37800
C  3.93700 -3.19100 45.04700
C  5.35200 -3.39000 45.20200
C  5.90000 -2.17800 44.58900
C  4.77400 -1.34000 44.15600
C  6.04200 -4.51000 45.84100
C  7.13300 -1.48700 44.35900
O  8.32300 -1.74400 44.70500
C  6.72500 -0.23100 43.48200
C  7.19800 0.97000 44.17900
O  6.82500 1.33400 45.29900
O  8.14200 1.64300 43.56700
C  8.72600 2.82500 44.15000
H  0.73700 2.62800 41.48500
H  -2.48500 -2.00900 44.48000
H  3.15500 -4.80500 46.18500
H  5.35600 2.54400 42.54100
H  3.32000 2.82200 40.58700
H  4.05900 4.31700 42.90800
H  2.29700 4.05300 43.06900
H  2.95000 4.80900 41.64200
H  4.88500 1.55500 39.68100
H  6.24400 0.86800 40.56200
H  7.49600 2.51600 40.08400
H  6.29900 3.69000 40.80300
H  -2.66100 2.20200 40.72000
H  -1.44300 3.26500 41.48000
H  -2.84800 2.85800 42.30800
H  -5.60600 -0.79600 43.89100
H  -4.19300 -0.79400 44.88500
H  -4.33200 -1.95800 43.43400
H  -1.36000 -4.75800 44.86500
H  0.59200 -4.49300 47.12800
H  -2.31300 -2.89800 46.66100
H  -1.44500 -4.19600 47.73800
H  -2.86300 -4.45800 46.61100
H  1.54500 -6.30900 45.13200
H  -0.03000 -6.52800 44.91300
H  1.59700 -7.69200 47.22000
H  -0.18400 -7.66800 47.04600
H  0.55900 -6.43700 47.94900
H  6.55000 -4.99900 45.01000
H  5.42500 -5.24400 46.35800
H  6.76900 -4.04200 46.50600
H  7.31800 -0.21600 42.56700
H  9.76200 2.53600 44.32500
H  8.18400 3.21600 45.01000
H  8.60700 3.67400 43.47700
Mg 48.19100 34.18600 26.33100
C  46.30500 32.80500 28.99500
C  48.74000 36.95900 28.11000
C  49.38300 35.57300 23.52000
C  47.13400 31.39300 24.48700
N  47.45800 34.79600 28.30500
C  46.87400 34.07600 29.30500
C  47.11500 34.66700 30.64200
C  47.66400 36.10000 30.24900
C  48.06500 35.97600 28.83100
C  46.62300 37.26700 30.44200
C  48.19700 33.83100 31.39600
C  48.10400 33.78700 32.95400
H  47.02500 34.64700 33.72000
N  48.99000 36.05100 25.88800
C  49.08300 37.08000 26.75800
C  49.82500 38.14700 26.16700
C  50.06400 37.74000 24.82000
C  49.46200 36.37100 24.68100
C  50.21000 39.37300 26.95400
C  50.83700 38.40400 23.76200
O  51.14400 37.88100 22.67400
C  51.19800 39.86600 24.05300
N  48.11600 33.69600 24.33900
C  48.71200 34.35900 23.35600
C  48.88300 33.59600 22.04700
C  48.31200 32.18600 22.45900
C  47.79200 32.40100 23.86800
C  48.30000 34.36700 20.75200
C  49.46200 31.10900 22.42800
C  49.56600 30.29400 21.16700
N  46.97000 32.40100 26.60400
C  46.66600 31.36300 25.80100
C  45.88100 30.31400 26.47700
C  45.66400 30.87700 27.69100
C  46.33100 32.11700 27.73900
C  45.47300 29.00400 25.95000
C  45.05500 30.78000 29.00800
O  44.30200 29.88300 29.41900
C  45.31500 32.03400 29.87500
C  45.75700 31.52100 31.23900
O  46.81900 30.85800 31.48200
O  44.75800 31.74700 32.20100
C  44.84600 31.10100 33.47100
H  49.07400 37.76200 28.77000
H  49.80500 35.83500 22.54700
H  46.98700 30.48800 23.89400
H  46.18100 34.77800 31.19300
H  48.58300 36.28800 30.80400
H  45.95600 37.28300 29.58000
H  47.20400 38.18000 30.57000
H  45.94600 37.12600 31.28400
H  49.19200 34.27200 31.32700
H  48.33000 32.84000 30.96200
H  49.01400 34.12100 33.45300
H  47.95700 32.75900 33.28600
H  49.97800 40.32700 26.48200
H  51.27600 39.25100 27.14700
H  49.75900 39.43500 27.94400
H  51.69900 40.26800 23.17200
H  51.95900 39.92200 24.83200
H  50.38200 40.55200 24.27700
H  49.95600 33.51000 21.87600
H  47.45100 31.98200 21.82200
H  47.57000 35.05900 21.17400
H  47.81800 33.73600 20.00500
H  49.15200 34.83200 20.25700
H  49.41700 30.48200 23.31800
H  50.47600 31.42200 22.67800
H  48.81000 30.59900 20.44300
H  49.18700 29.29700 21.38900
H  50.57400 30.29700 20.75400
H  44.76200 29.08000 25.12800
H  45.12600 28.43000 26.81000
H  46.29800 28.48700 25.46000
H  44.46000 32.70000 29.99000
H  44.17500 30.24300 33.49800
H  44.50500 31.85600 34.17900
H  45.79500 30.60800 33.68600

