158

Mg 40.29000 9.69000 29.47400
C  42.27400 10.63800 32.12800
C  37.96100 8.61400 31.57400
C  38.51500 8.53000 26.79700
C  43.11700 10.37700 27.28400
N  40.25200 9.46800 31.65600
C  41.06900 10.01100 32.57300
C  40.54600 9.90700 34.02900
C  39.23900 9.05300 33.74100
C  39.11800 9.06400 32.18900
C  39.19400 7.63700 34.42600
C  40.25000 11.33200 34.69800
C  39.52700 11.44300 35.99000
H  40.25600 11.96600 37.27200
N  38.44300 8.80600 29.23500
C  37.57200 8.49400 30.22000
C  36.36100 8.01100 29.65900
C  36.46400 7.96700 28.24200
C  37.82600 8.46000 28.01800
C  35.25900 7.71100 30.67500
C  35.44800 7.47100 27.11400
O  35.63000 7.50200 25.88300
C  34.10700 7.04300 27.64400
N  40.70900 9.59700 27.32000
C  39.86200 8.96300 26.47900
C  40.51000 8.74000 25.03100
C  41.93200 9.36600 25.25900
C  41.93300 9.88600 26.66200
C  40.37700 7.33100 24.44200
C  42.46900 10.42600 24.27000
C  42.10300 11.95800 24.52500
N  42.27100 10.37400 29.60100
C  43.23000 10.70100 28.68700
C  44.40400 11.35900 29.32400
C  43.93300 11.47900 30.63700
C  42.70600 10.82800 30.78400
C  45.66000 11.90500 28.74200
C  44.36400 11.89500 31.93000
O  45.42900 12.45000 32.27600
C  43.27100 11.42000 32.95900
C  43.89200 10.52000 33.93700
O  44.33200 9.37000 33.73500
O  43.90700 11.18700 35.10300
C  44.38800 10.50900 36.30000
H  37.18300 8.35300 32.29500
H  37.89200 8.29300 25.93100
H  44.05000 10.40000 26.71800
H  41.34400 9.38900 34.56200
H  38.38900 9.65600 34.06200
H  39.30700 6.91600 33.61500
H  38.21500 7.55900 34.89900
H  40.04500 7.52500 35.09900
H  39.80000 11.92100 33.90000
H  41.17400 11.90400 34.77200
H  39.29000 10.40600 36.22700
H  38.66900 12.10600 35.88600
H  35.29900 8.50800 31.41800
H  35.50900 6.76200 31.14900
H  34.24500 7.69000 30.27600
H  34.25300 6.35300 28.47500
H  33.46800 6.61300 26.87300
H  33.67400 7.96200 28.03700
H  39.99500 9.42100 24.35300
H  42.55500 8.47300 25.32200
H  41.23800 6.96200 23.88400
H  39.47600 7.23000 23.83700
H  40.20000 6.72600 25.33100
H  42.11200 10.06300 23.30700
H  43.55000 10.33200 24.16900
H  41.27500 12.03400 25.23000
H  41.68800 12.37100 23.60500
H  42.95500 12.59800 24.75100
H  45.84800 11.31000 27.84800
H  46.46700 11.77900 29.46400
H  45.62700 12.97600 28.54100
H  42.80900 12.27500 33.45300
H  43.49300 10.40700 36.91400
H  45.14900 11.11100 36.79600
H  44.76400 9.49100 36.20100
Mg -11.60200 15.33200 41.32800
C  -8.34300 14.02600 41.23500
C  -10.42600 18.21800 39.84200
C  -14.80900 16.41900 40.87800
C  -12.78200 12.13700 42.32900
N  -9.53100 16.02300 40.65500
C  -8.38600 15.32200 40.74500
C  -7.24400 16.13200 40.07400
C  -7.83100 17.53000 39.92300
C  -9.34500 17.25800 40.10800
C  -7.26300 18.59900 40.97500
C  -6.65400 15.61600 38.72200
C  -5.14600 15.76500 38.56100
H  -4.78800 16.06000 37.12500
N  -12.43800 17.17100 40.65600
C  -11.79300 18.20300 40.13200
C  -12.75100 19.28500 39.89000
C  -13.99800 18.88600 40.33200
C  -13.81700 17.38700 40.59200
C  -12.46500 20.63400 39.39600
C  -15.31000 19.70100 40.39800
O  -15.30300 20.88300 40.04800
C  -16.59100 19.20800 40.92300
N  -13.51300 14.43600 41.67500
C  -14.71200 15.08100 41.44200
C  -15.92700 14.18000 41.69100
C  -15.26200 12.84800 42.12000
C  -13.78500 13.10300 42.02400
C  -16.92800 14.88300 42.65100
C  -15.66200 11.72300 41.10500
C  -16.16200 10.35800 41.71400
N  -10.82800 13.38500 41.69800
C  -11.38500 12.21500 42.10800
C  -10.24700 11.30700 42.43100
C  -9.06300 11.98300 42.02800
C  -9.42400 13.23600 41.59700
C  -10.42000 9.92400 42.99800
C  -7.60300 11.81700 41.98500
O  -6.85400 10.85200 42.23300
C  -7.12500 13.08300 41.31100
C  -6.08800 13.73200 42.19000
O  -6.27300 14.42400 43.21500
O  -4.82100 13.42600 41.70900
C  -3.70700 13.98000 42.39600
H  -10.02000 19.10700 39.35500
H  -15.81800 16.76200 40.63900
H  -13.13400 11.19600 42.75800
H  -6.36000 16.22500 40.70500
H  -7.61900 17.86700 38.90800
H  -8.05500 19.19400 41.42800
H  -6.63500 19.30400 40.43100
H  -6.72300 18.05000 41.74600
H  -7.08700 16.09800 37.84500
H  -6.89200 14.55400 38.67700
H  -4.66800 14.83700 38.87500
H  -4.76200 16.58900 39.16200
H  -11.52700 20.72400 38.84800
H  -12.36300 21.36300 40.20000
H  -13.33100 20.99800 38.84400
H  -16.97000 18.57400 40.12100
H  -17.14900 20.07700 41.27100
H  -16.34500 18.52600 41.73700
H  -16.38800 14.01900 40.71600
H  -15.49900 12.69300 43.17200
H  -16.93700 14.43300 43.64300
H  -17.88700 15.01100 42.14900
H  -16.53100 15.88700 42.79700
H  -14.80300 11.38500 40.52400
H  -16.47100 12.04400 40.44900
H  -17.14100 10.16500 41.27500
H  -16.08000 10.35100 42.80100
H  -15.38800 9.65500 41.40300
H  -10.72100 9.82200 44.04100
H  -9.47100 9.43600 42.77700
H  -11.05100 9.31900 42.34600
H  -6.63700 12.83800 40.36700
H  -3.54300 15.01700 42.10000
H  -2.88700 13.33800 42.07200
H  -3.87200 13.96200 43.47300

