158

Mg 24.11700 -5.21200 45.22300
C  26.34200 -3.10700 43.53900
C  21.71800 -4.20600 43.01400
C  22.19100 -7.99000 46.01700
C  26.87200 -6.59300 46.88100
N  24.14700 -3.94400 43.41400
C  25.09700 -3.06200 43.04000
C  24.62700 -2.08500 41.90600
C  23.09300 -2.34600 41.97600
C  22.95300 -3.58400 42.82500
C  22.22100 -1.11400 42.45200
C  25.29300 -2.25200 40.49100
C  25.24100 -1.03100 39.61400
H  24.85500 -1.27600 38.09800
N  22.13300 -5.96700 44.64200
C  21.31400 -5.36100 43.74300
C  20.08800 -6.09600 43.70000
C  20.13300 -7.11300 44.69000
C  21.52500 -7.08300 45.17100
C  18.93900 -5.60000 42.78600
C  18.99500 -8.03700 45.11800
O  17.90200 -7.93700 44.52300
C  19.15700 -9.01200 46.27900
N  24.48100 -7.05600 46.13800
C  23.57200 -8.03400 46.45000
C  24.21700 -9.10000 47.28500
C  25.58700 -8.58000 47.74600
C  25.67700 -7.37400 46.78400
C  23.31900 -9.73700 48.44200
C  26.78600 -9.57700 47.61500
C  27.59100 -9.79800 48.90200
N  26.21700 -4.78000 45.39100
C  27.18400 -5.42700 46.13600
C  28.50400 -4.78500 45.96900
C  28.21400 -3.81400 44.92900
C  26.82700 -3.89500 44.62700
C  29.76000 -5.17200 46.60800
C  28.76200 -2.80600 44.04900
O  29.93400 -2.44700 43.93000
C  27.54400 -2.21500 43.21400
C  27.29000 -0.84000 43.69300
O  26.60800 -0.53600 44.65600
O  27.93900 0.13400 42.87500
C  27.87400 1.49600 43.47400
H  20.97500 -3.70400 42.39000
H  21.70700 -8.88300 46.41700
H  27.70200 -7.00300 47.45900
H  24.87100 -1.07000 42.22000
H  22.73600 -2.62900 40.98700
H  22.89100 -0.25600 42.51200
H  21.77600 -1.40300 43.40400
H  21.38200 -0.97500 41.77000
H  24.82600 -3.13000 40.04500
H  26.33400 -2.54700 40.62200
H  26.23100 -0.60600 39.78000
H  24.53300 -0.43300 40.18900
H  18.31300 -4.85000 43.27000
H  18.17900 -6.36600 42.63100
H  19.33000 -5.08300 41.90900
H  18.17000 -9.17900 46.71000
H  19.76400 -8.56800 47.06800
H  19.57400 -9.96000 45.94000
H  24.43400 -9.94700 46.63500
H  25.56800 -8.20400 48.76900
H  24.07400 -10.05200 49.16200
H  22.69100 -10.51800 48.01400
H  22.71900 -8.94200 48.88600
H  27.48000 -9.17700 46.87600
H  26.38700 -10.55200 47.33400
H  28.66800 -9.78900 48.73600
H  27.24100 -10.79100 49.18500
H  27.16400 -9.04500 49.56300
H  30.63000 -4.98400 45.98000
H  29.76000 -6.18000 47.02400
H  29.88900 -4.45500 47.41900
H  27.77500 -2.33200 42.15500
H  27.01600 1.89100 44.01900
H  27.94800 2.22200 42.66400
H  28.68900 1.52600 44.19700
Mg 46.64800 16.58600 28.34100
C  45.22700 16.03200 31.50000
C  49.11100 18.56700 29.89400
C  47.77400 17.48900 25.35000
C  44.05000 14.95200 26.90700
N  47.07900 17.26000 30.50700
C  46.37800 16.86400 31.63200
C  47.17500 17.39300 32.87000
C  48.28400 18.26800 32.37700
C  48.12600 18.06100 30.81100
C  48.20100 19.74000 32.77800
C  47.65500 16.19000 33.83100
C  47.61400 16.27700 35.36800
H  47.71500 17.69500 35.95800
N  48.36700 17.69100 27.73400
C  49.23800 18.35800 28.48700
C  50.20800 18.95400 27.62500
C  49.81000 18.77100 26.28800
C  48.61700 17.90100 26.37900
C  51.52400 19.63500 28.09200
C  50.49000 19.33600 25.01900
O  49.99200 19.13900 23.89800
C  51.79400 20.10000 25.01400
N  45.81900 16.44200 26.41800
C  46.59000 16.82500 25.31700
C  45.97300 16.40700 23.96600
C  44.84500 15.41300 24.48600
C  44.89700 15.54900 26.00900
C  45.41000 17.66300 23.16000
C  44.94400 13.94000 23.90400
C  45.70200 12.90800 24.78100
N  44.91600 15.79500 28.99500
C  43.95700 15.05600 28.31500
C  42.99700 14.50900 29.22100
C  43.45800 14.85100 30.50400
C  44.67600 15.64500 30.27900
C  41.73800 13.70500 28.79400
C  43.17300 14.78900 31.89900
O  42.22500 14.26400 32.47400
C  44.30400 15.56800 32.62000
C  43.59600 16.70600 33.28800
O  43.23300 17.69600 32.74900
O  43.52300 16.43700 34.64600
C  42.95300 17.50500 35.37600
H  49.80500 19.21700 30.43100
H  47.93300 17.86900 24.33900
H  43.39800 14.29100 26.33300
H  46.39300 17.91500 33.42100
H  49.29500 17.95500 32.64100
H  47.23300 19.81900 33.27400
H  48.09100 20.44400 31.95300
H  49.10300 19.88600 33.37100
H  48.73700 16.15700 33.70300
H  47.17900 15.27200 33.49000
H  48.34700 15.65800 35.88500
H  46.61100 15.87800 35.52000
H  52.46200 19.13000 27.86300
H  51.46400 19.58500 29.17900
H  51.64900 20.61800 27.63700
H  51.59600 21.12400 25.32800
H  52.10700 20.25800 23.98200
H  52.45200 19.49200 25.63500
H  46.70000 15.88000 23.34800
H  43.85200 15.75700 24.19700
H  44.34400 17.69300 22.93700
H  45.92400 17.86900 22.22000
H  45.77100 18.56800 23.64800
H  45.46200 14.08800 22.95700
H  43.98800 13.45000 23.71700
H  45.85200 12.00400 24.19100
H  45.02800 12.55600 25.56200
H  46.65200 13.21900 25.21500
H  41.79700 12.62800 28.95200
H  41.57900 13.79900 27.72000
H  40.95300 13.99700 29.49200
H  44.84400 14.95600 33.34300
H  43.70500 18.29400 35.37100
H  42.75600 17.30300 36.42900
H  41.99100 17.85200 34.99800

