158

Mg 49.39000 44.55500 42.95700
C  45.99100 45.16300 42.40000
C  48.72900 41.21600 42.29500
C  52.70900 43.97300 42.77200
C  49.94100 47.94500 43.04400
N  47.59300 43.34200 42.29500
C  46.32800 43.80100 42.06600
C  45.44700 42.62400 41.58700
C  46.28000 41.38000 42.16000
C  47.64600 42.04500 42.15100
C  45.86500 40.88500 43.58900
C  45.28800 42.55000 40.03400
C  43.85400 42.27900 39.51100
H  43.44000 42.91700 38.28700
N  50.56800 42.81500 42.73400
C  50.12900 41.52900 42.50700
C  51.19000 40.68800 42.50200
C  52.36200 41.38400 42.72200
C  51.93200 42.74800 42.81600
C  51.03300 39.23500 42.27900
C  53.77100 40.83500 42.66900
O  53.95800 39.64100 42.37000
C  54.97500 41.68600 42.90900
N  51.09400 45.73900 42.75200
C  52.33800 45.28100 42.81800
C  53.37700 46.49200 42.93600
C  52.47300 47.74000 43.03100
C  51.07100 47.13700 42.80800
C  54.34500 46.37700 44.13600
C  52.74900 48.88200 42.09800
C  52.75500 50.34100 42.78800
N  48.23200 46.27800 42.93200
C  48.57200 47.56200 43.00600
C  47.34000 48.33600 43.14700
C  46.27900 47.44900 42.95200
C  46.91200 46.20300 42.76400
C  47.26600 49.89000 43.29000
C  44.91500 47.35600 42.80500
O  44.09900 48.21200 42.97600
C  44.62900 45.81400 42.48900
C  43.88600 45.06800 43.50000
O  44.27800 44.63700 44.54900
O  42.62800 44.67700 43.01500
C  41.70300 43.98700 43.92300
H  48.53200 40.18400 42.00100
H  53.79900 44.01200 42.84000
H  50.13400 48.98200 43.32800
H  44.49500 42.66500 42.11500
H  46.30100 40.50200 41.51500
H  44.77800 40.86200 43.66300
H  46.26400 41.60300 44.30500
H  46.20300 39.87100 43.80500
H  46.03300 41.86400 39.63000
H  45.54500 43.55400 39.69700
H  43.16800 42.55600 40.31100
H  43.86600 41.19500 39.39800
H  51.70300 38.58500 42.84100
H  51.19500 39.04000 41.21900
H  50.02000 38.87200 42.45300
H  55.19400 42.22000 41.98500
H  55.76600 40.93600 42.91700
H  54.83000 42.24500 43.83400
H  53.95700 46.54600 42.01500
H  52.44800 48.14500 44.04300
H  54.18700 47.12600 44.91200
H  55.31300 46.60200 43.68900
H  54.28400 45.37100 44.55000
H  51.96100 48.87700 41.34500
H  53.71600 48.78900 41.60400
H  53.72500 50.82600 42.89800
H  52.26800 50.25700 43.76000
H  52.11000 51.03800 42.25200
H  48.24100 50.33200 43.49300
H  46.61300 50.17100 44.11700
H  46.76700 50.31300 42.41700
H  44.18200 45.65700 41.50700
H  41.86800 44.38100 44.92600
H  41.98200 42.93400 43.88900
H  40.65700 44.14000 43.66000
Mg 6.84700 55.10300 42.08700
C  6.08400 51.64600 41.49200
C  10.07900 54.33800 41.01200
C  7.45200 58.43200 41.97900
C  3.62200 55.57800 42.72300
N  7.96800 53.23300 41.34400
C  7.51900 51.92100 41.29600
C  8.60600 50.94300 40.97700
C  9.90300 51.73800 41.21500
C  9.31200 53.19600 41.20300
C  10.61900 51.40700 42.59200
C  8.56000 50.29200 39.50500
C  8.71100 51.29900 38.29100
H  8.00100 51.14700 36.96700
N  8.57100 56.26700 41.57700
C  9.73800 55.73900 41.08100
C  10.64500 56.89900 40.68700
C  9.91800 58.14200 41.08500
C  8.56900 57.64400 41.61900
C  11.93300 56.68800 39.92500
C  10.39600 59.58300 40.85800
O  11.52100 59.73100 40.42400
C  9.60100 60.77600 41.08000
N  5.79200 56.67800 42.42900
C  6.14000 58.02100 42.40500
C  5.03700 59.02700 42.74700
C  3.85400 58.02100 43.00200
C  4.45200 56.66000 42.62600
C  5.52500 59.95800 43.91700
C  2.53000 58.52200 42.26200
C  1.41400 59.04400 43.12300
N  5.13200 53.88800 42.17200
C  3.89600 54.25000 42.53300
C  3.08500 53.00700 42.68300
C  3.96900 51.94600 42.37500
C  5.14600 52.54600 42.00100
C  1.57700 52.94900 43.05800
C  4.04200 50.50200 42.28100
O  3.26800 49.58300 42.60500
C  5.43200 50.29000 41.62000
C  5.26100 49.60300 40.34100
O  4.60100 49.94900 39.34700
O  6.10800 48.54000 40.28200
C  5.97000 47.65800 39.09900
H  11.04000 54.07200 40.56500
H  7.55900 59.51700 41.90300
H  2.55800 55.75400 42.89200
H  8.41800 50.17400 41.72600
H  10.56000 51.53200 40.37000
H  10.16700 50.55300 43.09700
H  10.44000 52.23300 43.28000
H  11.68700 51.29400 42.40100
H  7.62900 49.75500 39.32200
H  9.35000 49.55000 39.39400
H  9.74500 51.15400 37.97900
H  8.74100 52.36500 38.51900
H  11.88300 55.90600 39.16800
H  12.70400 56.45100 40.65800
H  12.11100 57.62000 39.38800
H  8.81200 60.85600 40.33200
H  10.10400 61.72500 40.89500
H  9.21500 60.85200 42.09600
H  4.84100 59.62800 41.86000
H  3.82300 58.07200 44.09000
H  6.43600 59.81900 44.49900
H  4.58800 60.04300 44.46600
H  5.54800 60.97100 43.51300
H  2.21700 57.66300 41.66800
H  2.80900 59.35300 41.61500
H  1.47500 60.13200 43.11300
H  1.51200 58.66400 44.14000
H  0.38600 58.80000 42.85800
H  1.15700 53.85700 43.48900
H  1.34900 52.11900 43.72700
H  1.08300 52.66100 42.13000
H  6.01500 49.66200 42.29400
H  5.99500 48.19500 38.15100
H  5.08200 47.08100 39.35400
H  6.77100 46.91800 39.12100

