158

Mg 2.26800 -1.94200 44.71100
C  5.47000 -1.00200 43.69900
C  0.88700 0.46100 42.73300
C  -0.76600 -3.35200 45.10700
C  3.68900 -4.84700 46.19000
N  3.14700 -0.33800 43.43300
C  4.46700 -0.26700 43.03100
C  4.68800 0.97000 42.14900
C  3.21100 1.44900 41.81500
C  2.29000 0.42800 42.69900
C  2.93800 2.93100 41.93800
C  5.54300 0.69700 40.85000
C  6.56100 1.72900 40.44000
H  6.28500 2.27800 38.95400
N  0.29100 -1.41500 44.04800
C  -0.03800 -0.30900 43.37300
C  -1.56000 -0.28300 43.34000
C  -2.04400 -1.39400 44.06900
C  -0.82500 -2.13400 44.47200
C  -2.29200 0.76500 42.49600
C  -3.49400 -1.60900 44.46500
O  -4.37000 -0.88500 44.03300
C  -3.88600 -2.64200 45.52000
N  1.53200 -3.91900 45.46900
C  0.27000 -4.18900 45.62400
C  0.05800 -5.59100 46.23300
C  1.50400 -6.12700 46.52400
C  2.30300 -4.91900 46.02100
C  -0.88800 -5.72100 47.46800
C  1.96400 -7.38800 45.74200
C  2.28900 -8.55100 46.62500
N  4.14100 -2.85200 44.89800
C  4.59400 -3.93200 45.65300
C  6.03600 -3.90900 45.71200
C  6.39200 -2.73300 45.02400
C  5.25900 -2.20500 44.49600
C  6.96300 -4.86300 46.40700
C  7.54300 -1.90300 44.61800
O  8.72400 -1.99300 45.00800
C  6.91100 -0.77700 43.72400
C  7.16500 0.56300 44.48000
O  6.71400 0.98400 45.55900
O  8.02500 1.38500 43.69600
C  8.21700 2.74000 44.14900
H  0.58900 1.26900 42.06300
H  -1.74000 -3.84700 45.12400
H  4.11200 -5.71500 46.70000
H  4.98900 1.80600 42.78000
H  3.18500 1.34500 40.73000
H  3.85500 3.51200 41.84100
H  2.55200 2.93700 42.95800
H  2.17200 3.23200 41.22300
H  4.90300 0.42100 40.01200
H  6.14200 -0.19700 41.02000
H  7.61300 1.44700 40.47600
H  6.51200 2.59200 41.10500
H  -3.10900 0.20600 42.04100
H  -1.69100 1.23600 41.71800
H  -2.90600 1.46000 43.06700
H  -4.86900 -2.40500 45.92700
H  -3.14000 -2.75400 46.30800
H  -3.90400 -3.62000 45.03800
H  -0.40500 -6.10800 45.39300
H  1.58800 -6.18600 47.60900
H  -0.23400 -5.76000 48.34000
H  -1.42300 -6.66400 47.35300
H  -1.48400 -4.80900 47.50400
H  2.82900 -7.14000 45.12700
H  1.18200 -7.66800 45.03600
H  1.54900 -8.62600 47.42200
H  3.27100 -8.37800 47.06700
H  2.26400 -9.49200 46.07600
H  7.85800 -4.78400 45.79000
H  6.60900 -5.88300 46.55100
H  7.16500 -4.39500 47.37100
H  7.42400 -0.81200 42.76200
H  7.58100 3.47400 43.65400
H  9.17000 3.09500 43.75600
H  8.17900 2.79700 45.23600
Mg 43.36700 3.79000 48.23100
C  41.29200 6.46400 47.35100
C  40.53600 1.65700 48.00000
C  45.37000 1.17100 48.27500
C  46.13900 5.93800 47.55200
N  41.10900 4.06400 47.70100
C  40.54100 5.26300 47.37700
C  39.01100 5.07000 47.20300
C  38.78300 3.53300 47.76800
C  40.22700 3.02100 47.89600
C  37.97000 3.47700 49.13300
C  38.51600 5.20400 45.76500
C  37.45400 6.33000 45.55600
H  36.77100 6.37400 44.14300
N  42.99300 1.75300 48.07700
C  41.79700 1.05200 48.01600
C  42.04500 -0.35100 48.11900
C  43.44100 -0.51600 48.06500
C  44.00900 0.78600 48.14000
C  41.03400 -1.49300 48.16700
C  44.15800 -1.84400 48.00900
O  43.46100 -2.92100 48.19400
C  45.60500 -1.96200 47.56100
N  45.45700 3.57000 47.68600
C  46.04700 2.40900 48.05000
C  47.59300 2.54100 48.11900
C  47.85400 4.01400 47.59200
C  46.39400 4.53600 47.60400
C  47.99200 2.44000 49.64500
C  48.42200 4.11800 46.13900
C  49.49500 5.11200 45.97100
N  43.66400 5.84200 47.88900
C  44.82000 6.55400 47.56900
C  44.48400 7.93700 47.37500
C  43.08700 7.96000 47.43700
C  42.61900 6.61800 47.56800
C  45.41500 9.11900 47.22800
C  41.87800 8.81500 47.44000
O  41.79400 10.06000 47.50200
C  40.71400 7.88900 47.24500
C  39.74200 8.25600 48.38100
O  39.85800 7.98500 49.53900
O  38.76700 9.09800 47.86300
C  37.86000 9.69000 48.84800
H  39.69000 1.00900 48.24200
H  46.01400 0.34300 48.57800
H  47.01600 6.58200 47.47000
H  38.47300 5.68600 47.92400
H  38.38900 2.87100 46.99600
H  37.43700 4.36800 49.46500
H  38.76100 3.19600 49.82900
H  37.42000 2.53600 49.12200
H  37.82400 4.37200 45.63400
H  39.28900 5.32300 45.00500
H  37.85000 7.33800 45.67300
H  36.69000 6.20200 46.32300
H  40.02600 -1.07900 48.19600
H  41.18800 -2.14600 49.02700
H  41.10400 -2.17000 47.31500
H  46.30900 -2.00300 48.39300
H  45.78000 -1.11900 46.89400
H  45.68900 -2.87000 46.96400
H  48.08100 1.78900 47.49900
H  48.55300 4.53700 48.24500
H  47.45600 1.58700 50.06200
H  47.65700 3.33700 50.16700
H  49.07600 2.38600 49.74500
H  47.68200 4.36800 45.37900
H  48.77500 3.13300 45.83100
H  49.18600 5.75100 45.14400
H  50.37800 4.53900 45.69100
H  49.76100 5.59800 46.91000
H  44.92600 9.86300 46.59900
H  46.28000 8.73600 46.68700
H  45.64300 9.44600 48.24200
H  40.21300 8.06500 46.29200
H  36.88600 9.22900 48.68800
H  37.71300 10.75400 48.66300
H  38.13600 9.50200 49.88500

