158

Mg 24.35800 -4.77600 45.83600
C  26.69600 -2.61400 44.34800
C  21.94900 -3.63400 43.73200
C  22.41600 -7.38900 47.01300
C  26.92700 -5.98000 47.87600
N  24.39000 -3.36300 44.20500
C  25.41100 -2.56300 43.74300
C  24.99700 -1.75200 42.52500
C  23.48200 -1.75400 42.67000
C  23.20000 -2.99000 43.60400
C  22.83000 -0.49200 43.28700
C  25.66700 -2.24600 41.23600
C  26.23500 -1.13000 40.31900
H  25.74400 -1.20400 38.78800
N  22.46500 -5.48800 45.41900
C  21.60600 -4.81000 44.51000
C  20.36000 -5.48600 44.46600
C  20.42700 -6.56000 45.37900
C  21.79300 -6.52900 46.01000
C  19.29900 -4.86400 43.57600
C  19.24000 -7.50700 45.76500
O  18.15700 -7.39200 45.20900
C  19.31500 -8.55900 46.88500
N  24.68300 -6.53600 47.11500
C  23.65300 -7.35400 47.58400
C  24.17300 -8.43800 48.54300
C  25.55000 -7.87900 48.93300
C  25.70400 -6.69700 47.98100
C  23.23300 -8.82600 49.75800
C  26.68600 -8.93800 48.76600
C  27.47000 -9.33000 50.07200
N  26.37400 -4.35500 46.16200
C  27.33200 -4.96900 47.03200
C  28.58000 -4.29900 46.75200
C  28.36900 -3.37500 45.75000
C  27.02800 -3.42700 45.40500
C  29.89900 -4.79300 47.43900
C  29.04600 -2.42100 44.87300
O  30.22600 -2.07000 44.75200
C  27.95300 -1.91900 43.88100
C  27.90500 -0.41700 43.79000
O  27.46400 0.34000 44.63400
O  28.48800 0.00700 42.59600
C  28.24700 1.43500 42.31100
H  21.15900 -3.20100 43.11500
H  21.77100 -8.21400 47.32300
H  27.85200 -6.32500 48.34300
H  25.24600 -0.69200 42.55400
H  23.11600 -1.89800 41.65400
H  21.85200 -0.80900 43.65100
H  22.44100 0.14700 42.49300
H  23.42700 0.04600 44.02300
H  24.85400 -2.76600 40.72900
H  26.38700 -2.98900 41.58000
H  27.32200 -1.19500 40.29100
H  26.13600 -0.09300 40.64000
H  18.45800 -5.54400 43.44300
H  19.79000 -4.63600 42.63000
H  19.04000 -3.91600 44.04900
H  18.35200 -9.02200 47.09600
H  19.57900 -8.07000 47.82300
H  19.99200 -9.38600 46.66900
H  24.34800 -9.34700 47.96700
H  25.48800 -7.50200 49.95400
H  23.21300 -9.91100 49.86500
H  22.20600 -8.56100 49.50600
H  23.44700 -8.37600 50.72800
H  27.51500 -8.44000 48.26400
H  26.40200 -9.79500 48.15500
H  27.05200 -10.29200 50.37100
H  27.21000 -8.64900 50.88200
H  28.54800 -9.32300 49.91200
H  30.20200 -5.73500 46.98200
H  29.87600 -4.99500 48.51000
H  30.72200 -4.15400 47.11900
H  28.27700 -2.37300 42.94500
H  27.29300 1.83800 42.65100
H  28.29400 1.68100 41.25000
H  29.05400 2.04900 42.71100
Mg 28.19400 56.02300 41.24500
C  25.88400 53.53100 40.02600
C  30.66100 54.09800 39.95800
C  30.11000 58.67100 41.75300
C  25.40600 57.90000 41.98200
N  28.22900 53.99800 40.20400
C  27.19000 53.21700 39.68900
C  27.69400 52.16800 38.81300
C  29.22800 52.11600 39.10400
C  29.41600 53.39100 39.88000
C  29.86800 50.79400 39.74400
C  27.25900 52.25000 37.28900
C  27.06400 53.53700 36.59800
H  27.16000 53.68500 35.08600
N  30.19300 56.29000 41.03000
C  31.04700 55.36000 40.47600
C  32.33500 56.05800 40.40900
C  32.22300 57.36000 40.98000
C  30.83200 57.47200 41.38600
C  33.42900 55.29700 39.93500
C  33.33700 58.40500 41.00200
O  34.42200 58.22600 40.48200
C  33.17200 59.71100 41.66000
N  27.77800 58.00400 41.77200
C  28.80300 58.87600 42.06200
C  28.28400 60.32400 42.28700
C  26.78900 60.07300 42.52400
C  26.61900 58.58300 42.04200
C  29.05600 61.09400 43.38500
C  25.94800 61.15500 41.73700
C  24.73200 61.60800 42.56900
N  26.05500 55.73200 41.20100
C  25.09800 56.54800 41.65300
C  23.78000 55.88000 41.62100
C  24.02900 54.64700 40.99400
C  25.44000 54.61100 40.80100
C  22.42200 56.39500 42.04200
C  23.50200 53.36900 40.43700
O  22.35600 52.96900 40.43000
C  24.69200 52.69300 39.72300
C  24.70500 51.32500 40.34200
O  25.37500 51.03200 41.31100
O  23.97100 50.38000 39.67200
C  23.98000 49.02500 40.27900
H  31.49200 53.45400 39.66600
H  30.74400 59.55200 41.87800
H  24.53500 58.50000 42.25400
H  27.27500 51.29700 39.31700
H  29.70400 52.23900 38.13100
H  30.56200 51.22200 40.46700
H  30.40900 50.19300 39.01200
H  29.04600 50.22900 40.18400
H  26.26200 51.81900 37.19100
H  27.79600 51.54600 36.65300
H  27.92600 54.16000 36.83800
H  26.10300 53.99700 36.83100
H  33.11200 54.86800 38.98400
H  33.73600 54.46600 40.57000
H  34.35900 55.83800 39.76200
H  32.55300 60.21500 40.91800
H  34.11300 60.26000 41.62900
H  32.72400 59.74100 42.65300
H  28.50200 60.66600 41.27600
H  26.63400 60.05800 43.60300
H  29.70100 60.37200 43.88700
H  28.35700 61.46100 44.13600
H  29.66400 61.86400 42.91100
H  25.55000 60.78500 40.79200
H  26.62300 61.98000 41.51200
H  23.92600 61.65800 41.83700
H  24.92000 62.55300 43.08000
H  24.57500 60.85500 43.34100
H  21.85200 56.42100 41.11300
H  22.50600 57.36900 42.52400
H  22.01900 55.59000 42.65700
H  24.57000 52.47300 38.66200
H  23.36600 48.29500 39.75100
H  23.62800 49.15600 41.30200
H  25.01800 48.71000 40.17600

