158

Mg 36.37900 49.39000 24.92200
C  36.31200 47.50700 27.86900
C  35.01500 51.98100 26.51800
C  36.14000 50.92200 21.88400
C  37.56600 46.48600 23.24200
N  35.64400 49.64500 26.92100
C  35.89700 48.84200 28.03000
C  35.64100 49.59900 29.31600
C  35.01900 50.96900 28.78700
C  35.22600 50.89700 27.32100
C  33.52400 51.17000 29.20600
C  36.88400 49.77200 30.13200
C  36.76600 49.66600 31.60800
H  35.39400 49.79100 32.40500
N  35.69400 51.27700 24.31300
C  35.18500 52.19700 25.13700
C  34.93900 53.38300 24.41500
C  35.37600 53.12000 23.05700
C  35.77700 51.73500 23.04000
C  34.13900 54.57600 24.87500
C  35.50300 54.02500 21.85300
O  36.01000 53.72400 20.75800
C  35.16800 55.48200 22.09400
N  36.62700 48.76200 22.90000
C  36.44600 49.57200 21.85300
C  36.64800 48.85400 20.51600
C  37.40400 47.57500 20.95900
C  37.17400 47.56100 22.42600
C  35.26800 48.54500 19.83200
C  38.92400 47.67900 20.62000
C  39.60600 46.51400 19.83600
N  36.90400 47.39900 25.47300
C  37.35600 46.34300 24.66000
C  37.69300 45.26400 25.50400
C  37.35500 45.67500 26.77800
C  36.77800 46.91500 26.69700
C  38.47000 44.03200 25.02000
C  37.30100 45.25600 28.14100
O  37.56200 44.17500 28.64800
C  36.68500 46.50300 28.93900
C  35.50400 46.06100 29.66600
O  34.53300 45.56600 29.18500
O  35.72100 46.17500 31.08600
C  34.83300 45.43400 32.00900
H  34.67800 52.86100 27.07000
H  36.02000 51.40000 20.91000
H  38.02800 45.58500 22.83200
H  34.94100 49.03000 29.92700
H  35.53400 51.82600 29.22000
H  33.13100 50.29100 29.71600
H  32.85500 51.37700 28.37100
H  33.42600 52.06100 29.82600
H  37.33100 50.71900 29.83000
H  37.61000 49.02600 29.80700
H  37.51300 50.28900 32.09900
H  37.05400 48.62300 31.74500
H  33.48900 54.94200 24.08100
H  34.87400 55.36400 25.04100
H  33.57000 54.48300 25.80000
H  35.59300 56.02500 22.93800
H  34.10500 55.69300 21.97900
H  35.50300 55.88500 21.13800
H  37.19500 49.52500 19.85300
H  37.04100 46.61200 20.59900
H  35.02000 49.25700 19.04500
H  34.49600 48.57700 20.60100
H  35.22400 47.57100 19.34500
H  39.46200 47.77800 21.56300
H  39.14900 48.58200 20.05200
H  38.88600 45.70900 19.68500
H  40.31100 46.04500 20.52200
H  40.14700 46.81900 18.94000
H  39.06000 44.20500 24.12000
H  37.66200 43.36200 24.72500
H  39.09700 43.57000 25.78300
H  37.41000 46.83000 29.68400
H  34.56300 44.47200 31.57500
H  33.93200 46.01600 32.20200
H  35.38200 45.34800 32.94700
Mg 2.22200 41.77100 24.65900
C  3.94000 41.75400 27.64900
C  -0.43800 40.19700 26.16800
C  0.70600 41.58300 21.56400
C  5.07900 42.88100 23.07800
N  1.89500 41.04300 26.63600
C  2.62700 41.32100 27.77700
C  1.83100 41.11800 29.06100
C  0.45300 40.55300 28.55200
C  0.63200 40.59500 26.96000
C  -0.06100 39.20200 29.11500
C  1.63500 42.37300 30.03400
C  1.60100 41.97700 31.57300
H  0.17000 42.05700 32.14200
N  0.38500 41.09300 23.97100
C  -0.56300 40.43300 24.73900
C  -1.66700 40.01900 23.86700
C  -1.51200 40.54700 22.60600
C  -0.09500 41.02500 22.65100
C  -2.81800 39.18700 24.39200
C  -2.44100 40.45100 21.30000
O  -2.06100 40.72800 20.15200
C  -3.80000 40.01200 21.40600
N  2.80900 42.21700 22.59400
C  1.98600 42.10200 21.52200
C  2.61900 42.71600 20.24700
C  3.91200 43.37200 20.87800
C  3.98900 42.80700 22.20800
C  2.87400 41.78500 19.06500
C  3.94400 44.95400 20.83100
C  5.13700 45.54100 20.02900
N  4.20600 42.18100 25.17700
C  5.21000 42.54000 24.45100
C  6.46100 42.61700 25.27300
C  5.94500 42.26100 26.55100
C  4.58600 42.01300 26.42800
C  7.80100 43.21600 25.03000
C  6.32800 42.13900 28.00200
O  7.38200 42.29200 28.53100
C  4.99300 41.87800 28.76200
C  5.14800 40.72800 29.72900
O  5.28300 39.58100 29.41000
O  5.44100 41.18700 30.95700
C  6.08800 40.31400 31.92000
H  -1.38000 39.86800 26.61200
H  0.22100 41.58800 20.58600
H  5.95300 43.33700 22.60800
H  2.31600 40.33000 29.63700
H  -0.24100 41.35700 28.79500
H  0.49900 38.86700 29.98800
H  0.00400 38.61000 28.20200
H  -1.04700 39.38000 29.54200
H  0.69100 42.85900 29.78600
H  2.52900 42.98700 29.93300
H  2.07900 42.71300 32.21800
H  1.95900 40.98300 31.84200
H  -3.17400 38.60400 23.54200
H  -3.60100 39.89400 24.66600
H  -2.54400 38.50500 25.19700
H  -4.27000 40.74900 20.75500
H  -4.28500 40.20800 22.36200
H  -3.94200 38.99300 21.04500
H  1.79900 43.37700 19.96600
H  4.75700 43.06500 20.26300
H  3.60900 42.16400 18.35500
H  1.93800 41.52900 18.56900
H  3.22600 40.86800 19.53800
H  4.00000 45.41700 21.81600
H  3.06800 45.41100 20.37100
H  5.83700 45.84700 20.80600
H  4.80000 46.38300 19.42500
H  5.70400 44.82300 19.43600
H  7.90200 43.97700 24.25600
H  8.54400 42.49700 24.68600
H  8.24000 43.73200 25.88400
H  4.71400 42.77300 29.32000
H  5.42700 39.48400 32.17100
H  6.43000 40.92000 32.76000
H  7.00100 39.91100 31.48200

