158

Mg -1.95500 17.28500 26.89100
C  -2.29300 15.27000 29.84900
C  -2.39400 20.02100 28.83500
C  -1.96500 19.03500 24.13300
C  -1.97000 14.25200 25.04100
N  -2.60300 17.55400 29.05800
C  -2.52600 16.66200 30.07400
C  -2.94900 17.28400 31.39600
C  -3.07500 18.80200 31.00900
C  -2.62200 18.78800 29.54800
C  -4.43900 19.44500 31.21800
C  -2.00000 17.15200 32.67400
C  -2.72900 16.94900 34.01900
H  -2.04100 16.17100 35.17200
N  -2.05600 19.25600 26.55900
C  -2.29600 20.25400 27.40800
C  -2.32700 21.59400 26.65400
C  -2.14700 21.26400 25.33400
C  -2.08000 19.75500 25.32600
C  -2.65900 22.87800 27.37400
C  -2.08700 22.22000 24.09800
O  -2.25200 21.85400 22.95700
C  -1.73800 23.71500 24.34900
N  -2.17900 16.73600 24.84700
C  -1.92200 17.67500 23.93600
C  -1.84900 17.00600 22.54800
C  -1.31400 15.60200 22.90400
C  -1.90200 15.50700 24.33500
C  -3.17500 16.93900 21.67700
C  0.20100 15.48400 22.92800
C  0.93100 15.41000 21.60600
N  -2.17000 15.16500 27.29300
C  -2.17700 14.05800 26.40200
C  -2.34800 12.81000 27.17800
C  -2.35100 13.26400 28.54500
C  -2.34800 14.66700 28.53500
C  -2.42300 11.46300 26.58300
C  -2.34900 12.80400 29.95100
O  -2.31700 11.65800 30.34900
C  -2.38000 14.13900 30.79400
C  -1.12800 14.09300 31.57700
O  0.00500 14.24100 31.14400
O  -1.49500 13.78100 32.82500
C  -0.30300 13.68700 33.71200
H  -2.48100 20.92400 29.44300
H  -1.82600 19.56500 23.18800
H  -1.65200 13.38700 24.45600
H  -3.93200 16.83400 31.53700
H  -2.35700 19.42600 31.54100
H  -5.02300 18.95400 31.99700
H  -4.94300 19.45000 30.25200
H  -4.33900 20.50200 31.46700
H  -1.50400 18.11500 32.79700
H  -1.15100 16.49100 32.50200
H  -3.72600 16.63500 33.71000
H  -2.85100 17.95700 34.41500
H  -3.03700 22.63000 28.36600
H  -3.54300 23.34400 26.93700
H  -1.80600 23.55400 27.31700
H  -0.99900 23.74100 25.14900
H  -2.63000 24.23200 24.70200
H  -1.34200 24.28300 23.50700
H  -1.10800 17.49400 21.91600
H  -1.65000 14.80800 22.23700
H  -3.09400 16.04000 21.06500
H  -3.16100 17.72300 20.91900
H  -3.96700 17.10000 22.40800
H  0.39600 14.53400 23.42700
H  0.61500 16.25100 23.58300
H  0.21100 15.36200 20.78900
H  1.66700 14.61600 21.73300
H  1.59300 16.27400 21.54500
H  -1.44000 11.00200 26.48000
H  -2.99300 11.45400 25.65400
H  -3.02300 10.94600 27.33200
H  -3.27700 14.00600 31.40000
H  0.06700 14.70700 33.81500
H  0.48700 12.98700 33.43900
H  -0.61500 13.39900 34.71600
Mg 43.24600 3.94700 46.79500
C  41.54400 7.02400 46.47400
C  40.22100 2.32400 46.27200
C  44.84100 0.98500 46.74000
C  46.25900 5.72800 46.79700
N  41.16000 4.63700 46.26100
C  40.70400 5.89400 46.31600
C  39.21000 5.95600 46.35100
C  38.78200 4.43300 46.35000
C  40.11000 3.73200 46.32500
C  37.80800 3.86400 47.44300
C  38.57400 6.94700 45.30600
C  37.26500 6.59400 44.58000
H  37.25300 6.22100 43.05100
N  42.64700 1.86800 46.50400
C  41.36300 1.46100 46.36600
C  41.28100 -0.00600 46.37800
C  42.64200 -0.47300 46.46700
C  43.43600 0.77200 46.64500
C  39.98100 -0.84100 46.03900
C  43.16600 -1.81700 46.31900
O  42.38400 -2.74800 46.28400
C  44.69900 -2.07000 46.20000
N  45.21600 3.50300 46.63800
C  45.64200 2.21000 46.83100
C  47.12700 2.11500 46.75300
C  47.63400 3.56800 46.70900
C  46.28400 4.29900 46.71100
C  47.76500 1.26700 47.87500
C  48.39700 3.95600 45.39700
C  49.94000 4.20800 45.53700
N  43.84900 6.00700 46.68500
C  45.12100 6.56600 46.75700
C  44.98600 7.99500 46.76400
C  43.60500 8.24700 46.73800
C  42.94700 6.99900 46.60000
C  46.16700 8.94100 46.88400
C  42.56200 9.27000 46.74300
O  42.83300 10.47600 46.82200
C  41.16300 8.53900 46.58300
C  40.42500 8.73000 47.87500
O  40.40600 8.00400 48.85500
O  39.48400 9.67200 47.71400
C  38.43800 9.88900 48.74500
H  39.26300 1.81700 46.13700
H  45.46900 0.10900 46.91500
H  47.18300 6.30500 46.86600
H  39.06600 6.39900 47.33700
H  38.31000 4.23000 45.38800
H  37.20500 3.06200 47.01600
H  37.23700 4.70700 47.83200
H  38.30800 3.31900 48.24300
H  39.33000 7.13300 44.54400
H  38.49200 7.90800 45.81300
H  36.77000 7.56500 44.54700
H  36.60500 5.94000 45.15000
H  39.02800 -0.33200 46.18600
H  40.15500 -1.58600 46.81600
H  39.97500 -1.33900 45.07000
H  45.17700 -1.86600 47.15800
H  45.02700 -1.37000 45.43200
H  44.93500 -3.02800 45.73700
H  47.41200 1.63900 45.81500
H  48.27000 3.68900 47.58600
H  47.99500 0.29500 47.43900
H  47.02000 1.06200 48.64300
H  48.69900 1.65200 48.28600
H  48.00100 4.76400 44.78200
H  48.46000 3.08200 44.74800
H  50.08300 5.20600 45.12200
H  50.52600 3.56900 44.87700
H  50.32700 4.10900 46.55100
H  46.83600 8.83100 46.03100
H  46.78200 8.89000 47.78300
H  45.74000 9.93500 47.02000
H  40.66400 9.05300 45.76200
H  37.63700 9.15500 48.84100
H  37.96500 10.84900 48.53800
H  38.97200 10.10200 49.67100

