158

Mg 53.37000 23.79400 44.90200
C  50.86300 26.22900 43.89200
C  51.22600 21.46100 44.02400
C  55.95800 21.83100 44.65600
C  55.53500 26.56500 45.56200
N  51.43800 23.79700 43.66600
C  50.58100 24.88700 43.51800
C  49.26000 24.40200 43.12100
C  49.24100 22.85700 43.59400
C  50.74700 22.69400 43.76800
C  48.38000 22.58500 44.86600
C  48.91200 24.53800 41.62400
C  50.09700 24.92300 40.73600
H  49.77900 25.16400 39.20900
N  53.54300 21.80600 44.49600
C  52.52500 20.95500 44.11700
C  53.02700 19.61300 44.13100
C  54.44200 19.65000 44.43300
C  54.72800 21.12800 44.57400
C  52.12400 18.40400 43.86600
C  55.46000 18.50100 44.47400
O  55.09700 17.35500 44.12600
C  56.98700 18.72300 44.78100
N  55.50200 24.21600 44.81500
C  56.32600 23.15000 44.75900
C  57.74900 23.74300 44.91300
C  57.57800 25.28100 45.09800
C  56.14900 25.39200 45.24500
C  58.46800 23.10800 46.16200
C  58.22400 26.16400 43.98600
C  59.69600 25.78900 43.48800
N  53.17600 25.99300 44.92600
C  54.14300 26.90400 45.32700
C  53.38500 28.15500 45.55500
C  52.11000 27.93100 45.02600
C  52.05000 26.64100 44.54800
C  53.99800 29.38400 46.18900
C  50.83600 28.53900 44.73000
O  50.54100 29.72700 44.93500
C  49.90700 27.37500 44.05700
C  49.25400 27.87700 42.77400
O  49.88900 28.21600 41.79000
O  47.92000 27.83400 42.83500
C  47.26500 28.52900 41.70700
H  50.57200 20.59500 44.14600
H  56.84900 21.21700 44.50400
H  56.18000 27.41400 45.80100
H  48.56800 25.00300 43.71000
H  48.81900 22.27700 42.77300
H  48.79700 21.73700 45.41000
H  47.45000 22.30000 44.37500
H  48.09100 23.41100 45.51500
H  48.12300 25.26800 41.44500
H  48.35900 23.65700 41.29900
H  50.77000 24.06600 40.76300
H  50.50800 25.85200 41.13000
H  51.14400 18.34500 44.33800
H  52.61500 17.43500 43.95400
H  51.84300 18.46300 42.81400
H  57.47300 17.76200 44.95300
H  57.19800 19.44700 45.56700
H  57.40400 19.26000 43.92900
H  58.40300 23.48500 44.07900
H  58.10600 25.63700 45.98300
H  57.87800 22.33500 46.65600
H  58.72300 23.76600 46.99200
H  59.28900 22.49000 45.79900
H  58.20000 27.19400 44.34200
H  57.55400 26.01400 43.14000
H  60.28100 25.05500 44.04300
H  60.31600 26.67900 43.59400
H  59.69600 25.50900 42.43500
H  55.07400 29.48100 46.04600
H  53.79600 29.38600 47.26000
H  53.49400 30.23800 45.73700
H  49.04500 27.21300 44.70500
H  46.20500 28.71400 41.87600
H  47.25300 27.74200 40.95300
H  47.70700 29.39800 41.22000
Mg 47.10700 35.86500 28.96900
C  45.55000 33.57500 31.19800
C  47.19200 38.07000 31.65100
C  48.04800 38.16900 26.91900
C  46.49600 33.64100 26.23500
N  46.54700 35.81900 31.13800
C  45.97900 34.72300 31.89400
C  46.12600 34.89500 33.37800
C  46.20000 36.40500 33.45400
C  46.69000 36.81000 31.98800
C  44.84100 37.10400 33.82200
C  47.41400 34.06300 33.86700
C  47.38300 33.65500 35.34000
H  46.51900 34.45400 36.32400
N  47.82900 37.75800 29.26600
C  47.68900 38.46700 30.41100
C  48.41600 39.82200 30.16600
C  48.76600 39.78400 28.80300
C  48.17800 38.55900 28.20600
C  48.58900 40.88000 31.19000
C  49.62700 40.73200 27.91900
O  49.85100 40.56500 26.75400
C  50.00500 42.05300 28.50600
N  47.20000 35.91000 26.87300
C  47.67200 36.99400 26.27200
C  47.75100 36.91300 24.77100
C  47.26600 35.45400 24.53100
C  47.02700 34.92500 25.98100
C  46.81300 37.96700 23.97800
C  48.13700 34.57900 23.59700
C  47.68900 34.43500 22.09100
N  46.25300 34.05100 28.73100
C  46.08600 33.27900 27.51000
C  45.34900 32.08100 27.87300
C  45.12200 32.20500 29.30100
C  45.68800 33.42000 29.80200
C  45.13800 30.83200 26.96900
C  44.59300 31.44100 30.43700
O  44.12200 30.27500 30.54700
C  44.66300 32.40000 31.60800
C  45.00600 31.75000 32.92000
O  46.06500 31.30200 33.27900
O  43.87100 31.75300 33.72900
C  44.04800 31.15600 35.07600
H  47.18300 38.89500 32.36600
H  48.19700 38.96500 26.18600
H  46.19900 33.05100 25.36600
H  45.28000 34.59400 33.99600
H  46.84900 36.66700 34.28900
H  43.97900 36.44400 33.72500
H  44.67000 37.83200 33.02800
H  44.80200 37.63900 34.77000
H  48.22300 34.79300 33.84600
H  47.55900 33.24000 33.16700
H  48.40100 33.72300 35.72200
H  47.05100 32.64700 35.59100
H  48.07300 41.79600 30.90400
H  49.67000 40.90500 31.32400
H  48.20500 40.58700 32.16700
H  50.57100 42.61100 27.76100
H  50.68200 41.78400 29.31700
H  49.12200 42.57300 28.87700
H  48.80900 36.96700 24.51700
H  46.27000 35.70800 24.16800
H  46.08200 37.46200 23.34800
H  47.43400 38.61900 23.36200
H  46.29700 38.64500 24.65800
H  48.13500 33.61200 24.10000
H  49.13200 35.01900 23.52400
H  46.61400 34.55400 21.95400
H  47.94900 33.40700 21.83900
H  48.21000 35.07700 21.38200
H  46.08700 30.45400 26.59000
H  44.53900 31.17600 26.12500
H  44.64700 29.97300 27.42500
H  43.63600 32.76500 31.60100
H  44.62100 31.78900 35.75400
H  44.44700 30.14200 35.10300
H  43.05500 31.11200 35.52400

