158

Mg 45.34200 4.15700 47.36000
C  43.44600 6.96100 46.85400
C  42.59900 2.21100 46.58100
C  47.34900 1.29000 47.26000
C  48.22600 6.13000 47.20200
N  43.28700 4.57300 46.73000
C  42.71600 5.81500 46.65900
C  41.25200 5.74000 46.37900
C  40.95000 4.24200 46.58700
C  42.34400 3.63000 46.59800
C  40.13100 3.93100 47.81000
C  40.97600 6.21700 44.89900
C  40.19000 7.48200 44.76200
H  40.42300 8.28800 43.53800
N  44.94600 2.05800 47.07800
C  43.76000 1.47700 46.77200
C  43.90000 0.03400 46.70500
C  45.25700 -0.22100 46.91100
C  45.97300 1.08100 47.04100
C  42.77200 -0.93900 46.52000
C  45.86000 -1.63700 46.92400
O  45.11600 -2.60300 46.82200
C  47.36700 -1.86100 46.90900
N  47.48500 3.78200 47.21600
C  48.03400 2.55700 47.36000
C  49.52900 2.61600 47.36200
C  49.82400 4.16000 47.35600
C  48.43300 4.74800 47.22900
C  50.14000 1.81800 48.58000
C  50.83800 4.69700 46.17200
C  52.35700 4.88600 46.61900
N  45.77900 6.23800 47.05200
C  47.01100 6.86800 47.12800
C  46.77000 8.27000 47.21400
C  45.35700 8.35800 47.14100
C  44.84200 7.08500 47.07100
C  47.72600 9.37000 47.19400
C  44.21900 9.26500 47.08900
O  44.26200 10.50700 47.13400
C  42.97300 8.44800 46.82200
C  41.98200 8.69400 47.88600
O  41.75800 7.93600 48.80500
O  41.24400 9.78200 47.55700
C  39.98400 9.99600 48.28900
H  41.74300 1.58400 46.32300
H  47.95500 0.39600 47.41700
H  49.15700 6.69800 47.25200
H  40.72700 6.38000 47.08700
H  40.48000 3.73500 45.74500
H  39.33100 4.65700 47.95300
H  40.72000 3.80700 48.71900
H  39.47400 3.07800 47.63800
H  40.55700 5.44100 44.25900
H  41.94500 6.43400 44.44900
H  40.31000 8.14300 45.62000
H  39.16900 7.11300 44.66400
H  43.01200 -1.75300 45.83600
H  41.94400 -0.55700 45.92100
H  42.33800 -1.23200 47.47500
H  47.64900 -2.89000 46.68600
H  47.71100 -1.90400 47.94300
H  48.06900 -1.23900 46.35300
H  49.81000 2.23500 46.38100
H  50.26300 4.44400 48.31300
H  49.37000 1.72400 49.34500
H  50.95600 2.39100 49.02100
H  50.54600 0.87700 48.20800
H  50.33900 5.53900 45.69100
H  50.75600 3.94300 45.38800
H  52.76800 5.81700 46.22900
H  52.89500 4.09000 46.10500
H  52.53300 4.77200 47.68900
H  48.29200 9.35200 46.26300
H  48.47700 9.15200 47.95400
H  47.17700 10.27400 47.45600
H  42.53400 8.64800 45.84500
H  40.14200 10.74300 49.06600
H  39.45600 9.16100 48.75100
H  39.39500 10.51000 47.53000
Mg 36.09100 2.10700 31.05000
C  33.58800 3.32400 33.22800
C  38.39500 2.38900 33.48600
C  38.53100 1.55600 28.79600
C  33.82900 2.76100 28.41600
N  35.98100 2.91000 33.04700
C  34.84900 3.11800 33.84800
C  35.19900 3.14700 35.38600
C  36.83600 3.13800 35.39300
C  37.12100 2.80900 33.88300
C  37.51500 4.47000 35.93500
C  34.44400 1.90600 36.06300
C  33.99700 2.20500 37.53500
H  34.78700 3.29100 38.39800
N  38.16900 1.72800 31.22200
C  38.87800 1.85200 32.33400
C  40.24700 1.41800 32.03100
C  40.24200 1.09700 30.64900
C  38.97000 1.43900 30.14300
C  41.34300 1.33700 33.09300
C  41.34600 0.68200 29.74300
O  41.24600 0.58600 28.53600
C  42.80800 0.47700 30.32600
N  36.17200 2.19900 28.94200
C  37.24400 1.75300 28.24900
C  36.97100 1.71900 26.75000
C  35.48600 1.93300 26.60900
C  35.11500 2.34800 28.03800
C  37.94200 2.72200 25.96500
C  34.69900 0.63000 26.28100
C  33.48100 0.91300 25.41900
N  34.08700 2.78900 30.77100
C  33.30100 2.99100 29.67400
C  31.99800 3.34800 30.12500
C  32.05800 3.45900 31.50400
C  33.34700 3.20000 31.84500
C  30.82800 3.57700 29.25200
C  31.30900 3.79100 32.68200
O  30.16700 4.18800 32.76700
C  32.27400 3.79400 33.85300
C  32.37400 5.20800 34.36600
O  32.71300 6.19000 33.79000
O  32.04300 5.20000 35.70000
C  31.86400 6.53500 36.30700
H  39.02500 2.45100 34.37500
H  39.27900 1.39600 28.01600
H  33.10400 2.90600 27.61300
H  34.80800 4.08100 35.79000
H  37.21200 2.25900 35.91700
H  36.76200 5.25000 36.04300
H  38.21500 4.83900 35.18600
H  38.14300 4.28800 36.80700
H  35.14100 1.07200 35.97500
H  33.54100 1.66700 35.50200
H  34.11500 1.22500 37.99800
H  32.94200 2.43600 37.39000
H  42.15000 0.63000 32.89700
H  40.85000 1.06400 34.02600
H  41.84500 2.29400 33.23500
H  43.55600 0.36800 29.54100
H  42.72100 -0.26100 31.12300
H  42.98600 1.38500 30.90200
H  37.18900 0.71400 26.38700
H  35.32200 2.79300 25.95900
H  38.59500 3.28200 26.63500
H  37.27400 3.40600 25.44200
H  38.50500 2.14500 25.23200
H  34.28900 0.11600 27.15000
H  35.37400 -0.12900 25.88500
H  33.52800 1.88600 24.93000
H  32.56900 0.69800 25.97700
H  33.60700 0.25000 24.56300
H  29.99500 2.94000 29.55100
H  31.04800 3.31500 28.21700
H  30.66000 4.65400 29.25300
H  32.05900 3.05100 34.62100
H  31.69800 6.44700 37.38000
H  30.99800 6.90500 35.75700
H  32.74200 7.13700 36.07100

