158

Mg 46.63500 34.85600 28.59700
C  44.82600 33.14900 31.00700
C  46.55400 37.57700 30.66800
C  47.60100 36.90800 26.00900
C  45.73900 32.45800 26.31800
N  45.97300 35.20400 30.71700
C  45.22700 34.38100 31.50400
C  44.99400 34.95400 32.85900
C  45.12500 36.45900 32.50300
C  45.95200 36.41000 31.22500
C  43.85600 37.36200 32.33800
C  46.02700 34.38400 33.88800
C  45.42000 34.34600 35.30000
H  45.40900 35.69800 36.01400
N  47.31500 36.89100 28.46200
C  47.19300 37.84100 29.45500
C  47.87800 39.04500 29.00100
C  48.25800 38.79900 27.64500
C  47.78800 37.47400 27.31100
C  48.02800 40.23200 29.93500
C  49.02100 39.65900 26.70000
O  49.29900 39.34500 25.56700
C  49.31200 41.01100 27.05100
N  46.66700 34.75400 26.46800
C  47.15600 35.65100 25.59700
C  47.20400 35.09200 24.18000
C  46.75200 33.63000 24.32600
C  46.39100 33.59500 25.82300
C  46.42100 35.89700 23.00200
C  47.75500 32.54400 23.78900
C  47.16600 31.68400 22.68600
N  45.49400 33.17700 28.58800
C  45.32000 32.22500 27.60900
C  44.55700 31.05200 28.20500
C  44.41700 31.40600 29.53800
C  44.98700 32.65900 29.74400
C  44.06500 29.81300 27.40300
C  43.84300 30.89200 30.76700
O  43.33700 29.83900 31.07600
C  43.96600 32.09900 31.77900
C  44.64100 31.59700 32.99300
O  45.84000 31.33900 33.11500
O  43.63000 31.36500 33.88400
C  44.04000 30.77100 35.16100
H  46.42300 38.37700 31.39900
H  47.99100 37.54700 25.21400
H  45.53200 31.68900 25.57100
H  43.97800 34.65400 33.11600
H  45.63800 36.90300 33.35600
H  43.02500 36.70100 32.58200
H  43.83900 37.67900 31.29500
H  43.91900 38.26800 32.94100
H  46.84400 35.10400 33.94100
H  46.42700 33.41200 33.60000
H  46.02400 33.62700 35.85300
H  44.41400 33.92600 35.31500
H  48.02500 41.17300 29.38500
H  48.88400 40.07100 30.59000
H  47.08500 40.23200 30.48100
H  48.43900 41.55500 27.41100
H  49.72100 41.57800 26.21500
H  50.06100 40.96200 27.84100
H  48.25300 35.09300 23.88100
H  45.84200 33.52200 23.73600
H  45.63200 35.35000 22.48700
H  47.22200 36.05300 22.27800
H  45.89900 36.80900 23.29400
H  48.07100 31.99100 24.67400
H  48.65300 33.05500 23.44500
H  46.15200 31.95300 22.39200
H  47.24100 30.61500 22.88700
H  47.75600 31.72800 21.77100
H  44.78800 29.04300 27.67300
H  43.99900 29.93900 26.32300
H  43.11700 29.44200 27.79300
H  42.96000 32.43800 32.02800
H  43.50000 29.84100 35.34100
H  43.83200 31.37700 36.04300
H  45.08800 30.50700 35.30800
Mg -8.55900 40.46600 42.79400
C  -7.35200 37.35000 41.72300
C  -6.06100 41.92500 40.75000
C  -10.08800 43.55200 43.14300
C  -11.53600 38.91200 43.76000
N  -6.89500 39.71700 41.33500
C  -6.55200 38.44800 41.21100
C  -5.18900 38.25700 40.41800
C  -4.70900 39.75100 40.17000
C  -5.90200 40.50900 40.90400
C  -3.29800 40.22300 40.84200
C  -5.54200 37.34700 39.13800
C  -4.54600 36.11400 39.02200
H  -4.89300 34.97300 38.04800
N  -8.07600 42.46600 42.22600
C  -6.99600 42.79100 41.38300
C  -6.90700 44.14700 41.30000
C  -8.04200 44.77700 41.85800
C  -8.84000 43.61100 42.41100
C  -5.70400 44.82900 40.51700
C  -8.42900 46.24100 41.71500
O  -7.75100 47.01300 41.04700
C  -9.81300 46.75400 42.19100
N  -10.52200 41.11000 43.42000
C  -10.85700 42.37800 43.56700
C  -12.36500 42.53900 43.94500
C  -12.82800 41.03100 44.10300
C  -11.60700 40.29000 43.78000
C  -12.55000 43.46400 45.20000
C  -14.05500 40.65300 43.32900
C  -15.05600 39.80100 44.11400
N  -9.25700 38.52900 42.87400
C  -10.44500 38.04300 43.32800
C  -10.45100 36.61500 43.24400
C  -9.21500 36.21600 42.74700
C  -8.59300 37.46100 42.43400
C  -11.53900 35.74100 43.78600
C  -8.35500 35.11300 42.41200
O  -8.49200 33.93500 42.66400
C  -7.08400 35.76700 41.76700
C  -5.87400 35.36100 42.54400
O  -5.47200 36.11700 43.45100
O  -5.39900 34.13500 42.21200
C  -4.30500 33.57000 43.01200
H  -5.19700 42.32300 40.21400
H  -10.60500 44.49700 43.32300
H  -12.47700 38.48000 44.10800
H  -4.47000 37.70100 41.02000
H  -4.77400 39.89700 39.09100
H  -3.34800 41.28400 41.08800
H  -2.54300 40.17100 40.05800
H  -3.08000 39.58500 41.69900
H  -5.47200 38.00100 38.26900
H  -6.54000 36.91100 39.15600
H  -4.58800 35.64700 40.00600
H  -3.53000 36.48300 38.87700
H  -5.99400 45.01500 39.48300
H  -4.78400 44.24500 40.51500
H  -5.38100 45.73700 41.02600
H  -9.99000 47.79800 41.93300
H  -9.82200 46.66000 43.27700
H  -10.56500 46.08200 41.77800
H  -12.80000 42.95500 43.03600
H  -12.91000 40.79700 45.16500
H  -12.88700 42.95000 46.10100
H  -13.26800 44.27200 45.06400
H  -11.59600 43.92500 45.45500
H  -13.69000 40.21500 42.40000
H  -14.63700 41.50300 42.97300
H  -14.88100 39.89200 45.18600
H  -15.03900 38.81000 43.66100
H  -16.02800 40.24200 43.89600
H  -11.28600 34.69300 43.62500
H  -12.44700 35.98200 43.23200
H  -11.70600 35.94500 44.84300
H  -6.91000 35.24200 40.82700
H  -4.47400 33.89400 44.03900
H  -3.28300 33.85100 42.75700
H  -4.42500 32.49200 43.11300

