158

Mg 48.95500 35.48000 27.25200
C  47.09700 33.97000 29.73600
C  49.38200 38.25700 29.39100
C  50.34800 37.20600 24.72200
C  47.94400 33.04300 24.86700
N  48.27400 36.09000 29.27700
C  47.69800 35.17100 30.14200
C  47.84200 35.59800 31.62300
C  48.22900 37.13700 31.44100
C  48.68900 37.24800 29.96900
C  46.96600 38.02800 31.68000
C  49.01600 34.90400 32.37600
C  48.91300 34.89500 33.93000
H  48.03900 36.03000 34.47900
N  49.85000 37.39400 27.10600
C  49.90500 38.37900 28.10700
C  50.73400 39.48900 27.66000
C  51.15700 39.18600 26.30300
C  50.47000 37.86200 26.00800
C  50.98400 40.75600 28.43500
C  52.12500 39.95800 25.38600
O  52.46300 39.50400 24.29100
C  52.67600 41.32400 25.73600
N  49.08200 35.19700 25.08500
C  49.74900 36.05300 24.24200
C  49.67000 35.69900 22.80500
C  49.14700 34.23800 22.92100
C  48.59800 34.13100 24.36900
C  48.85300 36.59400 21.93600
C  50.24100 33.21900 22.52700
C  50.08200 32.25200 21.40100
N  47.83900 33.83400 27.25100
C  47.59900 32.85500 26.21500
C  46.75100 31.83300 26.80400
C  46.50300 32.23800 28.18300
C  47.19600 33.49400 28.37100
C  46.36100 30.50700 26.13700
C  45.84100 31.86800 29.40100
O  45.20100 30.82300 29.62900
C  45.97100 33.11900 30.31700
C  46.16000 32.71400 31.74800
O  47.22400 32.30200 32.24500
O  45.01000 32.93000 32.46200
C  45.09200 33.01800 33.96200
H  49.60800 39.07000 30.08500
H  50.73800 37.67600 23.81700
H  47.68100 32.30400 24.10700
H  46.86600 35.54800 32.10400
H  49.06600 37.46800 32.05600
H  46.77200 38.43900 32.67100
H  46.12900 37.44800 31.29000
H  47.01400 38.86600 30.98500
H  49.98000 35.39100 32.22300
H  49.12100 33.89500 31.97800
H  49.94700 34.97100 34.26700
H  48.54100 33.92900 34.26900
H  51.07900 41.63300 27.79500
H  51.88500 40.87500 29.03600
H  50.11100 40.91900 29.06800
H  51.88000 42.01600 25.46100
H  53.60400 41.53700 25.20500
H  52.88500 41.32500 26.80600
H  50.65900 35.79200 22.35800
H  48.26300 34.08200 22.30200
H  48.03300 36.10000 21.41300
H  49.53300 36.91800 21.14800
H  48.38400 37.43500 22.44500
H  50.45500 32.67400 23.44600
H  51.11800 33.77900 22.20300
H  50.85800 32.26100 20.63600
H  49.14000 32.43500 20.88400
H  50.02500 31.25100 21.82900
H  45.35600 30.53900 25.71600
H  46.48900 29.65400 26.80400
H  47.01000 30.30500 25.28400
H  45.09500 33.75500 30.19300
H  46.04400 33.45700 34.25900
H  45.14700 32.02200 34.40000
H  44.20900 33.48200 34.40300
Mg 10.13600 48.59200 26.88400
C  8.43100 48.05400 29.98000
C  12.83100 49.81000 28.59800
C  11.59000 48.98400 24.01300
C  7.20800 47.74300 25.19200
N  10.48000 48.94400 29.09300
C  9.67300 48.67600 30.16600
C  10.36800 48.97500 31.45600
C  11.57200 49.97900 30.93900
C  11.67300 49.56100 29.44300
C  11.24300 51.50400 31.10000
C  10.94900 47.67700 32.21600
C  10.16300 47.39700 33.56100
H  10.82700 48.19000 34.73700
N  11.93700 49.20600 26.36200
C  12.92300 49.69700 27.23900
C  14.07900 49.96200 26.48600
C  13.79800 49.64800 25.13300
C  12.38500 49.24000 25.13700
C  15.39300 50.56600 27.09200
C  14.73700 49.61800 23.96200
O  14.41600 49.23700 22.81200
C  16.23300 49.73000 24.18800
N  9.37900 48.64900 24.86900
C  10.24400 48.68000 23.84000
C  9.60300 48.39600 22.48000
C  8.17100 47.92100 22.91000
C  8.25500 48.09800 24.41400
C  9.57800 49.45200 21.45900
C  7.92500 46.42600 22.66000
C  8.09300 46.08300 21.19000
N  8.19300 48.14800 27.41300
C  7.11500 47.75100 26.57700
C  5.99700 47.46400 27.41200
C  6.44800 47.51800 28.75700
C  7.83200 47.87300 28.69900
C  4.63100 47.27900 26.91500
C  6.07700 47.35700 30.11400
O  5.01200 46.97700 30.54200
C  7.37300 47.64300 30.95900
C  7.61900 46.33200 31.68200
O  8.30700 45.40400 31.25900
O  6.96400 46.32900 32.93700
C  6.94400 45.04900 33.58600
H  13.74200 50.10700 29.12100
H  12.00700 49.01000 23.00400
H  6.28500 47.46200 24.68200
H  9.65700 49.45600 32.12800
H  12.46100 49.72200 31.51600
H  12.17000 52.04600 31.28900
H  10.48800 51.63100 31.87600
H  10.84500 51.90000 30.16600
H  11.97000 47.75000 32.58900
H  11.00600 46.78300 31.59500
H  10.07700 46.32500 33.73700
H  9.17300 47.81500 33.37700
H  15.69000 51.42700 26.49300
H  16.17800 49.81000 27.06300
H  15.27300 50.97500 28.09500
H  16.50600 50.71400 24.56800
H  16.72400 49.67900 23.21600
H  16.52900 48.88600 24.81100
H  10.27200 47.65200 22.04900
H  7.34700 48.53600 22.54700
H  8.64000 49.98100 21.28800
H  10.09900 49.09100 20.57300
H  10.08900 50.30600 21.90500
H  6.90700 46.20800 22.98000
H  8.55700 45.82000 23.31000
H  7.27100 45.61500 20.64900
H  9.00800 45.49400 21.13400
H  8.42800 46.94700 20.61600
H  4.14100 48.20700 26.62100
H  4.05300 46.78400 27.69500
H  4.67500 46.49600 26.15800
H  7.20800 48.45300 31.66900
H  7.89300 44.53100 33.45200
H  6.08200 44.52400 33.17300
H  6.76700 45.09400 34.66100

