158

Mg 42.70200 41.30800 26.19000
C  41.61700 43.74300 28.58600
C  43.69500 39.35600 28.72400
C  43.89500 39.17400 23.82800
C  42.38300 43.88700 23.83300
N  42.82100 41.59900 28.47000
C  42.18700 42.61800 29.22800
C  42.09200 42.22400 30.73200
C  42.79200 40.82800 30.74300
C  43.19900 40.57300 29.21500
C  43.92600 40.43500 31.68000
C  40.69900 42.15800 31.26600
C  40.35200 43.10400 32.42900
H  39.82100 42.41900 33.69600
N  43.61100 39.48700 26.25600
C  43.86100 38.84200 27.36700
C  44.40600 37.54500 27.02400
C  44.46200 37.43200 25.62700
C  44.00200 38.76600 25.15200
C  44.84300 36.50100 28.03300
C  45.01900 36.35300 24.71800
O  45.05400 36.42600 23.47600
C  45.37300 35.00400 25.31400
N  43.21700 41.53100 24.16400
C  43.56800 40.43500 23.38800
C  43.58100 40.79000 21.87900
C  42.85000 42.18400 21.90500
C  42.76400 42.58700 23.39100
C  45.00600 40.87000 21.30500
C  41.42300 42.15200 21.15200
C  40.19500 41.55800 21.85500
N  42.20000 43.46100 26.18700
C  42.03100 44.26800 25.11400
C  41.43800 45.53900 25.48500
C  41.26200 45.38500 26.89800
C  41.66300 44.07700 27.24200
C  41.20800 46.64600 24.55200
C  40.74000 45.96500 28.12300
O  40.09200 47.00800 28.28100
C  40.95900 44.89600 29.27600
C  41.87300 45.56500 30.22300
O  43.11800 45.56300 30.16100
O  41.10600 46.10200 31.23300
C  41.76000 46.74000 32.41300
H  43.96800 38.66800 29.52700
H  43.94600 38.42000 23.04000
H  42.18200 44.60500 23.03600
H  42.72300 42.86900 31.34400
H  42.09500 39.99100 30.78100
H  44.81300 40.11900 31.13000
H  43.76700 39.56100 32.31200
H  44.00500 41.24400 32.40600
H  40.44100 41.13400 31.53500
H  40.12500 42.41100 30.37400
H  39.69300 43.94100 32.19800
H  41.32900 43.52600 32.66600
H  44.64500 36.69700 29.08700
H  45.92000 36.34200 27.97900
H  44.53000 35.47500 27.84300
H  46.11800 35.18800 26.08800
H  45.90300 34.41600 24.56400
H  44.44500 34.52500 25.62400
H  43.10500 40.00900 21.28600
H  43.44400 42.98500 21.46500
H  45.74800 40.38900 21.94300
H  45.42100 41.79800 20.91300
H  44.92300 40.21400 20.43800
H  41.50900 41.58900 20.22300
H  41.00800 43.12900 20.90400
H  40.33800 40.94400 22.74400
H  39.64600 40.92600 21.15700
H  39.68400 42.44200 22.23800
H  42.24300 46.89500 24.31600
H  40.51400 47.39200 24.93800
H  40.81800 46.33700 23.58200
H  39.98000 44.78700 29.74100
H  41.63900 46.02700 33.22800
H  41.20300 47.63800 32.68200
H  42.83300 46.92500 32.36200
Mg 6.84700 55.75000 41.00100
C  4.33600 53.19600 40.95500
C  9.02300 53.50200 39.59100
C  9.03700 58.33000 40.37100
C  4.35200 58.12600 41.74300
N  6.59000 53.59500 40.17200
C  5.48400 52.79100 40.28400
C  5.79500 51.49300 39.52300
C  7.39300 51.49300 39.24200
C  7.72600 52.95300 39.80100
C  8.14000 50.40200 39.89300
C  5.02200 51.51400 38.18200
C  4.51200 50.12900 37.72600
H  5.18200 49.62900 36.52200
N  8.81200 55.86900 40.22300
C  9.51200 54.85000 39.70800
C  10.83800 55.25200 39.55300
C  10.90200 56.67200 39.67300
C  9.54000 57.05400 40.07600
C  11.90900 54.37900 39.02500
C  12.07500 57.51100 39.35700
O  13.15000 57.08300 39.03900
C  11.99000 58.95300 39.35300
N  6.65300 57.97000 40.80400
C  7.73400 58.81100 40.72000
C  7.38300 60.24700 41.17600
C  5.92800 60.05400 41.67200
C  5.61800 58.59400 41.37200
C  8.23600 60.74900 42.29400
C  4.95500 61.15900 41.03700
C  3.81400 61.68900 41.95400
N  4.85800 55.71400 41.39300
C  3.97900 56.75000 41.72800
C  2.66900 56.21500 41.96200
C  2.82500 54.85800 41.71800
C  4.14200 54.60200 41.31300
C  1.45900 56.90000 42.39100
C  2.00800 53.63000 41.72100
O  0.80000 53.45000 41.95100
C  3.05600 52.47900 41.41900
C  2.45100 51.47400 40.49100
O  1.98800 51.71000 39.36900
O  2.61000 50.21300 41.01800
C  1.87100 49.09400 40.31200
H  9.75700 52.77100 39.24500
H  9.77100 59.12900 40.25300
H  3.64400 58.81300 42.21000
H  5.58700 50.68700 40.22700
H  7.54900 51.37600 38.16900
H  7.44600 49.66300 40.29300
H  8.68300 50.70500 40.78800
H  8.84800 50.00300 39.16600
H  5.67100 51.77500 37.34600
H  4.20300 52.21900 38.32000
H  3.42600 50.14500 37.64000
H  4.66300 49.38600 38.50900
H  11.67200 53.31700 38.96100
H  12.79000 54.44000 39.66400
H  12.24900 54.71600 38.04500
H  11.27100 59.28500 38.60400
H  12.93000 59.43600 39.08500
H  11.64900 59.28800 40.33200
H  7.38100 60.96300 40.35400
H  5.77200 60.05300 42.75100
H  7.65000 61.49700 42.82900
H  8.90200 61.33800 41.66500
H  8.88700 60.06200 42.83500
H  4.58400 60.68400 40.12900
H  5.64600 61.97100 40.81200
H  3.98300 62.75500 42.10600
H  3.64400 61.12900 42.87400
H  2.96300 61.59400 41.27900
H  1.09400 57.55300 41.59800
H  1.72400 57.46400 43.28500
H  0.63400 56.21600 42.59000
H  3.34200 51.96600 42.33700
H  2.11700 49.12100 39.25100
H  0.80900 49.07900 40.56100
H  2.20700 48.19200 40.82400

