158

Mg -1.45000 18.95100 27.52100
C  -2.15500 16.49700 30.12800
C  -2.04700 21.39300 29.72700
C  -1.49000 20.79300 24.94000
C  -1.58600 15.99700 25.28600
N  -1.95100 18.88400 29.69900
C  -2.17700 17.84000 30.57500
C  -2.38700 18.29500 31.98100
C  -2.41000 19.80500 31.75700
C  -2.05900 20.08600 30.27700
C  -3.74100 20.54600 32.04400
C  -1.38500 17.75100 33.03500
C  -0.98400 18.69000 34.23600
H  -0.79200 18.05400 35.57500
N  -1.59500 20.86900 27.42600
C  -1.87000 21.75100 28.41100
C  -1.79500 23.10800 27.82300
C  -1.54900 22.95000 26.37100
C  -1.63400 21.44900 26.18300
C  -1.89400 24.33400 28.66600
C  -1.23600 23.98900 25.33600
O  -1.05200 23.75900 24.14600
C  -1.39700 25.45700 25.69100
N  -1.52200 18.40900 25.43800
C  -1.36200 19.40600 24.52900
C  -1.29900 18.89000 23.08400
C  -1.21300 17.37500 23.33300
C  -1.45800 17.24600 24.78900
C  -2.66500 19.22800 22.33900
C  0.06000 16.77500 22.78700
C  1.31500 17.24800 23.51400
N  -1.77000 16.73700 27.65700
C  -1.81000 15.67400 26.68000
C  -1.99400 14.41300 27.32600
C  -2.06200 14.71100 28.66400
C  -2.00600 16.12000 28.82200
C  -2.08400 13.09100 26.65800
C  -2.28600 14.07400 29.89100
O  -2.50600 12.91400 30.21900
C  -2.23600 15.26400 30.97500
C  -1.18900 14.95200 31.90300
O  -0.02200 15.14900 31.63600
O  -1.66700 14.48000 33.04000
C  -0.74900 14.02300 34.09800
H  -2.42900 22.15100 30.41400
H  -1.45800 21.44600 24.06600
H  -1.49600 15.17000 24.57900
H  -3.40300 17.95900 32.19300
H  -1.61100 20.36800 32.24000
H  -4.17000 20.92500 31.11600
H  -3.53900 21.36800 32.73100
H  -4.41600 19.88700 32.59000
H  -0.47200 17.47000 32.51000
H  -1.79400 16.84100 33.47300
H  -1.71500 19.48300 34.39200
H  -0.03500 19.22200 34.17700
H  -1.00300 24.26800 29.29000
H  -2.82500 24.41900 29.22600
H  -1.72000 25.32800 28.25500
H  -2.35100 25.71600 26.15000
H  -1.31800 25.99300 24.74500
H  -0.54700 25.84200 26.25400
H  -0.36000 19.29100 22.70100
H  -2.02700 16.78100 22.91600
H  -3.19200 19.91200 23.00500
H  -3.28100 18.45000 21.88900
H  -2.35800 19.76500 21.44100
H  0.08300 17.12100 21.75300
H  0.04500 15.68600 22.73100
H  1.08600 17.52300 24.54400
H  1.80600 18.10000 23.04400
H  1.97300 16.38000 23.55500
H  -1.83500 13.12600 25.59700
H  -3.10100 12.71400 26.76400
H  -1.39700 12.38200 27.11900
H  -3.18200 15.27400 31.51600
H  -0.90700 12.94500 34.12500
H  -1.18700 14.41000 35.01800
H  0.30000 14.32200 34.08700
Mg 8.67000 5.34500 27.31800
C  9.58100 3.58200 30.07500
C  6.03600 6.87400 29.08500
C  7.45900 6.94300 24.46800
C  10.42200 3.16800 25.23800
N  8.01400 5.32400 29.35200
C  8.55600 4.49400 30.32900
C  7.90700 4.80500 31.77200
C  6.58900 5.53200 31.18900
C  6.89800 5.97000 29.82400
C  5.33300 4.53200 31.09900
C  8.77000 5.75500 32.58500
C  9.08600 5.37200 34.02000
H  10.14400 6.02700 34.85900
N  7.08100 6.83400 26.87100
C  6.14700 7.27900 27.73600
C  5.28000 8.30400 27.10100
C  5.79800 8.53600 25.79200
C  6.80900 7.42000 25.64900
C  4.34700 9.14100 27.90000
C  5.39200 9.50400 24.69800
O  5.97500 9.55900 23.57000
C  4.32200 10.45800 24.97200
N  8.74300 4.97800 25.13100
C  8.26600 5.85300 24.19400
C  8.78900 5.49200 22.71900
C  9.64700 4.19600 23.08400
C  9.65400 4.10400 24.59100
C  7.62000 5.27100 21.63300
C  11.08300 4.15700 22.56500
C  11.44300 2.84500 21.89000
N  9.86000 3.79600 27.51100
C  10.54400 2.96600 26.63100
C  11.31200 1.98400 27.34700
C  11.04100 2.23800 28.70800
C  10.08700 3.31500 28.74800
C  12.20300 0.83200 26.74100
C  11.47400 1.88500 30.01700
O  12.41800 1.17100 30.32600
C  10.51400 2.69300 30.95800
C  9.69300 1.79400 31.75700
O  8.84300 1.02600 31.33800
O  10.08900 2.02500 33.08700
C  9.50600 1.02400 33.99100
H  5.12300 7.05300 29.65700
H  7.16300 7.39000 23.51700
H  11.15900 2.59800 24.66800
H  7.70800 3.89100 32.33000
H  6.37000 6.35400 31.87100
H  4.61900 4.77300 31.88600
H  5.56300 3.46700 31.09700
H  4.72200 4.63800 30.20300
H  8.36100 6.76300 32.52300
H  9.80300 5.82500 32.24500
H  9.30400 4.30800 34.10800
H  8.13900 5.36800 34.56000
H  4.31600 8.83000 28.94400
H  3.37300 9.09600 27.41200
H  4.62700 10.19500 27.87600
H  3.42100 9.92500 25.27400
H  4.31100 11.03800 24.04900
H  4.59500 11.09400 25.81500
H  9.42700 6.33700 22.45800
H  9.03500 3.41400 22.63500
H  6.73000 5.77500 22.00900
H  7.38800 4.20600 21.64300
H  7.80600 5.70000 20.64800
H  11.75100 4.38100 23.39700
H  11.33500 4.99100 21.91000
H  12.13000 3.07200 21.07400
H  10.61800 2.22900 21.53400
H  12.07800 2.25600 22.55200
H  13.26500 1.07400 26.70400
H  11.84100 0.62700 25.73300
H  12.05900 -0.04600 27.37000
H  11.18600 3.27000 31.59300
H  8.45800 0.82100 33.77100
H  9.34900 1.55600 34.92900
H  10.13200 0.14600 34.15500

