158

Mg 1.36100 8.74200 26.76300
C  1.67400 11.08900 29.47800
C  1.85900 6.20200 28.97000
C  1.56100 6.63300 24.12200
C  1.86500 11.51100 24.56300
N  1.82500 8.66500 28.93300
C  1.61400 9.73300 29.85200
C  1.42000 9.24200 31.33900
C  1.85500 7.73300 31.08300
C  1.88100 7.48200 29.59300
C  3.12100 7.21200 31.82200
C  -0.00700 9.49700 31.98800
C  -0.08700 9.32000 33.42000
H  1.10900 8.75600 34.17300
N  1.52700 6.68900 26.57300
C  1.84900 5.82900 27.58300
C  1.83800 4.47100 27.07000
C  1.57100 4.53400 25.69000
C  1.58700 6.02000 25.39900
C  1.87600 3.23900 28.01500
C  1.38500 3.49800 24.70400
O  1.11200 3.74200 23.54600
C  1.49700 2.06800 25.02200
N  1.70200 8.98000 24.63600
C  1.58400 7.98300 23.69500
C  1.68200 8.54900 22.26000
C  1.75300 10.06900 22.52800
C  1.77400 10.19400 24.01700
C  2.87700 7.91700 21.52000
C  0.59400 10.93200 21.87100
C  -0.84900 10.79100 22.49300
N  1.54700 10.93800 26.89600
C  1.80900 11.91800 25.95200
C  1.88200 13.16700 26.64100
C  1.88300 12.92100 27.92700
C  1.64100 11.49700 28.10600
C  1.98500 14.52000 25.89100
C  1.92400 13.54500 29.20400
O  2.09900 14.72100 29.49800
C  1.73200 12.36400 30.23700
C  2.90200 12.34400 31.17800
O  4.07800 12.33500 30.88300
O  2.45300 12.40600 32.47100
C  3.48000 12.31600 33.59100
H  1.97500 5.39600 29.69800
H  1.58100 6.02500 23.21500
H  2.15000 12.26800 23.83000
H  2.18000 9.90400 31.75300
H  1.03800 7.10900 31.44400
H  3.53500 7.81600 32.63000
H  3.92900 7.07200 31.10500
H  2.84200 6.29100 32.33400
H  -0.78800 8.96300 31.44800
H  -0.20900 10.52900 31.70200
H  -0.93200 8.68000 33.67700
H  -0.29400 10.27200 33.90700
H  2.39600 3.51300 28.93400
H  2.45200 2.46800 27.50400
H  0.84600 2.91700 28.16600
H  0.72400 1.86800 25.76400
H  2.49600 1.82100 25.38400
H  1.38800 1.43100 24.14400
H  0.76700 8.31100 21.71800
H  2.69800 10.43300 22.12500
H  3.52400 7.24800 22.08800
H  3.56800 8.64400 21.09400
H  2.55200 7.23500 20.73400
H  0.66500 10.52200 20.86400
H  0.91400 11.96800 21.98800
H  -1.15900 11.64200 23.10000
H  -0.96000 9.85000 23.03000
H  -1.53700 10.68900 21.65400
H  1.18300 14.41000 25.16100
H  2.96800 14.63400 25.43400
H  1.87700 15.44000 26.46500
H  0.73900 12.44500 30.67900
H  3.88500 13.32600 33.66300
H  4.25100 11.59000 33.33400
H  3.03500 12.01200 34.53800
Mg -11.06000 39.24900 41.14600
C  -9.65200 36.15100 40.33600
C  -8.45000 40.83500 39.48400
C  -12.88100 42.14400 41.15400
C  -13.80300 37.46000 42.22800
N  -9.28200 38.54000 40.12900
C  -9.00000 37.23900 39.74600
C  -7.76100 37.25900 38.80500
C  -7.15800 38.70700 39.07000
C  -8.40700 39.43100 39.59900
C  -6.03900 38.53000 40.12000
C  -8.18200 37.05700 37.40300
C  -7.23100 36.15400 36.56500
H  -7.02600 36.51600 35.10900
N  -10.71000 41.23800 40.51200
C  -9.57700 41.65200 39.84100
C  -9.64300 43.13800 39.71600
C  -10.83500 43.56500 40.30700
C  -11.55500 42.28100 40.62500
C  -8.55400 43.82300 39.02700
C  -11.19900 45.06600 40.50200
O  -10.35700 45.94800 40.23400
C  -12.45300 45.45800 41.15100
N  -13.06200 39.70600 41.41200
C  -13.56300 40.96900 41.43700
C  -14.99200 40.97500 41.84000
C  -15.33800 39.44900 42.04300
C  -14.03000 38.80200 41.79700
C  -15.31300 41.92200 43.10500
C  -16.45600 38.86700 41.13300
C  -17.87000 38.58500 41.75100
N  -11.60400 37.19500 41.40000
C  -12.70700 36.65700 41.92400
C  -12.56100 35.22800 42.03700
C  -11.31600 34.99600 41.42300
C  -10.82300 36.20800 40.99600
C  -13.51800 34.25700 42.66600
C  -10.36900 33.96900 41.13500
O  -10.32300 32.74300 41.37300
C  -9.25500 34.70900 40.25100
C  -7.94800 34.44900 40.97500
O  -7.38700 35.11900 41.83700
O  -7.39400 33.30600 40.39400
C  -6.23000 32.86800 41.11200
H  -7.56400 41.28900 39.03600
H  -13.38100 43.07100 41.44600
H  -14.69200 36.92700 42.57100
H  -7.09400 36.46500 39.14000
H  -6.92400 39.29900 38.18500
H  -6.17000 37.74000 40.86000
H  -5.89700 39.38600 40.78000
H  -5.15700 38.39300 39.49400
H  -8.14900 37.97900 36.82200
H  -9.18900 36.64300 37.36300
H  -7.47900 35.09300 36.61300
H  -6.26100 36.31300 37.03600
H  -8.57400 43.61000 37.95900
H  -7.59800 43.53800 39.46500
H  -8.70800 44.90100 39.09200
H  -12.44300 44.97000 42.12600
H  -13.31900 45.03700 40.64100
H  -12.57100 46.54100 41.19900
H  -15.63800 41.32700 41.03600
H  -15.74400 39.39300 43.05300
H  -14.55300 42.59800 43.49600
H  -15.59200 41.37000 44.00200
H  -16.21700 42.45200 42.80300
H  -16.23800 37.87100 40.74800
H  -16.66900 39.44400 40.23300
H  -17.74800 37.91100 42.59900
H  -18.60400 38.36800 40.97500
H  -18.10700 39.57500 42.14000
H  -13.54800 34.48100 43.73200
H  -13.29900 33.20500 42.48300
H  -14.57500 34.43200 42.46600
H  -9.17100 34.47000 39.19100
H  -6.04800 31.88800 40.67100
H  -6.42200 32.67800 42.16800
H  -5.45900 33.59500 40.85600

