158

Mg 47.59000 23.84000 28.34100
C  48.37000 26.05100 30.94200
C  46.67000 21.45400 30.69100
C  47.16400 21.58300 25.82900
C  48.51700 26.14900 26.08400
N  47.42100 23.83400 30.58500
C  47.77000 24.84000 31.45700
C  47.70200 24.34100 32.89200
C  47.25400 22.89100 32.72700
C  47.03300 22.70900 31.24900
C  48.26000 21.87800 33.22500
C  46.79400 25.30700 33.81200
C  47.18200 25.30700 35.36400
H  46.53100 26.39800 36.21300
N  46.88100 21.80300 28.18700
C  46.59700 21.04300 29.31200
C  46.19900 19.74100 28.87200
C  46.37800 19.71300 27.43400
C  46.72500 21.07400 27.08600
C  45.80500 18.56700 29.80400
C  46.22300 18.51700 26.46700
O  46.23300 18.74900 25.25900
C  46.01700 17.08700 26.90900
N  47.75300 23.91700 26.29500
C  47.60400 22.84200 25.45700
C  48.01600 23.12500 24.05000
C  48.17700 24.65700 24.09300
C  48.18000 24.94200 25.58500
C  49.28300 22.23600 23.63600
C  47.06900 25.37900 23.28000
C  45.78500 25.62300 24.02100
N  48.45200 25.65800 28.41800
C  48.74800 26.52800 27.43800
C  49.25900 27.75100 27.95200
C  49.14000 27.55700 29.30700
C  48.59700 26.31400 29.57300
C  49.76100 29.00000 27.21300
C  49.43300 28.26100 30.52800
O  50.08500 29.28000 30.78700
C  48.86300 27.39100 31.68100
C  49.99300 27.20800 32.55400
O  50.97100 26.48800 32.28600
O  49.65000 27.70200 33.78600
C  50.67200 27.55500 34.82900
H  46.32300 20.67700 31.37500
H  47.14500 20.92400 24.95800
H  48.90100 26.84200 25.33200
H  48.72100 24.48300 33.25100
H  46.32600 22.79200 33.29100
H  47.70600 21.04900 33.66300
H  48.99800 22.17600 33.97000
H  48.86200 21.57700 32.36700
H  45.73200 25.06400 33.80000
H  46.92700 26.35000 33.52300
H  48.27100 25.28300 35.41100
H  46.79400 24.31400 35.59000
H  45.70800 17.57600 29.36000
H  44.82500 18.79600 30.22200
H  46.46600 18.49300 30.66800
H  45.11300 16.88800 27.48400
H  46.89500 16.82000 27.49800
H  46.11100 16.35900 26.10300
H  47.18800 22.93500 23.36700
H  49.05700 24.90800 23.50100
H  48.87500 21.38200 23.09500
H  49.73400 21.91100 24.57500
H  50.02300 22.83300 23.10300
H  46.93600 24.81500 22.35700
H  47.43200 26.36000 22.97400
H  45.69300 24.97300 24.89200
H  45.02100 25.28700 23.31900
H  45.65000 26.64200 24.38200
H  50.60600 29.35700 27.80100
H  48.90200 29.66600 27.13000
H  50.09000 28.72700 26.21000
H  48.07100 27.93900 32.19200
H  50.07200 27.35000 35.71600
H  51.02000 28.58700 34.87500
H  51.52600 26.90500 34.63900
Mg 41.29000 40.92500 26.10000
C  40.59500 43.28800 28.67100
C  42.45900 38.83000 28.48600
C  42.11900 38.80300 23.66100
C  40.38800 43.36200 23.76400
N  41.36700 41.06100 28.32900
C  41.09000 42.09200 29.19300
C  41.22700 41.70600 30.66600
C  41.97200 40.29900 30.57600
C  41.97500 40.02800 29.03300
C  43.44900 40.28800 31.15100
C  39.85600 41.72700 31.44600
C  39.63100 42.86500 32.39800
H  39.59400 42.24900 33.77000
N  42.08400 39.11700 26.03900
C  42.48800 38.35300 27.13100
C  42.98400 37.03100 26.70000
C  43.13600 37.11000 25.27100
C  42.42900 38.37900 24.86300
C  43.54200 35.97900 27.67500
C  43.60700 36.12900 24.21300
O  43.69100 36.34900 23.02300
C  44.03500 34.85000 24.68400
N  41.27300 41.08500 24.02700
C  41.51600 39.98100 23.24300
C  41.19800 40.32600 21.69400
C  40.38300 41.62100 21.88500
C  40.73200 42.06800 23.31200
C  42.47100 40.51700 20.87100
C  38.82100 41.38300 21.66700
C  38.10200 40.56000 22.81800
N  40.60900 42.91900 26.19400
C  40.28800 43.70300 25.12800
C  39.95700 45.04500 25.64000
C  40.02900 44.84500 27.01200
C  40.45700 43.56700 27.33200
C  39.63200 46.25500 24.76200
C  39.81600 45.59200 28.29200
O  39.45700 46.72300 28.45800
C  40.20500 44.54800 29.40700
C  41.32900 45.18600 30.15000
O  42.44700 44.98000 29.84100
O  40.93400 45.89500 31.24200
C  42.03100 46.40300 32.09000
H  42.78200 38.10700 29.23900
H  42.09700 38.12200 22.80800
H  40.09800 44.10400 23.01800
H  41.92200 42.46900 31.01500
H  41.45600 39.52700 31.14600
H  43.72600 41.24000 31.60600
H  44.09200 40.02000 30.31200
H  43.54500 39.47700 31.87200
H  39.80200 40.77500 31.97300
H  38.99900 41.78700 30.77400
H  38.75800 43.46800 32.15000
H  40.40200 43.63500 32.40100
H  44.60100 36.23100 27.73000
H  43.44400 34.95600 27.31300
H  43.14500 36.17400 28.67100
H  44.69900 35.00100 25.53500
H  44.60100 34.32800 23.91300
H  43.10900 34.30000 24.84900
H  40.48600 39.62600 21.25800
H  40.67300 42.41700 21.19900
H  43.32700 40.16500 21.44700
H  42.55200 41.54800 20.52700
H  42.40400 39.85300 20.00900
H  38.60600 40.82300 20.75700
H  38.33400 42.35700 21.72300
H  38.26100 41.03600 23.78600
H  38.42100 39.52000 22.74900
H  37.02000 40.49400 22.70000
H  38.82500 46.83600 25.20700
H  39.27100 45.75500 23.86300
H  40.45800 46.90000 24.46400
H  39.40300 44.33500 30.11300
H  42.72200 46.90100 31.41000
H  42.57900 45.66600 32.67500
H  41.62600 47.19600 32.71900

