158

Mg 8.18000 3.03100 27.06200
C  9.36200 1.50300 30.13500
C  6.31700 5.04600 28.99700
C  6.52600 3.82700 24.36200
C  9.89700 0.53900 25.37300
N  7.72000 3.07600 29.37100
C  8.54600 2.59800 30.34200
C  8.13000 3.17100 31.70000
C  7.08900 4.28100 31.29000
C  6.95200 4.07200 29.77500
C  5.67200 4.32000 32.05600
C  9.39200 3.82200 32.45700
C  9.69800 3.36700 33.95100
H  10.11900 4.43300 35.01600
N  6.81000 4.47500 26.64600
C  6.17000 5.27100 27.57200
C  5.17400 6.07800 26.86000
C  5.18700 5.73300 25.53300
C  6.21100 4.72500 25.42200
C  4.34200 7.11600 27.53700
C  4.39200 6.23400 24.32000
O  4.51100 5.86100 23.17500
C  3.33600 7.27200 24.51600
N  8.34700 2.43300 25.10200
C  7.49100 2.86200 24.18100
C  7.70700 2.07600 22.82400
C  8.98600 1.21700 23.12500
C  9.08600 1.38000 24.64300
C  6.40400 1.24900 22.48900
C  10.28500 1.55500 22.25300
C  11.17100 0.35700 21.87600
N  9.28000 1.35100 27.54900
C  10.00200 0.46900 26.78900
C  10.88200 -0.39500 27.51900
C  10.59500 -0.05200 28.87900
C  9.64600 0.99700 28.85900
C  11.83300 -1.42500 26.98900
C  10.88300 -0.43000 30.22000
O  11.56300 -1.29700 30.71000
C  10.15100 0.66500 31.14600
C  9.30100 -0.09500 32.05200
O  8.20100 -0.57700 31.73700
O  9.75200 -0.05400 33.31600
C  8.81400 -0.53300 34.36300
H  5.72000 5.68800 29.64800
H  5.93400 4.13000 23.49600
H  10.41200 -0.24600 24.81600
H  7.56600 2.41900 32.25300
H  7.60900 5.23500 31.38000
H  4.88600 3.93700 31.40500
H  5.56000 5.36900 32.33200
H  5.68500 3.68200 32.93900
H  9.15700 4.87200 32.63500
H  10.29600 3.89300 31.85200
H  10.57700 2.72500 34.00000
H  8.91600 2.66000 34.22900
H  4.43000 7.13000 28.62300
H  3.34000 6.77300 27.27800
H  4.54600 8.08900 27.08900
H  2.79800 7.46600 23.58800
H  3.71500 8.24600 24.82600
H  2.52200 6.91600 25.14900
H  7.95900 2.79400 22.04400
H  8.76500 0.15100 23.16500
H  5.73500 1.32800 23.34500
H  6.81600 0.24100 22.43800
H  5.98700 1.56200 21.53200
H  10.90900 2.14000 22.92800
H  9.92300 2.15200 21.41500
H  11.14300 0.16400 20.80400
H  10.70000 -0.50600 22.34900
H  12.08500 0.39000 22.46800
H  12.68200 -0.80000 26.71100
H  11.41100 -1.97800 26.15000
H  12.10500 -2.11600 27.78600
H  10.90900 1.24400 31.67200
H  8.43900 -1.54800 34.23300
H  7.95000 0.13200 34.39900
H  9.38300 -0.53300 35.29300
Mg 7.89700 52.03300 41.08700
C  7.45000 48.60700 40.70500
C  11.20400 51.57400 40.25500
C  8.20600 55.23800 41.40900
C  4.32300 52.31700 41.89400
N  9.20700 50.34300 40.55300
C  8.78400 49.05300 40.42700
C  9.90300 48.25700 39.97800
C  11.19200 49.01400 40.31400
C  10.53200 50.41300 40.42700
C  12.12200 48.62400 41.46900
C  9.83100 47.82800 38.46400
C  9.26800 48.87500 37.54900
H  8.68200 48.38400 36.24000
N  9.44000 53.23700 40.68500
C  10.72200 52.86200 40.32700
C  11.49200 54.06600 40.23100
C  10.65200 55.19200 40.50100
C  9.38000 54.62100 40.86400
C  12.93900 54.05500 39.78600
C  11.07600 56.62500 40.43800
O  12.21500 56.90400 40.27600
C  10.04700 57.82900 40.52600
N  6.46400 53.61600 41.53000
C  6.90400 54.83000 41.71300
C  5.76900 55.85900 42.13600
C  4.53100 54.87200 42.26800
C  5.13100 53.49800 41.92800
C  5.97800 56.83300 43.26900
C  3.25800 55.19500 41.37800
C  1.97800 55.60900 42.14600
N  6.22500 50.79800 41.17800
C  4.84000 50.98100 41.59800
C  4.12800 49.70500 41.62900
C  5.11700 48.77300 41.26200
C  6.31300 49.46900 41.01400
C  2.68400 49.36300 41.96200
C  5.35400 47.36100 41.14600
O  4.60000 46.41700 41.33200
C  6.90400 47.18300 40.79300
C  6.90000 46.45400 39.50700
O  6.53900 46.95600 38.46700
O  7.21500 45.16100 39.71300
C  6.71100 44.34600 38.66200
H  12.25100 51.39900 40.00000
H  8.28000 56.32400 41.50400
H  3.29100 52.45800 42.22000
H  9.88100 47.33500 40.55700
H  11.84700 49.20500 39.46400
H  11.70600 47.85500 42.11900
H  12.09000 49.53700 42.06400
H  13.17800 48.41800 41.29400
H  9.23000 46.92900 38.32800
H  10.84600 47.60600 38.13400
H  10.02900 49.64400 37.41700
H  8.37500 49.30100 38.00400
H  13.40500 53.08100 39.63200
H  13.61300 54.65100 40.40000
H  13.00800 54.44600 38.77100
H  9.89200 58.01100 41.59000
H  9.12800 57.66200 39.96500
H  10.49900 58.64600 39.96300
H  5.67500 56.50600 41.26400
H  4.11100 54.65800 43.25100
H  5.43300 56.57500 44.17700
H  5.73000 57.81600 42.86800
H  7.01500 56.79400 43.60200
H  2.99200 54.39900 40.68200
H  3.55500 55.99500 40.70000
H  1.96500 55.19000 43.15200
H  1.19100 55.15200 41.54600
H  1.96200 56.69500 42.05700
H  2.21600 50.31500 42.21300
H  2.68100 48.56500 42.70400
H  2.17600 48.98500 41.07500
H  7.24700 46.52400 41.59100
H  7.19100 44.61100 37.72000
H  5.62200 44.40600 38.65800
H  7.00900 43.31400 38.84700

