158

Mg 2.60000 -0.95100 44.58500
C  5.82600 -0.60500 43.38300
C  1.50700 1.51300 42.42500
C  -0.52800 -1.88000 45.22100
C  3.76300 -3.82800 46.21600
N  3.62000 0.38000 43.07200
C  4.92300 0.30000 42.67100
C  5.21800 1.53700 41.80800
C  3.85000 2.31700 41.79800
C  2.91400 1.38600 42.46100
C  3.86100 3.75400 42.24100
C  5.87800 1.17900 40.39900
C  6.91300 2.16800 39.89900
H  6.48600 2.94100 38.62100
N  0.72900 -0.14800 44.05300
C  0.41500 0.87800 43.16000
C  -1.04100 1.06600 42.99600
C  -1.63200 0.15200 43.92400
C  -0.47000 -0.67400 44.50600
C  -1.54700 2.25400 42.13200
C  -3.02500 0.07200 44.22000
O  -3.81000 0.94600 43.87700
C  -3.64000 -1.05500 45.01500
N  1.72400 -2.64000 45.59800
C  0.36500 -2.76800 45.72600
C  0.05200 -4.20000 46.12300
C  1.41800 -4.80200 46.54400
C  2.40600 -3.72100 46.05600
C  -0.96700 -4.12000 47.27800
C  1.70200 -6.25400 46.06700
C  2.47800 -7.23100 46.94400
N  4.46200 -1.90600 44.93500
C  4.78800 -3.04000 45.66700
C  6.28500 -3.19900 45.71000
C  6.67200 -2.23900 44.81200
C  5.54100 -1.55800 44.34300
C  7.12100 -4.11200 46.47000
C  7.84300 -1.75500 44.13000
O  9.03200 -2.12300 44.14300
C  7.36200 -0.59600 43.19000
C  8.00400 0.65200 43.68900
O  7.50400 1.37900 44.52700
O  9.20600 0.88000 43.03200
C  9.76700 2.23500 43.31100
H  1.12900 2.34700 41.82900
H  -1.55200 -2.15900 45.47800
H  4.03800 -4.76000 46.71500
H  5.96600 2.20100 42.24000
H  3.64500 2.25300 40.72900
H  3.84500 4.45300 41.40400
H  4.82100 3.88600 42.74100
H  3.11800 3.98700 43.00300
H  5.12300 1.14700 39.61300
H  6.44300 0.25000 40.46300
H  7.80200 1.54100 39.83500
H  7.08600 2.98300 40.60200
H  -2.48700 1.98300 41.65300
H  -0.88600 2.41300 41.28000
H  -1.71700 3.13700 42.74800
H  -4.72400 -0.96200 44.95900
H  -3.37800 -1.06400 46.07300
H  -3.41000 -2.03400 44.59400
H  -0.33500 -4.72900 45.25200
H  1.45600 -4.81000 47.63400
H  -1.20300 -3.07000 47.45200
H  -0.64100 -4.55600 48.22200
H  -1.84700 -4.73400 47.08800
H  2.24000 -6.19600 45.12100
H  0.72700 -6.63300 45.75800
H  1.83900 -8.06500 47.23300
H  2.91400 -6.80600 47.84900
H  3.18000 -7.79000 46.32600
H  8.09200 -3.64500 46.63800
H  7.21400 -5.06000 45.94100
H  6.66600 -4.29000 47.44400
H  7.63300 -0.64300 42.13600
H  8.97400 2.98200 43.30800
H  10.54900 2.51700 42.60500
H  10.18900 2.24400 44.31600
Mg 16.64500 53.54600 25.56500
C  17.92300 51.81800 28.39700
C  14.31300 54.85300 27.56500
C  15.11500 54.57700 22.83800
C  19.01200 51.71600 23.62500
N  16.23600 53.41500 27.74000
C  16.92600 52.73000 28.72500
C  16.48300 53.26800 30.10000
C  15.17200 53.97200 29.75900
C  15.20900 54.12100 28.26700
C  13.91300 53.26100 30.39700
C  17.55500 54.12900 30.82400
C  17.96700 53.76400 32.31400
H  17.01600 52.86900 33.08100
N  15.00700 54.71800 25.22900
C  14.15800 55.12600 26.18000
C  13.01800 55.81300 25.58800
C  13.27600 55.82800 24.19200
C  14.49800 55.03700 24.03400
C  11.89800 56.24400 26.53300
C  12.43100 56.39300 23.06300
O  12.80500 56.23400 21.91200
C  11.18100 57.29600 23.35100
N  17.19000 53.41100 23.53800
C  16.35400 53.89500 22.55400
C  16.67200 53.37400 21.12700
C  18.05200 52.65300 21.39100
C  18.17900 52.63800 22.93700
C  15.55800 52.45100 20.53100
C  19.25900 53.42400 20.80800
C  19.65200 53.08000 19.40600
N  18.10900 51.95300 25.87200
C  19.00900 51.41300 25.00800
C  19.97300 50.54700 25.78200
C  19.49600 50.64100 27.09500
C  18.41700 51.53300 27.12900
C  21.16700 49.92600 25.21200
C  19.84000 50.32800 28.48600
O  20.74300 49.63800 28.96900
C  18.82400 51.15900 29.40900
C  18.10300 50.21100 30.28800
O  16.99300 49.76000 30.07900
O  19.00400 49.74200 31.25900
C  18.54500 48.73900 32.18000
H  13.58100 55.23300 28.28100
H  14.63800 54.88800 21.90600
H  19.81000 51.30600 23.00200
H  16.31000 52.39500 30.73000
H  15.12200 54.97900 30.17200
H  14.17700 52.26700 30.75700
H  13.20600 53.01200 29.60500
H  13.34900 53.94600 31.02900
H  17.21100 55.16100 30.89800
H  18.46100 54.15600 30.21900
H  18.06600 54.71800 32.83100
H  19.00000 53.42600 32.40200
H  11.62700 55.55900 27.33700
H  10.96800 56.53100 26.04200
H  12.27000 57.20000 26.90200
H  11.30200 57.92400 24.23400
H  10.37700 56.62100 23.64300
H  10.92900 58.00000 22.55800
H  16.71900 54.29200 20.54100
H  17.94600 51.62700 21.04100
H  15.30200 52.84000 19.54600
H  14.56800 52.50300 20.98300
H  15.85500 51.40900 20.40400
H  20.14200 53.39800 21.44600
H  19.00700 54.48300 20.86500
H  20.73900 53.16700 19.38600
H  19.19400 53.81200 18.74100
H  19.46300 52.07000 19.04300
H  21.91400 50.00600 26.00200
H  21.60100 50.39700 24.33000
H  20.89500 48.91000 24.92900
H  19.44400 51.92000 29.88300
H  18.06900 49.15000 33.07100
H  19.42000 48.18300 32.51600
H  17.82200 48.08300 31.69500

