158

Mg 6.79800 53.95500 41.65700
C  6.18200 50.51000 41.55500
C  10.04300 53.38200 40.49300
C  6.93300 57.18100 40.81700
C  3.32000 54.30600 42.31700
N  7.82700 52.12700 40.90900
C  7.49000 50.84300 41.10600
C  8.69200 49.89600 40.96600
C  9.81800 50.92400 41.14600
C  9.19800 52.21900 40.75600
C  10.65400 51.00300 42.49300
C  8.74100 48.95800 39.63800
C  8.78800 49.79700 38.35600
H  7.76200 49.40800 37.27200
N  8.23600 55.13800 40.73500
C  9.54800 54.67700 40.36900
C  10.26000 55.80200 39.91600
C  9.33600 56.88200 39.76600
C  8.08700 56.43400 40.42100
C  11.66400 55.75200 39.29700
C  9.62100 58.17300 39.07600
O  10.73900 58.35900 38.62000
C  8.42500 59.20300 38.82200
N  5.34600 55.43500 41.59100
C  5.77100 56.71200 41.35300
C  4.58100 57.78400 41.65600
C  3.37200 56.79600 41.64200
C  4.04100 55.47900 41.87400
C  4.83000 58.49400 43.03300
C  2.35100 56.72200 40.48700
C  0.91200 56.38000 40.85100
N  5.12800 52.75200 42.09100
C  3.80900 53.01800 42.46000
C  3.04600 51.78200 42.76500
C  3.98300 50.78500 42.34600
C  5.18900 51.42000 41.90100
C  1.67100 51.63000 43.21200
C  4.12500 49.37500 42.25500
O  3.28500 48.52600 42.57500
C  5.58700 49.06400 41.73800
C  5.39200 48.39400 40.49200
O  4.85600 48.92300 39.48800
O  5.75300 47.14500 40.59500
C  5.51900 46.20700 39.41500
H  11.12900 53.26800 40.48300
H  6.90600 58.27200 40.77700
H  2.25900 54.43900 42.53700
H  8.62600 49.14900 41.75700
H  10.55200 50.65300 40.38700
H  10.71200 52.01300 42.89800
H  11.66700 50.61300 42.39100
H  10.24200 50.37300 43.28100
H  7.93700 48.22300 39.65500
H  9.67200 48.39400 39.69400
H  9.76600 49.79500 37.87400
H  8.74000 50.86100 38.59000
H  11.61300 55.98600 38.23400
H  12.16000 54.79000 39.41900
H  12.23100 56.58900 39.70400
H  7.61200 58.55700 38.48900
H  8.70400 59.83100 37.97600
H  8.25000 59.74300 39.75300
H  4.45000 58.56500 40.90600
H  2.81000 56.94500 42.56400
H  3.88000 58.50200 43.56700
H  5.15000 59.53500 42.97400
H  5.45900 57.97700 43.75800
H  2.57300 55.86700 39.84700
H  2.45300 57.63000 39.89300
H  0.90500 56.01600 41.87900
H  0.60400 55.53000 40.24200
H  0.30400 57.23500 40.55600
H  1.58600 50.66200 43.70600
H  1.14800 51.55900 42.25800
H  1.56400 52.51200 43.84200
H  6.24000 48.40000 42.30400
H  6.48000 45.74500 39.19100
H  5.25200 46.63300 38.44800
H  4.69200 45.52800 39.62400
Mg -2.14100 34.87800 26.36100
C  -3.76900 32.88200 28.73800
C  -0.52100 36.49900 28.94900
C  -0.95600 36.86800 24.06400
C  -3.75200 32.97400 23.86700
N  -2.18300 34.68700 28.61600
C  -2.89900 33.80900 29.36900
C  -2.74900 34.14600 30.82400
C  -1.70600 35.35500 30.84400
C  -1.51100 35.54000 29.35900
C  -2.26100 36.61800 31.56500
C  -2.22700 32.88000 31.67800
C  -2.98500 32.50000 32.98500
H  -2.23900 32.40900 34.36100
N  -0.94900 36.58500 26.48400
C  -0.29500 37.02400 27.61400
C  0.68700 38.00800 27.21100
C  0.56000 38.09300 25.77700
C  -0.52100 37.21700 25.40700
C  1.40100 38.89400 28.14000
C  1.37700 39.03600 24.81100
O  1.09700 39.18300 23.59600
C  2.56200 39.75400 25.35600
N  -2.43400 35.06300 24.28600
C  -1.83100 35.98800 23.51400
C  -2.07000 35.70400 22.05100
C  -2.52600 34.24200 22.06100
C  -2.91600 34.05600 23.51400
C  -3.08400 36.67600 21.38800
C  -1.53600 33.12800 21.54400
C  -0.06900 33.24600 21.93200
N  -3.58100 33.19000 26.26100
C  -4.17000 32.58100 25.13000
C  -5.00200 31.51900 25.63000
C  -4.95900 31.58800 27.04100
C  -4.06500 32.62800 27.39000
C  -5.79000 30.46800 24.84800
C  -5.43500 31.08600 28.27300
O  -6.19300 30.17100 28.55400
C  -4.71700 31.99000 29.46200
C  -5.76900 32.71500 30.14300
O  -6.34000 33.69800 29.73700
O  -5.96000 32.09200 31.38200
C  -6.92800 32.70400 32.33300
H  0.06000 36.90700 29.77900
H  -0.50700 37.39100 23.21700
H  -4.12600 32.36200 23.04400
H  -3.73400 34.48200 31.14700
H  -0.76600 35.04300 31.29800
H  -3.19700 36.40300 32.08000
H  -2.55600 37.28800 30.75800
H  -1.54300 37.09400 32.23300
H  -1.17400 33.01500 31.92700
H  -2.21700 31.91200 31.17600
H  -3.34200 31.49700 32.75100
H  -3.70600 33.30600 33.12700
H  2.41300 38.51500 28.28300
H  0.88200 38.95300 29.09700
H  1.45000 39.90900 27.74500
H  2.13700 40.64300 25.82200
H  3.09000 39.94300 24.42200
H  3.09000 39.01500 25.95900
H  -1.12100 35.76100 21.51800
H  -3.50900 34.17600 21.59400
H  -4.05900 36.24600 21.16100
H  -2.60900 36.98100 20.45500
H  -3.27900 37.48200 22.09600
H  -1.56600 33.09700 20.45500
H  -1.95500 32.21800 21.97100
H  0.58200 33.26000 21.05800
H  0.23200 32.35900 22.49100
H  0.13800 34.08200 22.60000
H  -5.61100 29.45500 25.20700
H  -5.41800 30.52900 23.82500
H  -6.87000 30.61500 24.85000
H  -4.24900 31.25600 30.11800
H  -6.40700 32.87700 33.27500
H  -7.77200 32.04300 32.52800
H  -7.24100 33.67000 31.93800

