158

Mg -1.12000 17.86500 27.16500
C  -1.82500 15.79500 29.99100
C  -1.99500 20.59900 29.12100
C  -0.71500 19.83100 24.53100
C  -1.11700 14.90700 25.18000
N  -1.87200 18.11300 29.27900
C  -1.81000 17.17300 30.29400
C  -2.02500 17.81800 31.60700
C  -2.28000 19.30300 31.25000
C  -2.08400 19.34200 29.78300
C  -3.64500 19.89600 31.59200
C  -0.80400 17.62600 32.53500
C  -1.18300 17.18400 33.90100
H  -0.14000 17.02900 34.98600
N  -1.14300 19.94500 26.87900
C  -1.46400 20.94200 27.82700
C  -1.23600 22.23700 27.25200
C  -0.79200 21.94400 25.90100
C  -0.84400 20.54000 25.72000
C  -1.55500 23.51100 28.01800
C  -0.40900 22.97900 24.79900
O  -0.04000 22.66200 23.72200
C  -0.76700 24.48200 25.07900
N  -0.97200 17.43900 25.19700
C  -0.77100 18.44800 24.30000
C  -0.75300 17.79800 22.90900
C  -0.66800 16.26200 23.11200
C  -0.88900 16.22200 24.64100
C  -1.89000 18.28900 22.01700
C  0.80900 15.84300 22.70400
C  1.95000 16.40500 23.58300
N  -1.32900 15.74400 27.47600
C  -1.33700 14.68800 26.58500
C  -1.65500 13.45100 27.28600
C  -1.77400 13.83000 28.62400
C  -1.60600 15.21900 28.67200
C  -1.96200 12.13700 26.84300
C  -1.95300 13.34700 29.97800
O  -2.04000 12.23200 30.42500
C  -1.87000 14.60400 30.93100
C  -0.65000 14.36100 31.77000
O  0.52000 14.52400 31.37300
O  -0.98100 13.90200 32.98900
C  0.17400 13.30600 33.71300
H  -2.21000 21.45100 29.77000
H  -0.69300 20.42200 23.61300
H  -1.03300 14.06200 24.49400
H  -2.80700 17.27400 32.13800
H  -1.55200 19.96600 31.71700
H  -4.33900 19.19700 32.05900
H  -4.18200 20.23100 30.70400
H  -3.58300 20.85700 32.10300
H  -0.35800 18.61200 32.66000
H  0.05000 17.10000 32.10700
H  -1.70700 16.23100 33.83600
H  -1.81000 17.94500 34.36600
H  -0.65000 24.11700 28.03600
H  -1.71800 23.30400 29.07600
H  -2.37600 23.98800 27.48200
H  -1.83800 24.65200 25.18700
H  -0.42300 24.95200 24.15800
H  -0.24200 24.76400 25.99200
H  0.13900 18.29600 22.52900
H  -1.31300 15.60000 22.53500
H  -2.43700 18.84200 22.78000
H  -2.67600 17.58600 21.74100
H  -1.52400 18.96100 21.24000
H  1.04000 16.11500 21.67400
H  0.87100 14.75500 22.71900
H  1.54500 17.01900 24.38800
H  2.69700 17.01900 23.08100
H  2.50200 15.54600 23.96300
H  -2.21100 12.15900 25.78200
H  -2.81700 11.68200 27.34100
H  -1.10300 11.49800 27.04600
H  -2.79200 14.63800 31.51200
H  -0.24300 13.14400 34.70700
H  1.11900 13.83500 33.58800
H  0.21800 12.32400 33.24300
Mg 8.88900 4.32000 27.65200
C  10.11200 2.54300 30.51600
C  6.99900 6.17900 29.86700
C  7.62500 5.88900 25.14400
C  10.44400 2.06400 25.67500
N  8.60100 4.35300 29.88600
C  9.27600 3.58900 30.80400
C  8.93100 3.97100 32.24600
C  7.93700 5.10200 32.03300
C  7.75400 5.16600 30.45400
C  6.47000 4.87100 32.66200
C  10.04800 4.22700 33.30500
C  9.76700 5.30900 34.39800
H  9.97600 4.81200 35.79500
N  7.53100 5.90500 27.53900
C  6.84200 6.56600 28.53200
C  5.96900 7.58700 27.97100
C  6.18900 7.51000 26.57400
C  7.15300 6.39400 26.34500
C  5.03800 8.43500 28.80700
C  5.49300 8.37300 25.53400
O  5.75300 8.19200 24.30900
C  4.58300 9.55600 25.87400
N  8.95700 3.96000 25.65800
C  8.46900 4.84400 24.74400
C  8.78200 4.43600 23.33200
C  9.78600 3.17700 23.53300
C  9.73500 3.02400 25.05600
C  7.59000 4.18500 22.41700
C  11.16700 3.61400 22.97300
C  12.03000 2.45000 22.64600
N  9.96500 2.59000 27.97900
C  10.64300 1.86300 27.07100
C  11.58200 0.92700 27.74700
C  11.38700 1.11200 29.07000
C  10.41400 2.14800 29.18700
C  12.57600 -0.01500 27.23100
C  11.82300 0.72600 30.37600
O  12.54600 -0.18200 30.70300
C  11.00800 1.64900 31.39200
C  10.14400 0.83800 32.36900
O  9.24900 0.07500 32.02600
O  10.58200 1.04700 33.59000
C  9.92900 0.36300 34.61700
H  6.62100 6.91600 30.57900
H  7.21000 6.34400 24.24200
H  10.89100 1.25800 25.08800
H  8.41400 3.02600 32.41200
H  8.18400 6.13400 32.28400
H  6.21000 5.84200 33.08400
H  6.43200 3.90700 33.16900
H  5.81600 4.68200 31.81100
H  10.83400 4.67300 32.69700
H  10.40900 3.35900 33.85800
H  8.74600 5.69100 34.38200
H  10.32100 6.21800 34.16400
H  4.02400 8.22700 28.46400
H  5.07700 9.52000 28.72200
H  5.05500 8.18400 29.86700
H  4.09400 10.00000 25.00700
H  5.03400 10.28400 26.54800
H  3.81300 9.12700 26.51500
H  9.33400 5.28600 22.93200
H  9.31400 2.27500 23.14300
H  7.49900 4.98800 21.68500
H  6.67500 4.21000 23.00900
H  7.65600 3.27700 21.81700
H  11.78700 4.22100 23.63200
H  11.09600 4.21400 22.06600
H  11.46300 1.52400 22.74400
H  12.87200 2.46500 23.33700
H  12.31100 2.49100 21.59400
H  13.01800 0.46100 26.35600
H  12.00200 -0.92200 27.04200
H  13.33900 -0.32900 27.94400
H  11.68400 2.36300 31.86300
H  8.84900 0.48200 34.70200
H  10.22800 0.71400 35.60500
H  10.13800 -0.70400 34.53100

