158

Mg 1.74400 -0.93600 44.07400
C  5.21100 -0.19400 43.38000
C  1.00600 1.74100 42.06300
C  -1.41100 -1.91800 44.30300
C  2.85000 -3.91200 45.63500
N  3.01200 0.51100 42.70100
C  4.32700 0.69700 42.73900
C  4.74900 1.94800 41.85900
C  3.38300 2.63600 41.66000
C  2.40800 1.59400 42.24000
C  3.14500 4.03500 42.38500
C  5.57200 1.72500 40.51000
C  6.47800 2.90500 40.06900
H  6.31100 3.57500 38.70100
N  0.00000 -0.15000 43.31900
C  -0.11200 0.91400 42.52300
C  -1.57900 1.20900 42.35700
C  -2.32400 0.14100 42.98400
C  -1.22800 -0.66300 43.60300
C  -2.11100 2.41800 41.63600
C  -3.76200 0.02100 42.99300
O  -4.46200 0.78600 42.27900
C  -4.53200 -0.97800 43.86500
N  0.85300 -2.69600 44.84200
C  -0.52400 -2.85400 44.88000
C  -0.97400 -4.07900 45.62500
C  0.40000 -4.68900 46.07300
C  1.47100 -3.75300 45.52700
C  -1.94100 -3.91100 46.81000
C  0.63200 -6.21000 45.71900
C  0.72100 -7.06100 47.07000
N  3.63700 -2.00100 44.37800
C  3.93700 -3.19100 45.04700
C  5.35200 -3.39000 45.20200
C  5.90000 -2.17800 44.58900
C  4.77400 -1.34000 44.15600
C  6.04200 -4.51000 45.84100
C  7.13300 -1.48700 44.35900
O  8.32300 -1.74400 44.70500
C  6.72500 -0.23100 43.48200
C  7.19800 0.97000 44.17900
O  6.82500 1.33400 45.29900
O  8.14200 1.64300 43.56700
C  8.72600 2.82500 44.15000
H  0.73700 2.62800 41.48500
H  -2.48500 -2.00900 44.48000
H  3.15500 -4.80500 46.18500
H  5.35600 2.54400 42.54100
H  3.32000 2.82200 40.58700
H  4.05900 4.31700 42.90800
H  2.29700 4.05300 43.06900
H  2.95000 4.80900 41.64200
H  4.88500 1.55500 39.68100
H  6.24400 0.86800 40.56200
H  7.49600 2.51600 40.08400
H  6.29900 3.69000 40.80300
H  -2.66100 2.20200 40.72000
H  -1.44300 3.26500 41.48000
H  -2.84800 2.85800 42.30800
H  -5.60600 -0.79600 43.89100
H  -4.19300 -0.79400 44.88500
H  -4.33200 -1.95800 43.43400
H  -1.36000 -4.75800 44.86500
H  0.59200 -4.49300 47.12800
H  -2.31300 -2.89800 46.66100
H  -1.44500 -4.19600 47.73800
H  -2.86300 -4.45800 46.61100
H  1.54500 -6.30900 45.13200
H  -0.03000 -6.52800 44.91300
H  1.59700 -7.69200 47.22000
H  -0.18400 -7.66800 47.04600
H  0.55900 -6.43700 47.94900
H  6.55000 -4.99900 45.01000
H  5.42500 -5.24400 46.35800
H  6.76900 -4.04200 46.50600
H  7.31800 -0.21600 42.56700
H  9.76200 2.53600 44.32500
H  8.18400 3.21600 45.01000
H  8.60700 3.67400 43.47700
Mg 35.68200 2.38600 30.45700
C  33.36200 3.30800 32.86100
C  38.13900 2.45900 33.01700
C  37.95900 1.49300 28.19400
C  33.15600 2.65900 27.95300
N  35.66400 2.73200 32.66700
C  34.64000 3.12300 33.40700
C  34.97500 3.03900 34.86900
C  36.51200 3.13300 34.88300
C  36.84100 2.70600 33.45100
C  36.96000 4.65400 35.19100
C  34.40100 1.77500 35.57700
C  34.04900 1.96300 37.12200
H  34.80900 3.01200 37.99300
N  37.73200 1.98500 30.62900
C  38.53200 2.02500 31.72900
C  39.90100 1.51100 31.38400
C  39.77600 1.20400 29.98300
C  38.44800 1.61500 29.55300
C  41.02400 1.32400 32.40300
C  40.84800 0.53400 29.14800
O  40.67800 0.28700 27.95100
C  42.16400 0.20200 29.73100
N  35.56500 2.20300 28.38500
C  36.68800 1.76300 27.65100
C  36.41500 1.55500 26.14700
C  34.83000 1.69100 26.16000
C  34.47900 2.23100 27.51700
C  37.26400 2.49000 25.22500
C  34.10600 0.38800 25.83600
C  34.34200 -0.23700 24.45300
N  33.68600 2.97500 30.37700
C  32.83300 3.01300 29.24900
C  31.51800 3.47800 29.78300
C  31.64400 3.51100 31.19900
C  33.03600 3.28200 31.48600
C  30.31900 3.74700 28.98400
C  30.94400 3.77200 32.40500
O  29.73500 4.06400 32.57500
C  32.06500 3.66900 33.54100
C  32.25500 5.01100 34.23900
O  32.63300 5.98900 33.71000
O  31.87500 4.97900 35.58300
C  32.08700 6.20800 36.33100
H  38.86700 2.61700 33.81600
H  38.76300 1.22800 27.50500
H  32.34600 2.70800 27.22300
H  34.54600 3.94200 35.30300
H  36.99500 2.54600 35.66400
H  37.60700 4.58300 36.06500
H  36.18700 5.39500 35.39300
H  37.46400 5.00600 34.29100
H  34.93100 0.83100 35.45600
H  33.43000 1.50300 35.16500
H  34.15900 1.00800 37.63400
H  32.97300 2.13900 37.09200
H  41.13500 0.26600 32.64000
H  40.85200 1.89700 33.31400
H  41.94000 1.72300 31.96600
H  42.17100 -0.55500 30.51500
H  42.57400 1.18700 29.95300
H  42.79200 -0.23400 28.95400
H  36.65600 0.50300 25.99200
H  34.67600 2.46200 25.40500
H  38.24100 2.03200 25.07200
H  37.34300 3.51400 25.59100
H  36.77000 2.34400 24.26400
H  33.02600 0.53500 25.84500
H  34.39300 -0.34600 26.58900
H  34.99700 0.44100 23.90500
H  33.37400 -0.28600 23.95500
H  34.76900 -1.22700 24.29300
H  30.50200 4.06500 27.95800
H  29.74100 4.45700 29.57600
H  29.73300 2.83700 28.85900
H  31.78200 2.92100 34.28100
H  31.39200 6.93000 35.90100
H  33.07700 6.59200 36.08300
H  32.06100 6.02100 37.40400

