158

Mg 50.15300 44.53300 41.72600
C  46.82700 45.14300 40.46300
C  49.91600 41.46700 40.48200
C  53.46500 44.29500 42.23000
C  50.34000 47.98500 42.38500
N  48.50800 43.49100 40.76700
C  47.31400 43.83900 40.27000
C  46.57600 42.84600 39.42800
C  47.44500 41.60100 39.72700
C  48.70300 42.22100 40.35200
C  46.94800 40.43200 40.50700
C  46.40500 43.41400 37.92700
C  45.01100 43.19700 37.28000
H  44.67000 44.05300 36.06600
N  51.52300 43.08300 41.35200
C  51.22400 41.83100 40.91200
C  52.35600 40.97200 40.96200
C  53.39000 41.71900 41.56800
C  52.91600 43.09200 41.77900
C  52.22800 39.55900 40.62900
C  54.75500 41.23200 41.96100
O  55.13200 40.06700 41.74200
C  55.73200 42.10400 42.82000
N  51.61800 45.95800 42.17200
C  52.92500 45.59800 42.45700
C  53.79300 46.80000 42.99900
C  52.80000 48.00800 42.89500
C  51.50000 47.29700 42.43000
C  54.40500 46.48700 44.38600
C  53.24900 49.11600 41.86400
C  52.97200 50.53000 42.21600
N  48.79700 46.20500 41.66800
C  49.04100 47.53000 41.96200
C  47.87500 48.32700 41.80100
C  46.91100 47.42400 41.16400
C  47.54000 46.13500 41.13800
C  47.71500 49.75000 41.94300
C  45.59300 47.30100 40.62700
O  44.67500 48.13300 40.51500
C  45.50600 45.80200 40.17000
C  44.22200 45.22300 40.82000
O  43.30900 44.69900 40.16300
O  44.17900 45.56000 42.11000
C  42.87500 45.35100 42.69000
H  49.86200 40.47300 40.03200
H  54.53200 44.34100 42.45900
H  50.42600 49.05800 42.56400
H  45.60700 42.75000 39.91700
H  47.78500 41.21900 38.76500
H  47.15800 39.44600 40.09500
H  45.86000 40.43600 40.56000
H  47.39500 40.50700 41.49900
H  47.09600 42.76700 37.38700
H  46.81800 44.41200 37.77800
H  44.28300 43.43700 38.05600
H  44.92600 42.17600 36.90800
H  51.69200 39.33700 39.70600
H  51.60800 39.04300 41.36300
H  53.18200 39.04700 40.50400
H  55.28200 42.83600 43.49100
H  56.34000 42.80700 42.25000
H  56.46400 41.44900 43.29200
H  54.62200 46.79300 42.29200
H  52.81700 48.49300 43.87100
H  55.49500 46.45800 44.37700
H  54.16600 45.50200 44.78600
H  53.94400 47.13700 45.13000
H  52.85000 48.78300 40.90600
H  54.33700 49.14300 41.91000
H  52.37300 50.54300 43.12700
H  52.44700 51.07300 41.43000
H  53.86200 51.07800 42.52400
H  48.27900 50.32100 41.20600
H  48.02400 50.08000 42.93500
H  46.68100 50.06900 41.81200
H  45.27500 45.69000 39.11000
H  42.50400 44.33000 42.59200
H  42.11800 46.00100 42.25100
H  42.92000 45.76300 43.69800
Mg 8.51100 48.98400 26.00800
C  6.23000 49.26200 28.68000
C  10.91100 50.34500 28.11000
C  10.64100 48.66800 23.55300
C  5.77400 48.42900 23.75800
N  8.50600 49.62700 28.12000
C  7.53400 49.58400 29.07500
C  8.11500 49.79400 30.50700
C  9.51800 50.38500 30.24100
C  9.62400 50.16500 28.69000
C  9.70800 51.81300 30.75100
C  8.09100 48.53700 31.34500
C  7.69500 48.68200 32.85300
H  7.83500 47.46200 33.77100
N  10.51000 49.47700 25.82200
C  11.32000 49.95000 26.83200
C  12.68200 49.93300 26.35600
C  12.66900 49.36600 24.99200
C  11.22200 49.17200 24.74800
C  13.83100 50.57500 27.07000
C  13.85900 49.15700 23.94700
O  13.63500 49.04900 22.73900
C  15.24900 49.22500 24.40300
N  8.22400 48.67300 23.91600
C  9.35700 48.50900 23.17600
C  8.98900 48.04400 21.74500
C  7.44700 47.93000 21.82600
C  7.08100 48.35300 23.24900
C  9.49200 48.89600 20.56500
C  6.88900 46.48200 21.47000
C  5.65300 46.36700 20.49500
N  6.40400 48.82500 26.14700
C  5.42000 48.68600 25.15000
C  4.10200 48.76500 25.77700
C  4.36500 48.98400 27.15200
C  5.80100 49.04000 27.37100
C  2.69300 48.52300 25.23800
C  3.75700 49.13300 28.41400
O  2.61400 49.13000 28.77800
C  4.89900 49.46800 29.43900
C  4.64200 48.74900 30.69100
O  4.87300 47.55500 30.86900
O  4.14700 49.62800 31.66500
C  3.78700 49.14200 33.00100
H  11.68400 50.66300 28.81200
H  11.33600 48.45900 22.73600
H  4.86200 48.26500 23.18000
H  7.53600 50.47900 31.12600
H  10.24800 49.74000 30.73000
H  8.85700 52.04000 31.39300
H  9.74500 52.59900 29.99600
H  10.72000 51.88400 31.15000
H  9.04200 48.01500 31.23800
H  7.50400 47.73100 30.90400
H  6.63000 48.90600 32.80600
H  8.21700 49.59500 33.14000
H  14.14900 51.30400 26.32500
H  14.68100 49.91700 27.24800
H  13.53500 51.01000 28.02500
H  15.94300 48.78500 23.68700
H  15.46500 48.63500 25.29400
H  15.56700 50.24600 24.61500
H  9.35400 47.03400 21.55600
H  6.90000 48.53300 21.10200
H  10.36400 49.49400 20.83200
H  8.79900 49.64400 20.18100
H  9.72100 48.44900 19.59800
H  6.71500 45.77000 22.27800
H  7.57500 45.78800 20.98400
H  6.10900 46.05600 19.55600
H  5.15600 47.32100 20.32300
H  5.02700 45.53100 20.81000
H  2.03400 49.39100 25.24500
H  2.06400 47.86600 25.83800
H  2.76000 48.19300 24.20100
H  4.86600 50.51300 29.74800
H  2.79800 49.57000 33.16600
H  4.39400 49.51200 33.82800
H  3.92000 48.07000 33.14700

