158

Mg 8.93200 3.81300 27.08900
C  10.02900 2.33800 30.01800
C  6.86700 5.81100 29.08700
C  7.68600 5.07400 24.27700
C  10.66100 1.39100 25.26000
N  8.41400 3.94300 29.30100
C  9.15200 3.34300 30.29900
C  8.73800 3.88800 31.66400
C  7.55200 4.78900 31.30700
C  7.57000 4.85600 29.86200
C  6.14100 4.27000 31.74700
C  9.97100 4.62300 32.25800
C  10.39700 4.05400 33.60000
H  10.84100 4.96500 34.73100
N  7.53800 5.25400 26.76800
C  6.86600 6.03700 27.67500
C  6.03900 7.03300 26.97700
C  6.48100 6.96800 25.64900
C  7.26600 5.73800 25.51700
C  5.11100 7.99300 27.62000
C  6.18600 7.93400 24.57000
O  6.55800 7.75000 23.41800
C  5.51500 9.16100 24.93500
N  9.18500 3.37200 25.05900
C  8.61700 4.05000 24.10200
C  9.10800 3.52800 22.75100
C  10.18900 2.54300 23.03700
C  9.96400 2.33900 24.58600
C  7.82100 3.01800 22.05500
C  11.68500 3.02600 22.70500
C  12.55900 2.08100 21.89800
N  10.05000 2.04500 27.51500
C  10.79400 1.23400 26.69500
C  11.67400 0.33800 27.44200
C  11.31000 0.64300 28.79900
C  10.37200 1.73500 28.78300
C  12.66200 -0.56200 26.88800
C  11.62300 0.46000 30.16700
O  12.48500 -0.30100 30.58600
C  10.85500 1.53300 31.03200
C  10.02800 0.69400 31.91700
O  8.83300 0.33000 31.72700
O  10.78200 0.51500 33.08900
C  9.99400 -0.30200 34.05300
H  6.33000 6.49900 29.74300
H  7.28400 5.51800 23.36400
H  11.12500 0.69300 24.56000
H  8.42100 3.11200 32.36200
H  7.68600 5.76900 31.76400
H  5.95500 4.69300 32.73400
H  6.37400 3.22200 31.93500
H  5.24400 4.39400 31.14000
H  9.83400 5.70400 32.22900
H  10.80200 4.43500 31.57800
H  11.30600 3.47200 33.44800
H  9.62700 3.37200 33.96100
H  4.86300 7.60200 28.60700
H  4.17400 8.10100 27.07400
H  5.55600 8.98200 27.73700
H  4.48600 8.91700 25.19900
H  5.49800 9.80700 24.05800
H  6.06100 9.70200 25.70800
H  9.39800 4.39600 22.15900
H  9.93600 1.56900 22.61700
H  6.92900 2.98000 22.68000
H  7.93300 2.06500 21.53900
H  7.63900 3.76500 21.28300
H  12.23800 3.29700 23.60400
H  11.58800 3.91500 22.08200
H  12.89000 2.59200 20.99300
H  11.99700 1.18700 21.62900
H  13.40900 1.73100 22.48400
H  12.21700 -1.22900 26.15000
H  13.06400 -1.20200 27.67300
H  13.48100 -0.02100 26.41300
H  11.51700 2.18200 31.60600
H  9.39700 -1.06900 33.55900
H  9.37700 0.29100 34.72800
H  10.75500 -0.75300 34.69000
Mg 35.07900 48.29300 25.81500
C  35.10600 46.38800 28.88900
C  33.82400 50.97000 27.67100
C  34.61900 50.02900 22.94900
C  35.54000 45.37200 24.18400
N  34.57800 48.58300 28.01100
C  34.87000 47.79000 29.06500
C  34.82700 48.53900 30.42700
C  33.99400 49.78900 29.96700
C  34.17300 49.85000 28.46700
C  32.50200 49.82200 30.49700
C  36.24000 48.56100 31.18100
C  36.36300 48.09500 32.64500
H  36.34100 49.19400 33.68800
N  34.49400 50.25500 25.37000
C  34.09800 51.18900 26.24300
C  33.81100 52.45400 25.55400
C  34.14000 52.16700 24.20500
C  34.44300 50.71900 24.13500
C  33.34400 53.73700 26.25800
C  34.14900 53.12800 23.00900
O  34.70300 52.84900 21.93500
C  33.63000 54.49400 23.09500
N  35.17800 47.78300 23.80800
C  34.91900 48.67800 22.75900
C  34.89700 47.93300 21.41400
C  35.46700 46.50000 21.85500
C  35.32800 46.52200 23.37300
C  33.57400 47.93200 20.68900
C  36.86600 46.14700 21.40100
C  37.05700 44.89300 20.49900
N  35.25000 46.21800 26.33400
C  35.51400 45.13000 25.55400
C  35.74800 43.91100 26.40600
C  35.61500 44.44400 27.73600
C  35.22800 45.76300 27.63300
C  36.10700 42.53400 25.97800
C  35.66700 44.11200 29.09800
O  36.10100 43.07500 29.57800
C  35.51500 45.38500 29.92100
C  34.45800 45.03200 30.96200
O  33.39400 44.45000 30.72700
O  34.97500 45.22700 32.20500
C  34.18500 44.87400 33.40900
H  33.35600 51.80000 28.20500
H  34.31200 50.52500 22.02500
H  35.72800 44.43200 23.66100
H  34.16600 47.94100 31.05400
H  34.36400 50.73000 30.37400
H  32.45000 50.51900 31.33400
H  32.29100 48.83700 30.91400
H  31.76300 50.05200 29.72900
H  36.51200 49.61600 31.22100
H  36.98400 47.94700 30.67300
H  37.22400 47.42700 32.64000
H  35.52300 47.46400 32.93900
H  34.03000 54.48700 25.86300
H  33.44700 53.85200 27.33700
H  32.31300 53.94500 25.97400
H  32.70400 54.45400 23.66900
H  33.54700 54.73700 22.03500
H  34.47400 54.99700 23.56700
H  35.65800 48.46200 20.84000
H  34.69900 45.77600 21.58600
H  32.80100 48.33400 21.34500
H  33.16900 46.97700 20.35400
H  33.60000 48.52600 19.77600
H  37.47400 45.83500 22.25000
H  37.42800 46.96100 20.94400
H  37.78300 44.20600 20.93500
H  37.41600 45.23400 19.52900
H  36.04400 44.50100 20.41200
H  35.21600 41.91400 26.08400
H  36.94800 42.13200 26.54300
H  36.47100 42.61600 24.95400
H  36.54300 45.50800 30.26300
H  33.20900 45.35000 33.50300
H  34.68200 45.22800 34.31200
H  34.05000 43.79200 33.37400

