158

Mg 24.69700 2.16200 29.09100
C  26.78300 1.44600 31.92400
C  22.02700 1.94100 31.05500
C  23.01000 2.39500 26.30800
C  27.63600 1.44900 27.06400
N  24.48800 1.90900 31.22700
C  25.42100 1.81500 32.23700
C  24.81400 2.17700 33.60300
C  23.28500 1.88000 33.28600
C  23.26000 1.96700 31.75600
C  22.71500 0.57100 33.89800
C  25.23500 3.52000 34.24300
C  26.16500 3.38000 35.44700
H  26.06800 4.41700 36.61400
N  22.80000 2.28900 28.74200
C  21.80400 2.12200 29.70900
C  20.55100 2.19600 28.97900
C  20.80500 2.40400 27.53400
C  22.26000 2.42000 27.48300
C  19.20900 2.21400 29.60900
C  19.86600 2.81700 26.46400
O  20.28400 3.25700 25.38900
C  18.34500 2.96400 26.73900
N  25.31500 2.02000 26.92200
C  24.37500 2.19900 26.01800
C  24.93500 2.29500 24.56100
C  26.47800 2.25400 24.83800
C  26.52300 1.86300 26.34500
C  24.31700 1.41500 23.48700
C  27.34000 3.41200 24.42100
C  27.55400 4.48300 25.50500
N  26.77800 1.58600 29.39800
C  27.78700 1.32500 28.45300
C  29.02700 0.97500 29.08500
C  28.70300 1.08900 30.50700
C  27.30000 1.38800 30.60400
C  30.38100 0.74700 28.48400
C  29.23000 0.94600 31.90000
O  30.34100 0.59400 32.31800
C  28.02100 1.35600 32.83800
C  27.80000 0.40500 33.93900
O  27.02800 -0.51400 34.05000
O  28.42300 1.01200 35.06100
C  28.32800 0.28000 36.32900
H  21.17600 1.72400 31.70400
H  22.49600 2.48500 25.34900
H  28.59700 1.30700 26.56600
H  25.12800 1.42400 34.32500
H  22.63000 2.65000 33.69400
H  22.67900 0.67200 34.98300
H  23.38300 -0.28600 33.80000
H  21.76100 0.22500 33.50000
H  24.35100 4.15200 34.32300
H  25.79100 3.98000 33.42600
H  27.19300 3.41500 35.08700
H  26.02000 2.40100 35.90400
H  18.66700 3.14500 29.44600
H  19.26800 2.01700 30.67900
H  18.60500 1.43100 29.14900
H  18.32500 3.83900 27.38900
H  17.86600 2.09800 27.19400
H  17.84000 3.33900 25.84900
H  24.66400 3.32100 24.31200
H  26.94200 1.42000 24.31100
H  23.79100 0.58100 23.95200
H  25.15200 0.97700 22.94000
H  23.64500 1.89500 22.77500
H  26.80400 3.96300 23.64800
H  28.33900 3.12000 24.09600
H  27.07500 4.17900 26.43500
H  27.06000 5.43300 25.30000
H  28.60300 4.77200 25.57200
H  30.52400 1.56000 27.77300
H  30.39800 -0.24700 28.03500
H  31.10500 0.87600 29.28800
H  28.27500 2.29900 33.32000
H  28.35500 -0.80300 36.20600
H  27.39200 0.58000 36.80200
H  29.18600 0.65800 36.88600
Mg 9.99500 47.15500 25.88200
C  7.44400 47.45300 28.41700
C  12.19400 48.28700 28.24800
C  12.25100 47.04400 23.38400
C  7.41300 46.61000 23.46800
N  9.79700 47.94600 28.11200
C  8.72100 47.80000 28.93200
C  9.20000 47.77700 30.46200
C  10.64400 48.43100 30.30900
C  10.90400 48.19400 28.81100
C  10.76800 49.94000 30.62500
C  9.26000 46.30200 31.02100
C  8.76700 46.03400 32.40700
H  9.86800 45.67000 33.39400
N  11.95300 47.66800 25.81800
C  12.64300 48.07400 26.86400
C  14.01000 48.23400 26.40900
C  14.10400 47.98400 24.96900
C  12.72800 47.48400 24.67800
C  15.12400 48.61300 27.42100
C  15.27900 48.08900 23.94100
O  15.24200 47.93600 22.73800
C  16.62800 48.47800 24.52400
N  9.84400 46.77600 23.77700
C  10.93600 46.73800 23.00300
C  10.61400 46.27000 21.54500
C  9.06800 46.09900 21.53600
C  8.71200 46.54700 23.04000
C  11.07900 47.27400 20.44800
C  8.57100 44.63900 21.02800
C  8.16000 44.47100 19.55000
N  7.91400 47.12100 25.84100
C  7.04400 46.81300 24.77100
C  5.61600 46.84800 25.30600
C  5.76600 47.01100 26.71500
C  7.14800 47.24900 27.01200
C  4.33200 46.70700 24.50300
C  5.02500 47.04800 27.95800
O  3.86000 46.82000 28.14300
C  6.06600 47.41700 29.09800
C  5.85600 46.49400 30.23200
O  5.79900 45.23900 30.22800
O  5.66600 47.26000 31.35000
C  5.13200 46.71600 32.59700
H  12.90300 48.71200 28.96100
H  13.01300 47.10700 22.60400
H  6.69300 46.55800 22.64900
H  8.39800 48.29500 30.98900
H  11.35000 47.76700 30.80800
H  11.40700 50.15400 31.48200
H  9.75000 50.21900 30.89800
H  11.17400 50.40800 29.72800
H  10.30000 45.98300 30.94500
H  8.68400 45.64800 30.36700
H  8.10400 45.16900 32.39200
H  8.24500 46.91100 32.79000
H  15.90300 47.87800 27.22200
H  14.74600 48.49700 28.43700
H  15.45800 49.64200 27.29000
H  16.57200 49.29700 25.24100
H  17.29500 48.61800 23.67400
H  16.96200 47.57300 25.03200
H  11.04200 45.29700 21.30600
H  8.60200 46.84300 20.89000
H  11.45600 48.22200 20.83100
H  10.42700 47.45200 19.59300
H  11.92900 46.73300 20.03100
H  7.73900 44.25000 21.61600
H  9.40300 43.98500 21.29100
H  7.34300 45.17600 19.39800
H  7.82700 43.45500 19.33900
H  8.96300 44.77500 18.87900
H  3.83900 45.74600 24.64500
H  4.65000 46.85500 23.47000
H  3.55300 47.37900 24.86500
H  5.78000 48.43000 29.38200
H  5.14400 45.63400 32.72900
H  4.17700 47.18400 32.83700
H  5.87200 47.03500 33.33100

