158

Mg 24.55000 -6.00100 45.83700
C  26.91200 -3.81000 44.58800
C  22.21700 -4.90500 43.78900
C  22.87900 -8.83700 46.54800
C  27.25000 -7.32600 47.90100
N  24.61600 -4.62500 44.31600
C  25.63000 -3.72100 44.02600
C  25.16200 -2.75100 42.93500
C  23.63400 -2.98000 42.94100
C  23.48800 -4.23600 43.75800
C  22.92900 -1.71400 43.58700
C  25.77900 -2.94600 41.57000
C  26.29300 -1.76900 40.75900
H  25.72300 -1.49900 39.37600
N  22.67800 -6.65200 45.29400
C  21.84200 -6.07100 44.37400
C  20.62600 -6.83000 44.28200
C  20.88300 -8.04000 45.01200
C  22.20500 -7.87600 45.69900
C  19.39000 -6.26500 43.52400
C  19.77500 -9.10600 45.18100
O  18.72900 -9.12400 44.59900
C  19.94800 -10.24500 46.03900
N  24.98600 -7.75900 47.05600
C  24.13800 -8.84000 47.16200
C  24.65500 -9.99000 47.99300
C  25.82700 -9.28600 48.72200
C  26.04500 -8.04500 47.81900
C  23.53000 -10.62400 48.90400
C  27.06700 -10.19100 49.07300
C  27.43500 -10.16500 50.58000
N  26.60900 -5.66400 46.28200
C  27.53700 -6.24400 47.13900
C  28.81500 -5.61200 47.01700
C  28.60800 -4.64700 46.02300
C  27.28500 -4.73700 45.54700
C  30.10000 -6.08600 47.67900
C  29.25900 -3.58600 45.34600
O  30.41500 -3.26900 45.45200
C  28.23900 -3.02000 44.36300
C  28.05300 -1.54700 44.52400
O  27.23100 -1.07400 45.28200
O  28.81600 -0.83000 43.64000
C  28.32500 0.49400 43.37500
H  21.48900 -4.36400 43.18100
H  22.53900 -9.86200 46.70800
H  28.03900 -7.57500 48.61400
H  25.31700 -1.75200 43.34200
H  23.17300 -3.08300 41.95900
H  23.56900 -1.46700 44.43400
H  21.89700 -1.82100 43.92100
H  22.94700 -0.98000 42.78200
H  25.05200 -3.43800 40.92400
H  26.54800 -3.71000 41.68200
H  27.35400 -1.96600 40.60200
H  26.26500 -0.82900 41.31000
H  18.44300 -6.52900 43.99500
H  19.47100 -6.62000 42.49700
H  19.54100 -5.18500 43.53000
H  18.97400 -10.73100 46.07500
H  20.19300 -9.86200 47.03000
H  20.79400 -10.86700 45.74700
H  25.05800 -10.73600 47.30800
H  25.43000 -9.00300 49.69700
H  23.93700 -10.69400 49.91300
H  23.22400 -11.59000 48.50200
H  22.65700 -9.97400 48.84300
H  27.88800 -9.87000 48.43200
H  26.86300 -11.23100 48.81900
H  27.50500 -11.18600 50.95500
H  26.73800 -9.56700 51.16700
H  28.48400 -9.87200 50.53200
H  30.92200 -5.39000 47.51500
H  30.37100 -7.07400 47.30500
H  29.84600 -6.11600 48.73900
H  28.69400 -3.14700 43.38100
H  28.60200 1.05000 44.27100
H  27.24400 0.50600 43.23700
H  28.84500 1.02700 42.57900
Mg 30.73100 58.52600 39.37800
C  28.06000 56.46300 38.50600
C  32.87200 55.89900 38.60200
C  33.30300 60.78800 39.43200
C  28.46800 61.30700 39.51200
N  30.50000 56.50200 38.60200
C  29.34600 55.90200 38.31200
C  29.46700 54.45200 37.76100
C  31.02400 54.15600 38.11400
C  31.52400 55.55300 38.51700
C  31.23500 53.19100 39.39200
C  29.18600 54.44600 36.21100
C  29.46000 55.76400 35.37600
H  28.37500 56.27200 34.38900
N  32.82500 58.35400 38.98600
C  33.50600 57.13900 38.67900
C  34.86100 57.44800 38.59100
C  35.04500 58.88900 38.88500
C  33.72800 59.43000 39.09300
C  35.96000 56.39500 38.39100
C  36.38600 59.51600 38.99700
O  37.46400 58.94100 38.79200
C  36.46100 61.02500 39.15300
N  30.81900 60.68800 39.43700
C  32.04200 61.34400 39.53400
C  31.89500 62.80100 39.80900
C  30.33100 62.96600 39.89200
C  29.79200 61.63700 39.53400
C  32.65500 63.29400 41.20400
C  29.71500 64.10900 39.03200
C  28.48500 64.75300 39.61100
N  28.63500 58.86200 39.11600
C  27.90300 60.05100 39.22900
C  26.49100 59.65200 39.03400
C  26.54200 58.26500 38.69200
C  27.84200 57.83600 38.87100
C  25.22900 60.52500 38.99400
C  25.74700 57.06900 38.27500
O  24.51400 56.96300 38.15700
C  26.65000 55.86400 38.24900
C  26.11300 54.89300 39.30500
O  26.26300 55.05200 40.48900
O  25.25000 54.03000 38.78600
C  24.35100 53.28100 39.70100
H  33.49000 55.06400 38.26600
H  34.05000 61.57900 39.51400
H  27.68900 62.07200 39.51500
H  28.72500 53.82400 38.25400
H  31.61300 53.73500 37.30000
H  31.71000 52.32100 38.93900
H  30.29700 52.72600 39.69500
H  31.68400 53.53300 40.32400
H  28.15300 54.10200 36.15100
H  29.86500 53.68400 35.82800
H  30.33100 55.54700 34.75800
H  29.70900 56.61600 36.00900
H  35.64300 55.46700 37.91600
H  36.43100 56.30600 39.37000
H  36.65500 56.78200 37.64500
H  35.85600 61.25300 40.03100
H  36.15700 61.53900 38.24100
H  37.49300 61.35100 39.27600
H  32.31300 63.31600 38.94400
H  29.99700 63.17400 40.90800
H  32.90300 62.45500 41.85400
H  32.08500 63.96200 41.85000
H  33.60800 63.75600 40.94400
H  29.49100 63.79000 38.01400
H  30.40500 64.95100 38.98600
H  27.82200 64.91700 38.76200
H  28.81900 65.67200 40.09300
H  28.04000 64.03900 40.30300
H  25.19700 60.91100 40.01300
H  24.35900 59.93700 38.70400
H  25.38000 61.38300 38.33800
H  26.58100 55.36500 37.28200
H  24.86200 53.13900 40.65300
H  24.12900 52.32500 39.22600
H  23.36100 53.73500 39.73800

