158

Mg -1.91300 16.91200 26.93900
C  -2.57500 14.50200 29.45900
C  -2.49600 19.37500 29.29000
C  -2.12700 19.24800 24.44100
C  -1.90500 14.38600 24.65500
N  -2.50500 16.89000 29.07000
C  -2.55800 15.80300 29.94700
C  -2.53000 16.25200 31.42000
C  -2.62900 17.82300 31.34100
C  -2.54900 18.08100 29.80400
C  -3.89500 18.41800 32.08400
C  -1.32400 15.58500 32.23600
C  -0.66000 16.28400 33.45400
H  -0.36200 15.46400 34.70100
N  -2.13600 18.98500 26.85700
C  -2.35200 19.79900 27.95300
C  -2.26600 21.23300 27.61400
C  -2.20300 21.26900 26.19700
C  -2.23300 19.78200 25.74900
C  -2.38900 22.34800 28.59600
C  -2.06300 22.38700 25.26200
O  -1.92700 22.19000 24.03100
C  -2.21800 23.80400 25.69100
N  -2.09500 16.83200 24.82300
C  -2.00700 17.93900 24.00200
C  -1.82100 17.50200 22.53100
C  -1.69200 15.93500 22.75200
C  -1.85900 15.67200 24.17300
C  -3.01000 17.93200 21.63200
C  -0.34200 15.37200 22.26200
C  0.97100 15.88500 22.96400
N  -2.12800 14.81200 26.97200
C  -2.10200 13.89300 25.98200
C  -2.30900 12.60300 26.50100
C  -2.41700 12.78500 27.86100
C  -2.30500 14.15200 28.13100
C  -2.42000 11.28100 25.70600
C  -2.60300 12.06700 29.00800
O  -2.80500 10.89600 29.17300
C  -2.66300 13.14700 30.14800
C  -1.67100 12.71600 31.14100
O  -0.44100 12.63300 30.99100
O  -2.28800 12.41800 32.28100
C  -1.63300 11.54100 33.27800
H  -2.24700 20.14100 30.02800
H  -2.14900 19.96100 23.61500
H  -2.02700 13.65600 23.85300
H  -3.42800 15.87900 31.91300
H  -1.72500 18.22000 31.80200
H  -4.41100 17.61600 32.61100
H  -4.66600 18.66400 31.35300
H  -3.52900 19.18700 32.76500
H  -0.46300 15.37000 31.60400
H  -1.81400 14.72100 32.68500
H  -1.25900 17.11000 33.83700
H  0.26300 16.78000 33.15500
H  -1.43300 22.86200 28.69100
H  -2.67500 22.04600 29.60400
H  -3.12500 23.02900 28.17100
H  -3.25400 23.89200 26.01800
H  -2.13000 24.39200 24.77700
H  -1.44800 24.12700 26.39200
H  -0.81700 17.84800 22.28400
H  -2.44100 15.43300 22.13800
H  -3.62900 18.58800 22.24300
H  -3.64700 17.11400 21.29600
H  -2.76000 18.61800 20.82200
H  -0.22800 15.70500 21.23100
H  -0.47100 14.29000 22.24400
H  0.73600 16.60000 23.75200
H  1.58700 16.29000 22.16000
H  1.49100 14.99300 23.31400
H  -1.78200 10.43400 25.95900
H  -2.23000 11.51400 24.65800
H  -3.47800 11.02500 25.75900
H  -3.66200 13.05000 30.57400
H  -2.30100 11.34300 34.11600
H  -0.70200 11.96000 33.66100
H  -1.42100 10.60100 32.76700
Mg 46.47700 17.02700 29.00400
C  44.83500 16.48300 31.98300
C  48.80600 18.97900 30.68000
C  47.80000 18.11500 25.98700
C  43.82600 15.58500 27.28500
N  46.80800 17.56800 31.13200
C  46.04100 17.16100 32.15400
C  46.56600 17.68900 33.47400
C  47.73300 18.71700 32.98700
C  47.82000 18.42400 31.52500
C  47.45600 20.24900 33.18500
C  47.13400 16.51100 34.34200
C  47.40500 16.82400 35.78100
H  46.99600 18.19100 36.34700
N  48.20000 18.13500 28.46800
C  49.09900 18.79500 29.26300
C  50.17900 19.28000 28.51300
C  49.83600 19.12900 27.11100
C  48.54600 18.45600 27.13800
C  51.37600 19.85000 29.18500
C  50.62800 19.49800 25.84800
O  50.12500 19.41900 24.69700
C  52.04100 20.09200 26.00800
N  45.96300 16.86300 26.99800
C  46.59000 17.42100 25.91500
C  45.97500 17.04400 24.62500
C  44.80300 16.14500 25.00500
C  44.89600 16.12300 26.53500
C  45.46300 18.12300 23.64100
C  44.82400 14.72800 24.44600
C  45.53400 13.75800 25.29800
N  44.77400 16.08700 29.47500
C  43.83100 15.49900 28.70300
C  42.72800 14.98200 29.48700
C  43.09000 15.38200 30.81800
C  44.29400 16.07800 30.75300
C  41.51900 14.28600 29.02100
C  42.72900 15.38800 32.20000
O  41.70700 15.09200 32.78500
C  43.79700 16.15500 32.99300
C  43.08400 17.32600 33.66000
O  42.67600 18.32200 33.13000
O  43.10900 17.13200 35.03200
C  42.47400 18.20700 35.86400
H  49.51500 19.63100 31.19500
H  48.09700 18.30200 24.95300
H  43.01800 15.09500 26.73700
H  45.77700 18.28100 33.93800
H  48.71100 18.53000 33.43000
H  46.59100 20.31600 33.84500
H  47.29100 20.66700 32.19200
H  48.22800 20.80700 33.71400
H  48.09600 16.30300 33.87500
H  46.45100 15.67600 34.18700
H  48.48300 16.78900 35.93800
H  46.97900 15.98400 36.32900
H  51.52800 19.56000 30.22500
H  51.43000 20.93800 29.22300
H  52.25100 19.43800 28.68300
H  52.01700 21.06800 26.49400
H  52.61300 20.12500 25.08100
H  52.65800 19.37600 26.55100
H  46.77700 16.44400 24.19500
H  43.83000 16.56600 24.75300
H  46.15400 18.96500 23.61000
H  44.47800 18.56600 23.78900
H  45.39800 17.65700 22.65800
H  45.23100 14.62300 23.44000
H  43.78400 14.44000 24.29100
H  46.47500 14.20400 25.62000
H  45.95400 13.02900 24.60500
H  45.00000 13.27100 26.11400
H  41.70800 13.26200 28.69800
H  41.01200 14.94200 28.31300
H  40.90800 14.12100 29.90800
H  44.16400 15.39000 33.67700
H  41.40000 18.03100 35.92100
H  42.77700 19.19700 35.52300
H  42.85200 18.26600 36.88400

