158

Mg 2.22300 -1.78900 43.01000
C  5.69900 -1.42100 42.51500
C  1.70900 1.08700 41.16600
C  -1.15300 -2.49500 42.77600
C  2.75000 -4.98800 44.07500
N  3.56700 -0.29000 41.93800
C  4.98900 -0.34500 41.92500
C  5.50100 0.86200 41.17200
C  4.17700 1.64900 40.80800
C  3.04900 0.79000 41.35800
C  4.19300 3.12400 41.28700
C  6.40800 0.54900 39.99700
C  5.90900 -0.62700 39.06900
H  5.65200 -0.43500 37.63400
N  0.46000 -0.74900 42.26300
C  0.51900 0.41500 41.55500
C  -0.77900 0.93100 41.35200
C  -1.68600 -0.08100 41.76300
C  -0.83800 -1.14500 42.29300
C  -1.13700 2.30100 40.80400
C  -3.17200 0.04200 41.66500
O  -3.78600 1.07700 41.29000
C  -3.95600 -1.15600 42.07600
N  0.99300 -3.52800 43.25800
C  -0.37500 -3.56200 43.14200
C  -0.87100 -5.01700 43.40500
C  0.28900 -5.71700 44.09500
C  1.44100 -4.67700 43.80600
C  -2.30900 -5.32800 43.94700
C  0.51700 -7.19800 43.67400
C  0.55800 -8.31600 44.80400
N  3.86900 -3.05300 43.26000
C  3.96000 -4.26900 43.87700
C  5.38900 -4.62000 44.01800
C  6.07700 -3.54400 43.50800
C  5.10100 -2.61400 43.01800
C  5.90100 -5.82400 44.68200
C  7.38500 -2.91800 43.30300
O  8.46300 -3.43200 43.66700
C  7.20300 -1.61400 42.44800
C  8.00800 -0.52400 43.09400
O  8.94900 0.08000 42.57900
O  7.51100 -0.24700 44.38100
C  8.36600 0.59100 45.26700
H  1.47700 1.96500 40.56000
H  -2.16900 -2.85800 42.94600
H  2.89200 -5.90900 44.64400
H  6.12100 1.43600 41.86000
H  4.18400 1.65400 39.71800
H  4.31300 3.85000 40.48300
H  4.97000 3.22400 42.04400
H  3.22700 3.40700 41.70500
H  7.44900 0.30300 40.20900
H  6.62700 1.49000 39.49300
H  4.91200 -0.94900 39.36800
H  6.65900 -1.41700 39.12200
H  -1.25500 2.97900 41.65000
H  -2.12000 2.26200 40.33500
H  -0.37800 2.58600 40.07600
H  -5.02400 -1.01600 41.90600
H  -3.63900 -1.21600 43.11700
H  -3.60200 -1.98300 41.46000
H  -0.81600 -5.43900 42.40100
H  0.13000 -5.74000 45.17300
H  -2.92900 -4.49800 44.28600
H  -2.33400 -5.90400 44.87200
H  -2.97500 -5.78100 43.21400
H  1.45900 -7.29400 43.13500
H  -0.24900 -7.54700 42.98100
H  0.35200 -9.29900 44.38100
H  -0.07600 -8.04400 45.64900
H  1.59100 -8.36300 45.14800
H  6.81700 -5.58000 45.22100
H  6.18200 -6.62600 43.99900
H  5.13200 -6.32500 45.27000
H  7.59800 -1.90000 41.47300
H  7.79500 1.49600 45.47800
H  9.39800 0.74000 44.94900
H  8.43800 0.04200 46.20600
Mg 34.95900 3.17200 30.01700
C  32.54000 4.03000 32.38600
C  37.26500 3.42100 32.63600
C  37.38200 2.57100 27.71800
C  32.57300 3.35200 27.58500
N  34.79800 3.51100 32.26200
C  33.77600 3.91200 32.96500
C  34.04300 3.87700 34.44300
C  35.59100 4.06600 34.50200
C  35.90800 3.60900 33.05600
C  36.06400 5.50500 34.99200
C  33.46200 2.67800 35.18800
C  32.99600 2.87200 36.60500
H  33.54400 4.07500 37.42100
N  37.01300 3.09800 30.11400
C  37.78300 3.13100 31.32400
C  39.10800 2.79700 31.01100
C  39.26300 2.53000 29.60800
C  37.82600 2.73800 29.07100
C  40.26400 2.78500 32.06400
C  40.51000 2.05100 28.76300
O  40.35400 1.90500 27.58300
C  41.92100 1.83600 29.40400
N  34.91700 2.89200 27.95100
C  36.06500 2.60300 27.21000
C  35.74000 2.37700 25.70800
C  34.23000 2.78000 25.65200
C  33.88000 3.11700 27.17100
C  36.64200 3.16500 24.79200
C  33.37700 1.60300 25.00500
C  32.47000 2.00100 23.78100
N  32.90300 3.56300 29.96100
C  32.05800 3.60200 28.86900
C  30.75000 3.90600 29.32700
C  30.83800 4.09600 30.70500
C  32.23200 3.83600 31.02200
C  29.58400 4.24200 28.47400
C  30.15500 4.47500 31.92300
O  28.98600 4.77800 32.12100
C  31.22200 4.36300 33.11000
C  31.29800 5.59700 33.90900
O  31.73200 6.65200 33.43200
O  30.75300 5.43700 35.22500
C  30.16700 6.62600 35.86400
H  38.03600 3.46000 33.40800
H  38.16900 2.35900 26.99200
H  31.72100 3.44100 26.90800
H  33.55600 4.76800 34.83800
H  36.00600 3.39400 35.25200
H  36.22100 5.49100 36.07100
H  35.29000 6.24800 34.79700
H  36.95800 5.79000 34.43800
H  34.15600 1.83800 35.21500
H  32.55100 2.38200 34.66800
H  33.25100 1.97300 37.16600
H  31.90800 2.93600 36.62200
H  40.04000 3.17100 33.05800
H  41.06700 3.36500 31.60700
H  40.69300 1.79700 32.22900
H  42.47200 2.76600 29.53700
H  42.54600 1.34500 28.65800
H  41.85100 1.21300 30.29600
H  35.85200 1.31100 25.50800
H  34.22000 3.69700 25.06300
H  36.94800 4.06900 25.31700
H  36.06400 3.55600 23.95500
H  37.40900 2.50200 24.39100
H  32.65200 1.30100 25.76100
H  33.95500 0.76900 24.60600
H  32.60200 1.35700 22.91200
H  32.87500 2.93700 23.39500
H  31.43800 2.20100 24.07200
H  29.12800 5.09700 28.97400
H  28.87400 3.41800 28.41200
H  29.90700 4.53500 27.47500
H  30.96800 3.53200 33.76900
H  29.98800 7.29100 35.01900
H  30.66200 7.11100 36.70600
H  29.19900 6.25700 36.20100

