158

Mg 2.60600 -3.04100 44.66900
C  5.93000 -2.18500 44.44200
C  1.75500 -0.82300 42.36100
C  -0.52900 -4.23300 44.94600
C  3.71500 -5.68200 46.83100
N  3.75300 -1.75100 43.43400
C  5.08200 -1.51600 43.50900
C  5.57500 -0.39100 42.50400
C  4.21800 0.06700 41.88000
C  3.16100 -0.80700 42.67900
C  3.77500 1.55900 41.96400
C  6.62900 -0.93800 41.43600
C  7.85300 -0.11300 41.15000
H  7.94100 0.37000 39.60500
N  0.81100 -2.72200 43.62000
C  0.67000 -1.58500 42.86700
C  -0.71600 -1.51800 42.39800
C  -1.44300 -2.51800 43.19700
C  -0.40000 -3.14300 44.03100
C  -1.29900 -0.48600 41.33000
C  -2.97300 -2.72600 43.25900
O  -3.74900 -2.21000 42.45900
C  -3.61600 -3.52200 44.31500
N  1.66200 -4.80800 45.70300
C  0.38100 -5.00900 45.63400
C  -0.03600 -6.28700 46.33400
C  1.35100 -6.89100 46.73400
C  2.36100 -5.76400 46.42100
C  -0.97800 -5.92300 47.49900
C  1.71100 -8.27900 45.96400
C  1.50900 -9.61800 46.67600
N  4.40700 -3.77100 45.59000
C  4.65300 -4.80400 46.39000
C  5.99600 -4.74400 46.82600
C  6.58300 -3.67400 46.11400
C  5.56600 -3.25400 45.26200
C  6.57600 -5.68000 47.76100
C  7.81600 -2.98600 45.79400
O  8.94100 -3.08300 46.28600
C  7.43600 -1.92800 44.74900
C  7.53500 -0.52200 45.27300
O  7.03400 -0.05700 46.28200
O  8.39500 0.18700 44.46700
C  8.65100 1.62000 44.85100
H  1.50900 -0.18600 41.51000
H  -1.48500 -4.71800 45.15100
H  3.99300 -6.47200 47.53200
H  6.06100 0.34400 43.14500
H  4.23300 -0.24600 40.83600
H  3.55800 1.97500 40.98100
H  4.65600 2.05500 42.37200
H  2.89600 1.76500 42.57400
H  6.10900 -1.35300 40.57300
H  7.01500 -1.90200 41.76700
H  8.73800 -0.65400 41.48500
H  7.90000 0.81400 41.72000
H  -1.73700 0.30200 41.94300
H  -2.20600 -0.89100 40.88100
H  -0.56300 -0.05000 40.65500
H  -3.43300 -4.54500 43.98700
H  -4.68700 -3.32300 44.27800
H  -3.22500 -3.28000 45.30300
H  -0.56900 -6.90000 45.60800
H  1.47400 -6.98800 47.81300
H  -0.86400 -6.65300 48.30000
H  -2.01300 -6.17200 47.26400
H  -0.95400 -4.87600 47.80100
H  2.71200 -8.16100 45.55000
H  1.09500 -8.22200 45.06600
H  1.33500 -9.48400 47.74400
H  2.41600 -10.16300 46.41700
H  0.67300 -10.13700 46.20600
H  6.84200 -6.50400 47.09800
H  5.90700 -5.96400 48.57300
H  7.42300 -5.33700 48.35500
H  8.13900 -2.16900 43.95200
H  8.31600 1.96700 45.82800
H  8.12600 2.27400 44.15600
H  9.68400 1.96200 44.78200
Mg 34.36800 3.06800 29.27700
C  32.27100 4.16600 32.00500
C  36.82100 2.71800 31.44500
C  36.34600 2.66900 26.49900
C  31.49500 3.45100 27.22500
N  34.49200 3.40900 31.43800
C  33.53400 3.81900 32.42400
C  34.15300 3.91600 33.80800
C  35.64400 3.47600 33.54300
C  35.66600 3.21800 32.01700
C  36.72400 4.51300 33.94800
C  33.27300 3.19500 34.92600
C  34.21500 2.70100 36.05600
H  35.09300 3.79100 36.77900
N  36.31900 2.68400 28.97100
C  37.13000 2.50300 30.03200
C  38.39300 2.06600 29.54300
C  38.37800 2.27800 28.12200
C  36.96900 2.61000 27.74400
C  39.45000 1.56200 30.48100
C  39.47700 2.01600 27.14200
O  39.30500 2.17400 25.94200
C  40.74100 1.54200 27.58400
N  33.95800 3.20300 27.23400
C  34.90200 2.87200 26.33400
C  34.33600 3.02200 24.86400
C  32.83300 2.75200 25.17400
C  32.71400 3.09700 26.65300
C  34.67400 4.44600 24.35100
C  32.41600 1.23500 25.08200
C  31.14100 0.89600 24.21500
N  32.27200 3.56500 29.53600
C  31.22800 3.78500 28.60800
C  29.99700 4.16500 29.26900
C  30.40600 4.40900 30.56300
C  31.75500 3.99700 30.70700
C  28.64100 4.39200 28.67400
C  29.91700 4.80100 31.81800
O  28.75500 5.16400 32.11700
C  31.11500 4.67700 32.87500
C  31.20400 5.96300 33.70800
O  31.52500 7.08000 33.39100
O  30.64500 5.63400 34.93600
C  30.29700 6.59800 35.99900
H  37.68200 2.78100 32.11300
H  36.88400 2.50300 25.56300
H  30.68300 3.63400 26.51800
H  34.14400 4.96600 34.10200
H  35.82400 2.52800 34.05200
H  37.33200 4.22100 34.80500
H  36.22900 5.47500 34.07900
H  37.38800 4.72300 33.10900
H  32.69900 2.42200 34.41500
H  32.59900 3.90800 35.40100
H  34.84300 1.89800 35.66900
H  33.61100 2.31800 36.87800
H  39.13000 1.66800 31.51800
H  40.43400 2.03200 30.48400
H  39.72700 0.51100 30.40800
H  40.72500 0.49500 27.88400
H  41.15600 2.17400 28.36900
H  41.39400 1.65800 26.72000
H  34.68900 2.27800 24.14900
H  32.26400 3.40200 24.51100
H  35.05100 4.40700 23.32800
H  35.48200 4.90800 24.91700
H  33.78400 5.06700 24.45300
H  32.40600 0.81700 26.08800
H  33.21100 0.65900 24.60800
H  30.60000 1.78500 23.89100
H  30.37800 0.36600 24.78400
H  31.38900 0.26400 23.36200
H  28.46200 3.84500 27.74900
H  28.24800 5.40900 28.67700
H  27.97500 3.68200 29.16300
H  30.77100 3.91200 33.57100
H  30.91200 6.44500 36.88600
H  29.28300 6.29200 36.25400
H  30.23000 7.63900 35.68300

