158

Mg 43.55100 4.12500 46.76900
C  41.80000 6.93500 46.67900
C  40.67500 2.25800 46.51200
C  45.48600 1.36000 46.39700
C  46.56500 6.08500 46.55000
N  41.49900 4.55700 46.47900
C  40.98400 5.80400 46.68500
C  39.47200 5.78600 46.43500
C  39.11300 4.31500 46.77900
C  40.53500 3.66800 46.61900
C  38.42400 3.93900 48.11200
C  39.08700 6.25800 45.00500
C  40.18000 6.26700 43.91900
H  39.68300 6.16700 42.48200
N  43.09200 2.05800 46.40500
C  41.88100 1.49900 46.42900
C  41.95800 0.07700 46.12000
C  43.33800 -0.24600 46.18300
C  44.05600 1.05700 46.36800
C  40.77900 -0.83300 46.10200
C  43.93100 -1.58400 46.08000
O  43.21300 -2.51100 45.68900
C  45.40000 -1.80100 46.32900
N  45.72100 3.79100 46.56700
C  46.26000 2.51500 46.49300
C  47.80300 2.58200 46.36900
C  48.10700 4.09100 46.44200
C  46.68500 4.73000 46.48300
C  48.63100 1.62800 47.37600
C  48.98100 4.71900 45.32000
C  50.11000 5.73700 45.74800
N  44.16700 6.12100 46.66500
C  45.35500 6.79100 46.54400
C  45.14300 8.24600 46.73100
C  43.75100 8.40400 46.71500
C  43.20700 7.02400 46.66000
C  46.23300 9.27200 46.79000
C  42.65100 9.33300 46.78400
O  42.56300 10.53800 46.82000
C  41.37500 8.40000 46.61700
C  40.49600 8.68300 47.75900
O  40.72800 8.37000 48.89900
O  39.30000 9.34200 47.36400
C  38.28800 9.42900 48.44700
H  39.79100 1.62100 46.43700
H  46.20500 0.58900 46.11400
H  47.42500 6.75300 46.47500
H  39.05100 6.48800 47.15500
H  38.39900 3.88000 46.08000
H  38.11300 4.70100 48.82700
H  39.30600 3.44200 48.51600
H  37.58900 3.26100 47.94000
H  38.83100 7.30900 45.13700
H  38.16800 5.70200 44.82100
H  40.87200 5.43200 44.03200
H  40.72100 7.21100 43.97500
H  39.86500 -0.48700 46.58500
H  40.90100 -1.81800 46.55300
H  40.53200 -0.88100 45.04200
H  45.65700 -1.27000 47.24600
H  45.82300 -1.44900 45.38800
H  45.62000 -2.84700 46.54200
H  47.99900 2.24000 45.35300
H  48.62200 4.33900 47.37100
H  49.26800 0.97600 46.77700
H  47.88200 0.99600 47.85100
H  49.23300 2.19000 48.09100
H  48.35000 5.39700 44.74600
H  49.41600 3.98500 44.64100
H  49.56700 6.22200 46.55900
H  50.34300 6.42100 44.93200
H  51.01500 5.18600 46.00600
H  47.01100 8.99800 46.07700
H  46.64000 9.13800 47.79200
H  45.81400 10.27600 46.72200
H  40.79500 8.65500 45.73000
H  37.33800 9.15700 47.98700
H  38.22400 10.45200 48.81700
H  38.17300 8.70400 49.25200
Mg 46.89700 16.24900 27.89000
C  44.77100 16.24200 30.69400
C  49.01200 18.37700 29.71200
C  48.39400 17.40100 24.98800
C  44.35100 15.04000 25.99600
N  46.81000 17.33900 29.87000
C  45.98300 17.02700 30.89100
C  46.44500 17.56800 32.21700
C  47.71900 18.39700 31.87800
C  47.88900 18.01800 30.40300
C  47.68100 19.87100 32.19400
C  46.87300 16.40600 33.16200
C  46.64700 16.57500 34.67400
H  46.29500 17.97200 35.19300
N  48.56300 17.61300 27.38900
C  49.33000 18.26600 28.34700
C  50.52600 18.71700 27.69800
C  50.42100 18.43200 26.28200
C  49.03500 17.84900 26.15900
C  51.66300 19.27300 28.43600
C  51.39000 18.77700 25.10400
O  51.20000 18.49700 23.92000
C  52.77400 19.33200 25.38900
N  46.50500 16.26200 25.78600
C  47.23600 16.68200 24.81600
C  46.84700 16.14500 23.43600
C  45.57800 15.34300 23.77700
C  45.42300 15.62100 25.32100
C  46.62700 17.29700 22.43500
C  45.70600 13.73600 23.43800
C  44.71600 13.21600 22.34700
N  44.99900 15.56500 28.24800
C  44.15000 14.98400 27.37000
C  42.92800 14.66100 28.09900
C  43.11800 15.09200 29.39900
C  44.36700 15.69100 29.45500
C  41.59800 14.08200 27.60100
C  42.55400 15.19200 30.82300
O  41.45800 14.84600 31.17400
C  43.63300 15.98100 31.68300
C  42.97900 17.17400 32.32700
O  42.73200 18.18800 31.69600
O  42.57500 17.00000 33.63200
C  41.97600 18.04900 34.42000
H  49.71900 18.91300 30.34800
H  48.90400 17.65200 24.05500
H  43.55300 14.61900 25.38000
H  45.70100 18.26700 32.59900
H  48.64400 18.03300 32.32600
H  47.83000 20.49400 31.31200
H  48.48900 20.15600 32.86700
H  46.69600 20.10700 32.59500
H  47.91900 16.14600 33.00200
H  46.31300 15.54300 32.80200
H  47.61300 16.27700 35.08300
H  45.93500 15.85200 35.07200
H  51.62100 19.57900 29.48100
H  51.82200 20.19400 27.87400
H  52.52000 18.64800 28.18400
H  53.32600 19.23800 24.45400
H  53.30400 18.78200 26.16600
H  52.71900 20.40200 25.59400
H  47.64400 15.47300 23.11700
H  44.69800 15.72400 23.25900
H  46.72300 18.20400 23.03200
H  45.65100 17.27600 21.95100
H  47.35000 17.32900 21.62000
H  45.38700 13.26700 24.36900
H  46.77200 13.52400 23.35200
H  45.08600 12.24500 22.01900
H  44.66800 13.90300 21.50200
H  43.71900 13.01400 22.73700
H  41.29200 14.83300 26.87200
H  40.98900 13.89300 28.48500
H  41.81700 13.11100 27.15700
H  43.96800 15.33300 32.49400
H  42.03600 17.88400 35.49500
H  40.91000 18.16600 34.22500
H  42.52900 18.97100 34.23900

