158

Mg 34.90900 49.67200 25.78900
C  35.03500 47.86700 28.87900
C  33.94300 52.31900 27.38700
C  34.59100 50.95000 22.75200
C  35.39400 46.47700 24.22000
N  34.51000 50.01400 27.92800
C  34.69000 49.22700 28.98700
C  34.18000 49.92600 30.28400
C  33.77000 51.26600 29.72000
C  34.08600 51.26700 28.26200
C  32.28100 51.60800 29.88900
C  35.31200 50.05500 31.34200
C  35.04300 49.71200 32.86300
H  33.53000 49.69900 33.19900
N  34.49100 51.44900 25.13700
C  34.08900 52.41500 25.94000
C  33.86400 53.56300 25.13300
C  34.05500 53.14100 23.77100
C  34.42300 51.77900 23.83000
C  33.45000 54.83700 25.75700
C  33.83800 53.98100 22.48600
O  33.99300 53.59000 21.34700
C  33.39700 55.43900 22.55200
N  35.05600 48.81500 23.67900
C  34.88700 49.58900 22.64000
C  35.03200 48.81400 21.28300
C  35.26400 47.34200 21.75700
C  35.27300 47.52300 23.31800
C  33.69500 48.91200 20.46600
C  36.57700 46.75900 21.17300
C  37.88500 46.95200 21.88300
N  35.26900 47.65300 26.33900
C  35.43700 46.53600 25.60500
C  35.71300 45.38400 26.40700
C  35.52700 45.86700 27.69500
C  35.21200 47.22900 27.63600
C  36.01200 43.96000 26.01000
C  35.44300 45.47900 29.06000
O  35.64500 44.39700 29.56300
C  35.13700 46.73700 29.94200
C  33.90600 46.42200 30.74800
O  32.77000 46.55400 30.44800
O  34.27500 45.72100 31.90700
C  33.14200 45.14100 32.66700
H  33.55000 53.21600 27.87100
H  34.41800 51.33600 21.74500
H  35.65000 45.57600 23.65900
H  33.31800 49.30100 30.51500
H  34.35300 52.03500 30.22700
H  31.76100 51.41000 28.95200
H  32.19100 52.65700 30.17100
H  31.84800 51.08400 30.74100
H  35.79400 51.02500 31.22600
H  36.13700 49.37200 31.13900
H  35.59200 50.41600 33.48800
H  35.42600 48.70400 33.02500
H  33.60200 54.95500 26.83000
H  32.41600 54.93700 25.42900
H  34.02700 55.64200 25.30200
H  34.26600 56.04700 22.80600
H  32.68500 55.57500 23.36500
H  32.84000 55.81700 21.69500
H  35.91800 49.25100 20.82400
H  34.43900 46.65200 21.57600
H  32.96400 49.57000 20.93600
H  33.20400 47.97200 20.21100
H  33.93700 49.51900 19.59400
H  36.58200 47.30200 20.22800
H  36.37700 45.72600 20.89100
H  38.02200 45.96300 22.32100
H  37.88000 47.57300 22.77900
H  38.60500 47.36000 21.17400
H  35.13500 43.41300 25.66400
H  36.37800 43.35300 26.83800
H  36.76300 43.94800 25.22000
H  36.01600 46.95600 30.54900
H  32.66800 44.35500 32.07800
H  32.38600 45.87400 32.94800
H  33.63600 44.71100 33.53900
Mg -9.44100 18.39600 43.04500
C  -5.93000 18.10600 43.10200
C  -8.99000 21.73300 42.11500
C  -12.75000 18.56100 42.30700
C  -9.75300 14.89600 43.22900
N  -7.68000 19.75000 42.66000
C  -6.29400 19.43500 42.84700
C  -5.40500 20.56900 42.54300
C  -6.40600 21.81100 42.45100
C  -7.73700 21.07100 42.36100
C  -6.39500 22.93500 43.51800
C  -4.57700 20.39000 41.14300
C  -5.33200 19.88800 39.84700
H  -4.74100 20.07400 38.47100
N  -10.68200 19.98600 42.32800
C  -10.33000 21.21800 41.97200
C  -11.48200 21.96400 41.70700
C  -12.57200 21.11300 41.57400
C  -12.03000 19.80200 42.03200
C  -11.47600 23.38900 41.45400
C  -13.98600 21.41300 41.16900
O  -14.25900 22.59400 40.87000
C  -15.07300 20.39000 40.86300
N  -10.99900 16.82800 42.73800
C  -12.26900 17.24300 42.67200
C  -13.22600 16.10000 42.79700
C  -12.32100 14.91900 43.23200
C  -10.91200 15.56800 43.12100
C  -14.46700 16.33900 43.59700
C  -12.51200 13.60100 42.45800
C  -12.91000 12.39000 43.19800
N  -8.23000 16.87100 43.20900
C  -8.43600 15.49900 43.29500
C  -7.10700 14.88100 43.51200
C  -6.18300 15.89900 43.47900
C  -6.86100 17.08300 43.21700
C  -6.88000 13.44000 43.55400
C  -4.75100 16.11700 43.55000
O  -3.81400 15.27900 43.60700
C  -4.56000 17.58200 43.24800
C  -3.83200 18.12700 44.41200
O  -2.66200 18.44900 44.47500
O  -4.70300 18.36600 45.49400
C  -4.14100 19.16200 46.59700
H  -8.94100 22.81200 41.94900
H  -13.80300 18.76400 42.10000
H  -9.79500 13.82500 43.44100
H  -4.74400 20.67100 43.40400
H  -6.24600 22.32200 41.50200
H  -6.38600 23.92200 43.05600
H  -5.68100 22.69000 44.30500
H  -7.27300 22.93500 44.16300
H  -3.85800 19.59000 41.32200
H  -3.82200 21.14700 40.93500
H  -6.34100 20.29200 39.92700
H  -5.46500 18.80600 39.85100
H  -11.81300 23.47100 40.42100
H  -10.63100 24.03100 41.70500
H  -12.16500 23.87900 42.14100
H  -15.43000 19.92200 41.78000
H  -14.70900 19.65600 40.14500
H  -15.85600 20.95300 40.35500
H  -13.55500 15.92500 41.77200
H  -12.46900 14.70500 44.29000
H  -15.40100 16.23700 43.04400
H  -14.41800 17.36800 43.95500
H  -14.50400 15.78600 44.53500
H  -11.50000 13.30400 42.18200
H  -13.24000 13.59500 41.64700
H  -13.70700 11.86700 42.67000
H  -13.25200 12.70500 44.18400
H  -12.16000 11.62800 43.41000
H  -6.37200 13.33600 42.59500
H  -7.77700 12.83300 43.67500
H  -6.27400 13.34300 44.45500
H  -3.91800 17.70500 42.37600
H  -3.40700 18.53900 47.10800
H  -4.95700 19.28800 47.30800
H  -3.70300 20.10000 46.25700

