158

Mg 26.15100 51.44000 25.62700
C  23.79300 52.34400 28.18000
C  28.43300 50.83400 28.18400
C  28.25200 50.63400 23.29200
C  23.85500 52.72300 23.22800
N  26.06900 51.59900 27.99000
C  25.01700 51.94300 28.81400
C  25.41100 51.75400 30.26100
C  26.94300 51.45500 30.20000
C  27.20000 51.36400 28.68000
C  27.85200 52.48900 30.83900
C  24.57600 50.66700 30.94900
C  23.84100 50.98600 32.25200
H  24.06000 49.98500 33.52000
N  28.03400 50.71900 25.70200
C  28.77700 50.47900 26.86300
C  30.07600 49.91800 26.48800
C  30.09700 49.92600 25.02500
C  28.76000 50.39600 24.57100
C  31.15200 49.65400 27.55000
C  31.26600 49.54300 24.12000
O  31.25600 49.58000 22.93200
C  32.57700 49.16200 24.86600
N  26.16100 52.00400 23.59000
C  27.11700 51.33800 22.89000
C  26.79200 51.37200 21.40000
C  25.35200 51.99900 21.32400
C  25.12500 52.30100 22.80600
C  27.91800 51.99600 20.53800
C  24.37800 50.87700 20.73600
C  23.08900 51.29500 20.09700
N  24.26200 52.33100 25.61800
C  23.40200 52.73800 24.52500
C  22.10200 53.04900 25.07800
C  22.23100 52.89400 26.44900
C  23.52100 52.42900 26.73400
C  21.00500 53.66000 24.27700
C  21.58900 53.18600 27.79000
O  20.45100 53.61000 27.99800
C  22.61700 52.86400 28.91200
C  22.85600 54.08500 29.85200
O  23.25300 55.20600 29.49800
O  22.49400 53.83200 31.13500
C  22.69500 54.86300 32.09500
H  29.14300 50.67600 28.99900
H  28.89000 50.23900 22.49900
H  23.13600 52.95000 22.43700
H  25.17300 52.67100 30.79900
H  27.25000 50.50000 30.62900
H  27.37800 53.43700 31.09300
H  28.59000 52.75300 30.08100
H  28.41200 52.13200 31.70300
H  25.18300 49.77600 31.11000
H  23.83100 50.32300 30.23200
H  22.76600 51.13200 32.15000
H  24.25800 51.91400 32.64300
H  30.80700 49.67700 28.58300
H  31.94200 50.39300 27.68000
H  31.60100 48.68100 27.34900
H  32.47600 48.21900 25.40400
H  32.85000 49.96700 25.54800
H  33.40400 49.03900 24.16700
H  26.64900 50.32600 21.12900
H  25.26500 52.95500 20.80700
H  27.54700 52.77300 19.86800
H  28.34200 51.20800 19.91600
H  28.69700 52.33300 21.22100
H  24.22800 50.27600 21.63300
H  24.86200 50.21100 20.02200
H  23.18200 51.30500 19.01100
H  22.81700 52.31700 20.36000
H  22.37200 50.56400 20.47000
H  20.37100 52.78300 24.14200
H  21.45700 54.12400 23.40100
H  20.38200 54.38900 24.79600
H  22.25600 52.03800 29.52400
H  21.66200 55.04700 32.39100
H  23.14100 55.78600 31.72500
H  23.24700 54.49700 32.96100
Mg -10.35300 39.51400 43.14700
C  -8.98900 36.53600 41.74300
C  -7.83100 41.21000 41.35100
C  -11.92500 42.36000 43.33200
C  -13.07100 37.70000 44.34400
N  -8.71700 38.92100 41.53700
C  -8.25000 37.64400 41.29500
C  -6.92600 37.56500 40.56800
C  -6.46600 39.10700 40.67700
C  -7.77700 39.80900 41.18300
C  -5.23500 39.50100 41.46000
C  -6.97600 37.03600 39.08200
C  -5.85300 35.95500 38.77200
H  -4.91800 36.21600 37.49500
N  -9.86400 41.60000 42.68200
C  -8.84100 42.04600 41.93200
C  -8.76900 43.47500 42.01000
C  -9.90500 43.84500 42.78400
C  -10.64500 42.60200 42.92800
C  -7.70400 44.37200 41.41200
C  -10.35100 45.29800 43.23700
O  -9.66300 46.27000 42.89600
C  -11.57500 45.54200 44.11100
N  -12.31900 39.92300 43.66200
C  -12.66100 41.17900 43.73000
C  -14.01000 41.27400 44.49000
C  -14.46700 39.79900 44.80100
C  -13.24900 39.04700 44.17900
C  -14.12300 42.25200 45.67200
C  -15.76800 39.41900 44.03700
C  -16.62100 38.39300 44.81500
N  -10.91700 37.47900 43.10600
C  -12.02400 36.90900 43.75800
C  -11.88100 35.41400 43.56700
C  -10.69600 35.22700 42.79500
C  -10.20700 36.53200 42.48400
C  -12.88400 34.35100 43.96100
C  -9.77600 34.25700 42.25300
O  -9.87600 33.01700 42.31800
C  -8.69700 35.07200 41.49500
C  -7.37400 34.58100 42.08900
O  -6.85500 34.97100 43.10600
O  -6.97300 33.52700 41.33900
C  -5.78000 32.77300 41.76700
H  -6.96300 41.76800 40.99200
H  -12.61000 43.20300 43.44700
H  -13.83500 37.08800 44.82800
H  -6.24100 36.97000 41.17100
H  -6.27600 39.53400 39.69300
H  -4.87500 38.69200 42.09600
H  -5.58900 40.31100 42.09800
H  -4.39700 39.82200 40.84200
H  -6.85400 37.85600 38.37400
H  -7.95600 36.63500 38.82300
H  -6.16700 34.91200 38.73800
H  -5.06100 35.92800 39.52000
H  -8.26300 44.95300 40.67900
H  -6.85900 43.91100 40.90200
H  -7.29900 45.06700 42.14700
H  -12.44900 45.41300 43.47300
H  -11.61600 46.51900 44.59200
H  -11.69300 44.72000 44.81700
H  -14.70900 41.67500 43.75500
H  -14.38500 39.47900 45.84000
H  -14.41700 41.79200 46.61600
H  -15.02300 42.85900 45.57500
H  -13.22500 42.83000 45.89200
H  -15.43600 38.91200 43.13100
H  -16.32400 40.33800 43.85700
H  -16.07800 38.02600 45.68600
H  -16.72800 37.54400 44.14000
H  -17.57500 38.81800 45.12800
H  -13.61500 34.13800 43.18100
H  -13.32600 34.68900 44.89800
H  -12.34700 33.44000 44.22200
H  -8.77900 34.89200 40.42300
H  -5.75800 31.84800 41.18900
H  -5.78200 32.57800 42.83900
H  -4.92100 33.37700 41.47600

