158

Mg 49.93200 46.25400 43.27100
C  46.61900 46.24600 42.10600
C  49.88300 42.85500 42.69100
C  53.24000 46.29100 43.90300
C  49.66100 49.55100 43.76200
N  48.35400 44.75700 42.48600
C  47.08900 44.92800 42.00800
C  46.37100 43.57000 41.68100
C  47.48600 42.50800 41.98900
C  48.61800 43.45100 42.43400
C  47.18200 41.46300 43.08700
C  45.61400 43.56400 40.31600
C  45.95000 42.37000 39.40400
H  45.26000 42.25100 38.02300
N  51.38000 44.74800 43.28500
C  51.12800 43.43700 42.99300
C  52.36600 42.77900 43.14900
C  53.42100 43.73300 43.48200
C  52.70300 45.00700 43.57900
C  52.51000 41.23200 42.93000
C  54.89400 43.41200 43.53500
O  55.24800 42.23800 43.42700
C  55.81600 44.48000 43.95200
N  51.23100 47.74700 43.66200
C  52.54200 47.47400 43.96700
C  53.25300 48.82700 44.24400
C  52.08100 49.90200 44.22700
C  50.93100 49.05400 43.82300
C  54.15300 48.82900 45.52400
C  52.34400 51.11800 43.32500
C  53.69000 51.91200 43.50700
N  48.48200 47.71700 42.99200
C  48.48100 49.00300 43.40200
C  47.10100 49.62500 43.24700
C  46.36000 48.51000 42.68900
C  47.19100 47.39200 42.56200
C  46.73900 51.01000 43.52900
C  45.05700 48.16400 42.11900
O  44.08700 48.82500 41.83900
C  45.15500 46.59800 41.90000
C  44.25200 45.96000 42.89600
O  44.22200 46.05300 44.09200
O  43.19400 45.38500 42.21500
C  42.13200 44.74800 42.97200
H  49.88500 41.77400 42.53300
H  54.26600 46.37000 44.26900
H  49.67300 50.60500 44.04600
H  45.56600 43.35800 42.38500
H  47.84100 41.93100 41.13500
H  46.14900 41.50200 43.43400
H  47.75400 41.48300 44.01400
H  47.34200 40.48900 42.62500
H  45.98400 44.43800 39.78000
H  44.53700 43.65800 40.45900
H  45.87800 41.39800 39.89200
H  46.99800 42.59100 39.19700
H  53.08400 41.15300 42.00800
H  51.60100 40.63400 42.99700
H  53.08600 40.82900 43.76400
H  55.46100 44.98100 44.85300
H  55.92400 45.20200 43.14300
H  56.74600 43.96100 44.18500
H  53.83800 49.07100 43.35700
H  51.90900 50.22700 45.25300
H  54.33700 47.81500 45.88100
H  53.74800 49.45300 46.32100
H  55.13300 49.25200 45.30300
H  51.51600 51.81700 43.44000
H  52.33800 50.83000 42.27300
H  54.30900 51.80800 42.61600
H  54.38200 51.68500 44.31800
H  53.45000 52.95500 43.71400
H  46.14700 51.38300 42.69300
H  47.58800 51.69200 43.57700
H  46.20000 51.11300 44.47100
H  44.77800 46.30200 40.92100
H  42.43000 43.73700 43.25100
H  41.27200 44.70700 42.30300
H  41.83100 45.22300 43.90500
Mg 36.43200 49.14800 25.59700
C  36.93300 47.30800 28.27600
C  34.98800 51.52200 27.52400
C  35.54900 50.84700 22.73300
C  37.67400 46.60800 23.45000
N  35.93000 49.30600 27.65800
C  36.23700 48.49300 28.66100
C  35.79800 48.93400 29.96000
C  35.03100 50.26400 29.72600
C  35.33100 50.36100 28.22900
C  33.52800 50.30700 30.09800
C  37.03700 49.06400 30.90600
C  36.69700 48.64400 32.34700
H  35.21100 48.80100 32.83000
N  35.40000 50.94000 25.21200
C  34.93700 51.80600 26.12000
C  34.31400 52.96100 25.50100
C  34.47200 52.78800 24.08800
C  35.12500 51.43500 23.91700
C  33.79100 54.13200 26.38200
C  34.08100 53.78300 22.99100
O  34.29100 53.45400 21.84700
C  33.51000 55.10700 23.27700
N  36.48900 48.74400 23.36900
C  36.13800 49.62200 22.46100
C  36.47800 49.17100 21.06900
C  37.22900 47.79100 21.28100
C  37.11400 47.67500 22.76800
C  35.31000 49.20700 20.03300
C  38.62000 47.76400 20.67900
C  39.73800 48.57400 21.41000
N  37.05500 47.17000 25.71900
C  37.61100 46.27900 24.81800
C  38.08700 45.10400 25.55500
C  37.81800 45.45300 26.96000
C  37.20100 46.68700 26.99200
C  38.74000 43.92800 25.03100
C  37.87700 45.05400 28.32600
O  38.30700 43.98500 28.73800
C  37.26300 46.17000 29.24500
C  36.07700 45.56400 29.93300
O  34.98100 45.53800 29.48600
O  36.48700 45.02700 31.15100
C  35.43200 44.70500 32.11400
H  34.51600 52.22500 28.21300
H  35.28200 51.33400 21.79300
H  38.09200 45.82000 22.82000
H  35.15700 48.21500 30.47000
H  35.62100 51.02700 30.23300
H  33.09000 49.46000 30.62600
H  32.87700 50.52000 29.25000
H  33.48800 51.17000 30.76300
H  37.41500 50.08500 30.87500
H  37.84900 48.45200 30.51300
H  37.33500 49.29100 32.94900
H  37.09100 47.62800 32.35700
H  32.74600 54.34100 26.15200
H  34.36600 55.01400 26.10000
H  33.87500 54.14600 27.46900
H  32.53100 54.86800 23.69400
H  33.38600 55.61500 22.32100
H  34.13700 55.70500 23.93800
H  37.18200 49.89900 20.66600
H  36.61900 47.03700 20.78400
H  34.45100 49.47300 20.64900
H  35.13000 48.30600 19.44600
H  35.55600 49.98900 19.31400
H  38.62600 48.29200 19.72500
H  39.09100 46.78100 20.67600
H  39.82300 48.44500 22.48900
H  39.70800 49.63200 21.15000
H  40.67500 48.21400 20.98400
H  39.67400 43.88300 25.59100
H  38.93100 44.07500 23.96800
H  38.07400 43.09000 25.23800
H  37.93700 46.36500 30.07900
H  35.98600 44.45800 33.02000
H  34.95600 43.75900 31.85700
H  34.65300 45.42000 32.38000

