158

Mg 0.08200 43.52400 26.63400
C  2.16100 42.73900 29.29500
C  -2.66400 42.50100 28.55800
C  -1.92400 44.03600 24.01100
C  2.84000 44.19900 24.61300
N  -0.20400 42.75800 28.70200
C  0.77500 42.68500 29.60400
C  0.23900 42.50300 30.98700
C  -1.29200 42.07800 30.70500
C  -1.41900 42.43100 29.24500
C  -1.71000 40.62000 30.94300
C  0.48100 43.79700 31.85700
C  1.22800 43.52700 33.17300
H  0.97500 42.26800 33.98000
N  -1.99600 43.30300 26.30000
C  -2.94300 42.82900 27.17200
C  -4.21900 42.77400 26.56700
C  -3.96000 43.15900 25.20700
C  -2.56100 43.48700 25.11700
C  -5.54300 42.47900 27.31300
C  -4.89800 43.26600 24.06100
O  -4.74600 43.76500 22.96900
C  -6.32300 42.65200 24.23700
N  0.49600 44.01900 24.52700
C  -0.57200 44.39700 23.83600
C  -0.14000 45.09200 22.56500
C  1.38600 45.42000 22.87000
C  1.61200 44.49100 24.02700
C  -0.31500 44.43500 21.25600
C  1.52100 47.00000 23.17600
C  1.68000 47.96800 22.06500
N  2.03800 43.49300 26.83000
C  3.08300 43.70900 25.93000
C  4.35400 43.67900 26.59800
C  4.03600 43.12100 27.86400
C  2.63000 43.07500 28.00700
C  5.65500 43.82600 25.92600
C  4.59500 42.70500 29.15000
O  5.80300 42.50500 29.39700
C  3.38200 42.58900 30.17700
C  3.50400 41.22800 30.75100
O  3.35600 40.22200 30.10900
O  3.95800 41.26600 32.03400
C  4.39700 39.99000 32.50700
H  -3.39600 41.97500 29.17400
H  -2.54800 44.08700 23.11700
H  3.72400 44.42700 24.01300
H  0.71000 41.61400 31.40700
H  -1.92400 42.69800 31.34200
H  -2.47100 40.56200 31.72100
H  -0.91000 40.04200 31.40800
H  -2.10000 40.09600 30.07100
H  -0.50600 44.19000 32.10100
H  1.06300 44.55100 31.32700
H  0.93200 44.30100 33.88100
H  2.28500 43.61400 32.92200
H  -5.98800 41.50500 27.10900
H  -6.38400 43.12300 27.05500
H  -5.33700 42.54800 28.38100
H  -6.84200 43.33500 24.90900
H  -6.28200 41.66500 24.69800
H  -6.68900 42.57000 23.21300
H  -0.74400 45.99900 22.52800
H  1.97000 45.16700 21.98400
H  -1.01100 45.03700 20.67100
H  -0.75700 43.43900 21.25600
H  0.57600 44.17500 20.68600
H  2.41200 47.11900 23.79300
H  0.64800 47.24500 23.78200
H  0.97600 48.77900 22.25300
H  1.31900 47.54400 21.12900
H  2.66600 48.41700 21.94300
H  5.83500 44.86500 25.65000
H  5.61300 43.20600 25.03000
H  6.44000 43.46900 26.59400
H  3.39100 43.40900 30.89500
H  3.61700 39.24900 32.68000
H  4.93900 40.09800 33.44700
H  5.11200 39.64800 31.75900
Mg -5.62300 24.81700 26.94500
C  -4.06900 26.30900 29.78900
C  -6.93500 22.46600 28.96100
C  -6.60600 23.16800 24.13800
C  -3.57500 26.88900 24.95400
N  -5.35500 24.36300 29.11000
C  -4.78900 25.14300 30.14700
C  -5.22600 24.66500 31.51700
C  -5.82000 23.28500 31.16000
C  -6.10300 23.36700 29.63600
C  -4.85000 22.15200 31.43500
C  -6.36200 25.68800 32.04800
C  -6.76300 25.51600 33.49900
H  -5.98700 24.64800 34.48400
N  -6.74400 23.18100 26.55600
C  -7.24000 22.34200 27.55500
C  -8.21000 21.40800 26.95600
C  -7.98500 21.48000 25.52800
C  -7.12900 22.61900 25.34900
C  -8.92000 20.44400 27.80900
C  -8.60700 20.61300 24.41600
O  -8.47100 20.86700 23.20400
C  -9.24800 19.35100 24.83700
N  -5.18700 25.07900 24.84100
C  -5.78800 24.29500 23.87900
C  -5.41200 24.66500 22.41900
C  -4.48300 25.95400 22.69100
C  -4.38600 25.97700 24.25400
C  -4.64200 23.52400 21.65200
C  -5.12100 27.18000 21.98700
C  -4.29900 27.84500 20.86200
N  -4.19100 26.34500 27.26600
C  -3.46400 27.06900 26.34000
C  -2.53500 27.96400 27.02400
C  -2.71300 27.72400 28.40600
C  -3.78500 26.73600 28.50700
C  -1.67900 29.01500 26.38400
C  -2.37700 28.24600 29.76200
O  -1.53900 28.94300 30.31800
C  -3.22600 27.20500 30.73000
C  -2.35900 26.41000 31.61400
O  -1.60000 25.51600 31.20100
O  -2.35600 26.97300 32.88200
C  -1.37700 26.40900 33.79800
H  -7.15600 21.62300 29.61900
H  -7.01600 22.60300 23.29800
H  -3.09000 27.64600 24.33500
H  -4.31800 24.63200 32.11900
H  -6.74200 23.08100 31.70400
H  -5.45500 21.31000 31.77000
H  -4.23300 22.35100 32.31200
H  -4.19300 21.87600 30.61100
H  -7.20900 25.71200 31.36200
H  -5.96100 26.68000 31.84400
H  -7.78400 25.15400 33.37700
H  -6.72600 26.50300 33.96000
H  -9.97400 20.37500 27.54100
H  -8.86100 20.67200 28.87300
H  -8.46300 19.46000 27.70700
H  -9.17000 18.79500 23.90200
H  -10.30700 19.37800 25.09200
H  -8.61800 18.74200 25.48600
H  -6.29000 24.89800 21.81700
H  -3.49800 25.85800 22.23500
H  -4.88500 23.43700 20.59300
H  -4.74600 22.57700 22.18200
H  -3.57000 23.72400 21.65800
H  -5.16300 27.91100 22.79500
H  -6.07900 26.98900 21.50400
H  -3.51100 27.20600 20.46400
H  -3.89800 28.76000 21.29800
H  -4.96300 27.96500 20.00500
H  -2.34100 29.70400 25.86100
H  -0.99800 28.61700 25.63200
H  -0.98100 29.42800 27.11200
H  -3.92100 27.78000 31.34100
H  -0.43300 26.95100 33.85100
H  -1.14800 25.35400 33.64800
H  -1.77200 26.58400 34.79800

