158

Mg 49.19600 46.47600 42.73200
C  45.87200 47.00500 41.57600
C  49.12700 43.38200 41.26200
C  52.51500 46.32200 43.35300
C  49.16500 49.92900 43.68800
N  47.74600 45.40600 41.45400
C  46.47200 45.80200 41.13800
C  45.75900 44.70200 40.31800
C  46.57300 43.44600 40.63600
C  47.92000 44.06500 41.13200
C  45.94700 42.57600 41.72000
C  45.66100 45.13100 38.77700
C  44.44200 44.79100 37.91300
H  44.63300 44.12500 36.56000
N  50.65400 45.05300 42.38200
C  50.37500 43.78300 41.78400
C  51.60700 43.05100 41.75300
C  52.57500 43.86400 42.42500
C  51.90200 45.10700 42.79500
C  51.74300 41.70000 41.12400
C  54.03100 43.48800 42.73000
O  54.45300 42.41300 42.36200
C  55.05800 44.39200 43.43300
N  50.60700 47.99900 43.41800
C  51.93500 47.67500 43.62900
C  52.70700 48.90000 44.06000
C  51.61000 50.00400 44.18300
C  50.34900 49.24900 43.80900
C  53.46800 48.63100 45.36300
C  51.84100 51.29900 43.23700
C  51.98900 52.54700 44.05300
N  47.79900 48.10000 42.82900
C  47.94200 49.39300 43.22600
C  46.65500 50.09700 43.22800
C  45.79000 49.15700 42.57400
C  46.54100 47.94300 42.32300
C  46.39500 51.43500 43.67500
C  44.45900 48.95400 42.08200
O  43.45300 49.66800 42.17600
C  44.46600 47.53700 41.33000
C  43.33700 46.66300 41.81000
O  43.35300 45.86700 42.72600
O  42.19300 46.99900 41.10900
C  41.00300 46.43300 41.65100
H  48.98800 42.33700 40.97800
H  53.56600 46.43000 43.62700
H  49.28600 50.94200 44.07900
H  44.73500 44.53500 40.65300
H  46.80800 42.88900 39.73000
H  44.97600 42.92100 42.07700
H  46.58200 42.68300 42.59900
H  45.96800 41.50000 41.55000
H  46.58500 44.75500 38.33700
H  45.76800 46.21300 38.70000
H  43.86000 45.70600 37.80400
H  43.86400 44.00600 38.39900
H  52.49100 41.06000 41.59100
H  51.95800 41.78800 40.05900
H  50.76400 41.22000 41.12800
H  54.65600 44.81100 44.35600
H  55.30600 45.19600 42.74000
H  55.91300 43.73000 43.56800
H  53.48400 49.18600 43.35100
H  51.43900 50.35700 45.20000
H  54.54800 48.66700 45.21400
H  53.18400 47.63800 45.70900
H  53.12900 49.34800 46.11100
H  50.96900 51.48700 42.61100
H  52.69800 51.23100 42.56800
H  52.55900 52.30700 44.95100
H  51.04400 53.01000 44.33800
H  52.55000 53.25500 43.44400
H  47.11200 52.09300 43.18400
H  46.56900 51.43400 44.75100
H  45.35300 51.69900 43.49600
H  44.25700 47.74700 40.28100
H  40.47700 46.09000 40.75900
H  40.40200 47.10700 42.26100
H  41.11400 45.57600 42.31600
Mg -2.50300 34.26400 26.24500
C  -3.95400 32.64100 28.95700
C  -0.92800 36.51000 28.37700
C  -1.30800 35.85900 23.60500
C  -4.22000 31.98800 24.07000
N  -2.47900 34.51100 28.44100
C  -3.03600 33.67100 29.38900
C  -2.89300 34.25400 30.79600
C  -1.91400 35.48600 30.59900
C  -1.70800 35.50900 29.09900
C  -2.34000 36.72800 31.37400
C  -2.33300 33.24300 31.83500
C  -3.23300 32.90300 33.07900
H  -2.46400 32.64400 34.46700
N  -1.34900 35.92300 26.03100
C  -0.79600 36.72800 27.01600
C  -0.00700 37.74500 26.43400
C  -0.02800 37.53100 25.02800
C  -0.94100 36.39500 24.82500
C  0.70300 38.77400 27.22700
C  0.63800 38.43100 23.90600
O  0.33300 38.28900 22.71200
C  1.67700 39.44300 24.35800
N  -2.88200 34.04700 24.09900
C  -2.14200 34.78200 23.21600
C  -2.51900 34.50300 21.76800
C  -3.26400 33.11300 21.95900
C  -3.50800 33.02300 23.44900
C  -3.37500 35.56000 21.16500
C  -2.46300 31.81500 21.47000
C  -1.04100 31.56300 21.87600
N  -3.80800 32.68500 26.39600
C  -4.37300 31.82400 25.43700
C  -5.11600 30.79800 26.18900
C  -5.02600 31.05100 27.54300
C  -4.19400 32.25800 27.57400
C  -5.88400 29.72700 25.49000
C  -5.39800 30.62200 28.81200
O  -6.09200 29.68500 29.13600
C  -4.86400 31.70000 29.75700
C  -5.84700 32.30100 30.62100
O  -6.44100 33.37500 30.38700
O  -6.01200 31.58000 31.72000
C  -6.96800 32.01200 32.76100
H  -0.47200 37.19000 29.10000
H  -0.91400 36.33200 22.70400
H  -4.58500 31.20600 23.40000
H  -3.89200 34.46000 31.18100
H  -0.97500 35.15300 31.04100
H  -2.38200 37.49500 30.60100
H  -1.54800 37.07000 32.03900
H  -3.31300 36.53700 31.82500
H  -1.27800 33.37100 32.07800
H  -2.24700 32.33300 31.24300
H  -3.87700 32.05100 32.86100
H  -3.89500 33.75000 33.26200
H  1.73400 38.95300 26.92100
H  0.65500 38.61000 28.30300
H  0.04500 39.62600 27.05400
H  1.89600 39.97100 23.43000
H  2.65600 39.01900 24.58100
H  1.25900 40.18500 25.03800
H  -1.60700 34.45100 21.17200
H  -4.27900 33.13200 21.56400
H  -2.83100 35.82800 20.26000
H  -3.33500 36.43800 21.81000
H  -4.39500 35.28900 20.89200
H  -2.51800 31.75400 20.38300
H  -2.93000 30.84500 21.64300
H  -0.95500 30.67900 22.50900
H  -0.67700 32.45900 22.37700
H  -0.44300 31.47800 20.96800
H  -5.26200 28.97000 25.01200
H  -6.49300 30.22000 24.73300
H  -6.52600 29.25000 26.23100
H  -4.23900 31.11900 30.43500
H  -7.02600 31.28900 33.57500
H  -7.98200 32.24100 32.43200
H  -6.52800 32.95500 33.08400

