158

Mg 45.75800 4.82500 48.31300
C  43.80000 7.59800 47.68000
C  43.03300 2.80700 47.77900
C  47.82300 2.10300 48.17300
C  48.61000 6.79900 48.52500
N  43.55300 5.22300 47.85200
C  42.98500 6.43100 47.57800
C  41.54400 6.22400 47.13100
C  41.26800 4.72600 47.54700
C  42.72100 4.15300 47.75800
C  40.20700 4.42800 48.67000
C  41.38200 6.54600 45.64400
C  40.16200 7.40300 45.27900
H  39.51600 7.09800 43.96300
N  45.41800 2.78400 48.05900
C  44.24200 2.13000 47.92200
C  44.41300 0.70200 47.78600
C  45.78300 0.47400 47.99400
C  46.41600 1.79700 48.08600
C  43.33800 -0.28000 47.45100
C  46.42000 -0.96600 48.14400
O  45.77000 -2.00400 48.17600
C  47.88300 -1.16000 48.32900
N  47.95300 4.50400 48.02200
C  48.51100 3.29600 48.18600
C  50.02500 3.31600 48.21100
C  50.35900 4.83700 48.39300
C  48.87500 5.44900 48.25700
C  50.64400 2.32800 49.25500
C  51.32600 5.33900 47.28300
C  52.10700 6.67500 47.64800
N  46.12000 6.76000 48.21600
C  47.27900 7.42100 48.40900
C  47.02300 8.81600 48.48200
C  45.70400 8.94200 48.23300
C  45.17300 7.64200 48.03500
C  48.08000 9.86000 48.59000
C  44.68000 9.85200 47.92000
O  44.71800 11.05800 47.91800
C  43.35300 9.01300 47.62000
C  42.33300 9.36700 48.65700
O  42.51600 9.10500 49.84000
O  41.24700 9.97500 48.08700
C  40.14300 10.21200 49.14500
H  42.20900 2.11300 47.59900
H  48.49400 1.24500 48.09500
H  49.50000 7.38200 48.77300
H  40.86700 6.91100 47.63900
H  40.83900 4.11000 46.75700
H  39.44200 3.87800 48.12000
H  39.82600 5.31100 49.18200
H  40.62100 3.80400 49.46200
H  41.35300 5.63200 45.05100
H  42.23200 7.07900 45.22000
H  40.54600 8.41400 45.41900
H  39.34700 7.27500 45.99100
H  42.81400 -0.83000 48.23300
H  43.72700 -0.90200 46.64500
H  42.60300 0.31800 46.91300
H  48.33700 -0.69700 47.45300
H  48.16200 -2.16300 48.65200
H  48.15700 -0.68000 49.26900
H  50.39300 2.96500 47.24700
H  50.77400 5.05000 49.37800
H  49.99800 2.06000 50.09200
H  51.48600 2.87000 49.68500
H  51.12000 1.46300 48.79400
H  50.81100 5.47500 46.33200
H  52.09200 4.57200 47.16000
H  53.13900 6.62900 47.30000
H  52.15800 6.78200 48.73100
H  51.56700 7.54500 47.27400
H  48.40900 9.71200 49.61900
H  47.55600 10.78700 48.35800
H  48.92200 9.69000 47.91800
H  42.97200 9.24000 46.62500
H  40.39500 10.81800 50.01500
H  39.73000 9.28000 49.53100
H  39.27300 10.75800 48.77900
Mg -12.14800 37.71600 42.35600
C  -10.05500 35.01400 41.50000
C  -9.93200 39.79900 40.63300
C  -14.58700 39.91800 42.31300
C  -14.49800 35.18100 43.45300
N  -10.29800 37.40400 40.94600
C  -9.61200 36.19800 40.89000
C  -8.33100 36.40400 40.08100
C  -8.13900 37.95900 40.07100
C  -9.51500 38.44300 40.59500
C  -7.05400 38.39300 41.01000
C  -8.40400 35.72900 38.69400
C  -7.16700 34.89000 38.40400
H  -6.11800 35.41300 37.50900
N  -12.18300 39.64000 41.71000
C  -11.11600 40.38300 41.11800
C  -11.61900 41.78800 41.07800
C  -12.94400 41.82000 41.56700
C  -13.34100 40.45300 41.84500
C  -10.73300 42.85200 40.60200
C  -13.84600 43.05000 41.65200
O  -13.43800 44.12800 41.19800
C  -15.18600 43.12900 42.29000
N  -14.32100 37.56900 42.40400
C  -15.01000 38.68500 42.61500
C  -16.43900 38.39800 43.11900
C  -16.39900 36.90100 43.45200
C  -15.02400 36.46600 43.06300
C  -16.94100 39.38000 44.25500
C  -17.50000 35.96700 42.78500
C  -18.26000 34.98300 43.78900
N  -12.25200 35.57400 42.61600
C  -13.16200 34.72700 43.17200
C  -12.60400 33.42700 43.35100
C  -11.36200 33.42100 42.69400
C  -11.24400 34.79200 42.18700
C  -13.27600 32.33300 44.13000
C  -10.25000 32.64500 42.21400
O  -9.96300 31.44300 42.31400
C  -9.33900 33.64500 41.44600
C  -7.95300 33.60700 41.93500
O  -7.15200 32.72200 41.60000
O  -7.65300 34.60800 42.76800
C  -6.28600 34.60800 43.40300
H  -9.17200 40.49600 40.27400
H  -15.33800 40.68600 42.50400
H  -15.15300 34.55900 44.06700
H  -7.56400 35.91500 40.68200
H  -7.97600 38.31700 39.05400
H  -7.48800 38.93000 41.85400
H  -6.34500 38.99800 40.44500
H  -6.51900 37.62200 41.56400
H  -8.49400 36.47200 37.90200
H  -9.24900 35.07900 38.46600
H  -7.55800 33.96400 37.98300
H  -6.70600 34.50700 39.31500
H  -9.66600 42.63100 40.62900
H  -10.81100 43.69700 41.28600
H  -10.98600 43.17900 39.59300
H  -16.04800 42.91400 41.65700
H  -15.28700 44.15100 42.65500
H  -15.31000 42.46500 43.14600
H  -17.14400 38.54700 42.30100
H  -16.51200 36.93900 44.53600
H  -16.46800 40.35200 44.11300
H  -16.70200 38.96200 45.23200
H  -17.98500 39.66900 44.13200
H  -16.98600 35.31200 42.08200
H  -18.21400 36.55300 42.20700
H  -18.37100 34.01000 43.31000
H  -19.16400 35.54100 44.03200
H  -17.62400 34.96800 44.67400
H  -12.68800 31.45100 44.38400
H  -14.13000 31.98400 43.54800
H  -13.62900 32.76900 45.06500
H  -9.37000 33.26700 40.42400
H  -5.62200 35.31400 42.90400
H  -5.76100 33.65300 43.39000
H  -6.50200 35.02400 44.38700

