158

Mg 1.90200 -1.29400 44.61200
C  5.35900 -0.61700 44.11600
C  1.18600 1.77100 43.01000
C  -1.17600 -2.24400 44.42000
C  2.90700 -4.51700 45.82100
N  3.14600 0.29800 43.61400
C  4.53000 0.38300 43.60400
C  4.97300 1.67900 42.79800
C  3.74300 2.64200 42.87500
C  2.60800 1.53500 43.18600
C  3.76300 3.73900 44.04500
C  5.49500 1.42400 41.39400
C  6.70600 2.15600 40.89100
H  6.67000 3.21800 39.71600
N  0.24100 -0.35500 43.90400
C  0.14300 0.85400 43.26300
C  -1.17000 1.11800 42.91300
C  -1.96300 0.05800 43.42200
C  -0.97000 -0.91400 43.98600
C  -1.55600 2.35900 42.27200
C  -3.46100 -0.08100 43.36100
O  -4.16400 0.76000 42.81700
C  -4.20700 -1.13100 44.12800
N  1.02400 -3.14900 44.99100
C  -0.34400 -3.22300 44.89300
C  -0.82700 -4.59500 45.37200
C  0.40600 -5.22600 46.04700
C  1.54400 -4.27400 45.66800
C  -2.07000 -4.45700 46.28200
C  0.63200 -6.82100 45.69100
C  1.01100 -7.71800 46.88200
N  3.70100 -2.38800 44.91300
C  3.96900 -3.61200 45.48900
C  5.39700 -3.85600 45.54900
C  5.98900 -2.65500 45.06800
C  4.87600 -1.78800 44.70300
C  6.04700 -5.15000 45.80900
C  7.27000 -1.93500 44.82800
O  8.46900 -2.17700 45.04800
C  6.85700 -0.59100 44.12600
C  7.32100 0.51500 44.92800
O  7.06300 0.82800 46.09200
O  8.04400 1.32400 44.08900
C  8.25600 2.66600 44.63800
H  0.95900 2.79600 42.71300
H  -2.23500 -2.51100 44.39000
H  3.11800 -5.43800 46.36800
H  5.69800 2.22400 43.40200
H  3.45000 3.02600 41.89800
H  3.41000 3.35700 45.00300
H  3.06600 4.54500 43.82000
H  4.78600 4.10100 44.15500
H  4.79100 1.72500 40.61800
H  5.76500 0.38700 41.19000
H  7.46700 1.46600 40.52700
H  7.07700 2.64500 41.79200
H  -2.56400 2.54000 42.64400
H  -1.60000 2.39000 41.18300
H  -0.99800 3.21800 42.64600
H  -5.26600 -0.88800 44.21600
H  -3.76100 -1.20100 45.12000
H  -4.00800 -2.09200 43.65300
H  -1.03200 -5.10000 44.42800
H  0.38300 -5.04600 47.12100
H  -2.16800 -5.40200 46.81600
H  -2.84700 -4.16600 45.57500
H  -2.19000 -3.73500 47.08900
H  1.31100 -6.85300 44.83900
H  -0.30700 -7.16700 45.25800
H  1.86800 -8.36600 46.70100
H  0.16800 -8.38500 47.06300
H  1.05300 -7.15000 47.81200
H  5.56700 -5.96200 45.26200
H  5.84800 -5.32400 46.86600
H  7.12400 -5.22600 45.66000
H  7.21400 -0.59200 43.09600
H  7.31300 3.21300 44.63200
H  8.95900 3.14600 43.95700
H  8.67200 2.58600 45.64300
Mg 47.88500 15.87200 28.76400
C  45.95300 15.31300 31.73400
C  50.15400 17.52000 30.47000
C  49.62500 15.98700 25.95000
C  45.28800 14.10700 27.00300
N  48.00100 16.37400 30.83000
C  47.13900 16.12900 31.89300
C  47.67500 16.70300 33.22700
C  48.90300 17.57700 32.75500
C  49.02300 17.17400 31.22700
C  48.74100 19.06400 32.92500
C  47.90300 15.76500 34.41000
C  47.49300 16.18100 35.81300
H  47.55000 17.68100 36.15100
N  49.63200 16.53700 28.30100
C  50.50100 17.12300 29.14800
C  51.78000 17.40500 28.53400
C  51.67000 16.92600 27.20600
C  50.27800 16.43600 27.09500
C  53.02400 17.91700 29.32200
C  52.80100 16.83400 26.07600
O  52.47800 16.33100 25.02300
C  54.25600 17.34000 26.37700
N  47.47900 15.23900 26.73400
C  48.35800 15.51100 25.76000
C  47.89400 14.88200 24.41700
C  46.46100 14.38300 24.75000
C  46.38400 14.53900 26.26900
C  47.96200 15.87800 23.20300
C  46.19200 12.90000 24.25900
C  46.68400 11.71100 25.15500
N  46.01800 14.93200 29.18100
C  45.06400 14.39200 28.38500
C  43.90300 13.97500 29.21700
C  44.26800 14.32700 30.53300
C  45.54700 14.88600 30.47400
C  42.69600 13.32200 28.80100
C  43.77100 14.25000 31.91300
O  42.82900 13.84700 32.49100
C  44.88500 15.00200 32.74300
C  44.13600 16.06100 33.37300
O  43.65500 17.09600 32.82300
O  43.86000 15.67800 34.68100
C  42.93500 16.49800 35.50000
H  50.79600 18.27800 30.92300
H  50.26700 16.08700 25.07200
H  44.53000 13.59600 26.40500
H  46.83800 17.35100 33.48600
H  49.76200 17.33500 33.38000
H  49.33100 19.37700 33.78700
H  47.71000 19.28900 33.19700
H  49.04000 19.68500 32.08100
H  48.95600 15.48500 34.38000
H  47.41600 14.81800 34.17800
H  48.20400 15.73800 36.51000
H  46.47900 15.81800 35.97800
H  53.78700 17.15000 29.19200
H  52.79600 17.93200 30.38800
H  53.31000 18.92500 29.02200
H  54.24000 18.38000 26.70300
H  54.75700 17.25800 25.41200
H  54.67600 16.66400 27.12200
H  48.48500 13.98800 24.22000
H  45.68400 14.97100 24.26100
H  46.99800 16.07700 22.73300
H  48.57900 15.39500 22.44500
H  48.48300 16.78200 23.51700
H  46.73200 12.76200 23.32300
H  45.12100 12.70400 24.20900
H  47.06700 10.84400 24.61500
H  45.76400 11.39800 25.64900
H  47.36600 12.10400 25.90900
H  41.92200 13.54900 29.53300
H  42.77500 12.23700 28.73400
H  42.44800 13.64100 27.78900
H  45.24900 14.27400 33.46700
H  42.35800 15.89300 36.20100
H  42.10700 16.91400 34.92600
H  43.38100 17.35300 36.00900

