158

Mg 48.09200 35.76300 28.34900
C  46.31200 33.57600 30.69800
C  48.42600 37.95300 30.99900
C  48.88800 37.93600 26.18100
C  46.87300 33.44500 25.77400
N  47.41400 35.79600 30.51400
C  46.79900 34.81300 31.29600
C  46.73300 35.19100 32.80500
C  47.05100 36.75800 32.79600
C  47.67800 36.88700 31.33600
C  45.88200 37.70100 33.09400
C  47.87100 34.44000 33.61300
C  47.44400 33.88200 35.07200
H  46.47600 34.78300 35.88200
N  48.85000 37.65500 28.55800
C  48.95100 38.36000 29.69900
C  49.70000 39.53800 29.35200
C  49.86100 39.57400 27.90500
C  49.17200 38.34400 27.47300
C  50.18500 40.52400 30.47600
C  50.63700 40.56700 27.05500
O  50.75400 40.41900 25.89800
C  51.21800 41.69500 27.75300
N  47.92300 35.71300 26.25500
C  48.35400 36.80900 25.55900
C  48.09400 36.56100 24.04800
C  47.56000 35.07100 23.84400
C  47.46800 34.66700 25.33200
C  47.15900 37.71200 23.44800
C  48.55500 34.12300 23.16400
C  48.19200 33.79500 21.73000
N  47.04000 33.82500 28.22300
C  46.66600 33.02500 27.11200
C  45.96600 31.83700 27.55400
C  45.77700 32.09500 28.89100
C  46.45000 33.26900 29.30100
C  45.53800 30.64900 26.77300
C  45.07000 31.48700 30.07800
O  44.41500 30.44700 30.11800
C  45.21400 32.59000 31.18600
C  45.34100 31.99000 32.53500
O  46.35400 31.44100 32.91100
O  44.07200 32.06300 33.18500
C  44.00200 31.86200 34.59200
H  48.59100 38.76300 31.71200
H  49.21200 38.65200 25.42300
H  46.47700 32.85300 24.94600
H  45.72400 34.95900 33.14700
H  47.75800 37.00800 33.58600
H  46.05400 38.59000 33.70000
H  44.96900 37.20600 33.42400
H  45.55900 38.11900 32.14100
H  48.71700 35.12100 33.71100
H  48.24300 33.67400 32.93300
H  48.33900 33.60500 35.62900
H  46.92700 32.96600 34.78800
H  51.16800 40.92800 30.23500
H  50.26500 40.04100 31.45000
H  49.56300 41.41800 30.52500
H  50.43200 42.03200 28.42900
H  51.45600 42.51200 27.07100
H  52.08100 41.27900 28.27200
H  49.05900 36.62600 23.54400
H  46.56300 34.95100 23.42000
H  46.82500 38.26100 24.32800
H  46.25500 37.26800 23.03100
H  47.54500 38.34700 22.65000
H  48.60100 33.18800 23.72200
H  49.52800 34.61400 23.17200
H  47.14300 33.91400 21.45800
H  48.37300 32.75200 21.47000
H  48.88900 34.32400 21.08000
H  46.33900 29.93600 26.57700
H  45.08500 31.07600 25.87800
H  44.71000 30.22600 27.34200
H  44.22900 33.05600 31.18100
H  43.06100 32.14700 35.06200
H  44.81600 32.29700 35.17200
H  44.24100 30.80900 34.74800
Mg 26.14500 51.42500 26.35300
C  23.79800 52.40000 28.88500
C  28.40500 50.98200 28.85200
C  28.47800 51.13200 23.88000
C  23.73100 52.29000 24.00400
N  26.11900 51.72200 28.66900
C  24.94200 51.90800 29.47700
C  25.17600 51.54200 30.92300
C  26.75600 51.09200 30.90000
C  27.12500 51.25200 29.42700
C  27.77900 51.88500 31.88900
C  24.24700 50.46300 31.43900
C  23.76800 50.70300 32.90900
H  24.64300 50.17700 34.11200
N  28.16300 51.10500 26.37200
C  28.95000 50.88100 27.52100
C  30.21600 50.47500 27.11800
C  30.31800 50.62700 25.73600
C  28.91800 50.85900 25.25500
C  31.37900 50.10300 28.01000
C  31.56600 50.52300 24.79000
O  31.56600 50.89500 23.62900
C  32.83000 49.96700 25.26500
N  26.13900 51.78100 24.19900
C  27.18900 51.43500 23.36400
C  26.75600 51.63300 21.89800
C  25.19500 51.63100 21.99600
C  24.98100 51.94300 23.49500
C  27.34100 52.77200 21.13700
C  24.48700 50.31400 21.57600
C  24.76500 48.97200 22.31500
N  24.14200 52.13500 26.40200
C  23.26300 52.39400 25.33400
C  22.02100 52.83100 25.80900
C  22.15700 52.91300 27.18700
C  23.49000 52.44900 27.48900
C  20.84300 53.24900 25.04600
C  21.48800 53.23500 28.42900
O  20.31000 53.61700 28.66400
C  22.48500 52.89300 29.58000
C  22.75300 54.13600 30.38500
O  23.22600 55.16500 29.96600
O  22.34400 53.88800 31.64800
C  22.54900 54.91800 32.67000
H  29.22200 50.77900 29.54700
H  29.21600 51.05300 23.07900
H  22.95800 52.27900 23.23300
H  25.06900 52.47200 31.48200
H  26.90000 50.03200 31.11200
H  28.69000 52.25700 31.42000
H  27.98500 51.23200 32.73700
H  27.30300 52.68500 32.45600
H  24.82400 49.53800 31.42400
H  23.39700 50.31500 30.77300
H  22.82900 50.15600 32.99400
H  23.55300 51.75400 33.10100
H  31.51800 49.02300 27.98200
H  31.23800 50.25800 29.08000
H  32.19000 50.78500 27.75400
H  32.58700 49.13600 25.92700
H  33.45000 50.68100 25.80600
H  33.46800 49.52400 24.50000
H  26.99000 50.70100 21.38400
H  24.86600 52.51800 21.45600
H  27.66600 53.50200 21.87800
H  26.67700 53.29400 20.44800
H  28.25700 52.50200 20.61000
H  24.93900 50.03900 20.62300
H  23.47300 50.56600 21.26500
H  25.05700 48.19100 21.61300
H  23.86200 48.58900 22.79000
H  25.50900 49.03300 23.10900
H  19.84900 52.93400 25.36100
H  21.00600 53.15100 23.97300
H  20.66500 54.29800 25.28400
H  22.01900 52.17800 30.25800
H  23.11400 54.47900 33.49100
H  21.58400 55.17800 33.10400
H  23.07800 55.83700 32.41400

