158

Mg 25.45200 -6.79000 48.28600
C  26.65200 -3.97300 46.56700
C  22.64700 -6.64500 46.38500
C  24.53600 -9.72900 49.72100
C  28.51800 -6.94100 50.00400
N  24.90600 -5.59100 46.51900
C  25.46400 -4.49200 46.01500
C  24.72700 -3.89500 44.88000
C  23.35900 -4.65300 44.92500
C  23.62500 -5.64100 46.03800
C  22.08000 -3.79100 45.11600
C  25.48600 -4.04000 43.50800
C  25.78200 -2.73600 42.75500
H  24.91500 -2.43100 41.50800
N  23.68400 -8.00300 48.17000
C  22.61800 -7.71300 47.34800
C  21.69200 -8.77400 47.56700
C  22.27700 -9.73700 48.44400
C  23.57200 -9.22200 48.78800
C  20.34200 -8.94300 46.90200
C  21.58100 -10.98000 48.90500
O  20.43700 -11.29200 48.49600
C  22.29300 -11.91700 49.85300
N  26.53800 -8.33900 49.39800
C  25.88500 -9.32200 50.03100
C  26.77600 -10.04300 51.01100
C  28.03800 -9.13600 51.11800
C  27.69600 -8.08500 50.09300
C  26.08400 -10.50200 52.32800
C  29.51000 -9.69900 50.83800
C  30.47500 -9.87800 51.94500
N  27.28700 -5.75100 48.29200
C  28.43300 -5.85200 49.06900
C  29.34600 -4.77700 48.77500
C  28.70800 -4.01000 47.77800
C  27.46300 -4.63100 47.58600
C  30.62600 -4.54300 49.43400
C  28.74100 -2.79100 47.08300
O  29.58300 -1.95200 47.09500
C  27.44900 -2.76800 46.14000
C  26.83000 -1.37600 46.33000
O  27.23800 -0.35200 45.80500
O  25.72700 -1.46200 47.12000
C  24.94400 -0.26400 47.41400
H  21.72900 -6.64900 45.79300
H  24.20300 -10.58300 50.31500
H  29.35600 -6.89800 50.70300
H  24.51800 -2.87700 45.21000
H  23.22900 -5.22000 44.00300
H  21.54500 -3.69500 44.17100
H  22.32700 -2.73800 45.25100
H  21.43200 -4.14000 45.92000
H  25.08900 -4.65400 42.70000
H  26.45800 -4.49500 43.69900
H  26.83100 -2.71500 42.45800
H  25.62000 -1.93500 43.47700
H  20.36900 -8.29900 46.02300
H  19.44800 -8.70100 47.47800
H  20.31500 -9.92700 46.43400
H  23.20800 -12.35900 49.46000
H  21.55100 -12.66700 50.12800
H  22.44500 -11.36800 50.78200
H  26.98700 -10.84600 50.30500
H  28.09500 -8.71900 52.12400
H  25.16900 -9.92100 52.44200
H  26.70500 -10.43400 53.22100
H  25.86000 -11.56800 52.27300
H  30.09400 -9.21200 50.05600
H  29.31700 -10.74000 50.57900
H  31.37500 -9.29700 51.74500
H  30.77600 -10.87700 52.25900
H  30.04800 -9.36100 52.80400
H  30.69600 -4.89700 50.46200
H  30.48500 -3.47900 49.62200
H  31.53100 -4.84900 48.91000
H  27.79700 -2.82600 45.10900
H  25.49900 0.64500 47.17900
H  24.58900 -0.28700 48.44400
H  24.05200 -0.16800 46.79500
Mg 53.24600 23.20300 44.25600
C  50.91000 25.56200 43.42600
C  51.02700 20.79000 43.09800
C  55.66400 20.88800 44.77200
C  55.45300 25.78300 45.00400
N  51.28500 23.22900 43.03900
C  50.53000 24.29600 42.92700
C  49.18100 23.87700 42.32600
C  48.99000 22.37800 42.65600
C  50.51600 22.11000 43.05500
C  48.08700 22.06700 43.83000
C  49.18100 24.12600 40.70900
C  47.74000 24.33600 40.11800
H  47.15800 23.24700 39.25700
N  53.36800 21.15900 43.90600
C  52.35500 20.35300 43.46200
C  52.71200 18.98100 43.52900
C  54.06400 18.97300 43.94000
C  54.44200 20.37900 44.25700
C  51.75000 17.79400 43.14800
C  54.86600 17.73500 43.90500
O  54.37700 16.70500 43.56300
C  56.27900 17.71100 44.27700
N  55.35500 23.26800 44.71500
C  56.11700 22.20800 44.96400
C  57.54600 22.64800 45.41400
C  57.42100 24.23400 45.55300
C  56.01800 24.48100 45.04800
C  58.20200 22.00100 46.61300
C  58.51600 25.08800 44.83800
C  59.70900 25.39400 45.80000
N  53.26500 25.23200 44.32000
C  54.21700 26.15700 44.72200
C  53.71100 27.44200 44.61100
C  52.38400 27.25800 44.17000
C  52.19700 25.91500 43.94200
C  54.35000 28.76400 44.89400
C  51.17900 27.93800 43.82000
O  50.90600 29.10900 43.92300
C  50.11800 26.86900 43.41700
C  49.57900 27.12700 42.05700
O  50.18200 27.32800 41.04600
O  48.21300 27.10500 42.18900
C  47.41500 27.78100 41.14900
H  50.22700 20.09100 42.84700
H  56.50200 20.18800 44.77400
H  56.05500 26.57100 45.46100
H  48.22700 24.31400 42.62000
H  48.77700 21.81900 41.74400
H  48.70000 21.59700 44.59900
H  47.30800 21.41700 43.43100
H  47.65900 22.96600 44.27500
H  49.57700 23.25100 40.19300
H  49.78000 24.98400 40.40100
H  47.75700 25.30700 39.62500
H  47.03500 24.45700 40.94100
H  52.10200 17.06300 42.42100
H  50.76800 18.12900 42.81400
H  51.49800 17.41400 44.13800
H  56.77000 17.94800 43.33400
H  56.51800 16.65700 44.42200
H  56.55600 18.25700 45.17900
H  58.20100 22.37000 44.58800
H  57.42200 24.43900 46.62300
H  57.70500 21.09000 46.94500
H  58.44500 22.58900 47.49900
H  59.23700 21.77600 46.35600
H  58.00400 26.01900 44.59400
H  58.85300 24.71300 43.87200
H  59.54000 24.90900 46.76100
H  59.79400 26.47500 45.91100
H  60.58400 24.97600 45.30300
H  54.10300 29.08100 45.90700
H  54.01500 29.55500 44.22200
H  55.43700 28.68600 44.87400
H  49.35300 26.80600 44.19000
H  46.90100 27.09300 40.47800
H  47.92600 28.59600 40.63500
H  46.60100 28.20400 41.73800

