158

Mg 39.85500 8.69000 28.59500
C  41.68300 9.78500 31.42800
C  37.69900 7.04400 30.95300
C  38.20400 7.27600 26.08000
C  42.48200 9.68800 26.61400
N  39.74700 8.42400 30.88400
C  40.50600 9.14700 31.80100
C  39.93700 9.08100 33.21200
C  38.94200 7.86600 33.07400
C  38.76600 7.75000 31.48800
C  39.40000 6.58200 33.77200
C  39.21300 10.37200 33.75200
C  39.60600 10.78900 35.19100
H  39.86800 12.32400 35.40700
N  38.06500 7.37200 28.49700
C  37.40300 6.87000 29.55900
C  36.34200 6.09000 29.09000
C  36.34200 6.20300 27.64600
C  37.58900 6.98500 27.33900
C  35.34300 5.49100 29.97700
C  35.39800 5.55600 26.61800
O  35.44600 5.78500 25.44200
C  34.19300 4.84100 27.11000
N  40.21900 8.60900 26.68100
C  39.31400 8.06100 25.80600
C  39.76900 8.21600 24.35900
C  41.07800 9.06100 24.53800
C  41.29800 9.11300 26.04700
C  40.10500 6.90300 23.53500
C  40.87000 10.47600 23.93700
C  40.05100 11.47800 24.67000
N  41.72800 9.49900 28.84000
C  42.66300 9.93000 27.95900
C  43.82400 10.47900 28.61900
C  43.40900 10.48800 29.98300
C  42.21200 9.76400 30.05400
C  45.07500 10.90500 27.90300
C  43.73100 11.01500 31.22600
O  44.76000 11.65800 31.59300
C  42.74100 10.51600 32.27200
C  43.45800 9.78400 33.38500
O  44.20900 8.85500 33.29700
O  43.25200 10.48700 34.56000
C  43.88700 9.99800 35.77400
H  37.14700 6.55800 31.76100
H  37.57000 6.80600 25.32500
H  43.22500 10.10300 25.93000
H  40.81500 8.89100 33.82900
H  37.95400 8.05200 33.49400
H  40.29600 6.73700 34.37300
H  39.45700 5.74400 33.07800
H  38.63000 6.34600 34.50700
H  38.13600 10.21700 33.67900
H  39.36400 11.12300 32.97600
H  40.52000 10.29900 35.52600
H  38.82300 10.38500 35.83200
H  35.15800 5.97900 30.93400
H  35.37600 4.40300 29.92900
H  34.39200 5.79900 29.54400
H  34.51900 4.09000 27.83000
H  33.57800 4.39200 26.33000
H  33.59300 5.58500 27.63400
H  38.94700 8.77500 23.91100
H  41.93300 8.47500 24.19900
H  41.14600 6.81800 23.22400
H  39.47700 6.95400 22.64500
H  39.98900 5.95800 24.06500
H  40.38000 10.28100 22.98300
H  41.84700 10.85300 23.63500
H  40.27500 11.35800 25.73000
H  38.99400 11.23200 24.57600
H  40.20900 12.50800 24.35100
H  45.73000 11.31700 28.67100
H  44.68600 11.69400 27.26000
H  45.59700 10.12200 27.35300
H  42.12800 11.33800 32.64100
H  43.25200 10.20600 36.63500
H  44.84600 10.49300 35.92300
H  44.05000 8.92200 35.71200
Mg 6.79800 53.95500 41.65700
C  6.18200 50.51000 41.55500
C  10.04300 53.38200 40.49300
C  6.93300 57.18100 40.81700
C  3.32000 54.30600 42.31700
N  7.82700 52.12700 40.90900
C  7.49000 50.84300 41.10600
C  8.69200 49.89600 40.96600
C  9.81800 50.92400 41.14600
C  9.19800 52.21900 40.75600
C  10.65400 51.00300 42.49300
C  8.74100 48.95800 39.63800
C  8.78800 49.79700 38.35600
H  7.76200 49.40800 37.27200
N  8.23600 55.13800 40.73500
C  9.54800 54.67700 40.36900
C  10.26000 55.80200 39.91600
C  9.33600 56.88200 39.76600
C  8.08700 56.43400 40.42100
C  11.66400 55.75200 39.29700
C  9.62100 58.17300 39.07600
O  10.73900 58.35900 38.62000
C  8.42500 59.20300 38.82200
N  5.34600 55.43500 41.59100
C  5.77100 56.71200 41.35300
C  4.58100 57.78400 41.65600
C  3.37200 56.79600 41.64200
C  4.04100 55.47900 41.87400
C  4.83000 58.49400 43.03300
C  2.35100 56.72200 40.48700
C  0.91200 56.38000 40.85100
N  5.12800 52.75200 42.09100
C  3.80900 53.01800 42.46000
C  3.04600 51.78200 42.76500
C  3.98300 50.78500 42.34600
C  5.18900 51.42000 41.90100
C  1.67100 51.63000 43.21200
C  4.12500 49.37500 42.25500
O  3.28500 48.52600 42.57500
C  5.58700 49.06400 41.73800
C  5.39200 48.39400 40.49200
O  4.85600 48.92300 39.48800
O  5.75300 47.14500 40.59500
C  5.51900 46.20700 39.41500
H  11.12900 53.26800 40.48300
H  6.90600 58.27200 40.77700
H  2.25900 54.43900 42.53700
H  8.62600 49.14900 41.75700
H  10.55200 50.65300 40.38700
H  10.71200 52.01300 42.89800
H  11.66700 50.61300 42.39100
H  10.24200 50.37300 43.28100
H  7.93700 48.22300 39.65500
H  9.67200 48.39400 39.69400
H  9.76600 49.79500 37.87400
H  8.74000 50.86100 38.59000
H  11.61300 55.98600 38.23400
H  12.16000 54.79000 39.41900
H  12.23100 56.58900 39.70400
H  7.61200 58.55700 38.48900
H  8.70400 59.83100 37.97600
H  8.25000 59.74300 39.75300
H  4.45000 58.56500 40.90600
H  2.81000 56.94500 42.56400
H  3.88000 58.50200 43.56700
H  5.15000 59.53500 42.97400
H  5.45900 57.97700 43.75800
H  2.57300 55.86700 39.84700
H  2.45300 57.63000 39.89300
H  0.90500 56.01600 41.87900
H  0.60400 55.53000 40.24200
H  0.30400 57.23500 40.55600
H  1.58600 50.66200 43.70600
H  1.14800 51.55900 42.25800
H  1.56400 52.51200 43.84200
H  6.24000 48.40000 42.30400
H  6.48000 45.74500 39.19100
H  5.25200 46.63300 38.44800
H  4.69200 45.52800 39.62400

