158

Mg 1.96200 -1.94600 44.53200
C  5.09800 -0.67600 44.03100
C  0.64300 0.49700 42.56100
C  -1.04700 -3.53600 44.73200
C  3.37400 -4.69000 46.19200
N  2.83700 -0.29600 43.40600
C  4.13100 0.07200 43.32600
C  4.33500 1.23400 42.43300
C  2.87200 1.67600 42.13700
C  2.02900 0.52800 42.67100
C  2.46500 3.05600 42.69500
C  5.10400 0.95200 41.08800
C  6.07300 2.12400 40.58800
H  5.77900 2.89000 39.34900
N  0.04100 -1.59700 43.61300
C  -0.32000 -0.47200 42.96300
C  -1.81400 -0.49300 42.76900
C  -2.27800 -1.77400 43.21200
C  -1.08100 -2.35200 43.88800
C  -2.62200 0.65600 41.97800
C  -3.63500 -2.41800 43.05100
O  -4.58500 -1.80100 42.55800
C  -3.88300 -3.86400 43.36500
N  1.25500 -3.97600 45.21000
C  -0.04200 -4.25400 45.35600
C  -0.26800 -5.65000 45.90600
C  1.15100 -5.98100 46.47400
C  1.99800 -4.83000 45.94000
C  -1.38400 -5.66300 46.91900
C  1.73100 -7.35500 46.08900
C  2.54400 -8.04500 47.23900
N  3.84000 -2.58300 45.07000
C  4.25000 -3.73100 45.76100
C  5.69800 -3.65200 45.90100
C  6.03700 -2.50400 45.21300
C  4.92700 -1.85300 44.79700
C  6.37800 -4.67800 46.59100
C  7.12900 -1.63300 44.81900
O  8.34800 -1.76800 45.01200
C  6.59100 -0.49500 43.98900
C  7.09200 0.80400 44.58900
O  6.97200 1.14300 45.74200
O  7.59700 1.55000 43.64200
C  8.18900 2.84700 43.98900
H  0.20700 1.35500 42.04400
H  -2.02200 -3.98400 44.93300
H  3.69600 -5.51300 46.83400
H  4.77600 2.05800 42.99400
H  2.66100 1.80200 41.07500
H  2.30200 3.75800 41.87700
H  3.23900 3.45400 43.35100
H  1.51700 2.86400 43.19800
H  4.35300 0.88200 40.30100
H  5.63100 0.00000 41.15200
H  7.05000 1.70000 40.35300
H  6.17200 2.91800 41.32800
H  -3.34000 1.06900 42.68600
H  -3.02500 0.28400 41.03600
H  -2.02700 1.53200 41.72100
H  -2.96500 -4.36700 43.06100
H  -4.70200 -4.27100 42.77200
H  -4.12600 -4.05400 44.41100
H  -0.57400 -6.33200 45.11300
H  1.10100 -5.87200 47.55800
H  -2.12200 -6.41700 46.64500
H  -1.94900 -4.73800 47.03700
H  -1.08400 -5.91000 47.93700
H  2.30100 -7.29900 45.16100
H  0.88000 -7.98400 45.82700
H  3.55100 -8.38700 47.00100
H  1.95700 -8.91700 47.52900
H  2.54200 -7.37000 48.09500
H  6.68500 -5.39400 45.82800
H  5.73400 -5.06300 47.38200
H  7.31100 -4.36600 47.05900
H  6.98800 -0.60700 42.98000
H  9.10100 2.96300 43.40300
H  8.47400 3.01100 45.02800
H  7.57100 3.69000 43.67800
Mg 1.94400 41.64700 24.97600
C  2.57900 41.98300 28.44700
C  -1.14000 40.65500 25.83900
C  1.43700 40.90700 21.79800
C  5.31100 42.40700 24.39600
N  0.79200 41.47900 26.95100
C  1.28400 41.68500 28.23000
C  0.18700 41.58000 29.28300
C  -1.02600 40.92500 28.44000
C  -0.43200 40.97500 26.98000
C  -1.51800 39.47800 28.92600
C  -0.10800 42.98600 29.82600
C  -0.13600 43.04900 31.39500
H  -0.87500 41.91300 32.17200
N  0.31800 41.03400 23.93400
C  -0.84800 40.69300 24.44600
C  -1.75800 40.29100 23.36500
C  -1.04900 40.25500 22.15800
C  0.27700 40.69600 22.54600
C  -3.24400 40.09000 23.57700
C  -1.50600 39.89700 20.78000
O  -0.69400 39.84200 19.84100
C  -2.98000 39.68500 20.43700
N  3.18600 41.68100 23.35600
C  2.72600 41.34300 22.13300
C  3.86600 41.57800 21.04900
C  5.02300 42.21500 21.85500
C  4.47100 42.14500 23.25400
C  4.37200 40.30500 20.21400
C  5.36200 43.69200 21.45500
C  5.86000 43.81300 20.02000
N  3.66000 42.14800 26.10600
C  4.94100 42.46900 25.72700
C  5.74300 42.78300 26.93100
C  4.86400 42.53200 27.97200
C  3.63200 42.24400 27.49800
C  7.19300 43.15600 26.93700
C  4.77900 42.55700 29.44600
O  5.59200 42.59500 30.36800
C  3.30700 42.08100 29.79200
C  3.28600 40.78400 30.49400
O  3.90700 39.75900 30.15300
O  2.45600 40.85500 31.54000
C  2.26400 39.56300 32.27600
H  -2.14300 40.27900 26.05400
H  1.45700 40.70700 20.72400
H  6.35400 42.65200 24.18100
H  0.40200 40.78900 30.00100
H  -1.89600 41.57500 28.53300
H  -2.45400 39.67400 29.45000
H  -0.76700 39.01500 29.56700
H  -1.71500 38.88900 28.03000
H  -1.04100 43.43100 29.48000
H  0.78600 43.51900 29.50200
H  -0.63600 43.98000 31.65900
H  0.86900 43.11000 31.81200
H  -3.84500 40.82400 23.03900
H  -3.49000 40.00700 24.63500
H  -3.59100 39.14300 23.16400
H  -3.25100 38.68900 20.78400
H  -3.01300 39.66200 19.34800
H  -3.64100 40.46900 20.80600
H  3.56900 42.28300 20.27300
H  5.89400 41.57200 21.73400
H  4.16100 39.39600 20.77700
H  5.43700 40.39400 19.99600
H  3.99800 40.14800 19.20200
H  6.09600 44.13700 22.12700
H  4.48600 44.29900 21.68300
H  5.04100 44.37100 19.56500
H  5.99600 42.86900 19.49300
H  6.67700 44.51100 19.83700
H  7.74800 42.37900 27.46200
H  7.38100 44.02100 27.57200
H  7.58700 43.16800 25.92000
H  2.85600 42.83300 30.44100
H  2.94400 39.38600 33.10900
H  2.42300 38.67200 31.67000
H  1.29000 39.53900 32.76500

