158

Mg -2.49400 16.28400 26.57500
C  -2.86300 14.14700 29.16600
C  -3.57700 18.82400 28.49700
C  -2.00600 18.30600 23.88700
C  -1.99600 13.53400 24.40900
N  -3.15700 16.41600 28.57700
C  -3.16300 15.42500 29.44700
C  -3.62100 15.91000 30.82800
C  -3.95500 17.41800 30.58100
C  -3.59800 17.58800 29.13200
C  -5.40000 17.86100 30.84300
C  -2.61100 15.50300 32.07900
C  -2.68600 16.41600 33.28500
H  -1.48000 16.26600 34.34300
N  -2.65400 18.33300 26.27900
C  -3.14900 19.18200 27.17400
C  -3.20900 20.48900 26.56000
C  -2.49700 20.34700 25.32200
C  -2.29700 18.93400 25.13800
C  -3.69800 21.78200 27.28800
C  -2.02300 21.44700 24.36600
O  -1.41700 21.20600 23.31700
C  -2.26800 22.87400 24.65800
N  -2.26400 15.96900 24.32100
C  -2.03400 16.98800 23.50300
C  -1.86900 16.39800 22.06700
C  -1.44200 14.94300 22.29500
C  -1.97900 14.73700 23.72900
C  -3.13200 16.64000 21.14600
C  -0.04900 14.56200 22.21300
C  0.60100 14.77700 20.81200
N  -2.55800 14.28300 26.63800
C  -2.29400 13.22900 25.72300
C  -2.35200 11.94800 26.36500
C  -2.42000 12.28400 27.71400
C  -2.59500 13.67800 27.84600
C  -2.25500 10.50200 25.65600
C  -2.39400 11.65700 28.97300
O  -2.18300 10.49600 29.35000
C  -2.74100 12.87100 30.05600
C  -1.64000 12.83900 31.02600
O  -0.56400 13.37800 30.88800
O  -1.94600 12.00500 32.07300
C  -1.04100 12.04800 33.21900
H  -3.90500 19.69100 29.07400
H  -1.83500 18.92500 23.00400
H  -1.69700 12.71100 23.75700
H  -4.51600 15.31700 31.01400
H  -3.42700 18.21400 31.10700
H  -5.42200 18.83700 31.32700
H  -5.97800 17.18700 31.47400
H  -5.94200 17.86900 29.89700
H  -1.56000 15.45700 31.79100
H  -3.12500 14.60100 32.40900
H  -3.46700 16.06600 33.95900
H  -2.76400 17.47000 33.01800
H  -4.47100 22.40400 26.83700
H  -2.87000 22.47900 27.42200
H  -4.05100 21.49800 28.27900
H  -3.33600 23.05900 24.77800
H  -1.76600 23.46100 23.88800
H  -1.70600 23.09700 25.56500
H  -0.94200 16.88200 21.75900
H  -1.84900 14.24600 21.56200
H  -3.44500 17.65800 21.37500
H  -3.87900 15.87100 21.34400
H  -2.80300 16.59100 20.10800
H  -0.00900 13.50400 22.47300
H  0.51500 15.17300 22.91800
H  1.30700 15.59700 20.94000
H  -0.07100 15.11700 20.02400
H  1.12900 13.86800 20.52800
H  -3.06700 9.88800 26.04400
H  -1.33600 10.07000 26.05300
H  -2.24000 10.70700 24.58500
H  -3.74000 12.54000 30.34100
H  -1.56500 12.10700 34.17200
H  -0.30200 12.84600 33.15100
H  -0.59700 11.05200 33.24400
Mg 47.09400 24.43500 28.39700
C  47.75400 26.73600 31.01600
C  45.90500 22.20500 30.71800
C  47.07200 22.25900 25.87900
C  48.68000 26.85600 26.17800
N  46.77600 24.53100 30.70000
C  47.12000 25.53500 31.52500
C  46.70300 25.18200 32.96300
C  46.19500 23.69000 32.83400
C  46.27400 23.41100 31.34300
C  46.97500 22.74500 33.82800
C  45.71300 26.24200 33.61500
C  46.15100 26.72000 35.08700
H  45.05500 26.76600 36.18400
N  46.52500 22.54700 28.30800
C  46.06100 21.80800 29.38500
C  45.78500 20.47000 28.82600
C  46.15800 20.42700 27.40400
C  46.57200 21.78900 27.09300
C  45.04700 19.34300 29.53600
C  46.01500 19.23000 26.45200
O  46.36000 19.40000 25.30700
C  45.30500 17.91800 26.78100
N  47.91700 24.48800 26.31100
C  47.72100 23.43900 25.50200
C  48.40400 23.70400 24.16800
C  48.44400 25.28000 24.13300
C  48.33200 25.59200 25.59800
C  49.70200 22.88000 23.97100
C  47.16400 25.92100 23.37900
C  46.77800 27.40100 23.41400
N  47.96900 26.33800 28.51500
C  48.49700 27.17600 27.55800
C  48.84600 28.42400 28.18600
C  48.69300 28.19900 29.51500
C  48.04800 26.96100 29.66900
C  49.50300 29.59900 27.49600
C  48.91300 28.87300 30.78300
O  49.42700 29.90500 31.17400
C  48.28000 27.87200 31.79900
C  49.36600 27.37600 32.72600
O  50.26100 26.57800 32.46500
O  49.10800 27.74400 33.99900
C  50.07500 27.19400 35.00400
H  45.51400 21.52200 31.47600
H  47.13500 21.55500 25.04700
H  49.07400 27.68000 25.58000
H  47.66200 25.29400 33.46900
H  45.14300 23.70500 33.12000
H  46.25400 22.18700 34.42500
H  47.62200 23.23700 34.55400
H  47.58400 22.01300 33.29700
H  44.73700 25.79500 33.80300
H  45.63200 27.17600 33.05900
H  46.64000 27.69100 35.01900
H  46.89600 26.04900 35.51600
H  45.65800 18.45500 29.37600
H  43.96200 19.31100 29.44100
H  45.15600 19.65100 30.57600
H  46.04000 17.38200 27.38200
H  45.09300 17.44400 25.82300
H  44.41300 18.11100 27.37700
H  47.66200 23.36200 23.44700
H  49.41200 25.56000 23.71600
H  49.59200 22.23800 23.09700
H  50.06900 22.35200 24.85200
H  50.59100 23.47800 23.77000
H  46.31900 25.38700 23.81300
H  47.08600 25.62500 22.33300
H  45.82000 27.47700 23.92800
H  46.71700 27.75300 22.38400
H  47.51700 28.00500 23.93900
H  48.98600 29.62800 26.53700
H  50.59200 29.55100 27.48500
H  49.06300 30.42100 28.06200
H  47.46900 28.38000 32.32200
H  50.04700 26.11700 35.16800
H  49.89100 27.64200 35.98100
H  51.11200 27.44700 34.77900

