158

Mg 2.60000 -0.95100 44.58500
C  5.82600 -0.60500 43.38300
C  1.50700 1.51300 42.42500
C  -0.52800 -1.88000 45.22100
C  3.76300 -3.82800 46.21600
N  3.62000 0.38000 43.07200
C  4.92300 0.30000 42.67100
C  5.21800 1.53700 41.80800
C  3.85000 2.31700 41.79800
C  2.91400 1.38600 42.46100
C  3.86100 3.75400 42.24100
C  5.87800 1.17900 40.39900
C  6.91300 2.16800 39.89900
H  6.48600 2.94100 38.62100
N  0.72900 -0.14800 44.05300
C  0.41500 0.87800 43.16000
C  -1.04100 1.06600 42.99600
C  -1.63200 0.15200 43.92400
C  -0.47000 -0.67400 44.50600
C  -1.54700 2.25400 42.13200
C  -3.02500 0.07200 44.22000
O  -3.81000 0.94600 43.87700
C  -3.64000 -1.05500 45.01500
N  1.72400 -2.64000 45.59800
C  0.36500 -2.76800 45.72600
C  0.05200 -4.20000 46.12300
C  1.41800 -4.80200 46.54400
C  2.40600 -3.72100 46.05600
C  -0.96700 -4.12000 47.27800
C  1.70200 -6.25400 46.06700
C  2.47800 -7.23100 46.94400
N  4.46200 -1.90600 44.93500
C  4.78800 -3.04000 45.66700
C  6.28500 -3.19900 45.71000
C  6.67200 -2.23900 44.81200
C  5.54100 -1.55800 44.34300
C  7.12100 -4.11200 46.47000
C  7.84300 -1.75500 44.13000
O  9.03200 -2.12300 44.14300
C  7.36200 -0.59600 43.19000
C  8.00400 0.65200 43.68900
O  7.50400 1.37900 44.52700
O  9.20600 0.88000 43.03200
C  9.76700 2.23500 43.31100
H  1.12900 2.34700 41.82900
H  -1.55200 -2.15900 45.47800
H  4.03800 -4.76000 46.71500
H  5.96600 2.20100 42.24000
H  3.64500 2.25300 40.72900
H  3.84500 4.45300 41.40400
H  4.82100 3.88600 42.74100
H  3.11800 3.98700 43.00300
H  5.12300 1.14700 39.61300
H  6.44300 0.25000 40.46300
H  7.80200 1.54100 39.83500
H  7.08600 2.98300 40.60200
H  -2.48700 1.98300 41.65300
H  -0.88600 2.41300 41.28000
H  -1.71700 3.13700 42.74800
H  -4.72400 -0.96200 44.95900
H  -3.37800 -1.06400 46.07300
H  -3.41000 -2.03400 44.59400
H  -0.33500 -4.72900 45.25200
H  1.45600 -4.81000 47.63400
H  -1.20300 -3.07000 47.45200
H  -0.64100 -4.55600 48.22200
H  -1.84700 -4.73400 47.08800
H  2.24000 -6.19600 45.12100
H  0.72700 -6.63300 45.75800
H  1.83900 -8.06500 47.23300
H  2.91400 -6.80600 47.84900
H  3.18000 -7.79000 46.32600
H  8.09200 -3.64500 46.63800
H  7.21400 -5.06000 45.94100
H  6.66600 -4.29000 47.44400
H  7.63300 -0.64300 42.13600
H  8.97400 2.98200 43.30800
H  10.54900 2.51700 42.60500
H  10.18900 2.24400 44.31600
Mg 40.75100 9.53600 29.11000
C  42.58500 10.72000 31.80600
C  38.59700 7.92300 31.11700
C  39.43500 8.18000 26.44400
C  43.56400 10.54000 27.04900
N  40.70900 9.29900 31.20200
C  41.48500 9.99800 32.18200
C  40.88100 9.78500 33.57000
C  39.66600 8.80300 33.28400
C  39.68800 8.59500 31.80800
C  39.59500 7.58600 34.29700
C  40.43200 11.14500 34.22900
C  39.50300 11.01400 35.41800
H  39.87600 11.59500 36.79700
N  39.17200 8.26800 28.83200
C  38.34000 7.74900 29.76500
C  37.27100 7.05100 29.12300
C  37.52300 7.02100 27.73000
C  38.72500 7.85800 27.62500
C  36.04700 6.47900 29.85300
C  36.73100 6.50100 26.62100
O  37.07200 6.81800 25.47700
C  35.58400 5.52300 26.80200
N  41.43000 9.40100 27.04900
C  40.58700 8.87700 26.13400
C  41.09900 8.93600 24.67500
C  42.49400 9.65900 24.89200
C  42.53600 9.90500 26.43300
C  41.16800 7.49900 24.02200
C  42.74200 10.85100 23.96600
C  42.15600 12.23100 24.37200
N  42.65900 10.54800 29.28900
C  43.63400 10.86400 28.42000
C  44.69600 11.60100 29.04900
C  44.30100 11.45800 30.37500
C  43.06600 10.81400 30.46500
C  45.88200 12.13200 28.42400
C  44.78600 11.72800 31.68900
O  45.85500 12.14500 32.09300
C  43.64100 11.35500 32.69800
C  44.08500 10.29400 33.72700
O  44.49600 9.17300 33.49400
O  44.02100 10.86000 34.97400
C  44.62200 10.13600 36.03700
H  37.83600 7.44700 31.73800
H  39.04700 7.80200 25.49600
H  44.41100 10.75200 26.39300
H  41.66300 9.19300 34.04500
H  38.68800 9.27800 33.35700
H  38.70900 7.55800 34.93200
H  40.43900 7.61100 34.98700
H  39.68400 6.66200 33.72500
H  40.05000 11.94900 33.60000
H  41.36000 11.59700 34.57800
H  39.23900 9.96100 35.51600
H  38.68200 11.67400 35.13700
H  35.10600 6.59800 29.31700
H  36.05300 6.97300 30.82500
H  36.17200 5.39600 29.86100
H  35.59900 4.80800 25.97900
H  34.59500 5.97900 26.83300
H  35.84500 4.91400 27.66700
H  40.42300 9.57500 24.10800
H  43.31000 8.94800 24.76100
H  40.39600 7.27300 23.28600
H  41.20600 6.67800 24.73800
H  42.14800 7.40200 23.55400
H  42.25200 10.54500 23.04200
H  43.81400 10.96800 23.80600
H  41.59000 12.62500 23.52800
H  43.03400 12.85100 24.55000
H  41.47500 12.20100 25.22300
H  45.69900 12.96700 27.74800
H  46.53000 11.39600 27.94800
H  46.44000 12.56400 29.25500
H  43.28600 12.22100 33.25800
H  43.84200 9.79000 36.71500
H  45.17500 10.91300 36.56500
H  45.26500 9.30400 35.75200

