158

Mg 42.00400 41.26800 27.17000
C  41.40100 43.80500 29.39200
C  42.82400 39.29400 29.76200
C  42.83700 38.83200 24.94100
C  41.55800 43.48000 24.57100
N  42.31900 41.58200 29.33200
C  41.74400 42.63200 30.05900
C  41.68700 42.36600 31.61600
C  42.48400 41.02700 31.72500
C  42.52700 40.56100 30.24300
C  43.85400 40.84300 32.47900
C  40.24700 42.37400 32.21300
C  39.94400 43.36500 33.36100
H  39.31500 42.76900 34.58500
N  42.75700 39.30300 27.31000
C  42.92600 38.62600 28.50500
C  43.18600 37.23800 28.20100
C  43.23300 37.05700 26.79000
C  42.90900 38.41300 26.28200
C  43.42600 36.21700 29.35900
C  43.58000 35.78900 25.95500
O  43.78400 35.82100 24.75700
C  43.91400 34.46500 26.57100
N  42.33100 41.25400 25.06100
C  42.50300 40.08600 24.41500
C  42.33200 40.23000 22.90100
C  41.85800 41.69900 22.72000
C  41.92000 42.18000 24.18300
C  43.50700 39.68800 22.04000
C  40.52100 41.91900 21.91600
C  39.24700 42.18300 22.70000
N  41.72600 43.28400 26.95900
C  41.53300 44.03500 25.85100
C  41.11200 45.41500 26.27900
C  41.01200 45.34300 27.64100
C  41.42800 44.02400 27.99400
C  40.61300 46.52500 25.29800
C  40.70000 46.08400 28.75400
O  40.16400 47.18500 28.90000
C  40.83900 45.11400 29.96300
C  41.51900 45.87500 31.05400
O  42.70300 46.24900 31.08500
O  40.54300 46.22100 31.96300
C  40.98100 46.72400 33.26900
H  42.94500 38.73300 30.69200
H  42.98100 38.04900 24.19300
H  41.21200 44.04000 23.70100
H  42.20200 43.11000 32.22500
H  41.78100 40.31800 32.16300
H  44.71600 40.97400 31.82400
H  43.75900 39.91100 33.03500
H  43.88700 41.64700 33.21400
H  39.97300 41.35800 32.49700
H  39.57600 42.46000 31.35900
H  39.22600 44.13300 33.07500
H  40.86400 43.82200 33.72600
H  43.74700 36.64300 30.31000
H  44.23100 35.49700 29.21400
H  42.50200 35.63900 29.38200
H  43.02000 34.33200 27.18100
H  44.79500 34.36100 27.20500
H  43.95100 33.63300 25.86800
H  41.45100 39.60200 22.76900
H  42.53500 42.21700 22.04100
H  43.70300 40.44400 21.28000
H  43.25500 38.72500 21.59500
H  44.42700 39.55600 22.61100
H  40.49600 41.09100 21.20700
H  40.88400 42.79300 21.37500
H  39.40000 41.79000 23.70500
H  38.36500 41.64000 22.36000
H  38.99000 43.23000 22.53800
H  39.82000 46.22100 24.61500
H  41.38400 47.10300 24.78900
H  40.14000 47.26700 25.94100
H  39.94600 44.81900 30.51400
H  41.88100 47.32700 33.14600
H  40.99900 45.96700 34.05300
H  40.11700 47.37500 33.40300
Mg 0.73500 42.98900 25.73100
C  2.35900 43.77500 28.82400
C  -2.15000 42.13400 27.49300
C  -0.50300 41.99900 22.94300
C  3.88800 43.60700 24.21700
N  0.19600 42.96900 27.95000
C  0.96700 43.35000 29.01100
C  0.25500 43.02600 30.33500
C  -1.12200 42.38000 29.85400
C  -1.04400 42.57500 28.31800
C  -1.24700 40.88600 30.20900
C  0.18000 44.38900 31.10700
C  0.65600 44.44400 32.62600
H  0.12800 43.30900 33.61800
N  -1.09400 42.19900 25.31500
C  -2.22600 41.92700 26.11700
C  -3.33900 41.32600 25.35500
C  -2.75900 41.22800 24.01100
C  -1.39900 41.83000 24.03500
C  -4.64800 40.78500 25.87500
C  -3.38200 40.64500 22.82000
O  -2.75300 40.57400 21.78100
C  -4.81300 40.20200 22.72000
N  1.58600 42.77800 23.86300
C  0.79600 42.46200 22.81400
C  1.54500 42.57400 21.46400
C  2.91600 43.15600 21.89600
C  2.82900 43.23800 23.40400
C  1.70500 41.21100 20.82300
C  3.27200 44.53000 21.26600
C  2.87900 45.86200 21.88700
N  2.70600 43.66400 26.37600
C  3.86700 43.85800 25.60100
C  4.98200 44.34900 26.49800
C  4.44100 44.24700 27.76000
C  3.08800 43.96800 27.59900
C  6.40800 44.54700 26.06100
C  4.75500 44.29700 29.16800
O  5.82900 44.47000 29.78000
C  3.39300 43.94300 29.88200
C  3.68200 42.73000 30.66200
O  3.88900 41.61100 30.21500
O  3.65900 42.98000 32.03200
C  3.92300 41.73700 32.80400
H  -2.99400 41.72300 28.05000
H  -0.83400 41.79800 21.92200
H  4.81500 43.91000 23.72500
H  0.87100 42.29300 30.85500
H  -2.01200 42.88000 30.23600
H  -2.09100 40.61900 30.84500
H  -0.40200 40.62200 30.84400
H  -1.34800 40.31100 29.28900
H  -0.88400 44.61800 31.05000
H  0.67800 45.21800 30.60400
H  0.31800 45.36700 33.09700
H  1.74000 44.44900 32.73200
H  -4.68000 39.70600 25.72900
H  -5.51100 41.32000 25.47900
H  -4.75400 40.90100 26.95400
H  -4.92800 39.69600 21.76200
H  -5.40100 41.11900 22.67100
H  -5.05400 39.36400 23.37400
H  0.88900 43.14100 20.80500
H  3.71900 42.42800 21.78400
H  0.94600 41.05400 20.05700
H  1.67000 40.44100 21.59400
H  2.66600 41.20500 20.31000
H  2.98000 44.40900 20.22300
H  4.35900 44.51100 21.19000
H  2.13300 45.71400 22.66800
H  2.44500 46.46000 21.08600
H  3.77700 46.39400 22.20100
H  6.57700 45.62400 26.05300
H  6.68100 44.01200 25.15200
H  7.02100 44.14100 26.86500
H  3.15900 44.62500 30.69900
H  4.90100 41.37000 32.49400
H  3.23500 40.91400 32.61100
H  3.94500 42.03700 33.85200

