158

Mg -1.81800 17.27100 27.02000
C  -2.00300 15.20100 29.77300
C  -1.94300 19.90800 29.23400
C  -2.19900 19.27900 24.47100
C  -2.29100 14.44400 24.97600
N  -1.79800 17.53200 29.21400
C  -1.98000 16.53000 30.13400
C  -2.03400 17.08600 31.61000
C  -2.28400 18.62800 31.35000
C  -1.95500 18.69800 29.84100
C  -3.63800 19.15200 31.81400
C  -0.78000 16.72400 32.41200
C  -0.29100 17.66700 33.56700
H  -0.05000 16.81700 34.84600
N  -1.97400 19.39600 26.87100
C  -1.90500 20.30300 27.87400
C  -1.84700 21.63300 27.35500
C  -1.97800 21.48800 25.92400
C  -2.01500 20.02800 25.68500
C  -1.77900 22.93000 28.16600
C  -2.06500 22.60300 24.87500
O  -2.25500 22.25700 23.68800
C  -2.19000 24.08100 25.25400
N  -2.27700 16.87800 25.02600
C  -2.38500 17.93800 24.14300
C  -2.71800 17.42300 22.71000
C  -2.37400 15.88900 22.89200
C  -2.46500 15.69600 24.39400
C  -4.04800 17.80100 22.13700
C  -1.11400 15.32600 22.11100
C  0.16800 15.28200 23.01100
N  -1.92500 15.22000 27.21200
C  -2.19900 14.22000 26.30900
C  -2.29200 12.95700 27.02700
C  -2.23000 13.26600 28.40800
C  -2.04300 14.67400 28.44700
C  -2.68900 11.60800 26.43400
C  -2.38000 12.77300 29.68200
O  -2.45100 11.57700 30.04300
C  -2.29000 14.01000 30.64800
C  -1.21600 13.51800 31.57800
O  -0.00000 13.45600 31.30400
O  -1.79800 13.09900 32.74900
C  -0.80600 12.33400 33.58500
H  -2.08700 20.65300 30.01800
H  -2.34700 19.95100 23.62300
H  -2.45000 13.58600 24.32000
H  -2.88800 16.60600 32.08700
H  -1.52800 19.32200 31.71700
H  -4.10300 19.56900 30.92100
H  -3.57000 19.94100 32.56300
H  -4.27200 18.42300 32.31800
H  0.07400 16.64100 31.74000
H  -0.99300 15.76600 32.88600
H  -1.04100 18.45200 33.66700
H  0.63300 18.14600 33.24200
H  -2.56700 23.60300 27.82700
H  -0.81700 23.39300 27.94700
H  -1.83600 22.66200 29.22100
H  -1.23700 24.30600 25.73300
H  -3.10800 24.17100 25.83400
H  -2.28900 24.79800 24.43900
H  -2.08900 17.90400 21.96000
H  -3.18700 15.31300 22.45000
H  -3.84700 18.10700 21.11000
H  -4.55300 18.60200 22.67800
H  -4.71200 16.93600 22.12900
H  -0.84100 15.92500 21.24200
H  -1.27600 14.31200 21.74700
H  0.10800 15.63000 24.04200
H  1.07000 15.82300 22.72300
H  0.51600 14.25700 23.14100
H  -2.43400 10.90200 27.22400
H  -2.03500 11.24100 25.64300
H  -3.72600 11.51700 26.11000
H  -3.25600 14.05300 31.15000
H  -0.27700 11.55800 33.03200
H  -1.54300 11.88000 34.24800
H  -0.17400 12.95600 34.22000
Mg 47.34100 25.08600 29.20200
C  48.27000 27.24900 31.82900
C  46.02200 22.93900 31.64300
C  46.71900 22.88400 26.66900
C  48.82500 27.16600 26.92300
N  47.26800 25.05200 31.58400
C  47.63000 26.09800 32.36600
C  47.23200 25.87800 33.83900
C  46.73600 24.38900 33.74900
C  46.52200 24.13200 32.22100
C  47.62800 23.37600 34.36400
C  46.07300 26.80500 34.24500
C  46.30100 27.64700 35.49300
H  46.85600 26.93600 36.71300
N  46.48400 23.22800 29.11400
C  46.03700 22.49900 30.28100
C  45.47400 21.18600 29.76600
C  45.62000 21.20200 28.35100
C  46.36700 22.50000 28.02800
C  44.96300 20.19600 30.75200
C  45.09400 20.13300 27.29500
O  45.23300 20.29600 26.11000
C  44.37400 18.99600 27.87400
N  48.02200 24.86600 27.14100
C  47.50700 23.96800 26.34000
C  47.99400 24.15900 24.91700
C  48.30700 25.65200 24.85100
C  48.42500 25.92900 26.36900
C  49.20800 23.25700 24.50300
C  47.14400 26.46100 24.26900
C  47.63000 27.83600 23.75100
N  48.26600 26.82300 29.33300
C  48.84100 27.63300 28.29500
C  49.32700 28.81100 28.85100
C  49.11300 28.67400 30.24300
C  48.49800 27.43800 30.51200
C  50.16300 29.78600 28.10300
C  49.32500 29.37500 31.52000
O  49.83600 30.43000 31.71800
C  48.80000 28.46300 32.59700
C  49.84700 28.10700 33.50700
O  50.75900 27.25800 33.35100
O  49.70500 28.81400 34.69500
C  50.87300 28.93300 35.63100
H  45.51900 22.37400 32.43100
H  46.42000 22.21600 25.85800
H  49.00600 28.00800 26.25100
H  48.09300 25.98900 34.49900
H  45.78000 24.29800 34.26600
H  48.66800 23.60200 34.12700
H  47.45400 22.39700 33.91900
H  47.52000 23.38800 35.44900
H  45.14900 26.22800 34.28400
H  45.91400 27.44500 33.37700
H  45.39700 28.23200 35.66400
H  46.94900 28.49800 35.28300
H  43.92300 20.48500 30.89900
H  45.41600 20.28900 31.74000
H  45.05100 19.14600 30.47200
H  45.13200 18.45800 28.44400
H  44.11800 18.36900 27.02000
H  43.43200 19.31100 28.32300
H  47.18500 23.86600 24.24800
H  49.29300 25.87900 24.44600
H  50.10000 23.88100 24.46100
H  49.13200 22.80700 23.51300
H  49.30600 22.49200 25.27300
H  46.35200 26.58900 25.00700
H  46.80400 25.96400 23.36000
H  48.71600 27.86400 23.67000
H  47.23400 28.75200 24.19000
H  47.23900 27.86000 22.73400
H  49.57200 30.45800 27.48100
H  50.93800 29.31800 27.49700
H  50.58700 30.38700 28.90700
H  48.00300 29.05500 33.04800
H  51.68900 28.25000 35.39600
H  50.54200 28.55600 36.59800
H  51.18800 29.96400 35.79600

