158

Mg 29.99900 58.19600 40.00800
C  27.03400 56.37600 39.28900
C  31.77900 55.88800 38.16400
C  32.64700 60.25600 39.94300
C  28.00800 60.82800 40.97500
N  29.41800 56.31200 38.94200
C  28.18200 55.71700 38.77100
C  28.24900 54.36600 38.05500
C  29.77500 54.21000 37.92100
C  30.36200 55.58800 38.29500
C  30.34600 52.99700 38.70200
C  27.60900 54.22100 36.60600
C  27.18000 55.49100 35.90200
H  27.56900 55.59900 34.40100
N  32.00800 57.94100 39.43700
C  32.55300 56.92500 38.70400
C  33.93600 57.08600 38.54000
C  34.26000 58.35000 39.07400
C  32.96200 58.91900 39.54800
C  34.90200 56.08600 37.93500
C  35.67700 58.99600 39.10500
O  36.65000 58.47400 38.60700
C  35.86400 60.29300 39.84700
N  30.27700 60.20700 40.31700
C  31.50000 60.77000 40.39800
C  31.40500 62.25400 40.95500
C  29.88500 62.35600 41.23000
C  29.36100 61.05900 40.76900
C  32.39300 62.52700 42.13200
C  29.25200 63.63600 40.52000
C  28.12300 64.36500 41.24500
N  27.87800 58.57000 40.28000
C  27.24400 59.67900 40.67600
C  25.84900 59.40700 40.84400
C  25.72900 58.08500 40.34500
C  27.01100 57.67400 39.88400
C  24.72400 60.30700 41.44300
C  24.82200 57.00800 40.12400
O  23.64000 56.90500 40.33900
C  25.63200 55.92000 39.34600
C  25.42100 54.59800 39.83700
O  25.94300 54.09100 40.82100
O  24.54000 53.93200 38.99900
C  23.87700 52.72500 39.58500
H  32.38700 55.23400 37.53500
H  33.35800 61.06300 40.12900
H  27.39000 61.69700 41.20600
H  27.76000 53.62100 38.68300
H  30.12200 54.10400 36.89300
H  31.07800 52.36700 38.19800
H  29.58900 52.28400 39.02900
H  30.55800 53.34600 39.71300
H  26.71800 53.67300 36.91200
H  28.17000 53.58600 35.92100
H  27.45300 56.42400 36.39500
H  26.09100 55.48100 35.84900
H  35.57500 55.68400 38.69200
H  35.59500 56.52000 37.21400
H  34.49300 55.21700 37.41800
H  36.92600 60.46700 40.02500
H  35.26200 60.22800 40.75300
H  35.43200 61.08000 39.22800
H  31.62000 62.98700 40.17700
H  29.65800 62.47000 42.29000
H  31.92100 63.12100 42.91500
H  33.30500 62.99200 41.75900
H  32.70600 61.52300 42.42100
H  28.86700 63.27500 39.56600
H  29.89100 64.49400 40.31000
H  28.40000 65.40600 41.41000
H  28.14400 64.01800 42.27800
H  27.17100 64.11400 40.77800
H  23.85700 59.67400 41.62700
H  24.48500 61.13300 40.77300
H  25.17600 60.73100 42.34000
H  25.12600 55.87900 38.38100
H  24.60000 52.39900 40.33200
H  23.74900 51.86200 38.93100
H  22.89400 52.98800 39.97700
Mg -1.37900 34.31800 27.98500
C  -3.02900 32.24300 30.14200
C  -0.09100 36.08500 30.58000
C  0.02600 36.48900 25.73500
C  -3.09300 32.74600 25.30300
N  -1.58900 34.17500 30.06000
C  -2.29300 33.20200 30.84000
C  -2.01900 33.38100 32.35800
C  -1.32600 34.79300 32.42900
C  -0.93400 35.00600 30.94600
C  -2.25200 35.99300 32.84200
C  -1.11500 32.19000 32.98000
C  -1.78100 31.57300 34.15100
H  -0.98300 31.66900 35.43700
N  -0.14100 35.99000 28.12000
C  0.27100 36.57100 29.29200
C  1.29800 37.65400 29.02000
C  1.40900 37.69100 27.61700
C  0.42600 36.67800 27.07200
C  2.02200 38.46400 30.14900
C  2.34100 38.69400 26.83100
O  2.45100 38.58500 25.57700
C  3.19500 39.67000 27.47300
N  -1.67400 34.62900 25.89200
C  -1.06900 35.64800 25.24900
C  -1.49600 35.71600 23.74300
C  -1.88700 34.21100 23.55200
C  -2.23500 33.78900 24.97300
C  -2.71300 36.65800 23.55700
C  -0.67800 33.40800 22.99400
C  -0.96100 31.96700 22.39400
N  -2.78600 32.86000 27.71200
C  -3.36500 32.28600 26.61200
C  -4.05900 31.06400 26.96000
C  -3.95300 30.98300 28.34700
C  -3.22600 32.09400 28.80400
C  -4.84100 30.18600 26.08100
C  -4.29500 30.24500 29.50800
O  -5.08000 29.31300 29.70800
C  -3.56300 30.96100 30.71800
C  -4.72300 31.17000 31.71100
O  -5.54300 32.03600 31.73600
O  -4.60300 30.13700 32.66800
C  -5.77600 30.05200 33.49900
H  0.38700 36.61600 31.40600
H  0.47700 37.18400 25.02400
H  -3.44500 32.20600 24.42200
H  -2.98500 33.41500 32.86100
H  -0.44900 34.78000 33.07500
H  -2.43500 36.71800 32.04900
H  -1.77500 36.40600 33.73100
H  -3.25800 35.69000 33.13300
H  -0.15400 32.61900 33.26600
H  -0.92100 31.44700 32.20600
H  -1.88900 30.53100 33.85300
H  -2.82300 31.84200 34.32500
H  1.53000 38.38900 31.11900
H  1.89600 39.49800 29.83000
H  3.06900 38.16100 30.17000
H  2.63400 40.45500 27.98100
H  3.75300 40.11900 26.65200
H  3.97400 39.32000 28.15100
H  -0.69900 36.08800 23.10000
H  -2.64100 34.02900 22.78600
H  -3.17000 37.00900 24.48200
H  -3.46900 36.21900 22.90600
H  -2.45500 37.56900 23.01500
H  -0.05100 33.20400 23.86100
H  -0.14900 34.05000 22.28900
H  -2.03700 31.84300 22.27300
H  -0.58200 31.29700 23.16400
H  -0.34300 31.84400 21.50400
H  -4.62900 29.19000 26.47000
H  -4.54800 30.23200 25.03300
H  -5.89900 30.35100 26.28800
H  -2.69200 30.43700 31.11200
H  -5.87400 28.97600 33.64500
H  -6.74800 30.28200 33.06100
H  -5.39200 30.58100 34.37100

