158

Mg 9.18200 3.97100 28.18600
C  10.38200 2.14700 31.00000
C  7.37400 5.94800 30.32900
C  8.02900 5.49800 25.48100
C  10.61500 1.44200 26.18200
N  8.77500 3.85600 30.35900
C  9.54400 3.20300 31.29400
C  9.39700 3.82700 32.72300
C  8.34700 4.97000 32.56100
C  8.13900 4.98400 30.95500
C  6.97500 4.73600 33.27500
C  10.76800 4.11800 33.38500
C  11.11200 3.37300 34.69900
H  11.58200 4.28200 35.90100
N  7.89400 5.54700 27.97500
C  7.27700 6.25400 28.95000
C  6.49900 7.32000 28.32800
C  6.84200 7.32200 26.89500
C  7.60800 6.10900 26.69100
C  5.57300 8.22300 29.08800
C  6.44900 8.28600 25.81500
O  6.64300 8.03100 24.63700
C  5.76800 9.54000 26.28200
N  9.23700 3.45000 26.20900
C  8.71800 4.29800 25.23300
C  9.02400 3.85700 23.81500
C  9.92500 2.58500 23.99500
C  9.91700 2.46100 25.56400
C  7.88400 3.69400 22.84900
C  11.31500 2.55400 23.31100
C  11.52500 1.42700 22.18100
N  10.23600 2.07500 28.48400
C  10.79700 1.22800 27.55100
C  11.50800 0.17100 28.18200
C  11.36100 0.53300 29.55500
C  10.61800 1.64500 29.65400
C  12.14400 -0.96200 27.59200
C  11.69300 0.09400 30.93600
O  12.28400 -0.95300 31.34200
C  11.11500 1.18900 31.89600
C  10.15900 0.55100 32.92100
O  8.96100 0.35200 32.74000
O  10.75600 0.29300 34.04900
C  9.98600 -0.37300 35.09900
H  6.89300 6.70400 30.95400
H  7.93200 6.07000 24.55500
H  11.08800 0.71200 25.52200
H  8.86600 3.00600 33.20400
H  8.76000 5.93700 32.85100
H  6.79700 5.58000 33.94200
H  7.10400 3.81300 33.84000
H  6.17300 4.77100 32.53800
H  10.94900 5.17300 33.59000
H  11.52200 3.94800 32.61600
H  11.90900 2.66300 34.47700
H  10.23200 2.84800 35.07200
H  5.45100 7.82500 30.09600
H  4.55000 8.18000 28.71400
H  5.96600 9.23200 29.21000
H  5.00500 9.41400 27.05000
H  5.50200 10.06500 25.36500
H  6.64800 10.01000 26.72200
H  9.62300 4.67200 23.40900
H  9.37900 1.71000 23.64300
H  8.05100 4.32000 21.97300
H  7.02200 4.16600 23.32100
H  7.70100 2.65400 22.58000
H  12.11700 2.52500 24.04900
H  11.52400 3.48600 22.78600
H  11.54300 1.77100 21.14700
H  10.76000 0.65000 22.17200
H  12.44900 0.86700 22.32400
H  11.93000 -1.05100 26.52700
H  11.76300 -1.86000 28.07700
H  13.22400 -0.91500 27.73800
H  11.99600 1.55400 32.42200
H  10.65000 -0.87300 35.80300
H  9.26600 -1.12000 34.76400
H  9.52600 0.41600 35.69400
Mg 9.68900 48.32600 25.85900
C  7.15100 48.39400 28.35000
C  11.81600 49.71700 28.29200
C  11.98200 48.61500 23.50300
C  7.21900 47.69300 23.52600
N  9.42400 48.94300 28.11000
C  8.38400 48.67700 28.91000
C  8.70900 49.01300 30.38300
C  10.21400 49.50300 30.26900
C  10.52600 49.43600 28.81600
C  10.59500 50.76100 31.03000
C  8.52900 47.77300 31.29500
C  9.55700 47.41100 32.48400
H  8.88600 46.78300 33.70900
N  11.70100 49.05100 25.83600
C  12.31500 49.57700 26.93700
C  13.65200 49.89400 26.50500
C  13.78600 49.44800 25.10600
C  12.45500 49.06600 24.72700
C  14.73100 50.45100 27.47300
C  14.97000 49.52600 24.25200
O  14.99600 49.20300 23.09300
C  16.29800 49.88500 24.85200
N  9.59700 48.21400 23.79100
C  10.69900 48.28800 23.04800
C  10.37100 47.89200 21.62400
C  8.83400 47.58800 21.64800
C  8.51800 47.87800 23.06900
C  10.97900 48.95300 20.62700
C  8.53000 46.14300 21.26900
C  8.98000 45.03700 22.20300
N  7.53900 48.20600 25.87200
C  6.72400 47.92000 24.84000
C  5.40200 47.62900 25.34100
C  5.47100 47.84100 26.73000
C  6.82900 48.22700 26.97400
C  4.25100 47.05700 24.49100
C  4.78300 47.90700 27.99000
O  3.58300 47.68900 28.16800
C  5.79900 48.23800 29.05600
C  5.68100 47.05000 30.05400
O  6.21800 45.93900 29.92300
O  4.91600 47.54200 31.12300
C  4.70400 46.71300 32.26600
H  12.55400 49.98200 29.05100
H  12.67600 48.72100 22.66600
H  6.49700 47.38800 22.76500
H  8.02300 49.74500 30.81000
H  10.83700 48.73400 30.72400
H  10.82900 51.52300 30.28700
H  11.47400 50.68400 31.67100
H  9.74500 51.08500 31.63000
H  8.35600 46.90200 30.66300
H  7.56800 47.92100 31.78800
H  10.13300 48.32400 32.63600
H  10.22200 46.60900 32.16500
H  14.42100 50.71600 28.48300
H  15.22800 51.32100 27.04300
H  15.45900 49.65000 27.60200
H  16.45300 50.95700 24.97200
H  17.05600 49.56100 24.13900
H  16.47300 49.26100 25.72900
H  11.01000 47.03800 21.40000
H  8.22000 48.30600 21.10400
H  10.29400 49.33500 19.87100
H  11.84000 48.51600 20.12000
H  11.29100 49.84800 21.16500
H  9.11200 46.06500 20.35100
H  7.47200 45.98600 21.05900
H  9.34900 45.49200 23.12300
H  9.77900 44.46000 21.73800
H  8.19500 44.35100 22.52200
H  3.43000 46.73500 25.13200
H  4.56600 46.17300 23.93600
H  3.82700 47.88000 23.91600
H  5.54500 49.20100 29.50000
H  5.09800 45.69900 32.19400
H  3.65600 46.58700 32.53500
H  5.23400 47.23400 33.06300

