158

Mg 35.30800 48.41400 24.45800
C  35.67900 46.89200 27.68400
C  33.58000 50.96200 26.11400
C  34.67400 49.70400 21.41600
C  36.64700 45.54700 23.07600
N  34.89400 48.97600 26.65000
C  35.13400 48.20300 27.73400
C  34.87100 48.98400 29.02800
C  34.03900 50.23000 28.52000
C  34.12800 50.02900 27.00100
C  32.61600 50.47400 29.16600
C  36.25400 49.27900 29.78600
C  36.21000 49.03600 31.26700
H  34.90800 48.99300 32.01900
N  34.24500 50.06000 23.83400
C  33.61200 51.03100 24.65400
C  33.13900 52.12400 23.85600
C  33.38100 51.67900 22.51500
C  34.19600 50.45800 22.51500
C  32.60000 53.41100 24.40000
C  33.03600 52.46900 21.26500
O  33.29800 52.10800 20.10700
C  32.19100 53.75300 21.25900
N  35.55700 47.67100 22.55700
C  35.26500 48.39500 21.48000
C  35.73500 47.72300 20.19700
C  36.53600 46.54000 20.72700
C  36.19000 46.56800 22.24700
C  34.70500 47.41000 19.06800
C  38.03300 46.44900 20.35800
C  38.24500 45.72700 19.03000
N  36.08300 46.55000 25.23000
C  36.53000 45.46000 24.46300
C  36.89500 44.35200 25.36000
C  36.68300 44.89500 26.67800
C  36.09000 46.22100 26.51700
C  37.32400 42.92800 24.90500
C  36.79000 44.70800 28.16000
O  37.35800 43.83100 28.78100
C  36.13700 45.98400 28.85700
C  35.02200 45.59200 29.75400
O  33.82300 45.64800 29.50200
O  35.53600 45.23300 31.04300
C  34.43900 44.93000 32.02100
H  33.27400 51.83900 26.68900
H  34.50500 50.10500 20.41400
H  37.17700 44.71200 22.61200
H  34.24700 48.35600 29.66400
H  34.63700 51.14000 28.57000
H  32.42300 49.83300 30.02700
H  31.83300 50.46600 28.40800
H  32.64100 51.48500 29.57200
H  36.68100 50.25600 29.55600
H  37.03400 48.64700 29.36100
H  36.90200 49.75400 31.70700
H  36.75500 48.14000 31.56400
H  32.66000 54.30800 23.78300
H  33.06300 53.61100 25.36600
H  31.52900 53.22700 24.49200
H  31.33600 53.70300 21.93400
H  31.89700 53.98300 20.23500
H  32.86400 54.51300 21.65500
H  36.42900 48.37900 19.67100
H  36.03900 45.61800 20.42600
H  33.70200 47.73800 19.34200
H  34.66300 46.32500 18.98000
H  34.94000 47.79300 18.07500
H  38.63300 45.86400 21.05400
H  38.38300 47.48200 20.33100
H  38.84100 46.45900 18.48500
H  37.28400 45.47900 18.58000
H  38.81100 44.80600 19.16700
H  37.95100 43.02400 24.01900
H  36.47900 42.29700 24.62900
H  37.91100 42.51600 25.72600
H  36.88800 46.52000 29.43600
H  34.15600 43.87800 31.98600
H  33.55200 45.55500 31.90900
H  34.82600 44.96400 33.03900
Mg 6.78100 55.10300 41.83400
C  4.05700 52.78200 41.67200
C  8.65400 52.64900 40.40000
C  9.08400 57.42000 41.24800
C  4.43100 57.54600 42.82000
N  6.31000 52.93300 40.88300
C  5.14900 52.30400 40.87900
C  5.25200 51.01600 40.01000
C  6.78000 50.85600 39.88500
C  7.33900 52.17200 40.44100
C  7.43500 49.54300 40.58500
C  4.58600 51.12400 38.64500
C  4.00000 49.72100 38.12800
H  4.60100 49.20500 36.78400
N  8.72800 55.02900 41.04900
C  9.34400 53.91500 40.59400
C  10.67100 54.27000 40.14700
C  10.81300 55.64900 40.45300
C  9.51600 56.10200 40.93200
C  11.59500 53.38400 39.45900
C  12.02200 56.43800 40.12700
O  13.11300 55.93800 39.77300
C  12.09600 57.91700 40.36800
N  6.69300 57.27300 41.79900
C  7.81500 57.92900 41.61800
C  7.69200 59.38700 42.15800
C  6.20900 59.55300 42.47500
C  5.75200 58.05300 42.42200
C  8.71000 59.78200 43.25600
C  5.47400 60.48000 41.51800
C  5.87600 61.92100 41.63300
N  4.70100 55.16600 42.21400
C  3.95300 56.24700 42.68200
C  2.69600 55.78100 43.17500
C  2.69200 54.44100 42.78800
C  3.93300 54.09600 42.18300
C  1.58200 56.54700 43.78700
C  1.91300 53.20100 42.89500
O  0.83000 52.99200 43.48300
C  2.68500 52.10300 42.04800
C  1.78700 51.65400 40.87700
O  1.30200 52.37500 40.02600
O  1.65600 50.25600 40.90300
C  0.69800 49.70100 39.96000
H  9.16400 51.85400 39.85300
H  9.73900 58.28900 41.16100
H  3.80300 58.25500 43.36200
H  4.86200 50.22500 40.64900
H  7.05200 50.79500 38.83100
H  6.67200 48.86100 40.95900
H  8.08000 49.97800 41.34900
H  8.13200 49.02000 39.92900
H  5.30700 51.59700 37.97800
H  3.84100 51.91900 38.61100
H  2.92800 49.68900 37.93600
H  4.17400 48.87200 38.79000
H  11.09600 52.64600 38.83100
H  12.08900 52.86800 40.28200
H  12.27300 53.87500 38.76200
H  13.02200 58.37400 40.01900
H  11.89500 58.05100 41.43100
H  11.35900 58.57900 39.91400
H  7.90400 60.13900 41.39800
H  6.00300 59.87600 43.49600
H  8.25300 60.28100 44.11000
H  9.48800 60.41700 42.83400
H  9.23000 58.93400 43.70100
H  4.39400 60.45300 41.66600
H  5.49500 60.20300 40.46400
H  6.63900 62.01000 42.40700
H  5.04200 62.54400 41.95500
H  6.14100 62.22400 40.62000
H  1.90100 57.17700 44.61800
H  0.93800 55.82000 44.28200
H  0.90400 57.09200 43.13100
H  2.95600 51.31600 42.75200
H  -0.30300 49.88000 40.35100
H  0.80000 48.61700 39.90200
H  0.81600 50.18400 38.99000

