158

Mg 43.27900 3.88700 47.09900
C  41.36000 6.84900 47.09400
C  40.29000 2.11600 46.74700
C  45.01600 1.20800 46.25400
C  46.08400 6.00600 46.50100
N  41.09000 4.49800 46.94500
C  40.51400 5.72300 47.06200
C  38.96800 5.66400 47.08200
C  38.79900 4.10500 47.11800
C  40.15700 3.47400 46.88300
C  38.15300 3.58800 48.43200
C  38.26200 6.36800 45.86300
C  39.19600 6.92100 44.76000
H  38.80600 6.38900 43.36100
N  42.75300 1.87000 46.85600
C  41.49000 1.31400 46.69700
C  41.54600 -0.04300 46.42700
C  42.95200 -0.39800 46.32500
C  43.63800 0.86800 46.53400
C  40.34200 -0.89300 46.22500
C  43.44100 -1.89200 46.07400
O  42.63500 -2.82800 45.86200
C  44.85500 -2.29600 46.03300
N  45.21600 3.65600 46.36100
C  45.71800 2.39400 46.16400
C  47.15400 2.49400 45.68000
C  47.54700 3.97800 45.98200
C  46.18400 4.64600 46.29800
C  48.02500 1.46500 46.39800
C  48.53500 4.71300 44.99000
C  49.87800 4.95600 45.62300
N  43.70400 6.04600 46.75800
C  44.94500 6.72300 46.65300
C  44.65300 8.18700 46.75000
C  43.26800 8.26400 46.97000
C  42.74300 6.94700 46.97300
C  45.75600 9.23800 46.65800
C  42.19700 9.17100 47.29600
O  42.22400 10.39100 47.34900
C  40.91600 8.28900 47.31200
C  40.08900 8.54100 48.49600
O  40.10800 7.81700 49.46000
O  39.28000 9.59700 48.33200
C  38.28800 10.07800 49.27000
H  39.28800 1.70900 46.59900
H  45.53400 0.30400 45.92900
H  47.03300 6.53400 46.61600
H  38.65800 6.13000 48.01800
H  38.21500 3.64000 46.32400
H  37.72500 4.40900 49.00600
H  38.93200 3.14500 49.05300
H  37.39100 2.85400 48.17100
H  37.72200 7.23800 46.23700
H  37.52700 5.73500 45.36600
H  40.23600 6.60600 44.84300
H  39.06500 8.00300 44.77700
H  39.85000 -0.80100 45.25700
H  39.55800 -0.62800 46.93500
H  40.46400 -1.94800 46.46800
H  45.44600 -1.88200 46.85000
H  45.16400 -1.94400 45.04900
H  44.99100 -3.37700 46.03700
H  47.16700 2.30400 44.60700
H  48.02600 3.81400 46.94700
H  48.90400 1.91400 46.86000
H  48.26900 0.79300 45.57500
H  47.51000 0.99800 47.23700
H  48.16800 5.71100 44.75000
H  48.52700 4.20900 44.02300
H  50.62000 4.47900 44.98200
H  49.95400 4.49100 46.60500
H  49.98000 6.03300 45.75500
H  46.13200 9.48600 47.65000
H  45.39900 10.20500 46.30400
H  46.58600 8.89600 46.04000
H  40.30000 8.64100 46.48400
H  38.28200 9.43100 50.14700
H  37.38300 10.03500 48.66400
H  38.58200 11.10000 49.51200
Mg 36.83900 49.72900 24.60600
C  36.87000 48.00200 27.62600
C  35.67600 52.52800 26.27200
C  36.26600 51.26300 21.61400
C  37.14100 46.73000 22.95600
N  36.18800 50.13300 26.78100
C  36.42800 49.36400 27.82300
C  36.20300 50.06300 29.20000
C  35.65800 51.47700 28.71800
C  35.82100 51.42100 27.16900
C  34.42100 51.92600 29.20400
C  37.47100 50.10300 30.05300
C  37.08700 50.28300 31.54900
H  35.74500 50.22800 32.25700
N  36.01700 51.57600 24.01500
C  35.71000 52.62600 24.85400
C  35.58100 53.83300 24.03200
C  35.68700 53.51500 22.70400
C  36.01100 52.08300 22.72800
C  35.33200 55.15400 24.76800
C  35.63800 54.44100 21.48800
O  35.75200 54.07900 20.35900
C  35.43000 55.89300 21.64300
N  36.73800 49.11500 22.60400
C  36.46700 49.91800 21.52300
C  36.60400 49.19000 20.18500
C  36.66900 47.74200 20.68100
C  36.91200 47.86300 22.17600
C  35.50100 49.32000 19.14300
C  37.74900 46.94800 19.86900
C  39.24300 47.36200 20.07000
N  37.20500 47.80800 25.19400
C  37.31900 46.64000 24.40700
C  37.71600 45.50600 25.23900
C  37.43700 45.96500 26.52200
C  37.15400 47.36700 26.45900
C  38.00000 44.14100 24.75600
C  37.43600 45.64300 27.95500
O  37.60300 44.58900 28.55700
C  37.11500 46.90800 28.70800
C  35.90400 46.50700 29.45900
O  34.82300 46.18900 29.02400
O  36.13300 46.78200 30.81000
C  35.14200 46.23900 31.73200
H  35.44100 53.47300 26.76700
H  36.24100 51.74900 20.63600
H  37.18700 45.79800 22.38800
H  35.38800 49.44600 29.57700
H  36.44500 52.15900 29.03800
H  34.10500 51.28700 30.02800
H  33.65700 51.61000 28.49400
H  34.44700 53.00000 29.38500
H  38.09200 50.97100 29.82800
H  38.07900 49.22800 29.82500
H  37.70900 51.11900 31.86800
H  37.48200 49.36700 31.98800
H  35.27600 56.09000 24.21300
H  36.20000 55.37300 25.39000
H  34.47800 55.19000 25.44400
H  34.44500 55.98000 22.10100
H  35.51600 56.43000 20.69900
H  36.22900 56.26300 22.28500
H  37.55800 49.46800 19.73700
H  35.67800 47.28800 20.65500
H  35.09500 50.32000 19.30000
H  34.68900 48.61700 19.32600
H  35.91800 49.30200 18.13600
H  37.51900 46.77800 18.81700
H  37.74500 45.93300 20.26500
H  39.82600 46.57000 20.54000
H  39.33300 48.12700 20.84200
H  39.77200 47.62600 19.15500
H  38.28800 43.59600 25.65500
H  38.82200 44.08300 24.04300
H  37.06300 43.75100 24.35800
H  38.06400 47.10100 29.20800
H  35.53100 45.24900 31.96800
H  34.12700 46.09200 31.36300
H  35.05300 46.95000 32.55300

