158

Mg -1.63000 16.55200 26.55900
C  -2.31400 14.21400 29.18600
C  -2.06100 19.06700 28.72500
C  -1.55500 18.63800 23.98200
C  -1.87800 13.80200 24.27100
N  -2.24800 16.59200 28.74900
C  -2.23300 15.55500 29.62400
C  -2.22800 16.14900 31.12800
C  -2.13600 17.66500 30.88300
C  -2.13600 17.83900 29.37300
C  -3.31100 18.54200 31.49700
C  -1.05100 15.55800 32.00600
C  -0.54700 16.42700 33.15100
H  -0.58700 15.76000 34.59500
N  -1.63500 18.61000 26.37600
C  -1.80600 19.51100 27.39500
C  -1.72400 20.85800 26.91100
C  -1.34700 20.75000 25.56000
C  -1.55800 19.29200 25.23800
C  -1.84300 21.97700 27.90000
C  -0.89100 21.85800 24.64700
O  -0.47000 21.63000 23.53000
C  -0.72900 23.22900 25.12300
N  -1.86500 16.25200 24.39100
C  -1.76600 17.29400 23.55500
C  -1.66000 16.84500 22.05700
C  -1.75900 15.26300 22.18200
C  -1.74800 15.05600 23.69300
C  -2.63700 17.46000 21.01000
C  -0.58500 14.44300 21.56300
C  0.80500 14.87500 22.18100
N  -2.01800 14.48200 26.68600
C  -2.05200 13.51600 25.67100
C  -2.30900 12.21800 26.26600
C  -2.45500 12.41500 27.63900
C  -2.17200 13.83200 27.85100
C  -2.48500 10.87600 25.59300
C  -2.61200 11.69800 28.89900
O  -2.76000 10.50600 29.24300
C  -2.49800 12.89300 29.93500
C  -1.41800 12.52500 30.83900
O  -0.19300 12.77300 30.75400
O  -1.93200 11.75100 31.80200
C  -1.03200 11.26000 32.88400
H  -2.15700 19.96300 29.34200
H  -1.52200 19.30200 23.11600
H  -2.03800 12.93800 23.62400
H  -3.10500 15.83700 31.69500
H  -1.17500 18.09200 31.17000
H  -3.95500 19.01600 30.75600
H  -2.93900 19.35200 32.12500
H  -4.00600 17.98100 32.12200
H  -0.17500 15.49900 31.36100
H  -1.28900 14.55900 32.37300
H  -1.17300 17.31400 33.25600
H  0.41100 16.87700 32.89000
H  -2.48700 21.84400 28.76800
H  -2.24100 22.77400 27.27200
H  -0.86400 22.30500 28.24900
H  -1.67200 23.73100 25.33600
H  -0.20100 23.87200 24.41900
H  -0.09700 23.24300 26.01100
H  -0.67400 16.97500 21.61000
H  -2.63200 14.82100 21.70300
H  -3.22600 18.10500 21.66200
H  -3.25400 16.68200 20.56200
H  -2.08200 18.05400 20.28400
H  -0.62300 14.57000 20.48100
H  -0.75900 13.37600 21.70600
H  1.33000 15.45200 21.42000
H  1.24300 13.88100 22.27400
H  0.70900 15.46800 23.09000
H  -3.36900 10.76000 24.96600
H  -2.60400 10.17600 26.42000
H  -1.64200 10.35600 25.13900
H  -3.40500 12.84800 30.53900
H  -0.40200 12.06100 33.27100
H  -0.29200 10.62800 32.39400
H  -1.69600 10.88100 33.66000
Mg 42.91500 42.21100 25.75800
C  42.07500 44.58200 28.36800
C  43.76500 40.02300 28.29100
C  43.94000 40.12600 23.32900
C  42.31300 44.63200 23.45100
N  42.87400 42.29400 28.13000
C  42.41600 43.32500 28.90600
C  42.49200 42.90700 30.41700
C  43.13800 41.50700 30.34300
C  43.25100 41.20800 28.81200
C  44.47100 41.29000 31.08600
C  41.11400 42.96700 30.99600
C  40.85500 42.27400 32.36100
H  41.25800 43.09200 33.59700
N  43.76500 40.33200 25.78600
C  44.01200 39.57900 26.97700
C  44.46800 38.23900 26.55400
C  44.56700 38.24800 25.08200
C  44.08900 39.59800 24.67600
C  45.00100 37.15700 27.38400
C  44.93700 37.11600 24.13500
O  45.19600 37.31800 23.01800
C  45.16800 35.73100 24.63600
N  43.07900 42.45300 23.71000
C  43.43000 41.35500 22.91000
C  43.28800 41.73300 21.45100
C  42.52200 42.98700 21.51300
C  42.56100 43.38600 23.00200
C  44.66600 41.86000 20.70700
C  41.05600 42.88200 20.95600
C  40.00900 42.34200 22.06000
N  42.50100 44.29100 25.84500
C  42.21300 45.06600 24.79500
C  41.84000 46.37300 25.27100
C  41.70300 46.18900 26.62900
C  42.06900 44.90700 26.95900
C  41.51500 47.45800 24.35200
C  41.29900 46.80400 27.83900
O  40.88800 47.93700 28.06700
C  41.54100 45.80200 29.09500
C  42.58100 46.41200 29.95600
O  43.64400 46.82800 29.49900
O  42.10400 46.62500 31.23200
C  42.95500 47.51700 32.03600
H  44.12400 39.31900 29.04500
H  44.27300 39.46500 22.52600
H  41.94800 45.41500 22.78300
H  43.01800 43.65600 31.00900
H  42.42300 40.80100 30.76600
H  45.23600 41.30800 30.31000
H  44.36100 40.31900 31.57000
H  44.66800 42.17300 31.69300
H  40.41100 42.45300 30.34000
H  40.69600 43.94500 31.23400
H  41.34100 41.30300 32.45700
H  39.78400 42.08800 32.44900
H  45.25100 37.58300 28.35600
H  45.99900 36.81300 27.11200
H  44.41600 36.24500 27.49700
H  44.99200 34.97100 23.87500
H  44.31500 35.50400 25.27600
H  46.16200 35.62700 25.07100
H  42.71500 41.02800 20.84900
H  42.92100 43.76500 20.86100
H  45.36600 41.17300 21.18300
H  45.09500 42.85600 20.81400
H  44.59700 41.65900 19.63800
H  41.01600 42.19300 20.11200
H  40.78300 43.86600 20.57500
H  40.55800 41.66000 22.70900
H  39.31400 41.62800 21.61600
H  39.38600 43.06300 22.58800
H  42.41200 47.80100 23.83600
H  41.17500 48.33600 24.90000
H  40.74800 47.24800 23.60700
H  40.57800 45.58700 29.55700
H  43.47300 46.84500 32.72100
H  42.34700 48.22500 32.60000
H  43.75800 47.94000 31.43300

