158

Mg 41.25700 9.54900 28.84800
C  43.09000 10.83100 31.52300
C  39.00300 8.27400 31.10000
C  39.48400 8.45600 26.28000
C  43.82500 10.42600 26.66600
N  41.24500 9.37500 31.10200
C  42.00000 10.14200 31.95100
C  41.45300 9.99900 33.37800
C  40.28500 8.96100 33.24600
C  40.15800 8.85300 31.71900
C  40.53500 7.53900 33.75400
C  41.08500 11.34300 34.02200
C  40.62300 11.20100 35.48600
H  40.93800 12.39600 36.38400
N  39.47900 8.57200 28.71600
C  38.68200 8.16600 29.69200
C  37.50500 7.60600 29.15300
C  37.54500 7.67300 27.77500
C  38.85400 8.25900 27.53200
C  36.46900 6.90800 30.11000
C  36.54800 7.22600 26.80400
O  36.66100 7.20400 25.59800
C  35.20900 6.90600 27.31600
N  41.65300 9.46200 26.80600
C  40.76800 8.93300 25.93400
C  41.24600 9.02500 24.47700
C  42.72200 9.63300 24.60900
C  42.73900 9.92800 26.09400
C  41.13400 7.72800 23.67900
C  42.87200 10.88600 23.67700
C  42.30800 12.23100 24.26000
N  43.09100 10.46600 28.94500
C  44.06100 10.70900 28.01500
C  45.17400 11.39700 28.61900
C  44.82000 11.60200 29.98800
C  43.60800 10.88200 30.15000
C  46.43500 11.78700 27.94200
C  45.20300 12.26100 31.32300
O  46.12100 13.04000 31.60500
C  44.05500 11.77000 32.26800
C  44.76600 11.06900 33.37300
O  45.21000 9.88600 33.39900
O  44.64200 11.79100 34.53300
C  44.83300 11.01300 35.77500
H  38.33100 7.83800 31.84300
H  39.00100 8.15300 25.34900
H  44.66700 10.70200 26.02900
H  42.28200 9.70900 34.02400
H  39.38600 9.32300 33.74500
H  41.57900 7.41100 34.04000
H  40.24400 6.75900 33.05100
H  39.94100 7.29900 34.63600
H  40.27700 11.68000 33.37200
H  41.94800 12.00600 33.97100
H  41.03900 10.31000 35.95700
H  39.54000 11.14800 35.37500
H  36.73000 6.77900 31.16100
H  36.31900 5.89100 29.74900
H  35.52500 7.43700 29.98000
H  34.54500 6.75900 26.46400
H  34.82000 7.71600 27.93300
H  35.16700 5.99600 27.91600
H  40.57100 9.74100 24.00900
H  43.45400 8.85800 24.38100
H  40.79500 6.91400 24.32000
H  42.03300 7.26200 23.27500
H  40.50800 7.83700 22.79400
H  42.21100 10.61500 22.85300
H  43.91400 10.82200 23.36300
H  43.16900 12.73600 24.69700
H  41.52000 12.13300 25.00800
H  41.92500 12.80300 23.41500
H  46.75700 10.93800 27.33900
H  47.13100 12.03400 28.74500
H  46.33300 12.66600 27.30600
H  43.39500 12.56500 32.61600
H  44.17300 10.15200 35.88000
H  44.48100 11.60900 36.61700
H  45.90400 10.83600 35.87600
Mg -5.12800 25.07400 26.30600
C  -3.59600 26.28000 29.23700
C  -7.13400 23.10400 28.31200
C  -6.23000 23.51000 23.53900
C  -2.87700 26.90700 24.41800
N  -5.35100 24.76000 28.55800
C  -4.63600 25.45300 29.54300
C  -5.17400 25.00300 30.91200
C  -6.23500 23.90000 30.56600
C  -6.25500 23.91100 29.07000
C  -5.90300 22.40200 31.07700
C  -5.82700 26.15400 31.71800
C  -5.95900 26.12700 33.23000
H  -5.19600 24.92800 33.96000
N  -6.48800 23.54700 25.96300
C  -7.28400 22.85700 26.89500
C  -8.05400 21.84000 26.22300
C  -7.77500 21.89900 24.86200
C  -6.76800 23.01800 24.71700
C  -8.93100 20.90700 26.95600
C  -8.35600 21.09400 23.76700
O  -8.15100 21.27300 22.58200
C  -9.27700 19.96900 24.15000
N  -4.61800 25.15900 24.28800
C  -5.28900 24.46800 23.28800
C  -4.62400 24.78800 21.89900
C  -3.83500 26.07500 22.25900
C  -3.73900 26.04700 23.75000
C  -3.79200 23.57700 21.36400
C  -4.50500 27.37100 21.75200
C  -3.40100 28.29500 21.07100
N  -3.64200 26.30000 26.68700
C  -2.76600 26.99000 25.83800
C  -1.82300 27.81500 26.53200
C  -2.16100 27.56400 27.85000
C  -3.21600 26.64000 27.94900
C  -0.75000 28.64200 25.72000
C  -1.78300 28.02700 29.15900
O  -0.94200 28.82600 29.51700
C  -2.71700 27.16100 30.16000
C  -1.89100 26.43200 31.15000
O  -1.23000 25.40900 30.99100
O  -1.97600 27.09900 32.35600
C  -1.27800 26.36000 33.46200
H  -7.68000 22.39600 28.94000
H  -6.44100 22.94200 22.63100
H  -2.20000 27.55800 23.86100
H  -4.30600 24.56500 31.40500
H  -7.20800 24.17000 30.97600
H  -5.26100 22.35900 31.95700
H  -5.37400 21.81600 30.32500
H  -6.82600 21.83900 31.21300
H  -6.86000 26.23200 31.37800
H  -5.34000 27.08400 31.42500
H  -6.99200 25.99200 33.55000
H  -5.62000 27.09600 33.59700
H  -8.55900 19.89000 26.83000
H  -9.94900 21.01700 26.58100
H  -8.83100 21.10800 28.02300
H  -8.76500 19.22000 24.75300
H  -9.44300 19.39400 23.23900
H  -10.26200 20.21100 24.55000
H  -5.39800 25.01900 21.16700
H  -2.82600 26.00000 21.85200
H  -2.79000 23.78200 20.98700
H  -4.27700 23.09500 20.51500
H  -3.66000 22.81400 22.13100
H  -5.00300 27.92700 22.54700
H  -5.29900 27.22300 21.02100
H  -2.79700 27.75400 20.34300
H  -2.65800 28.65900 21.78000
H  -3.87000 29.11000 20.51900
H  -0.18200 27.93200 25.12000
H  -0.02800 29.11300 26.38800
H  -1.12800 29.53200 25.21600
H  -3.25300 27.95800 30.67500
H  -0.81000 25.38700 33.31300
H  -1.87200 26.22300 34.36600
H  -0.50300 27.06400 33.76400

