158

Mg 48.12100 34.93400 27.20900
C  46.24800 33.82100 29.98400
C  48.93800 37.85800 29.18800
C  50.06300 36.00600 24.64700
C  47.00000 32.25500 25.39400
N  47.83200 35.58800 29.35800
C  47.00300 34.93700 30.28600
C  47.13600 35.60700 31.67000
C  47.51400 37.09700 31.19700
C  48.05000 36.91900 29.77800
C  46.44000 38.18700 31.37000
C  48.14400 34.99500 32.65300
C  47.68200 34.74100 34.08500
H  47.76200 35.85600 35.08200
N  49.32100 36.68900 26.91100
C  49.46400 37.69000 27.82400
C  50.35400 38.72100 27.18400
C  50.76200 38.16900 25.93400
C  50.00300 36.90500 25.77700
C  50.73300 40.06800 27.76400
C  51.76300 38.81500 24.83300
O  52.01400 38.16200 23.77500
C  52.36200 40.21400 25.00800
N  48.45900 34.26900 25.28800
C  49.37500 34.80400 24.48700
C  49.75400 33.84800 23.36700
C  48.72300 32.68000 23.54400
C  47.98400 33.08100 24.86600
C  49.78400 34.43800 21.87000
C  49.32400 31.29700 23.55000
C  48.71200 30.35700 22.55900
N  46.82700 33.42600 27.49700
C  46.48200 32.37200 26.66900
C  45.50600 31.41800 27.33100
C  45.43400 31.97800 28.61200
C  46.20300 33.15900 28.66700
C  44.80500 30.15800 26.81000
C  44.85000 31.78700 29.89600
O  44.22200 30.83500 30.32400
C  45.26000 32.98200 30.78500
C  45.74600 32.47900 32.07600
O  46.84200 31.96900 32.38500
O  44.71800 32.46500 32.95000
C  45.12000 32.14000 34.41400
H  49.10000 38.81700 29.68500
H  50.67600 36.28100 23.78600
H  46.71000 31.40300 24.77600
H  46.15000 35.55400 32.13100
H  48.35300 37.57200 31.70500
H  45.51900 37.74600 31.75300
H  46.29300 38.72900 30.43600
H  46.86600 38.80300 32.16200
H  48.86900 35.80300 32.75700
H  48.70500 34.15000 32.25400
H  48.19400 33.89000 34.53500
H  46.63500 34.49000 33.91600
H  51.73000 39.97100 28.19400
H  50.05800 40.22100 28.60700
H  50.65300 40.86900 27.03000
H  51.52100 40.90200 24.93200
H  53.08100 40.45800 24.22500
H  52.81500 40.41700 25.97800
H  50.80300 33.55500 23.39600
H  47.93800 32.75100 22.79100
H  49.59100 35.50100 22.01100
H  48.92600 34.18400 21.24800
H  50.72000 34.30800 21.32800
H  49.19100 30.99900 24.58900
H  50.39800 31.31800 23.36500
H  47.80900 29.81800 22.84300
H  49.36900 29.55100 22.23200
H  48.45200 30.91700 21.66100
H  45.14500 29.34500 27.45100
H  45.06500 29.80100 25.81300
H  43.72800 30.26400 26.93900
H  44.36800 33.56300 31.01900
H  46.11200 32.38400 34.79400
H  45.05200 31.06100 34.55200
H  44.50700 32.62600 35.17400
Mg 9.31700 48.29300 25.62900
C  7.41000 48.17700 28.56500
C  11.85600 49.71700 27.53200
C  11.18700 48.18000 22.92600
C  6.56600 47.26700 23.86800
N  9.54700 48.92700 27.82100
C  8.68000 48.72700 28.82000
C  9.17200 49.20500 30.13700
C  10.61100 49.79900 29.83800
C  10.67800 49.52400 28.27400
C  10.94000 51.17000 30.23300
C  9.08400 48.21900 31.29800
C  9.84200 48.68300 32.49200
H  9.23200 48.28700 33.89000
N  11.28100 48.95700 25.21200
C  12.18800 49.51900 26.09900
C  13.41700 49.70200 25.41800
C  13.28500 49.16600 24.12400
C  11.87100 48.79400 24.01700
C  14.58400 50.41700 26.02300
C  14.42300 48.85900 23.04600
O  14.11200 48.60900 21.92300
C  15.73200 48.90800 23.47800
N  8.84100 47.98600 23.68000
C  9.89100 47.72700 22.82200
C  9.41000 46.91600 21.52100
C  7.93000 46.67000 21.81300
C  7.76700 47.33300 23.20500
C  9.60700 47.55400 20.08800
C  7.56500 45.19400 21.75500
C  7.91700 44.38100 23.02200
N  7.37600 47.76900 26.05200
C  6.35100 47.46100 25.20300
C  5.06000 47.40300 25.94800
C  5.44400 47.67100 27.32500
C  6.80700 47.88900 27.30100
C  3.68000 47.37600 25.33000
C  4.95800 47.96300 28.62400
O  3.85800 48.07200 29.06200
C  6.21300 47.91600 29.45900
C  6.26900 46.63000 30.22000
O  6.64300 45.51200 29.77200
O  5.96400 46.78100 31.54600
C  6.13200 45.65700 32.44700
H  12.61800 50.09600 28.21700
H  11.83700 47.76300 22.15300
H  5.70400 46.87600 23.32400
H  8.55000 50.08300 30.30900
H  11.37300 49.07100 30.11700
H  10.05900 51.66300 30.64300
H  11.24900 51.75600 29.36700
H  11.66600 51.06500 31.04000
H  9.31000 47.20900 30.95800
H  8.02500 48.26100 31.55000
H  9.76600 49.76800 32.56400
H  10.87700 48.35700 32.59100
H  14.37100 50.70900 27.05200
H  14.84900 51.14500 25.25600
H  15.38000 49.67700 26.11300
H  15.93900 49.97300 23.58800
H  16.33900 48.52500 22.65700
H  15.89900 48.37800 24.41500
H  9.79700 45.90100 21.43400
H  7.35400 47.21400 21.06500
H  10.58900 47.28400 19.69800
H  9.51100 48.62900 20.23900
H  8.85500 47.29400 19.34200
H  8.13500 44.76600 20.93000
H  6.52500 45.06600 21.45300
H  8.34000 44.99200 23.81900
H  8.61400 43.61200 22.69000
H  7.00600 43.98200 23.46900
H  3.72100 47.29700 24.24400
H  3.23500 48.31900 25.64800
H  3.09500 46.53700 25.70500
H  6.06600 48.83500 30.02600
H  5.14500 45.20600 32.53900
H  6.32500 46.14200 33.40400
H  6.89100 44.93600 32.14400

