158

Mg 47.65700 16.71900 29.44500
C  45.40100 15.88700 31.86900
C  49.57000 18.54300 31.68400
C  49.61900 17.79200 26.92000
C  45.45900 15.32000 27.00400
N  47.53300 17.06600 31.45800
C  46.50200 16.61400 32.31300
C  46.90400 16.84500 33.79000
C  47.95300 18.02100 33.62100
C  48.37600 17.90900 32.15200
C  47.37200 19.39300 34.04200
C  47.43500 15.51800 34.40600
C  47.12500 15.28900 35.86800
H  46.98300 16.66200 36.67800
N  49.44300 17.91500 29.34700
C  50.09700 18.50800 30.37800
C  51.39700 18.89500 29.97300
C  51.44900 18.75600 28.55600
C  50.09800 18.12800 28.22200
C  52.50300 19.40300 30.91000
C  52.57400 19.07000 27.60800
O  52.43400 18.93200 26.40800
C  53.81800 19.54600 28.14000
N  47.35100 16.79300 27.22800
C  48.43900 17.18200 26.48400
C  48.20800 16.93300 24.99200
C  47.01800 15.88500 25.05400
C  46.55600 16.02700 26.52300
C  47.72000 18.30300 24.34700
C  47.37700 14.50800 24.71900
C  46.40400 13.63500 23.89900
N  45.84500 15.71500 29.47200
C  45.12400 15.12400 28.43500
C  43.99400 14.37500 28.98700
C  44.03400 14.70300 30.28000
C  45.14600 15.51300 30.55000
C  42.89700 13.56100 28.25900
C  43.39200 14.70700 31.59500
O  42.25900 14.29600 32.00900
C  44.22000 15.36800 32.63300
C  43.54700 16.36400 33.39500
O  43.20200 17.46600 32.98400
O  43.29000 15.96700 34.67800
C  42.87400 16.88200 35.73500
H  50.09400 19.15600 32.42100
H  50.22600 17.99500 26.03500
H  44.89400 14.74900 26.26500
H  46.08200 17.14400 34.44100
H  48.86400 17.81200 34.18200
H  46.46300 19.31000 34.63700
H  47.25100 20.03600 33.17000
H  48.14500 19.87200 34.64400
H  48.50900 15.61900 34.25000
H  47.06000 14.65500 33.85600
H  47.94600 14.69100 36.26400
H  46.15400 14.79400 35.87100
H  53.42500 18.83500 30.79100
H  52.27500 19.18900 31.95400
H  52.63600 20.47400 30.75800
H  53.60800 20.30200 28.89700
H  54.37700 20.00200 27.32300
H  54.44200 18.74400 28.53500
H  49.17600 16.59000 24.62600
H  46.19400 16.17200 24.40000
H  47.71700 19.11200 25.07800
H  46.67100 18.33300 24.05200
H  48.38100 18.54500 23.51500
H  47.45800 13.99900 25.67900
H  48.40200 14.46300 24.35100
H  45.60500 14.24600 23.48000
H  46.03600 12.79000 24.48200
H  47.06500 13.29400 23.10200
H  43.19300 12.53300 28.04700
H  42.75300 14.12800 27.33900
H  42.02900 13.65400 28.91000
H  44.53400 14.57800 33.31600
H  41.83100 17.17200 35.61300
H  43.57700 17.71300 35.79000
H  42.90200 16.41200 36.71800
Mg -8.90100 17.25900 41.69500
C  -5.41600 17.02200 41.54000
C  -8.66100 20.51900 41.01700
C  -12.18100 17.21200 41.26300
C  -9.00200 13.79500 42.11700
N  -7.17200 18.54700 41.35800
C  -5.89200 18.24000 41.20400
C  -5.05700 19.42800 40.68500
C  -6.05300 20.58700 41.06600
C  -7.42500 19.85100 41.12000
C  -5.80600 21.45500 42.39900
C  -4.67000 19.22400 39.15900
C  -3.17500 19.04800 38.83000
H  -2.78000 17.71500 38.22200
N  -10.22900 18.68400 41.29900
C  -9.94200 20.01000 41.04500
C  -11.14600 20.70200 40.73000
C  -12.24800 19.76600 40.80000
C  -11.64400 18.46500 41.10700
C  -11.22200 22.10800 40.25300
C  -13.72800 19.99800 40.51800
O  -14.15100 21.12100 40.34200
C  -14.71800 18.90900 40.36300
N  -10.38800 15.64800 41.52000
C  -11.68100 15.94900 41.50400
C  -12.48400 14.69500 41.95700
C  -11.48600 13.58100 42.18700
C  -10.18900 14.41300 41.87900
C  -13.41600 14.94900 43.20000
C  -11.48800 12.36600 41.23500
C  -12.71700 11.46800 41.39100
N  -7.45100 15.68500 41.69200
C  -7.70300 14.37100 42.04700
C  -6.45600 13.71600 42.35400
C  -5.47600 14.69400 42.17500
C  -6.16900 15.88800 41.84600
C  -6.29000 12.34200 42.89300
C  -4.01900 15.06200 42.26800
O  -3.02900 14.40100 42.52000
C  -3.95800 16.61400 41.90600
C  -3.49000 17.49500 43.06600
O  -4.23100 18.23600 43.66300
O  -2.17100 17.48200 43.21100
C  -1.59100 18.54500 44.05200
H  -8.59000 21.58600 40.79500
H  -13.27100 17.19100 41.32100
H  -9.09600 12.75000 42.42000
H  -4.15100 19.47800 41.28900
H  -6.00500 21.31300 40.25400
H  -5.58900 22.49700 42.16600
H  -4.89900 21.15600 42.92600
H  -6.68100 21.39300 43.04500
H  -5.08400 20.02900 38.55300
H  -5.14900 18.38000 38.66300
H  -2.73600 19.11900 39.82500
H  -2.86300 19.85200 38.16300
H  -10.22700 22.53000 40.11400
H  -11.60100 22.77500 41.02800
H  -11.88600 22.21200 39.39600
H  -15.53500 19.27100 39.73800
H  -15.06800 18.42300 41.27300
H  -14.32200 18.11700 39.72800
H  -13.11300 14.30000 41.15900
H  -11.49500 13.16500 43.19400
H  -12.99000 14.53100 44.11200
H  -14.34000 14.46700 42.88000
H  -13.47300 16.01700 43.41000
H  -10.58300 11.75800 41.24000
H  -11.51900 12.86700 40.26800
H  -13.41600 11.63100 40.57100
H  -13.26100 11.74900 42.29200
H  -12.52400 10.39500 41.38300
H  -7.17300 12.05500 43.46300
H  -5.47000 12.22600 43.60200
H  -6.11800 11.65200 42.06700
H  -3.40100 16.70400 40.97300
H  -1.85500 19.50000 43.59900
H  -0.52300 18.33700 44.11800
H  -2.00900 18.50200 45.05800

