158

Mg 44.57600 5.53200 48.44400
C  42.80100 8.51800 47.85900
C  41.69000 3.77000 47.45400
C  46.32900 2.62500 48.44600
C  47.43900 7.34600 48.46700
N  42.49500 6.10600 47.79800
C  42.00200 7.39500 47.55700
C  40.58800 7.38300 47.01100
C  40.17800 5.83400 47.14800
C  41.51200 5.17800 47.52200
C  39.06400 5.47100 48.17100
C  40.50800 8.07800 45.61500
C  39.03200 8.40200 45.21700
H  38.48400 7.86300 43.94900
N  44.04800 3.43500 48.09300
C  42.87700 2.94500 47.67000
C  42.96400 1.44500 47.71200
C  44.30900 1.15000 48.11700
C  44.98500 2.42600 48.34300
C  41.84600 0.53400 47.23600
C  44.80500 -0.24100 48.28900
O  44.17600 -1.25000 47.91100
C  46.19800 -0.51700 48.76800
N  46.53000 5.05300 48.69600
C  46.99500 3.79900 48.59500
C  48.54800 3.78900 48.39800
C  48.93000 5.30300 48.65000
C  47.57400 5.95200 48.58100
C  49.31900 2.76300 49.31600
C  49.88200 5.82300 47.50100
C  51.34300 6.07500 47.90400
N  45.09900 7.59700 48.43200
C  46.31400 8.19900 48.43000
C  46.16000 9.62800 48.34500
C  44.73700 9.83100 48.16100
C  44.19100 8.55300 48.12300
C  47.15800 10.66900 48.43400
C  43.64400 10.78100 48.03900
O  43.67300 12.01800 48.18000
C  42.38700 9.95100 47.91600
C  41.30400 10.24700 48.88500
O  41.17300 9.73400 50.02500
O  40.40000 11.11200 48.27900
C  39.20500 11.39300 48.97100
H  40.80700 3.15600 47.26900
H  46.93200 1.73000 48.28000
H  48.33000 7.97600 48.51500
H  39.94600 7.95100 47.68300
H  39.88100 5.35000 46.21800
H  38.25600 4.92000 47.69000
H  38.61400 6.40600 48.50800
H  39.30100 5.01300 49.13100
H  41.20100 7.58700 44.93100
H  40.95200 9.06900 45.52300
H  38.88100 9.48200 45.21600
H  38.42700 7.92900 45.99100
H  40.89800 1.07000 47.27300
H  41.69100 -0.35000 47.85500
H  42.07100 0.19200 46.22600
H  46.44700 -1.53500 49.06800
H  46.40000 0.10200 49.64200
H  46.81000 -0.35000 47.88200
H  48.56800 3.38300 47.38700
H  49.38200 5.45500 49.63100
H  48.66300 1.95600 49.64200
H  49.71400 3.26400 50.20000
H  50.15300 2.29300 48.79600
H  49.48700 6.68800 46.96700
H  49.86000 5.08800 46.69700
H  51.93100 5.18800 47.67000
H  51.54100 6.17000 48.97200
H  51.72300 6.95000 47.37700
H  47.86500 10.61700 47.60700
H  47.60000 10.72800 49.42900
H  46.69700 11.64200 48.26700
H  42.10800 10.29300 46.91900
H  38.48700 11.91900 48.34100
H  39.47300 12.12900 49.73000
H  38.79300 10.49200 49.42700
Mg 26.87900 49.87100 25.79600
C  25.00200 50.76000 28.62100
C  29.27500 48.69800 28.06000
C  29.10700 49.43800 23.24600
C  24.67600 51.48300 23.76600
N  27.09300 49.77100 28.03900
C  26.09600 50.08700 28.92600
C  26.53300 49.78700 30.38400
C  27.97800 49.39700 30.24000
C  28.11200 49.25600 28.76900
C  29.06400 50.43100 30.77700
C  25.65400 48.70200 31.15900
C  25.26600 49.00200 32.67500
H  26.33500 49.40000 33.76100
N  28.96600 49.03600 25.61600
C  29.62900 48.55500 26.67400
C  30.87600 48.01100 26.18700
C  30.88100 48.27900 24.78900
C  29.60400 48.95700 24.47000
C  31.90400 47.41500 27.03400
C  31.88300 47.81700 23.74700
O  31.81400 48.07600 22.55200
C  33.14300 47.05500 24.23600
N  27.02900 50.52200 23.82400
C  28.00400 50.22900 22.91400
C  27.55800 50.56800 21.47800
C  26.09700 51.21800 21.69400
C  25.88600 51.07000 23.17500
C  28.43900 51.58000 20.75200
C  25.09700 50.37400 20.90200
C  24.84300 48.93300 21.26300
N  25.17500 50.92600 26.02800
C  24.37000 51.60000 25.13200
C  23.23600 52.17300 25.81800
C  23.40300 51.80700 27.15800
C  24.62500 51.05800 27.24200
C  22.06300 52.92000 25.28600
C  22.78700 51.96800 28.44700
O  21.76400 52.60400 28.73900
C  23.84900 51.28200 29.48800
C  24.31500 52.26200 30.45500
O  25.14200 53.14900 30.26200
O  23.64400 51.98600 31.67300
C  23.92600 52.99900 32.71400
H  29.98800 48.22800 28.74000
H  29.79500 49.17200 22.44100
H  24.00700 52.07200 23.13500
H  26.42600 50.70800 30.95800
H  28.17500 48.36700 30.53500
H  29.75200 50.77700 30.00600
H  29.65300 49.81400 31.45500
H  28.80900 51.27400 31.42100
H  26.20200 47.76200 31.10700
H  24.74700 48.61300 30.56200
H  24.73900 48.10600 33.00400
H  24.56100 49.83300 32.66400
H  31.58400 47.18800 28.05100
H  32.70200 48.15600 27.06500
H  32.20900 46.47400 26.57600
H  33.80100 47.11100 23.36900
H  32.85000 46.05500 24.55400
H  33.72400 47.50800 25.03900
H  27.59000 49.63800 20.91000
H  26.11500 52.28800 21.48400
H  27.98600 52.57000 20.69500
H  28.73700 51.21200 19.77000
H  29.36200 51.73000 21.31200
H  25.49300 50.50500 19.89500
H  24.16300 50.93100 20.82400
H  25.13400 48.75000 22.29800
H  25.25400 48.28400 20.49000
H  23.76200 48.82400 21.18000
H  21.12600 52.92000 25.84400
H  21.81200 52.69500 24.25000
H  22.37500 53.95700 25.41500
H  23.52300 50.42300 30.07400
H  24.49800 53.85600 32.35800
H  24.45200 52.56700 33.56600
H  23.00400 53.40400 33.13100

