158

Mg 46.61500 44.86400 43.00900
C  43.38000 43.83800 43.13500
C  47.62500 41.66200 42.66300
C  49.71700 46.02000 42.77200
C  45.47700 48.30200 42.91400
N  45.58300 43.00300 42.79100
C  44.27200 42.73100 42.91700
C  43.96300 41.21600 42.92500
C  45.35500 40.56200 43.04200
C  46.25400 41.79300 42.85200
C  45.58600 39.69100 44.30500
C  43.19200 40.73700 41.73000
C  43.53600 41.34600 40.40500
H  44.00800 40.45900 39.20800
N  48.37900 43.95800 42.66800
C  48.58800 42.62000 42.59500
C  49.96700 42.31900 42.46400
C  50.67800 43.61100 42.50900
C  49.61700 44.59800 42.68100
C  50.61600 40.89500 42.31300
C  52.19600 43.78800 42.39200
O  52.91400 42.81600 42.28600
C  52.85200 45.16300 42.29000
N  47.46500 46.91100 42.77600
C  48.77600 47.00200 42.93900
C  49.17400 48.47500 43.10300
C  47.87300 49.28300 43.10900
C  46.83100 48.09800 42.89500
C  50.07600 48.95300 44.30500
C  47.80000 50.50000 42.10900
C  47.38800 51.86500 42.76100
N  44.87300 45.90300 42.92000
C  44.54400 47.25400 42.86100
C  43.09800 47.37000 42.71900
C  42.61200 46.08000 42.98000
C  43.70800 45.20900 43.04600
C  42.25800 48.60000 42.61200
C  41.38500 45.27600 43.13800
O  40.21200 45.59100 43.29800
C  41.84600 43.79100 43.31600
C  41.41100 43.28800 44.66900
O  41.40800 43.96600 45.70400
O  41.00000 41.95300 44.64500
C  40.37600 41.54400 45.86400
H  47.80900 40.60000 42.49100
H  50.73600 46.39500 42.89100
H  45.02600 49.23800 43.25000
H  43.43000 41.05600 43.86200
H  45.63100 39.92900 42.19900
H  44.59400 39.32000 44.56200
H  46.03800 40.28400 45.10100
H  46.26500 38.84200 44.23500
H  42.11600 40.83700 41.86800
H  43.43300 39.67700 41.65200
H  44.32800 42.09400 40.45200
H  42.76700 42.08800 40.19300
H  51.02200 40.71500 41.31700
H  49.89400 40.09900 42.49700
H  51.46300 40.81400 42.99400
H  52.30200 45.79300 41.59100
H  53.89500 45.01700 42.01200
H  52.85500 45.54800 43.31000
H  49.64200 48.81200 42.17800
H  47.65000 49.53900 44.14400
H  51.11800 48.79900 44.02400
H  49.81400 48.38700 45.19900
H  49.79900 49.97600 44.56000
H  47.10900 50.38600 41.27300
H  48.74300 50.73300 41.61400
H  48.10400 52.67000 42.59300
H  47.40800 51.83700 43.85100
H  46.43600 52.20400 42.35300
H  41.96000 48.57000 41.56400
H  42.71300 49.58000 42.75300
H  41.41300 48.49200 43.29200
H  41.40400 43.10400 42.59400
H  39.55900 42.19500 46.17600
H  41.08700 41.33100 46.66200
H  39.82700 40.61800 45.69300
Mg -1.42600 34.92600 27.38500
C  -2.80600 32.99200 29.97600
C  -0.17200 37.01000 29.58000
C  -0.90900 37.08700 24.73000
C  -2.94100 32.74800 25.16700
N  -1.66800 35.04100 29.57300
C  -2.13500 34.13000 30.46200
C  -1.66300 34.41500 31.87900
C  -0.71100 35.72400 31.70900
C  -0.86400 35.93300 30.16500
C  -1.27700 36.94400 32.54100
C  -0.78800 33.22700 32.45900
C  -1.18900 32.35800 33.62200
H  -0.54200 32.61200 34.96800
N  -0.66600 36.85400 27.18600
C  -0.11000 37.49200 28.21200
C  0.54900 38.68300 27.79200
C  0.30200 38.76300 26.38600
C  -0.48100 37.55400 26.05100
C  1.23600 39.51100 28.76700
C  0.80100 39.78000 25.40300
O  0.49700 39.67500 24.19200
C  1.84200 40.76500 25.70700
N  -1.65300 34.82900 25.21600
C  -1.51700 35.86500 24.36600
C  -1.90200 35.48300 22.92000
C  -2.18800 33.96800 23.05000
C  -2.29200 33.82700 24.60800
C  -3.01700 36.21000 22.21300
C  -1.18700 32.90500 22.45300
C  0.29500 33.20400 22.50800
N  -2.59500 33.20600 27.48900
C  -3.13400 32.45200 26.50700
C  -3.82600 31.27800 27.02700
C  -3.75100 31.45500 28.41400
C  -3.01400 32.64800 28.60000
C  -4.57200 30.26300 26.24400
C  -4.11100 30.93800 29.67800
O  -4.75300 29.95400 30.04500
C  -3.47300 31.84500 30.75900
C  -4.60100 32.42100 31.62100
O  -5.52000 33.10800 31.21300
O  -4.44200 32.04200 32.99000
C  -5.51000 32.42200 33.89100
H  0.47000 37.58400 30.25200
H  -0.66100 37.70500 23.86500
H  -3.40300 32.10100 24.41800
H  -2.37400 34.70800 32.65100
H  0.30200 35.53100 32.06300
H  -1.34400 37.82600 31.90500
H  -0.52600 37.10300 33.31500
H  -2.18800 36.69000 33.08300
H  0.17800 33.68200 32.67600
H  -0.60200 32.62500 31.56900
H  -1.29700 31.29100 33.42400
H  -2.20500 32.67200 33.86000
H  1.77500 40.34500 28.31800
H  1.99800 39.09400 29.42500
H  0.43700 39.98300 29.33900
H  2.18700 41.33400 24.84300
H  2.69700 40.12000 25.90600
H  1.55200 41.47700 26.48000
H  -0.97500 35.70200 22.39000
H  -3.13600 33.64500 22.62100
H  -3.49100 36.96500 22.84100
H  -3.78600 35.52600 21.85500
H  -2.68700 36.72400 21.31100
H  -1.42600 32.64200 21.42300
H  -1.43800 31.95200 22.91800
H  0.79500 32.37700 23.01300
H  0.47500 34.10500 23.09500
H  0.69600 33.16300 21.49500
H  -4.81600 29.39200 26.85300
H  -4.02200 30.00200 25.34000
H  -5.49100 30.81200 26.04000
H  -2.82000 31.16000 31.30100
H  -5.14900 33.10700 34.65800
H  -6.02400 31.60000 34.39100
H  -6.29800 32.81100 33.24700

