158

Mg 35.12900 2.50000 29.74700
C  32.76900 3.16600 32.07200
C  37.58900 2.73000 32.23900
C  37.37700 1.84900 27.32500
C  32.63300 2.74900 27.27700
N  35.10700 2.90800 31.89700
C  34.09000 3.09600 32.68500
C  34.40400 3.15300 34.16800
C  35.96400 3.31100 34.04200
C  36.26200 2.90500 32.64200
C  36.45000 4.74600 34.43600
C  34.04600 1.88600 34.94900
C  33.83200 2.07500 36.45800
H  34.25600 3.42400 37.02500
N  37.18700 2.18900 29.79600
C  38.04800 2.30400 30.89600
C  39.35900 1.97000 30.53500
C  39.32000 1.63900 29.07400
C  37.91200 1.84700 28.63700
C  40.51600 2.06000 31.39800
C  40.46200 1.18200 28.11900
O  40.20800 0.80500 26.96600
C  41.90700 1.23600 28.61400
N  35.07700 2.34400 27.62800
C  36.13300 2.08900 26.85100
C  35.82400 2.09400 25.35700
C  34.28000 2.39500 25.34800
C  33.95000 2.41400 26.84300
C  36.62000 3.11900 24.41600
C  33.40700 1.49700 24.38800
C  32.46200 0.46000 25.01300
N  32.99100 2.87600 29.65600
C  32.11700 2.97700 28.60800
C  30.86200 3.25200 29.13400
C  31.03300 3.40500 30.52000
C  32.36300 3.10500 30.78100
C  29.61000 3.44000 28.34500
C  30.36600 3.72800 31.81400
O  29.16900 4.05400 32.04900
C  31.54500 3.48300 32.90600
C  31.67100 4.70400 33.72700
O  32.15100 5.75900 33.30100
O  30.96800 4.54600 34.90800
C  31.05200 5.76500 35.64500
H  38.31300 2.72500 33.05600
H  38.07000 1.64900 26.50600
H  31.88300 2.75900 26.48500
H  33.94300 4.04500 34.59300
H  36.45900 2.61000 34.71400
H  37.08400 4.63100 35.31500
H  35.65100 5.43200 34.71800
H  37.13500 5.15900 33.69700
H  34.82900 1.14900 34.77200
H  33.23700 1.45500 34.35900
H  34.39600 1.29100 36.96300
H  32.77000 2.03300 36.70000
H  40.15900 2.41100 32.36600
H  41.17300 2.80400 30.94700
H  40.91000 1.05100 31.52000
H  42.51000 1.32400 27.71100
H  42.16300 0.34400 29.18600
H  42.01500 2.19600 29.12000
H  35.98200 1.09500 24.95300
H  34.15100 3.42700 25.02300
H  37.31100 3.63200 25.08400
H  35.93700 3.87200 24.02300
H  37.13100 2.80100 23.50600
H  34.02400 0.92300 23.69700
H  32.74800 2.21400 23.89900
H  32.34400 -0.38500 24.33500
H  31.47400 0.89500 25.17000
H  32.97500 -0.01000 25.85200
H  29.64800 2.90700 27.39500
H  29.62300 4.46900 27.98600
H  28.64900 3.20900 28.80500
H  31.24900 2.60200 33.47600
H  30.47800 6.61200 35.26700
H  32.08700 6.07400 35.79300
H  30.62900 5.59600 36.63500
Mg 47.35400 24.99100 29.18800
C  48.21100 27.43300 31.41200
C  46.61000 22.90200 31.76800
C  46.70100 22.56300 26.87300
C  49.01700 26.76800 26.68000
N  47.41200 25.19200 31.34200
C  47.59800 26.36300 32.01700
C  47.27800 26.08600 33.51700
C  47.18500 24.54500 33.69000
C  47.01900 24.19100 32.15500
C  48.41300 23.80800 34.27000
C  45.98400 26.86600 34.05500
C  46.06800 27.64800 35.39700
H  46.12900 26.74400 36.63700
N  46.48600 23.16000 29.27000
C  46.22200 22.44000 30.40100
C  45.58600 21.16300 30.04000
C  45.53400 21.09000 28.60400
C  46.24200 22.29200 28.19800
C  45.01500 20.17100 30.96500
C  44.99900 19.98400 27.63100
O  44.85100 20.22300 26.43600
C  44.44200 18.61600 28.07700
N  47.75200 24.68300 27.06500
C  47.39700 23.64900 26.31400
C  47.84400 23.76400 24.84100
C  48.45000 25.19600 24.77700
C  48.49100 25.54600 26.27300
C  48.78300 22.66300 24.30200
C  47.60300 26.16800 23.91500
C  48.33100 27.03700 22.88200
N  48.49700 26.71700 29.01500
C  48.97900 27.45200 27.93600
C  49.51700 28.77000 28.41700
C  49.18600 28.75200 29.78500
C  48.66200 27.47600 30.06800
C  50.15300 29.80100 27.58600
C  49.26000 29.58300 30.97100
O  49.71000 30.70500 31.08400
C  48.78000 28.71700 32.06600
C  49.95000 28.43800 32.90300
O  51.07500 28.06300 32.48400
O  49.65500 28.64500 34.27300
C  50.64300 28.25300 35.31500
H  46.32600 22.22900 32.57900
H  46.45800 21.75600 26.17900
H  49.49200 27.30400 25.85500
H  48.17800 26.51600 33.95700
H  46.29100 24.34300 34.27900
H  48.04000 23.22700 35.11300
H  49.18600 24.47700 34.64900
H  48.79200 23.22400 33.43100
H  45.20700 26.10600 33.97300
H  45.75500 27.52700 33.21900
H  45.21400 28.32200 35.46900
H  46.91400 28.32800 35.29700
H  45.23100 19.16600 30.60200
H  43.93900 20.33800 30.99800
H  45.26500 20.38700 32.00400
H  43.59700 18.82400 28.73300
H  45.25200 18.08100 28.57200
H  44.13000 17.98600 27.24400
H  46.92700 23.76100 24.25100
H  49.45000 25.10700 24.35100
H  48.96600 22.73600 23.23000
H  48.44200 21.64300 24.48000
H  49.63700 22.77400 24.96900
H  47.04400 26.81600 24.59000
H  46.83200 25.78400 23.24700
H  47.70600 27.06500 21.99000
H  49.37800 26.78500 22.71400
H  48.43600 28.03300 23.31400
H  49.44900 30.33800 26.95000
H  50.84300 29.24200 26.95400
H  50.76700 30.46400 28.19600
H  48.10300 29.31900 32.67100
H  50.47200 28.96600 36.12100
H  51.64700 28.37900 34.91000
H  50.52500 27.21300 35.61900

