158

Mg 26.62700 50.60500 26.51500
C  24.70000 52.01700 29.02200
C  29.02000 49.70800 28.91900
C  28.71300 49.53900 24.02900
C  24.47800 52.03000 24.24400
N  26.82800 50.92600 28.69400
C  25.82400 51.37700 29.51300
C  26.23800 51.09100 30.97600
C  27.70000 50.55600 30.94800
C  27.84400 50.29800 29.44000
C  28.75900 51.46500 31.45100
C  25.25800 50.12600 31.73600
C  24.78100 50.50300 33.22800
H  24.94000 49.49400 34.39900
N  28.62500 49.69900 26.50100
C  29.43600 49.49300 27.57200
C  30.71100 48.92400 27.08600
C  30.64600 48.91900 25.57800
C  29.29200 49.38100 25.30500
C  31.85400 48.68700 28.09800
C  31.67700 48.51300 24.47200
O  31.57700 48.68000 23.22900
C  32.98300 47.92400 24.94100
N  26.64600 50.81700 24.46400
C  27.45300 50.12000 23.61400
C  27.01700 50.22300 22.17600
C  25.53300 50.74200 22.31600
C  25.54700 51.25300 23.75800
C  27.87400 51.21900 21.42200
C  24.42500 49.60700 22.21900
C  23.32600 49.96800 21.25300
N  24.89700 51.84200 26.56500
C  24.12300 52.25100 25.56900
C  22.94800 52.86200 26.03800
C  23.02000 52.81700 27.39900
C  24.31400 52.22200 27.70100
C  21.92700 53.53800 25.30500
C  22.47600 53.13800 28.68300
O  21.52700 53.82100 28.87700
C  23.55500 52.61100 29.77000
C  23.99100 53.81300 30.51600
O  24.61500 54.78000 30.10700
O  23.67100 53.66900 31.84300
C  24.19500 54.66700 32.78500
H  29.61700 49.25200 29.71100
H  29.23100 49.09800 23.17500
H  23.80800 52.40200 23.46600
H  26.27400 51.97800 31.60900
H  27.83600 49.57400 31.40200
H  28.56300 51.75100 32.48400
H  28.75400 52.37000 30.84500
H  29.72800 50.99300 31.61800
H  25.62400 49.10000 31.73200
H  24.41900 49.98500 31.05400
H  23.71300 50.71900 33.21200
H  25.40400 51.36600 33.46100
H  31.80800 47.66500 28.47500
H  31.87200 49.38300 28.93600
H  32.79400 48.89300 27.58500
H  32.73100 47.22600 25.73900
H  33.50700 48.76900 25.38900
H  33.60800 47.56800 24.12300
H  26.98200 49.23800 21.71100
H  25.43300 51.56000 21.60400
H  28.77700 51.59600 21.90100
H  27.32900 52.07000 21.01300
H  28.25800 50.77800 20.50200
H  23.95100 49.32500 23.15900
H  24.96500 48.75700 21.80100
H  23.62200 50.75700 20.56000
H  22.51400 50.38800 21.84700
H  23.01700 49.09300 20.68100
H  22.43900 54.18700 24.59400
H  21.31800 54.16600 25.95600
H  21.30900 52.83000 24.75300
H  23.12700 51.90200 30.47900
H  23.55000 54.51600 33.65000
H  23.97900 55.68900 32.47200
H  25.26600 54.46400 32.79000
Mg 16.65300 51.82600 26.81400
C  18.84800 50.74600 29.32900
C  14.52700 52.87700 29.38900
C  14.65600 53.06300 24.57600
C  18.90300 50.75300 24.45200
N  16.65900 51.75000 29.12800
C  17.68200 51.30700 29.88600
C  17.40600 51.53000 31.32600
C  15.85800 51.92600 31.36200
C  15.59900 52.20100 29.86100
C  14.88600 50.90500 31.95400
C  18.35500 52.66500 31.86300
C  18.26100 53.04100 33.42600
H  17.38200 52.10100 34.30500
N  14.77400 52.71000 26.94600
C  14.19000 53.23100 28.08200
C  13.09600 54.03800 27.67300
C  13.07400 54.14800 26.26000
C  14.22200 53.29700 25.86100
C  12.13400 54.66600 28.71600
C  12.18800 54.86100 25.32300
O  12.29600 54.82400 24.10200
C  11.13100 55.78700 25.96000
N  16.75100 51.72000 24.82500
C  15.71800 52.30700 24.01000
C  15.88100 51.92600 22.49200
C  17.42800 51.64700 22.52300
C  17.69300 51.28400 23.98800
C  15.09100 50.65800 21.98200
C  18.23400 52.91500 21.93300
C  19.47500 52.58200 21.04700
N  18.52600 50.89600 26.75500
C  19.27600 50.48600 25.72400
C  20.52200 49.91500 26.17800
C  20.33700 49.92600 27.56600
C  19.11000 50.55500 27.90100
C  21.62500 49.45500 25.33600
C  20.98700 49.68900 28.86200
O  22.10500 49.23600 29.17800
C  20.00400 50.15000 30.00300
C  19.66300 48.93800 30.82600
O  19.14500 47.92800 30.37300
O  20.06300 49.09600 32.17200
C  19.59900 48.08700 33.15800
H  13.89300 53.20300 30.21600
H  13.97700 53.37700 23.78100
H  19.58800 50.45800 23.65400
H  17.48300 50.62900 31.93500
H  15.83900 52.91700 31.81500
H  14.21300 51.44000 32.62400
H  15.40900 50.07800 32.43400
H  14.28700 50.48300 31.14700
H  18.10900 53.55400 31.28200
H  19.39400 52.40600 31.66500
H  17.95500 54.07800 33.56200
H  19.31600 53.18900 33.65600
H  11.33500 53.95700 28.93500
H  11.75900 55.64900 28.43300
H  12.59100 54.77400 29.69900
H  11.57900 56.65200 26.45000
H  10.49500 55.20100 26.62400
H  10.48800 55.99600 25.10500
H  15.74200 52.68200 21.71900
H  17.76500 50.77000 21.96900
H  14.26000 50.45700 22.65800
H  15.64300 49.72100 22.04900
H  14.78600 50.82500 20.94800
H  18.57300 53.46100 22.81300
H  17.55700 53.67100 21.53500
H  19.24900 52.86600 20.01900
H  19.71300 51.51800 21.02800
H  20.35600 53.01900 21.51700
H  21.98300 50.14900 24.57600
H  21.41900 48.53600 24.78700
H  22.42400 49.18700 26.02700
H  20.64700 50.77000 30.62800
H  18.89400 47.34200 32.79000
H  19.01100 48.65600 33.87800
H  20.48300 47.62000 33.59100

