158

Mg 17.25500 -1.67700 27.08700
C  16.24800 0.10600 29.88700
C  19.30900 -3.64500 28.97400
C  18.62300 -2.81900 24.16000
C  15.25400 0.51100 25.13900
N  17.87500 -1.59500 29.18000
C  17.28300 -0.86400 30.16400
C  17.69600 -1.42500 31.60600
C  18.82800 -2.50400 31.27200
C  18.67800 -2.62400 29.72500
C  20.28800 -2.14700 31.80900
C  16.53700 -2.04100 32.43500
C  16.50500 -1.70400 33.94100
H  17.64900 -0.91300 34.64900
N  18.53400 -3.22100 26.61300
C  19.27000 -3.86600 27.56000
C  19.91400 -4.96000 26.81400
C  19.74200 -4.72600 25.41400
C  18.90600 -3.54900 25.36000
C  20.82900 -5.90600 27.53800
C  20.23900 -5.59600 24.30000
O  20.00500 -5.39800 23.09300
C  20.97400 -6.87000 24.55900
N  16.95400 -1.30300 25.01400
C  17.78300 -1.71200 24.04600
C  17.30200 -1.20700 22.64800
C  16.09900 -0.28300 22.99700
C  16.07000 -0.37100 24.47400
C  18.37700 -0.56400 21.85100
C  14.82900 -0.74500 22.27300
C  14.49100 -0.07000 20.96000
N  15.99200 -0.01300 27.43500
C  15.20400 0.72600 26.49500
C  14.56700 1.78500 27.21300
C  14.87500 1.51700 28.59900
C  15.76700 0.44700 28.64300
C  13.69500 2.92700 26.64200
C  14.77200 2.07000 29.99400
O  14.15700 3.01900 30.43100
C  15.58900 1.12800 30.87200
C  16.61100 1.93500 31.54300
O  17.72900 2.26200 31.07200
O  16.07000 2.34700 32.80900
C  16.98700 3.27800 33.56700
H  19.92400 -4.26900 29.62600
H  19.07200 -3.21100 23.24500
H  14.58000 1.16600 24.58400
H  18.09200 -0.66500 32.27800
H  18.60400 -3.45400 31.75500
H  21.02200 -2.39000 31.04100
H  20.68100 -2.62100 32.70800
H  20.25000 -1.08300 32.04200
H  16.47700 -3.12900 32.39800
H  15.57000 -1.60300 32.18500
H  16.23300 -2.55000 34.57200
H  15.64600 -1.04400 34.06000
H  20.45400 -6.92700 27.46900
H  20.70100 -5.66500 28.59400
H  21.87100 -5.89600 27.22200
H  21.78000 -6.68600 25.26900
H  21.47900 -7.20000 23.65100
H  20.31000 -7.62900 24.97400
H  17.03900 -2.15600 22.18100
H  16.39800 0.74400 22.78800
H  18.84900 -1.18700 21.09100
H  19.20000 -0.25400 22.49600
H  17.87400 0.21100 21.27300
H  13.96000 -0.63100 22.92100
H  14.92700 -1.82800 22.19800
H  15.08600 0.84200 20.91700
H  13.43400 0.19000 21.01500
H  14.66600 -0.72900 20.11000
H  13.16800 2.62900 25.73600
H  14.28200 3.83500 26.49700
H  12.93200 3.29600 27.32800
H  14.96500 0.59200 31.58600
H  17.76800 2.67300 34.02700
H  16.37500 3.69800 34.36500
H  17.31100 4.12700 32.96500
Mg 46.50400 24.86600 28.21500
C  47.35700 27.10000 30.88500
C  46.06500 22.35200 30.35600
C  46.56300 22.79400 25.53200
C  47.59100 27.52900 26.07900
N  46.72100 24.75500 30.30200
C  46.78900 25.81700 31.21000
C  46.39800 25.44700 32.62500
C  46.18200 23.89900 32.42100
C  46.24800 23.64700 30.93000
C  47.12800 22.96500 33.24500
C  45.11200 26.21000 33.18100
C  45.40200 27.00100 34.47900
H  44.54600 26.82100 35.70900
N  46.24700 22.85000 27.91900
C  46.07400 21.96200 28.98300
C  46.05100 20.58700 28.42000
C  46.30600 20.67400 26.98100
C  46.40700 22.16100 26.74300
C  45.79200 19.36100 29.37200
C  46.44400 19.62400 25.90900
O  46.82200 19.78000 24.74200
C  46.25900 18.19900 26.46000
N  46.85900 25.18000 26.11100
C  46.63800 24.18100 25.22100
C  47.13200 24.61700 23.87700
C  47.03900 26.17300 24.00400
C  47.26600 26.31800 25.50100
C  48.58000 24.14100 23.48200
C  45.73900 26.81000 23.50600
C  44.39000 26.38900 24.08400
N  47.36300 26.88200 28.36500
C  47.73100 27.80000 27.43600
C  48.18900 29.00100 28.06800
C  48.01100 28.82400 29.47100
C  47.56500 27.44900 29.61200
C  48.60800 30.27100 27.42100
C  48.18600 29.33300 30.78800
O  48.56300 30.44200 31.24900
C  47.79500 28.22400 31.76900
C  48.89600 27.95900 32.75600
O  49.95400 27.50600 32.46400
O  48.46400 28.43500 33.99600
C  49.38200 28.12400 35.13100
H  45.86000 21.57500 31.09600
H  46.53500 22.21100 24.61000
H  47.86500 28.37400 25.44400
H  47.24700 25.49500 33.30700
H  45.12600 23.69300 32.59500
H  46.52500 22.39100 33.95000
H  48.03700 23.44800 33.60300
H  47.60300 22.20600 32.62300
H  44.38500 25.43100 33.41000
H  44.71800 26.83500 32.38100
H  45.36800 28.07500 34.29700
H  46.42300 26.74400 34.75900
H  45.00100 18.74900 28.93800
H  45.50300 19.79000 30.33200
H  46.68000 18.74100 29.48800
H  47.09800 18.02000 27.13300
H  46.34900 17.38700 25.73800
H  45.30100 18.12800 26.97500
H  46.49500 24.42500 23.01300
H  47.87000 26.60200 23.44200
H  48.95300 23.56700 24.33000
H  49.36500 24.89600 23.43300
H  48.50000 23.57800 22.55200
H  45.72700 26.50500 22.46000
H  45.76500 27.89800 23.44300
H  43.95700 27.27800 24.54400
H  44.55800 25.53000 24.73400
H  43.75800 26.11100 23.24100
H  49.57000 30.53800 27.85900
H  47.87600 31.07200 27.51700
H  48.88900 30.05500 26.39000
H  46.84800 28.45200 32.25700
H  50.42800 27.95800 34.87500
H  49.14800 27.11900 35.48200
H  49.19000 28.74700 36.00600

