158

Mg 24.26600 -6.91200 47.22300
C  27.10700 -4.73700 46.39200
C  22.42400 -5.19400 44.85200
C  22.08900 -9.39900 47.30100
C  26.73000 -8.98300 48.87000
N  24.82300 -5.25100 45.72500
C  25.94100 -4.41100 45.69900
C  25.77400 -3.19800 44.77800
C  24.14700 -3.31700 44.54300
C  23.79800 -4.76500 45.00700
C  23.33800 -2.23300 45.31800
C  26.55800 -3.33300 43.38900
C  26.78800 -2.04400 42.65000
H  25.96200 -1.75700 41.46500
N  22.42800 -7.17800 46.40800
C  21.80100 -6.31500 45.50700
C  20.50000 -6.78900 45.26000
C  20.36900 -8.06400 45.86800
C  21.66900 -8.25300 46.61500
C  19.54500 -6.17200 44.25900
C  19.12800 -8.98600 45.83200
O  18.14900 -8.66400 45.19000
C  19.03900 -10.26800 46.54400
N  24.46100 -8.90300 47.78800
C  23.35100 -9.70300 47.82400
C  23.65400 -11.09600 48.40300
C  25.16300 -10.95500 48.81400
C  25.52900 -9.53400 48.42500
C  22.67100 -11.43400 49.65500
C  26.11300 -12.01700 48.23700
C  26.09600 -13.31600 49.13100
N  26.42500 -6.83100 47.64900
C  27.24400 -7.71600 48.45300
C  28.57100 -7.19700 48.63100
C  28.51900 -5.99800 47.87600
C  27.27400 -5.88700 47.18500
C  29.72800 -7.78600 49.41200
C  29.30400 -4.90300 47.46700
O  30.42100 -4.57700 47.78800
C  28.45800 -4.05500 46.34000
C  28.37100 -2.64800 46.67900
O  28.00100 -2.12500 47.71200
O  28.86900 -1.94300 45.57700
C  28.95000 -0.48400 45.70700
H  21.85200 -4.51800 44.21200
H  21.56000 -10.35300 47.23700
H  27.23600 -9.52800 49.66900
H  25.99100 -2.23000 45.23000
H  23.90800 -3.32500 43.48000
H  22.66000 -1.72500 44.63100
H  23.99700 -1.44300 45.67800
H  22.84200 -2.59000 46.22000
H  25.96600 -3.96800 42.73000
H  27.52800 -3.79700 43.56500
H  27.83900 -1.97700 42.36700
H  26.73100 -1.17300 43.30300
H  18.51000 -6.02900 44.56900
H  19.58900 -6.59500 43.25600
H  19.91400 -5.15100 44.16600
H  19.56400 -11.11900 46.11200
H  17.96900 -10.43200 46.42100
H  19.30300 -10.21400 47.60000
H  23.66000 -11.84300 47.61000
H  25.25200 -11.08900 49.89200
H  21.96000 -12.14400 49.23500
H  22.18800 -10.50300 49.95300
H  23.26200 -11.88400 50.45300
H  27.09400 -11.55100 48.33100
H  25.95800 -12.29300 47.19400
H  26.98100 -13.40000 49.76100
H  26.06100 -14.11800 48.39300
H  25.25200 -13.44300 49.80900
H  30.18400 -8.73900 49.14400
H  29.25900 -7.88600 50.39100
H  30.44000 -6.96400 49.48800
H  28.94500 -4.18800 45.37400
H  29.08700 0.02000 44.75000
H  29.84500 -0.26100 46.28800
H  28.06600 -0.01600 46.14000
Mg 53.47500 23.82300 44.55500
C  50.81500 25.68500 43.69900
C  51.99000 21.00900 43.73500
C  56.50500 22.25800 44.89300
C  55.05700 26.87900 45.58800
N  51.60100 23.43200 43.62200
C  50.59800 24.31600 43.39800
C  49.36200 23.59100 42.93600
C  49.53500 22.15700 43.59400
C  51.11400 22.17300 43.68800
C  48.93100 21.85700 44.93900
C  49.41300 23.61900 41.35200
C  48.09400 23.93900 40.61900
H  47.37800 22.68700 40.09000
N  54.17500 21.88500 44.16700
C  53.39400 20.86100 43.74800
C  54.12500 19.67200 43.57200
C  55.44000 20.03900 43.97300
C  55.42500 21.43200 44.41700
C  53.52600 18.29500 43.17300
C  56.67900 19.09900 43.94500
O  56.54700 17.97600 43.58900
C  58.03100 19.54800 44.26400
N  55.57700 24.52900 44.94900
C  56.56500 23.60100 45.17600
C  57.91700 24.30200 45.64400
C  57.45000 25.78300 45.90000
C  55.92200 25.74200 45.46000
C  58.61200 23.66100 46.82600
C  58.27900 26.85500 45.19600
C  58.36600 28.27300 45.90400
N  53.11300 25.88500 44.58800
C  53.71300 26.95300 45.16100
C  52.83300 28.09300 45.26300
C  51.67300 27.65700 44.68500
C  51.91700 26.31800 44.27800
C  53.03300 29.41300 45.94800
C  50.31000 27.92900 44.35100
O  49.64400 28.92700 44.59300
C  49.68400 26.69400 43.68000
C  49.14500 27.07300 42.35400
O  49.81800 27.43200 41.40400
O  47.78800 27.18500 42.39500
C  47.26400 27.93200 41.24500
H  51.44300 20.06500 43.72300
H  57.45300 21.73300 45.02600
H  55.46600 27.79700 46.01600
H  48.51600 24.20600 43.24200
H  49.14000 21.43900 42.87600
H  49.65700 21.56100 45.69600
H  48.13000 21.11900 44.90200
H  48.43000 22.71700 45.38300
H  49.79500 22.62900 41.10100
H  50.14400 24.29000 40.90100
H  48.30600 24.58300 39.76500
H  47.54900 24.45900 41.40700
H  53.80800 18.05100 42.14900
H  52.44600 18.43500 43.22300
H  53.82500 17.48000 43.83300
H  58.38100 20.26900 43.52500
H  58.64800 18.65200 44.19100
H  58.13300 19.93200 45.27900
H  58.66500 24.43600 44.86200
H  57.35600 26.04700 46.95300
H  59.68600 23.79000 46.69300
H  58.58900 22.58400 46.99200
H  58.47500 24.18800 47.77000
H  57.96700 27.03900 44.16800
H  59.30600 26.49100 45.18400
H  59.27300 28.78500 45.58300
H  58.35700 28.20100 46.99100
H  57.48100 28.82600 45.59000
H  52.45800 29.40500 46.87400
H  52.77000 30.22100 45.26500
H  54.10600 29.53700 46.09900
H  48.86000 26.54800 44.37800
H  47.39200 27.25300 40.40200
H  47.78800 28.85400 40.99600
H  46.18100 28.05500 41.26300

