158

Mg 48.16200 34.84500 26.71700
C  46.52100 33.28500 29.37400
C  48.71000 37.52100 28.84800
C  49.71400 36.20300 24.17200
C  47.54100 31.94700 24.70900
N  47.87700 35.21300 28.93900
C  47.21700 34.44600 29.80400
C  47.38300 35.07800 31.16400
C  47.62200 36.58500 30.88500
C  48.12200 36.42000 29.49100
C  46.44100 37.52500 31.10400
C  48.62800 34.40600 31.86000
C  48.69000 34.47800 33.42000
H  47.65300 35.30200 34.18000
N  48.90600 36.64900 26.47200
C  49.04500 37.62600 27.45800
C  49.80200 38.75700 26.94700
C  50.25100 38.35800 25.59000
C  49.54300 37.07100 25.31300
C  50.25400 40.02200 27.85000
C  51.25100 39.07300 24.60400
O  51.62000 38.53800 23.56500
C  51.76200 40.39300 25.01000
N  48.47100 34.26500 24.57000
C  49.35100 34.93800 23.86900
C  49.81300 34.10900 22.65900
C  49.09800 32.72400 22.86100
C  48.30200 32.97800 24.09600
C  49.32100 34.78300 21.37000
C  50.09600 31.51000 23.09300
C  50.44900 30.70500 21.77000
N  47.12700 33.08500 26.92500
C  47.04200 31.98700 26.00900
C  46.28700 30.90300 26.74600
C  46.05100 31.47000 27.97800
C  46.64100 32.74200 28.08200
C  45.84500 29.64800 26.16200
C  45.34000 31.17600 29.23400
O  44.66100 30.19200 29.52500
C  45.50400 32.43400 30.11300
C  45.63400 32.13200 31.56800
O  46.64800 31.84300 32.16500
O  44.42800 32.35500 32.11900
C  44.38500 32.31800 33.63200
H  48.83200 38.36900 29.52500
H  50.33800 36.63100 23.38500
H  47.34000 31.04500 24.12600
H  46.52400 34.84900 31.79500
H  48.40300 36.93700 31.55900
H  46.60500 38.22600 31.92200
H  45.54100 36.93900 31.29200
H  46.26400 38.17800 30.24900
H  49.48800 34.94400 31.46200
H  48.71400 33.37100 31.52800
H  49.62500 34.94200 33.73600
H  48.67200 33.51400 33.92800
H  49.86100 40.98700 27.52800
H  51.34200 39.99900 27.91700
H  49.92800 39.92100 28.88500
H  52.36800 40.82400 24.21300
H  52.46000 40.39300 25.84700
H  50.91500 41.07500 25.08500
H  50.90200 34.09100 22.61900
H  48.42200 32.61000 22.01400
H  48.67900 35.66300 21.41500
H  48.92300 34.06200 20.65600
H  50.24800 35.04400 20.86100
H  49.74400 30.76500 23.80600
H  51.05000 31.87400 23.47400
H  49.83700 31.01300 20.92200
H  50.22900 29.65700 21.97200
H  51.51100 30.78300 21.53600
H  45.39400 29.85300 25.19100
H  45.13600 29.26800 26.89700
H  46.70300 28.99200 26.01700
H  44.51400 32.82800 29.88100
H  43.71600 33.10600 33.97900
H  45.35500 32.48600 34.10000
H  44.06700 31.32800 33.96000
Mg 35.96200 48.63400 24.62500
C  36.41500 46.83700 27.58500
C  34.77600 51.32600 26.44100
C  35.65200 50.32200 21.81500
C  37.31200 45.94500 22.92100
N  35.52600 48.93400 26.80900
C  35.85800 48.10100 27.84200
C  35.59600 48.77500 29.14700
C  34.90400 50.11700 28.74800
C  35.06900 50.17800 27.27200
C  33.36600 50.25900 29.02100
C  36.86000 48.98800 30.04000
C  36.76000 48.73800 31.53500
H  35.43700 48.82200 32.29600
N  35.24100 50.47000 24.19000
C  34.82700 51.42800 25.06500
C  34.54800 52.65700 24.33700
C  34.70300 52.28600 23.00100
C  35.18200 50.95200 22.94000
C  34.18900 53.92600 25.07300
C  34.39900 53.21200 21.78800
O  34.59300 52.89600 20.62200
C  34.02100 54.60500 21.98600
N  36.44600 48.23100 22.67000
C  36.09400 49.04800 21.67900
C  36.46800 48.49900 20.33600
C  37.00500 47.07100 20.66600
C  36.90800 47.06400 22.17600
C  35.40200 48.53900 19.25700
C  38.45800 46.59300 20.13200
C  39.67300 47.05300 20.93300
N  36.72700 46.77700 25.05700
C  37.10800 45.72400 24.29100
C  37.59200 44.64000 25.07600
C  37.31600 45.03600 26.38200
C  36.71800 46.36600 26.30200
C  38.24600 43.41700 24.50200
C  37.44300 44.56500 27.73700
O  37.86700 43.52300 28.16200
C  36.72800 45.66600 28.60500
C  35.46100 45.27600 29.15900
O  34.43800 44.86000 28.57400
O  35.62100 45.35200 30.56400
C  34.54300 44.68000 31.33000
H  34.46000 52.16900 27.05900
H  35.73500 50.95400 20.92800
H  37.72600 45.10500 22.36000
H  35.04600 48.00300 29.68600
H  35.44500 50.97600 29.14700
H  32.86900 49.43600 29.53400
H  32.74300 50.42300 28.14200
H  33.25000 51.03200 29.78100
H  37.27400 49.98500 29.88600
H  37.59400 48.26500 29.68400
H  37.47900 49.41500 31.99700
H  37.03200 47.70300 31.74300
H  33.37400 54.48000 24.60600
H  35.13300 54.45100 25.21900
H  33.75400 53.78200 26.06200
H  34.56700 55.14400 22.76000
H  33.01500 54.57900 22.40400
H  34.00200 55.17100 21.05500
H  37.32900 49.10300 20.04800
H  36.22000 46.42200 20.27800
H  34.43600 48.53800 19.76000
H  35.31900 47.66000 18.61800
H  35.58900 49.44200 18.67500
H  38.54800 46.94900 19.10600
H  38.62500 45.52100 20.02700
H  39.40200 48.00200 21.39600
H  40.59200 47.35100 20.42900
H  39.99900 46.36600 21.71400
H  38.28200 42.52100 25.12200
H  39.10500 43.78500 23.94200
H  37.55300 42.97200 23.78800
H  37.34100 46.03200 29.42900
H  34.86500 44.79600 32.36400
H  34.50400 43.62800 31.04700
H  33.58900 45.18400 31.17700

