158

Mg 49.20500 35.39400 27.23200
C  46.98400 34.01100 29.68200
C  49.59300 38.09800 29.35200
C  51.32400 36.51000 25.06800
C  48.06900 32.90000 25.06700
N  48.48500 35.95000 29.31200
C  47.60600 35.18500 30.11400
C  47.60900 35.78800 31.57400
C  48.09900 37.25500 31.27300
C  48.70300 37.13100 29.84400
C  47.03300 38.38800 31.33700
C  48.56600 34.98200 32.47300
C  49.71300 35.70600 33.20100
H  49.23400 36.76100 34.31900
N  50.37700 37.07000 27.20200
C  50.46300 38.08000 28.13900
C  51.42800 39.04800 27.76000
C  51.97300 38.57000 26.49700
C  51.18400 37.35500 26.15600
C  51.68300 40.40500 28.56500
C  53.05500 39.35900 25.61900
O  53.21700 39.04200 24.42500
C  53.82700 40.56400 26.16200
N  49.42900 34.95500 25.19200
C  50.47300 35.52400 24.58700
C  50.83000 34.77700 23.24400
C  49.67000 33.75300 23.14100
C  49.00400 33.84500 24.52600
C  50.86600 35.60300 21.94100
C  50.00500 32.38900 22.61400
C  49.10100 31.68900 21.53400
N  47.87100 33.80000 27.32100
C  47.53200 32.83400 26.40300
C  46.56800 31.92900 26.89000
C  46.29700 32.36600 28.15700
C  47.09300 33.50700 28.39500
C  46.11700 30.69900 26.18400
C  45.59100 32.03100 29.38800
O  44.76700 31.13300 29.50800
C  45.98100 33.02300 30.40900
C  46.48400 32.42400 31.66800
O  47.43800 31.63600 31.83100
O  45.58800 32.70300 32.70500
C  45.87300 32.23800 34.09500
H  49.71500 38.90300 30.07900
H  52.09500 36.67600 24.31300
H  47.83900 32.06600 24.40100
H  46.54300 35.71700 31.79000
H  48.87200 37.62900 31.94400
H  47.42500 39.18300 31.97000
H  46.10700 37.91500 31.66300
H  46.93000 38.83500 30.34800
H  48.81500 34.05000 31.96600
H  47.86700 34.79400 33.28800
H  50.31200 36.15500 32.40900
H  50.33800 34.92700 33.63900
H  52.66400 40.28700 29.02500
H  51.00200 40.44900 29.41500
H  51.57300 41.16800 27.79500
H  53.27600 41.45400 26.46600
H  54.79200 40.65100 25.66100
H  54.12200 40.13400 27.12000
H  51.74500 34.22600 23.46000
H  48.88700 34.24500 22.56300
H  50.23500 36.47800 22.10000
H  50.44200 35.10000 21.07100
H  51.91100 35.90400 21.87900
H  50.16100 31.84400 23.54600
H  50.95500 32.49500 22.09000
H  48.39700 32.49300 21.32100
H  48.65600 30.76600 21.90700
H  49.53700 31.40200 20.57600
H  45.51600 31.05000 25.34500
H  45.51900 30.02900 26.80200
H  46.93800 30.04100 25.90100
H  44.99100 33.45000 30.56400
H  44.95200 32.05300 34.64700
H  46.36300 33.09200 34.56300
H  46.47700 31.33300 34.16100
Mg 17.61000 51.49000 25.74000
C  19.38900 50.14800 28.40100
C  15.22100 52.46700 28.00600
C  15.89000 52.79700 23.15500
C  19.80000 50.06500 23.46300
N  17.44400 51.50600 28.04100
C  18.30400 50.88100 28.90000
C  17.75400 50.85500 30.30800
C  16.34400 51.59800 30.17200
C  16.25200 51.82300 28.63200
C  15.14300 50.74800 30.57500
C  18.65000 51.54200 31.39500
C  18.45800 51.06200 32.83800
H  17.50400 51.78100 33.84800
N  15.89300 52.43200 25.61800
C  15.03000 52.72500 26.60500
C  13.83000 53.33900 26.11400
C  13.99800 53.54300 24.64300
C  15.30100 52.93700 24.42400
C  12.76500 53.80700 27.02200
C  13.09600 54.24600 23.60800
O  13.24300 54.31100 22.38600
C  11.90100 54.85800 24.20700
N  17.73300 51.31000 23.59900
C  16.97100 52.00700 22.73400
C  17.27900 51.75000 21.20700
C  18.59400 50.99000 21.39200
C  18.79900 50.79200 22.90700
C  16.15400 51.07700 20.33500
C  19.85800 51.67500 20.73600
C  20.83200 52.60800 21.52600
N  19.18300 50.32600 25.83200
C  20.01400 49.73800 24.84800
C  21.03600 48.99100 25.52400
C  20.80600 49.10100 26.90800
C  19.73100 49.92700 27.02500
C  22.14400 48.29100 24.81600
C  21.29100 48.70700 28.16800
O  22.23000 48.00300 28.47900
C  20.35500 49.41000 29.22700
C  19.88500 48.38500 30.12200
O  19.18400 47.39000 29.87200
O  20.51400 48.55800 31.36300
C  20.24400 47.57500 32.43100
H  14.42500 52.77900 28.68600
H  15.36800 53.14300 22.26000
H  20.40500 49.51400 22.74000
H  17.61100 49.80200 30.55400
H  16.21600 52.56300 30.66300
H  14.28600 50.94300 29.93100
H  14.76000 50.80500 31.59400
H  15.20600 49.74500 30.15200
H  18.34200 52.58600 31.44100
H  19.70100 51.39600 31.14600
H  19.48700 51.08400 33.19500
H  18.20500 50.00500 32.75300
H  11.74800 53.64500 26.66500
H  13.00700 54.86300 27.14400
H  12.73100 53.19700 27.92500
H  11.36500 55.38700 23.41900
H  12.19800 55.49500 25.04000
H  11.07500 54.19500 24.46400
H  17.58000 52.68200 20.72800
H  18.42700 49.99500 20.98200
H  16.55800 50.46600 19.52900
H  15.61700 51.91500 19.88900
H  15.60900 50.43600 21.02800
H  19.58800 52.20900 19.82500
H  20.46200 50.86900 20.31900
H  21.76700 52.12100 21.80100
H  20.32800 52.91000 22.44400
H  21.05400 53.44400 20.86300
H  22.83400 49.06400 24.47900
H  21.73900 47.95800 23.86100
H  22.66400 47.51200 25.37200
H  20.96400 50.06500 29.84900
H  19.90600 46.62400 32.02100
H  19.54200 47.80600 33.23300
H  21.23700 47.51300 32.87700

