158

Mg 17.21500 -2.56300 28.41400
C  16.57200 -0.53200 31.32400
C  19.12700 -4.57300 30.46400
C  18.09100 -4.34100 25.72200
C  15.76400 -0.11400 26.46900
N  17.67000 -2.58500 30.61200
C  17.22700 -1.69500 31.65100
C  17.73300 -2.09100 33.04300
C  18.80400 -3.21200 32.67300
C  18.51300 -3.50000 31.20800
C  20.31600 -2.87500 32.88300
C  16.52400 -2.53300 33.98200
C  16.25800 -1.61400 35.22800
H  17.35000 -0.83300 35.83600
N  18.37600 -4.32900 28.15000
C  19.04700 -4.92400 29.11000
C  19.71100 -6.05200 28.54400
C  19.64500 -5.95600 27.13900
C  18.67800 -4.86600 26.89100
C  20.35300 -7.05900 29.43700
C  20.36600 -6.75100 26.09400
O  20.19900 -6.58700 24.89000
C  21.31100 -7.86100 26.45500
N  16.87900 -2.36600 26.45100
C  17.30400 -3.21900 25.47900
C  16.90700 -2.71000 24.09600
C  16.11900 -1.40800 24.40000
C  16.22100 -1.26600 25.88500
C  18.10400 -2.54000 23.15400
C  14.69200 -1.39700 23.86400
C  13.75100 -2.41600 24.52600
N  16.32400 -0.68200 28.82300
C  15.78900 0.15500 27.89800
C  15.18100 1.32000 28.49000
C  15.48300 1.12500 29.87100
C  16.16600 -0.12200 30.01100
C  14.48200 2.44200 27.76500
C  15.27400 1.65600 31.23600
O  14.72600 2.65500 31.70900
C  16.10700 0.65000 32.19900
C  17.31500 1.53000 32.56700
O  18.40500 1.60300 32.03400
O  16.93900 2.27100 33.68300
C  17.96200 3.27300 34.15800
H  19.83800 -5.12500 31.08200
H  18.38000 -4.81800 24.78300
H  15.09700 0.51300 25.87300
H  18.31100 -1.28100 33.48900
H  18.62600 -4.14200 33.21400
H  20.69400 -3.63800 33.56400
H  20.43300 -1.87400 33.30000
H  20.84100 -2.89000 31.92800
H  16.70400 -3.57100 34.26300
H  15.66800 -2.52800 33.30600
H  15.88300 -2.31300 35.97600
H  15.54000 -0.81100 35.06100
H  20.11300 -7.14300 30.49700
H  21.41600 -6.82000 29.44400
H  20.18600 -8.10700 29.18800
H  21.98300 -7.48900 27.22800
H  21.87100 -8.04800 25.53900
H  20.65900 -8.69200 26.72600
H  16.22400 -3.43700 23.65500
H  16.55000 -0.44200 24.13800
H  18.13200 -1.46300 22.98900
H  18.03400 -3.04100 22.18900
H  19.02700 -2.85500 23.64100
H  14.75100 -1.66200 22.80800
H  14.06400 -0.50600 23.88100
H  12.97500 -1.91200 25.10200
H  14.35200 -3.04500 25.18400
H  13.27600 -3.02100 23.75400
H  13.66800 2.06000 27.14900
H  15.20900 2.96600 27.14500
H  14.02600 3.12900 28.47800
H  15.43900 0.37600 33.01500
H  17.95200 4.25100 33.67600
H  18.96700 2.90500 33.95200
H  17.99400 3.26700 35.24800
Mg 44.96600 3.09200 47.20900
C  42.99900 5.97000 46.77200
C  42.07800 1.14500 46.74300
C  46.99400 0.36900 46.61200
C  47.85000 5.18400 46.72500
N  42.80700 3.53800 46.80000
C  42.27400 4.76900 46.78900
C  40.74500 4.64000 46.39800
C  40.38500 3.09000 46.62400
C  41.83300 2.52200 46.79800
C  39.54000 2.97000 47.94500
C  40.40500 5.17400 44.94400
C  39.21200 6.20800 44.81400
H  38.29500 6.04200 43.68700
N  44.57500 1.08400 46.96500
C  43.34500 0.47200 46.89100
C  43.55300 -0.99600 46.83800
C  44.94800 -1.25200 46.81700
C  45.59700 0.09900 46.87400
C  42.34700 -1.93100 46.76500
C  45.59800 -2.63500 46.65900
O  44.92100 -3.65700 46.86100
C  46.90200 -2.81700 46.24100
N  47.10100 2.81900 46.72400
C  47.67000 1.59400 46.62100
C  49.22000 1.73600 46.38600
C  49.51200 3.25000 46.40200
C  48.06600 3.78800 46.63500
C  50.00000 0.90800 47.38900
C  50.13600 3.80500 45.08000
C  51.04100 4.94800 45.19200
N  45.45900 5.14500 47.04200
C  46.63600 5.86900 46.93500
C  46.35300 7.33700 46.82900
C  44.92000 7.40800 46.77700
C  44.42600 6.05400 46.88000
C  47.29800 8.41400 46.52400
C  43.70900 8.28100 46.60600
O  43.61500 9.49200 46.54500
C  42.46800 7.40500 46.52400
C  41.64300 7.90600 47.68700
O  41.75900 7.49600 48.79500
O  40.84500 8.99600 47.22500
C  40.15600 9.74400 48.33100
H  41.19000 0.52200 46.61700
H  47.74800 -0.39100 46.40000
H  48.77100 5.71100 46.46700
H  40.08700 5.25800 47.00900
H  39.93900 2.66500 45.72600
H  40.15700 2.53200 48.73100
H  38.69200 2.36900 47.61800
H  39.24300 3.95400 48.30900
H  40.10500 4.32600 44.32900
H  41.31900 5.66700 44.61100
H  39.54300 7.24200 44.71800
H  38.63500 6.19200 45.73900
H  42.63100 -2.70600 46.05300
H  41.39300 -1.54700 46.40300
H  42.24400 -2.41700 47.73500
H  47.11600 -2.24500 45.33900
H  47.12500 -3.84400 45.95200
H  47.60500 -2.55700 47.03200
H  49.25400 1.35400 45.36600
H  50.14600 3.47100 47.26100
H  49.35500 0.25500 47.97700
H  50.61800 1.49500 48.06800
H  50.59400 0.15400 46.87200
H  49.36600 4.00200 44.33400
H  50.61200 2.92300 44.65100
H  50.92200 5.37900 46.18600
H  50.62100 5.79600 44.65000
H  52.04500 4.66700 44.87300
H  48.10900 8.48800 47.24900
H  46.73700 9.34800 46.54900
H  47.69100 8.32500 45.51200
H  41.97200 7.45900 45.55400
H  39.24700 9.22500 48.63500
H  39.86500 10.74000 47.99700
H  40.74400 9.84600 49.24300

