158

Mg 16.89200 -2.56000 28.52000
C  15.37000 -0.80700 31.23100
C  19.03100 -4.11300 30.69100
C  18.14300 -4.20100 25.97000
C  15.08800 -0.41800 26.39100
N  17.05900 -2.62700 30.79200
C  16.41700 -1.73200 31.66300
C  17.13900 -1.90700 33.04700
C  18.41800 -2.73700 32.78700
C  18.19600 -3.17400 31.31500
C  19.79300 -2.08000 32.92100
C  16.18000 -2.56800 34.02300
C  15.81600 -1.80300 35.31400
H  16.90700 -0.95200 35.97000
N  18.15200 -4.25600 28.38500
C  18.93600 -4.72000 29.39700
C  19.73200 -5.78200 28.81800
C  19.45300 -5.90200 27.40100
C  18.56700 -4.72300 27.15500
C  20.63200 -6.54500 29.69000
C  19.92500 -6.81100 26.34100
O  19.69500 -6.77200 25.15700
C  20.72600 -8.01800 26.78100
N  16.69900 -2.22700 26.45100
C  17.22900 -3.17100 25.61400
C  16.99800 -2.66700 24.16400
C  15.92900 -1.59200 24.25200
C  15.83900 -1.41500 25.75800
C  18.32000 -2.19500 23.48000
C  14.58300 -1.90900 23.52000
C  14.19900 -0.88800 22.28700
N  15.58300 -0.95300 28.67300
C  14.96200 -0.16400 27.77900
C  14.07800 0.80400 28.33700
C  14.24700 0.59600 29.69900
C  15.11100 -0.51900 29.87500
C  13.14200 1.78100 27.64600
C  13.89000 1.10500 30.97800
O  13.31500 2.14700 31.31700
C  14.48900 0.13800 32.04900
C  15.22000 0.97100 33.09400
O  16.40300 1.20600 32.95500
O  14.39900 1.72600 33.97700
C  15.12400 2.64600 34.80200
H  19.98600 -4.35300 31.16400
H  18.60700 -4.74400 25.14400
H  14.53300 0.15000 25.64100
H  17.49600 -0.96600 33.46600
H  18.52600 -3.64200 33.38500
H  19.64600 -1.23800 33.59700
H  20.26900 -1.78000 31.98700
H  20.53100 -2.77400 33.32300
H  16.47700 -3.57100 34.33000
H  15.26800 -2.60900 33.42600
H  15.28600 -2.44500 36.01700
H  15.07600 -1.03300 35.09700
H  20.39900 -7.60000 29.54300
H  20.39900 -6.43300 30.74900
H  21.65900 -6.38700 29.36200
H  21.53300 -7.60200 27.38400
H  21.19500 -8.38300 25.86800
H  20.15300 -8.77800 27.31300
H  16.55800 -3.51600 23.64100
H  16.26100 -0.60100 23.94200
H  18.60300 -3.02700 22.83700
H  19.14700 -1.96000 24.15100
H  18.17200 -1.25300 22.95100
H  13.80100 -1.91000 24.27900
H  14.47500 -2.94100 23.18500
H  13.17700 -0.54300 22.44400
H  14.18600 -1.55800 21.42700
H  14.94400 -0.10300 22.15600
H  13.53500 2.07600 26.67400
H  13.13200 2.67000 28.27700
H  12.14600 1.35200 27.53400
H  13.72400 -0.35600 32.64700
H  14.41200 2.93200 35.57700
H  15.26700 3.59700 34.29000
H  16.06900 2.27400 35.19800
Mg 29.99900 58.19600 40.00800
C  27.03400 56.37600 39.28900
C  31.77900 55.88800 38.16400
C  32.64700 60.25600 39.94300
C  28.00800 60.82800 40.97500
N  29.41800 56.31200 38.94200
C  28.18200 55.71700 38.77100
C  28.24900 54.36600 38.05500
C  29.77500 54.21000 37.92100
C  30.36200 55.58800 38.29500
C  30.34600 52.99700 38.70200
C  27.60900 54.22100 36.60600
C  27.18000 55.49100 35.90200
H  27.56900 55.59900 34.40100
N  32.00800 57.94100 39.43700
C  32.55300 56.92500 38.70400
C  33.93600 57.08600 38.54000
C  34.26000 58.35000 39.07400
C  32.96200 58.91900 39.54800
C  34.90200 56.08600 37.93500
C  35.67700 58.99600 39.10500
O  36.65000 58.47400 38.60700
C  35.86400 60.29300 39.84700
N  30.27700 60.20700 40.31700
C  31.50000 60.77000 40.39800
C  31.40500 62.25400 40.95500
C  29.88500 62.35600 41.23000
C  29.36100 61.05900 40.76900
C  32.39300 62.52700 42.13200
C  29.25200 63.63600 40.52000
C  28.12300 64.36500 41.24500
N  27.87800 58.57000 40.28000
C  27.24400 59.67900 40.67600
C  25.84900 59.40700 40.84400
C  25.72900 58.08500 40.34500
C  27.01100 57.67400 39.88400
C  24.72400 60.30700 41.44300
C  24.82200 57.00800 40.12400
O  23.64000 56.90500 40.33900
C  25.63200 55.92000 39.34600
C  25.42100 54.59800 39.83700
O  25.94300 54.09100 40.82100
O  24.54000 53.93200 38.99900
C  23.87700 52.72500 39.58500
H  32.38700 55.23400 37.53500
H  33.35800 61.06300 40.12900
H  27.39000 61.69700 41.20600
H  27.76000 53.62100 38.68300
H  30.12200 54.10400 36.89300
H  31.07800 52.36700 38.19800
H  29.58900 52.28400 39.02900
H  30.55800 53.34600 39.71300
H  26.71800 53.67300 36.91200
H  28.17000 53.58600 35.92100
H  27.45300 56.42400 36.39500
H  26.09100 55.48100 35.84900
H  35.57500 55.68400 38.69200
H  35.59500 56.52000 37.21400
H  34.49300 55.21700 37.41800
H  36.92600 60.46700 40.02500
H  35.26200 60.22800 40.75300
H  35.43200 61.08000 39.22800
H  31.62000 62.98700 40.17700
H  29.65800 62.47000 42.29000
H  31.92100 63.12100 42.91500
H  33.30500 62.99200 41.75900
H  32.70600 61.52300 42.42100
H  28.86700 63.27500 39.56600
H  29.89100 64.49400 40.31000
H  28.40000 65.40600 41.41000
H  28.14400 64.01800 42.27800
H  27.17100 64.11400 40.77800
H  23.85700 59.67400 41.62700
H  24.48500 61.13300 40.77300
H  25.17600 60.73100 42.34000
H  25.12600 55.87900 38.38100
H  24.60000 52.39900 40.33200
H  23.74900 51.86200 38.93100
H  22.89400 52.98800 39.97700

