158

Mg 17.03300 52.26900 25.87000
C  18.80300 51.20800 28.60600
C  14.43600 52.94100 27.92600
C  15.40600 53.42500 23.21100
C  19.73000 51.30000 23.84300
N  16.65000 52.06300 28.02800
C  17.57400 51.66700 28.94000
C  17.08900 51.98300 30.40200
C  15.52300 52.29200 30.17200
C  15.46300 52.45600 28.62900
C  14.57700 51.19300 30.78900
C  17.85200 53.11800 31.11500
C  18.18200 52.89900 32.62500
H  17.13600 51.92200 33.38900
N  15.12400 53.21100 25.66300
C  14.20100 53.29600 26.65300
C  13.13500 53.95600 26.06300
C  13.33200 54.12900 24.68400
C  14.66500 53.61200 24.45200
C  11.93700 54.41800 26.90400
C  12.46900 54.55100 23.51700
O  12.80300 54.89500 22.40400
C  11.03700 54.86300 23.77800
N  17.55600 52.54900 23.80300
C  16.69400 52.91100 22.92300
C  17.24600 52.88600 21.49100
C  18.67900 52.23400 21.71800
C  18.72600 52.07000 23.21500
C  16.29500 52.12200 20.52900
C  19.81300 53.17200 21.21100
C  21.00600 52.50000 20.46700
N  18.78700 51.22900 26.05100
C  19.84900 50.98700 25.17700
C  20.89500 50.28500 25.81900
C  20.55600 50.40400 27.18900
C  19.34100 50.98100 27.28800
C  22.19400 49.70300 25.27500
C  21.03300 50.21000 28.52100
O  22.07300 49.74800 28.91000
C  19.97400 50.78300 29.48000
C  19.63000 49.59100 30.20200
O  18.82000 48.72500 29.82600
O  20.33000 49.53900 31.36300
C  19.54200 49.12800 32.49500
H  13.61600 53.17300 28.60800
H  14.82300 53.65000 22.31600
H  20.50400 50.93400 23.16600
H  17.14300 51.01800 30.90600
H  15.27300 53.14400 30.80600
H  14.13400 50.66300 29.94600
H  13.75100 51.57900 31.38600
H  15.12800 50.55100 31.47600
H  17.24900 54.02600 31.12500
H  18.69700 53.25000 30.43900
H  18.24200 53.86800 33.12100
H  19.19800 52.50400 32.66400
H  11.70500 55.48000 26.82500
H  11.99800 54.26800 27.98200
H  11.13700 53.81000 26.48200
H  10.86700 55.77200 24.35600
H  10.48700 54.04300 24.23800
H  10.53900 55.07100 22.83100
H  17.40200 53.91200 21.15600
H  18.63800 51.25500 21.23900
H  15.35200 52.59100 20.24600
H  16.16200 51.16800 21.03800
H  16.74400 51.85300 19.57400
H  20.26400 53.76700 22.00500
H  19.40500 53.77000 20.39700
H  21.98900 52.76500 20.85500
H  21.01700 52.59100 19.38100
H  20.91000 51.41600 20.52900
H  23.02500 50.05000 25.88800
H  22.36300 50.09300 24.27100
H  21.97200 48.63600 25.27100
H  20.51000 51.49400 30.10900
H  20.04100 48.21600 32.82400
H  18.45900 49.00700 32.45600
H  19.56100 49.89600 33.26800
Mg -1.93600 34.53600 27.05300
C  -3.50300 32.56900 29.67800
C  -0.58000 36.42500 29.51100
C  -0.23100 36.03600 24.76600
C  -3.67200 32.49100 24.83400
N  -2.37700 34.66900 29.30200
C  -2.86100 33.69400 30.15200
C  -2.67700 34.09900 31.63000
C  -1.75800 35.34000 31.46500
C  -1.55300 35.57000 29.96700
C  -2.16100 36.56200 32.23500
C  -1.90700 32.89700 32.34900
C  -1.23800 33.16100 33.73700
H  -1.74700 32.31000 34.90600
N  -0.49500 36.02200 27.13500
C  -0.09300 36.73000 28.18800
C  1.03600 37.59300 27.86200
C  1.14600 37.54300 26.47900
C  0.08900 36.57900 26.05600
C  1.83000 38.41000 28.83400
C  1.98900 38.37100 25.49800
O  1.94600 38.18100 24.25300
C  3.00300 39.42600 25.95000
N  -2.09500 34.44700 25.06800
C  -1.13500 35.07400 24.33700
C  -1.32400 34.77700 22.88400
C  -2.57400 33.80600 22.79500
C  -2.85000 33.52500 24.29300
C  -1.51300 35.98300 21.85000
C  -2.46400 32.51000 21.89800
C  -1.22000 31.64400 22.24000
N  -3.34400 32.87800 27.19600
C  -3.88000 32.10700 26.15700
C  -4.69600 31.03900 26.72400
C  -4.52300 31.14500 28.09500
C  -3.67400 32.25800 28.32900
C  -5.56900 30.03600 26.01400
C  -4.90400 30.54400 29.38400
O  -5.54300 29.54700 29.62100
C  -4.30700 31.50100 30.48400
C  -5.41800 32.08600 31.31800
O  -5.98900 33.15800 31.08300
O  -5.49600 31.35100 32.43200
C  -6.20800 31.95000 33.59800
H  -0.08300 36.88500 30.36800
H  0.42900 36.50700 24.03500
H  -4.16400 31.87900 24.07500
H  -3.62700 34.34800 32.10200
H  -0.82700 35.07700 31.96600
H  -2.81600 37.04200 31.50800
H  -1.28000 37.15200 32.48800
H  -2.72300 36.37200 33.14900
H  -1.14100 32.48300 31.69200
H  -2.64000 32.15800 32.67100
H  -1.34300 34.23200 33.90800
H  -0.20600 32.83700 33.60200
H  2.83900 38.02000 28.70100
H  1.39500 38.15800 29.80100
H  1.75200 39.48800 28.69800
H  3.56300 39.67700 25.04900
H  3.61400 38.89300 26.67800
H  2.49800 40.17500 26.55900
H  -0.49900 34.14100 22.56200
H  -3.47400 34.29900 22.42700
H  -0.71500 35.95800 21.10900
H  -1.38900 36.93900 22.35800
H  -2.46800 35.87500 21.33400
H  -2.38900 32.82000 20.85600
H  -3.42900 32.00400 21.93300
H  -1.00600 31.71700 23.30600
H  -0.32300 32.03000 21.75500
H  -1.32500 30.56800 22.09700
H  -5.46500 30.15800 24.93500
H  -6.55400 30.43800 26.25100
H  -5.52600 28.98400 26.29700
H  -3.63400 30.93000 31.12400
H  -6.78500 32.83700 33.33300
H  -5.43500 32.31700 34.27400
H  -6.91700 31.28400 34.09000

