158

Mg 35.49200 1.54900 29.58900
C  33.57700 3.03600 32.09400
C  38.24400 2.02000 31.63800
C  37.43400 0.75200 26.98600
C  32.74700 1.95000 27.47900
N  35.79300 2.22900 31.68900
C  34.82000 2.65500 32.56600
C  35.34900 2.88700 34.00500
C  36.90300 2.50800 33.80800
C  37.01500 2.29100 32.27100
C  37.93300 3.58900 34.34000
C  34.60800 1.99400 35.09900
C  34.06900 2.73400 36.30800
H  34.85500 3.97100 36.73700
N  37.50900 1.17800 29.36900
C  38.45500 1.45000 30.35800
C  39.80800 1.11500 29.79700
C  39.59000 0.68000 28.45200
C  38.15400 0.96700 28.22900
C  41.16000 1.13700 30.49300
C  40.58800 0.00400 27.44900
O  40.13900 -0.38900 26.31000
C  42.12500 -0.01000 27.65200
N  35.17000 1.42400 27.51200
C  36.08500 0.86400 26.66300
C  35.51300 0.76300 25.25300
C  33.93700 0.86300 25.52100
C  33.95400 1.39600 26.92400
C  35.98800 1.88100 24.17000
C  33.20400 -0.53700 25.39400
C  32.17000 -0.73500 24.23000
N  33.60800 2.42600 29.61600
C  32.61300 2.51600 28.71500
C  31.38400 3.18300 29.15200
C  31.76200 3.33900 30.50900
C  33.07000 2.90000 30.74700
C  30.13200 3.49300 28.34800
C  31.24900 3.92300 31.69900
O  30.17300 4.42100 31.86900
C  32.30500 3.60000 32.77000
C  32.54200 4.90200 33.47500
O  33.39000 5.66800 33.22300
O  31.52200 5.12600 34.35300
C  31.51400 6.39600 35.09600
H  39.14100 2.07900 32.25800
H  37.97300 0.27100 26.16700
H  31.92000 1.85600 26.77100
H  35.31000 3.95100 34.23900
H  37.18500 1.57100 34.28900
H  37.29600 4.37500 34.74600
H  38.52000 4.00200 33.52000
H  38.58000 3.09400 35.06400
H  35.16100 1.12500 35.45700
H  33.70600 1.58100 34.64800
H  33.90000 2.05400 37.14300
H  33.13300 3.17600 35.96700
H  41.80000 2.01000 30.36800
H  41.62900 0.17100 30.30400
H  41.04100 1.08700 31.57500
H  42.69900 0.33500 26.79200
H  42.47400 -0.97700 28.01400
H  42.42700 0.78500 28.33500
H  35.76400 -0.23300 24.88900
H  33.45200 1.58100 24.86000
H  35.24400 2.60600 23.84100
H  36.34000 1.37500 23.27200
H  36.85200 2.35200 24.63800
H  32.71400 -0.70500 26.35400
H  34.01300 -1.24900 25.23300
H  32.43200 -1.52700 23.52900
H  31.99900 0.13200 23.59100
H  31.19800 -0.97400 24.66100
H  30.39700 4.23200 27.59300
H  29.23600 3.72000 28.92500
H  29.86600 2.64700 27.71400
H  31.73200 2.91200 33.39100
H  32.35100 7.04400 34.83600
H  31.70800 6.23300 36.15600
H  30.63600 7.03500 35.00800
Mg -10.60200 16.00200 42.13500
C  -7.27000 14.92400 41.52200
C  -9.88900 18.77900 40.23400
C  -14.01000 16.53400 41.93600
C  -11.29900 12.83300 43.59500
N  -8.77900 16.64900 40.83100
C  -7.54900 16.13800 40.84700
C  -6.59000 16.98900 40.07100
C  -7.41000 18.28200 39.74900
C  -8.82300 17.87800 40.29300
C  -6.78500 19.56100 40.32000
C  -5.80700 16.36600 38.87700
C  -4.59500 17.19100 38.49200
H  -4.80000 18.00200 37.21800
N  -11.71900 17.53500 41.31200
C  -11.24600 18.69100 40.70600
C  -12.37300 19.59500 40.45500
C  -13.58900 18.94400 40.86700
C  -13.16900 17.62000 41.38300
C  -12.18000 21.04200 39.87400
C  -14.92800 19.55400 40.84000
O  -15.02400 20.69600 40.40800
C  -16.14800 18.68300 41.20500
N  -12.43200 14.79100 42.60000
C  -13.66300 15.33100 42.57000
C  -14.73900 14.46500 43.31200
C  -13.84800 13.25300 43.86700
C  -12.41300 13.67100 43.32800
C  -15.28400 15.29900 44.46700
C  -14.30700 11.85300 43.31400
C  -13.71800 10.61000 43.96300
N  -9.54600 14.26100 42.50000
C  -9.95700 13.08300 43.18100
C  -8.88400 12.10400 43.16000
C  -7.81800 12.78800 42.52200
C  -8.30300 14.09500 42.15800
C  -8.87300 10.70300 43.70700
C  -6.43200 12.69500 42.16000
O  -5.70100 11.71200 42.31300
C  -5.96500 14.07000 41.55300
C  -4.88800 14.72400 42.32900
O  -5.00400 15.08900 43.50600
O  -3.81500 14.87800 41.48100
C  -2.67600 15.66800 41.99000
H  -9.61600 19.70400 39.72200
H  -15.06700 16.76800 42.07500
H  -11.62000 11.95100 44.15300
H  -5.87300 17.39900 40.78200
H  -7.60200 18.43600 38.68700
H  -6.97000 20.24900 39.49500
H  -5.71900 19.55600 40.54500
H  -7.34800 19.99100 41.14800
H  -6.48200 16.16700 38.04500
H  -5.44600 15.34900 39.02900
H  -3.72800 16.53100 38.47000
H  -4.39700 18.00000 39.19500
H  -12.70800 21.70600 40.55800
H  -12.61600 21.23500 38.89300
H  -11.15400 21.37500 39.71800
H  -17.06100 19.25400 41.03700
H  -16.25800 18.35700 42.23900
H  -16.06000 17.81100 40.55700
H  -15.51000 14.05000 42.66300
H  -13.84800 13.21100 44.95600
H  -16.20800 14.80400 44.76400
H  -15.58200 16.31300 44.19900
H  -14.66700 15.38100 45.36100
H  -14.22600 11.78800 42.22900
H  -15.38700 11.76800 43.44000
H  -13.11800 9.99300 43.29500
H  -14.58900 10.03900 44.28500
H  -13.17900 10.91500 44.86000
H  -8.93100 9.94800 42.92300
H  -9.68400 10.41300 44.37500
H  -7.94400 10.54300 44.25600
H  -5.48900 13.79900 40.61000
H  -2.56300 15.78600 43.06800
H  -2.85300 16.61300 41.47700
H  -1.75800 15.29500 41.53500

