158

Mg 48.96900 13.94000 27.96500
C  47.21500 14.44400 30.94100
C  51.57300 15.66100 29.19300
C  50.64200 13.47000 25.00900
C  46.24500 12.03800 26.71200
N  49.33300 14.99900 29.82100
C  48.48500 15.07800 30.90300
C  49.17700 15.52000 32.17700
C  50.40500 16.27600 31.43400
C  50.45800 15.63500 30.03500
C  50.28800 17.82800 31.34000
C  49.56200 14.34400 33.11700
C  49.13600 14.60900 34.62100
H  49.10100 16.09200 35.19000
N  50.84200 14.47600 27.18500
C  51.79200 15.14100 27.86000
C  52.90900 15.42500 27.04500
C  52.74800 14.55000 25.94600
C  51.39600 14.08200 26.02300
C  54.06100 16.40000 27.35300
C  53.81100 14.09600 24.89900
O  53.51900 13.33800 23.95700
C  55.27300 14.44800 24.98500
N  48.52400 12.97800 26.03300
C  49.35600 12.93500 24.92100
C  48.77300 12.09200 23.78800
C  47.43100 11.59500 24.42400
C  47.38000 12.28700 25.83700
C  48.66400 12.63900 22.40600
C  47.32300 10.02300 24.52900
C  48.27400 9.32300 25.55400
N  47.07500 13.45500 28.63100
C  46.07900 12.69100 28.03800
C  44.95900 12.54800 28.95300
C  45.33000 13.24600 30.09000
C  46.68200 13.74800 29.82500
C  43.77900 11.68900 28.77400
C  44.82800 13.53000 31.43000
O  43.76700 13.31500 31.99000
C  46.06600 14.38300 31.99700
C  45.38500 15.62900 32.33000
O  44.44900 16.14700 31.70900
O  45.94800 16.19200 33.44200
C  45.60400 17.52900 33.75400
H  52.44200 16.22300 29.54000
H  51.22900 13.37200 24.09400
H  45.41100 11.51700 26.23800
H  48.43700 16.23100 32.54400
H  51.32800 15.97200 31.92700
H  51.20000 18.18700 31.81700
H  49.43900 18.13200 31.95100
H  50.22700 18.23800 30.33100
H  50.62600 14.13000 33.21500
H  49.05300 13.41500 32.86200
H  49.80300 13.97800 35.20900
H  48.12200 14.28300 34.85600
H  54.90100 15.94600 27.87900
H  53.68300 17.33900 27.75700
H  54.55900 16.79300 26.46600
H  55.32300 15.53700 24.97000
H  55.69100 13.89900 24.14100
H  55.45300 13.97700 25.95100
H  49.41000 11.20800 23.75100
H  46.49900 11.92200 23.96200
H  49.23500 11.94400 21.79000
H  49.12300 13.62400 22.48900
H  47.64300 12.63600 22.02500
H  47.71200 9.65800 23.57900
H  46.28400 9.76700 24.73800
H  47.65100 8.80500 26.28300
H  48.87200 10.06300 26.08700
H  48.88200 8.69400 24.90300
H  43.13100 11.72400 29.65000
H  44.21600 10.70900 28.58500
H  43.20700 12.04600 27.91800
H  46.47100 13.92300 32.89800
H  44.52600 17.68200 33.71100
H  46.01700 18.21500 33.01400
H  46.00600 17.70900 34.75100
Mg 16.11400 51.57600 26.29600
C  18.17000 50.65200 29.01300
C  13.71400 52.48600 28.42300
C  14.29200 52.22000 23.56200
C  18.60300 50.18800 24.17000
N  16.04000 51.69200 28.47600
C  16.96700 51.26500 29.38200
C  16.41600 51.45700 30.83200
C  14.96600 51.99600 30.60000
C  14.86900 52.04800 29.07400
C  13.77400 51.12400 31.20600
C  17.27900 52.45000 31.55700
C  17.31700 52.56400 33.05600
H  16.36300 51.75300 33.94200
N  14.24500 52.30900 26.06800
C  13.38000 52.70700 27.07300
C  12.27800 53.31600 26.42700
C  12.47300 53.26800 24.98300
C  13.72100 52.55400 24.81500
C  11.09300 53.86700 27.20300
C  11.49100 53.72300 23.90500
O  11.56000 53.53200 22.73300
C  10.20600 54.35100 24.28600
N  16.35600 51.14300 24.14000
C  15.43000 51.47900 23.21500
C  15.77600 50.85700 21.83400
C  17.28000 50.57000 22.04800
C  17.44100 50.65900 23.57600
C  14.91000 49.62300 21.50500
C  18.15400 51.62700 21.35700
C  19.24200 51.02700 20.38500
N  18.06900 50.63100 26.47100
C  18.92600 50.08900 25.50300
C  19.96500 49.39400 26.13600
C  19.81100 49.60200 27.52600
C  18.58800 50.37600 27.66400
C  21.05900 48.64100 25.48500
C  20.31700 49.39100 28.87100
O  21.24900 48.76300 29.23500
C  19.22100 50.10000 29.92200
C  18.83000 49.01300 30.74600
O  18.22500 47.98700 30.32500
O  19.28300 49.22100 32.02700
C  18.89700 48.15800 32.98400
H  12.86300 52.71500 29.06900
H  13.72400 52.46700 22.66300
H  19.41400 49.93800 23.48300
H  16.49900 50.48100 31.31100
H  14.82300 52.94700 31.11200
H  13.07500 50.58400 30.56700
H  13.11200 51.71100 31.84200
H  14.34400 50.46900 31.86400
H  17.02900 53.41500 31.11600
H  18.26500 52.26700 31.12800
H  17.01700 53.60400 33.18100
H  18.34900 52.47400 33.39500
H  10.29800 53.13300 27.07100
H  10.79000 54.90600 27.07600
H  11.26000 53.80900 28.27900
H  9.66100 54.59900 23.37600
H  10.48200 55.35000 24.62400
H  9.49700 53.76900 24.87500
H  15.61500 51.56100 21.01700
H  17.56500 49.55500 21.77300
H  14.05800 49.49900 22.17300
H  15.37700 48.64900 21.65200
H  14.63700 49.56000 20.45200
H  18.68100 52.22300 22.10100
H  17.63500 52.41400 20.80900
H  19.59000 51.69600 19.59700
H  19.02300 50.06200 19.92800
H  20.09900 50.69700 20.97200
H  21.07500 48.69900 24.39700
H  21.05200 47.58700 25.76300
H  21.99900 49.03700 25.87000
H  19.70700 50.93700 30.42400
H  19.76600 47.51900 33.13600
H  18.11200 47.46100 32.69000
H  18.65800 48.66400 33.92000

