158

Mg 1.67100 -2.28400 43.79100
C  5.10500 -1.32600 43.27600
C  0.81000 0.54000 41.96900
C  -1.29200 -3.48500 43.72200
C  2.88300 -5.30600 45.04400
N  2.88200 -0.50900 42.83200
C  4.24600 -0.34800 42.80300
C  4.57200 0.97100 42.02600
C  3.21200 1.72100 42.10200
C  2.21500 0.53100 42.27500
C  3.10200 2.97800 43.13000
C  5.31300 0.60500 40.65400
C  6.59200 1.42200 40.28600
H  6.73000 2.00900 38.88600
N  -0.04000 -1.54600 42.99500
C  -0.23300 -0.39200 42.26700
C  -1.62200 -0.25300 41.94100
C  -2.27300 -1.34000 42.52200
C  -1.17700 -2.19400 43.15000
C  -2.33900 1.05300 41.29000
C  -3.76500 -1.57800 42.46700
O  -4.57900 -0.80500 41.89500
C  -4.38500 -2.79900 42.98100
N  0.92700 -4.34300 43.95800
C  -0.38800 -4.44600 44.14200
C  -0.75900 -5.79100 44.81100
C  0.61200 -6.41200 45.12300
C  1.52300 -5.27000 44.68700
C  -1.60100 -5.57000 45.98200
C  1.06100 -7.61500 44.26800
C  1.50100 -8.86900 44.94400
N  3.55700 -3.18600 44.20300
C  3.83400 -4.37500 44.74300
C  5.29600 -4.41300 44.93900
C  5.89700 -3.29000 44.34800
C  4.72100 -2.51000 43.92200
C  5.97300 -5.42000 45.74000
C  7.08900 -2.63600 43.87600
O  8.22200 -2.99500 44.09600
C  6.68000 -1.28700 43.21400
C  7.19400 -0.18600 43.99800
O  6.73100 0.19700 45.06200
O  8.25400 0.45100 43.42200
C  8.96300 1.57600 44.10200
H  0.49800 1.23900 41.19100
H  -2.33500 -3.81000 43.72800
H  3.29200 -6.10900 45.66000
H  5.36500 1.45700 42.59400
H  2.98500 2.16300 41.13200
H  4.10300 3.38900 43.25900
H  2.69000 2.76800 44.11700
H  2.52000 3.81900 42.75100
H  4.50700 0.72300 39.93000
H  5.62500 -0.43900 40.68600
H  7.45500 0.80700 40.53900
H  6.71400 2.27300 40.95600
H  -2.87600 0.91800 40.35100
H  -1.56900 1.80500 41.11600
H  -2.96000 1.61300 41.98800
H  -5.40800 -2.74500 42.60800
H  -4.15900 -2.83000 44.04700
H  -3.90300 -3.63900 42.48100
H  -1.23500 -6.42000 44.05900
H  0.81000 -6.71400 46.15100
H  -1.10700 -5.80300 46.92500
H  -2.48400 -6.18800 45.82100
H  -1.98100 -4.55600 46.10000
H  2.01600 -7.45800 43.76600
H  0.30200 -7.82000 43.51200
H  0.90100 -8.96900 45.84800
H  2.53000 -8.80700 45.30000
H  1.39800 -9.76800 44.33600
H  5.40600 -5.90800 46.53300
H  6.92200 -5.09300 46.16500
H  6.28700 -6.21700 45.06700
H  7.06000 -1.22500 42.19400
H  8.19300 2.16300 44.60300
H  9.37900 2.15000 43.27500
H  9.79400 1.19300 44.69500
Mg 48.19300 16.28700 28.88000
C  45.85200 16.29300 31.50600
C  50.29100 18.07600 30.86000
C  50.30600 16.57700 26.20300
C  45.64100 15.17500 26.80400
N  48.07600 16.97200 30.95400
C  47.10200 16.71400 31.87100
C  47.58500 17.10000 33.25500
C  48.87300 18.02100 32.95400
C  49.10000 17.64300 31.48800
C  48.60000 19.53000 33.22500
C  47.93400 15.80200 34.06500
C  47.78600 15.83400 35.57500
H  47.75200 17.26100 36.14900
N  50.09000 17.11100 28.60900
C  50.71500 17.85300 29.60600
C  52.00800 18.25300 29.04500
C  52.06400 17.80100 27.71200
C  50.71200 17.16500 27.42500
C  52.99100 19.09900 29.78300
C  53.21900 17.82300 26.68900
O  53.15600 17.43000 25.52900
C  54.47600 18.57000 27.03200
N  47.90800 16.17400 26.76100
C  48.96600 16.04400 25.95100
C  48.55400 15.43400 24.64800
C  47.03500 15.06100 24.76400
C  46.80100 15.58600 26.24800
C  48.89500 16.23400 23.40100
C  46.71000 13.57900 24.49900
C  46.87000 13.16800 23.08100
N  46.14600 15.87500 29.04900
C  45.24000 15.35700 28.12100
C  44.02700 14.94900 28.72700
C  44.24100 15.26200 30.11400
C  45.48200 15.91400 30.17900
C  42.94800 14.14600 28.26300
C  43.58000 15.24700 31.41700
O  42.40200 14.89400 31.70700
C  44.66000 15.88700 32.43400
C  44.08800 17.03300 33.11000
O  43.98900 18.16200 32.66600
O  43.64400 16.60100 34.37000
C  43.15900 17.59700 35.28300
H  50.88700 18.67800 31.54900
H  50.99800 16.59800 25.35800
H  44.87800 14.82000 26.10700
H  46.83200 17.62000 33.84800
H  49.62000 17.69600 33.67800
H  47.57000 19.62700 33.56600
H  48.65400 19.90800 32.20500
H  49.42900 19.90600 33.82500
H  49.01500 15.66200 34.05200
H  47.47000 14.88100 33.71200
H  48.70300 15.39100 35.96400
H  46.93400 15.28400 35.97300
H  53.30300 19.94500 29.17100
H  53.92200 18.53200 29.79100
H  52.85800 19.42100 30.81600
H  54.29100 19.61800 27.26500
H  55.09100 18.68000 26.13900
H  54.92000 17.99200 27.84300
H  49.07700 14.49100 24.48200
H  46.33500 15.62600 24.14900
H  48.65100 15.62100 22.53400
H  49.96900 16.39000 23.29700
H  48.42200 17.21300 23.32600
H  45.66200 13.38200 24.72500
H  47.26700 12.91200 25.15700
H  46.96200 14.02800 22.41800
H  46.03900 12.57900 22.69300
H  47.72300 12.49200 23.03600
H  43.24500 13.15400 27.92300
H  42.35300 14.54900 27.44300
H  42.25200 13.79400 29.02500
H  44.87100 15.01700 33.05700
H  42.44400 18.24500 34.77600
H  43.95000 18.28900 35.57400
H  42.68100 17.10800 36.13100

