158

Mg 36.93700 49.88400 24.54800
C  37.16400 48.11800 27.57100
C  35.27700 52.36400 26.15400
C  36.27700 51.25800 21.46600
C  37.88300 46.85900 22.82700
N  36.47900 50.21100 26.68400
C  36.68100 49.39300 27.75300
C  36.34200 50.14500 29.02300
C  35.76400 51.51800 28.50600
C  35.84900 51.44300 27.01900
C  34.28500 51.82000 29.02000
C  37.67900 50.28800 29.80400
C  37.68700 50.00000 31.35000
H  36.32100 49.81000 32.01300
N  36.04400 51.65700 23.89500
C  35.48600 52.55200 24.70300
C  35.11800 53.75700 23.90600
C  35.38900 53.44600 22.55500
C  35.89800 52.02400 22.54900
C  34.48200 54.94600 24.61800
C  35.24200 54.29800 21.33700
O  35.46900 53.91700 20.16700
C  34.85000 55.83000 21.53700
N  37.04400 49.08700 22.44200
C  36.80400 49.93400 21.39200
C  37.21400 49.21800 20.10300
C  37.78500 47.87200 20.53200
C  37.63400 47.90100 22.01500
C  36.11300 49.12600 19.00900
C  39.33100 47.64900 20.15600
C  40.32600 48.82400 20.57600
N  37.58200 47.94600 25.02100
C  37.82400 46.82000 24.21400
C  38.04100 45.67000 25.03500
C  37.81800 46.16200 26.32200
C  37.44400 47.50700 26.29100
C  38.44300 44.35100 24.55100
C  37.79000 45.72800 27.75100
O  37.97900 44.62500 28.24500
C  37.41500 47.02700 28.56800
C  36.24800 46.62700 29.39200
O  35.09700 46.74800 29.01500
O  36.68200 46.10000 30.58900
C  35.65600 45.47900 31.42100
H  34.99700 53.23400 26.75200
H  36.06600 51.77800 20.53000
H  38.14200 45.94600 22.28800
H  35.65200 49.52200 29.59100
H  36.42900 52.31100 28.84900
H  33.61600 51.63900 28.17900
H  34.20900 52.88400 29.24300
H  33.82300 51.17400 29.76700
H  37.91800 51.34800 29.72000
H  38.53400 49.70500 29.46300
H  38.26700 50.76800 31.86100
H  38.23800 49.06500 31.44500
H  33.45600 55.24000 24.39900
H  34.98400 55.83100 24.22800
H  34.59600 54.95500 25.70200
H  33.82100 55.91800 21.88500
H  34.65600 56.30600 20.57600
H  35.72800 56.22000 22.05300
H  37.99400 49.81300 19.62700
H  37.23400 47.01600 20.14200
H  35.16700 49.39300 19.48200
H  36.10300 48.25000 18.36200
H  36.28300 49.99100 18.36700
H  39.43100 47.64100 19.07000
H  39.55900 46.71100 20.66300
H  39.89100 49.52500 21.28700
H  40.65100 49.44100 19.73800
H  41.19300 48.29800 20.97600
H  39.47900 44.18200 24.84300
H  38.19200 44.28700 23.49200
H  37.86100 43.55700 25.02000
H  38.28200 47.36300 29.13700
H  34.91700 46.20000 31.77000
H  36.14400 44.98900 32.26400
H  35.15000 44.68800 30.86700
Mg 1.96300 42.72000 26.41100
C  3.43500 42.61400 29.49400
C  -1.06700 41.69500 28.28200
C  0.39900 42.10600 23.57700
C  4.92000 42.95600 24.79100
N  1.31700 42.32100 28.67900
C  2.06100 42.46500 29.67700
C  1.35500 42.38900 31.10700
C  -0.09600 41.97100 30.60900
C  0.03500 42.07900 29.05700
C  -0.55100 40.56700 31.06900
C  1.39500 43.76900 31.73800
C  1.90800 43.80500 33.22300
H  1.49500 42.69600 34.21900
N  -0.09900 42.22900 25.93700
C  -1.13100 41.79900 26.83300
C  -2.33000 41.47200 26.07800
C  -1.96500 41.63700 24.73200
C  -0.53500 41.98700 24.66800
C  -3.62200 40.97200 26.70000
C  -2.76200 41.35100 23.42400
O  -2.31600 41.45100 22.25200
C  -4.08100 40.82500 23.51900
N  2.60500 42.72400 24.33700
C  1.77400 42.43700 23.33900
C  2.51700 42.43300 21.95100
C  3.96600 42.71500 22.42900
C  3.85400 42.84800 23.91600
C  2.29400 41.12300 21.17700
C  4.44800 44.00500 21.75900
C  3.90300 45.33600 22.37700
N  3.77700 42.85300 26.90300
C  4.94800 42.93100 26.22200
C  6.05400 43.00800 27.06500
C  5.50600 42.96600 28.38600
C  4.10500 42.85000 28.20000
C  7.45400 43.18000 26.62100
C  5.87300 42.95100 29.84100
O  6.98500 43.02200 30.39800
C  4.50100 42.71200 30.55600
C  4.76700 41.47100 31.36900
O  4.59300 40.33700 30.98500
O  5.21800 41.86600 32.57600
C  5.52600 40.76100 33.46300
H  -2.04900 41.51000 28.72100
H  -0.02900 41.87000 22.60100
H  5.86800 43.07700 24.26100
H  1.76400 41.70100 31.84700
H  -0.87700 42.60500 31.02800
H  -1.24700 40.64500 31.90500
H  0.35200 40.08900 31.45100
H  -0.94800 40.01300 30.21800
H  0.44400 44.24200 31.49300
H  2.13500 44.43700 31.29700
H  1.47000 44.77400 33.46200
H  2.97900 43.98300 33.32500
H  -4.42400 41.71000 26.70700
H  -3.47300 40.37900 27.60300
H  -4.00100 40.24000 25.98700
H  -4.63700 41.01700 22.60200
H  -4.56800 41.50700 24.21600
H  -4.03500 39.79200 23.86600
H  2.10800 43.27700 21.39600
H  4.67400 41.89300 22.31700
H  1.85200 41.36000 20.20900
H  1.68300 40.41200 21.73300
H  3.22900 40.59900 20.97900
H  4.23000 44.00100 20.69100
H  5.53600 43.98000 21.69200
H  3.47100 45.96100 21.59500
H  4.82000 45.78000 22.76400
H  3.16900 45.29300 23.18200
H  7.53100 42.96000 25.55600
H  8.16800 42.59100 27.19700
H  7.70400 44.23800 26.69400
H  4.33600 43.59200 31.17800
H  5.99900 41.19200 34.34500
H  6.33600 40.20200 32.99500
H  4.65000 40.12300 33.58300

