158

Mg 35.46700 1.85600 29.31500
C  33.67100 3.20900 32.01600
C  38.32700 1.82400 31.31100
C  37.36200 1.41400 26.50100
C  32.71600 2.63200 27.23600
N  35.91400 2.36400 31.37500
C  35.02600 2.73800 32.34500
C  35.58300 2.65600 33.76000
C  37.10600 2.28900 33.53100
C  37.15900 2.12900 32.01700
C  38.24700 3.38400 33.90800
C  34.66200 1.60800 34.54100
C  34.40400 1.95900 36.02700
H  35.06800 3.19000 36.66600
N  37.58400 1.57900 28.97600
C  38.57200 1.56800 29.97200
C  39.82700 1.38000 29.34300
C  39.57700 1.29900 27.88900
C  38.13700 1.39700 27.70000
C  41.08300 1.13300 30.06800
C  40.68000 1.23200 26.83900
O  40.39900 1.11200 25.65100
C  42.13600 1.39300 27.14600
N  35.07200 1.78700 27.29500
C  35.99300 1.56600 26.29100
C  35.36400 1.72900 24.84300
C  33.89400 1.78600 25.25300
C  33.89600 2.14400 26.72900
C  35.86800 2.96300 24.06600
C  33.08800 0.50100 25.07500
C  33.05600 0.00500 23.63600
N  33.53100 2.63000 29.57000
C  32.54600 2.89700 28.58900
C  31.39900 3.43900 29.29000
C  31.73400 3.56000 30.68200
C  33.11100 3.10300 30.73100
C  30.14900 3.90700 28.61100
C  31.31300 4.03400 32.00900
O  30.19500 4.46600 32.27900
C  32.53900 3.74500 32.95000
C  32.79600 5.03300 33.73400
O  33.67900 5.82500 33.46200
O  31.83800 5.24300 34.70100
C  31.84300 6.59300 35.35000
H  39.22200 1.80500 31.93600
H  38.04100 1.41700 25.64600
H  31.79000 2.68000 26.66000
H  35.47600 3.65000 34.19200
H  37.32300 1.39900 34.12300
H  37.91800 4.13900 34.62200
H  38.78500 3.78900 33.05200
H  39.07400 2.90800 34.43500
H  35.24400 0.68800 34.48400
H  33.72200 1.47000 34.00700
H  34.61900 1.05400 36.59600
H  33.31800 2.05300 36.01100
H  41.66900 0.24900 29.81600
H  40.83700 0.88100 31.10000
H  41.65400 2.06200 30.05500
H  42.42600 1.98800 28.01200
H  42.57600 1.81000 26.24100
H  42.57100 0.41400 27.35000
H  35.50400 0.80400 24.28400
H  33.44300 2.58700 24.66700
H  36.37900 3.59300 24.79400
H  35.04400 3.57900 23.70700
H  36.47600 2.88800 23.16400
H  32.08400 0.73400 25.43100
H  33.54100 -0.25900 25.71300
H  32.04500 0.04700 23.23100
H  33.37000 -1.03900 23.65400
H  33.58400 0.57700 22.87300
H  29.49500 3.04600 28.47100
H  30.26300 4.30900 27.60400
H  29.62200 4.68400 29.16400
H  32.22400 2.89300 33.55200
H  31.79500 7.31200 34.53200
H  32.75500 6.52100 35.94300
H  30.99100 6.78000 36.00300
Mg 48.28300 34.46500 26.64300
C  46.54600 32.96500 29.25700
C  48.23800 37.46500 28.65800
C  49.61700 36.17800 24.13400
C  47.79900 31.64500 24.64800
N  47.49000 35.11800 28.66000
C  47.03000 34.26000 29.63700
C  47.09800 34.86300 31.04300
C  47.16300 36.34700 30.71600
C  47.75700 36.32100 29.28300
C  45.90000 37.13900 30.85200
C  48.25400 34.36900 31.90800
C  48.05600 34.03000 33.39400
H  47.25100 34.93800 34.31600
N  48.88700 36.48800 26.44600
C  48.80600 37.52900 27.34500
C  49.36300 38.69500 26.69400
C  49.80000 38.31100 25.38100
C  49.49700 36.92200 25.31800
C  49.46500 40.08000 27.26200
C  50.59300 39.14500 24.24100
O  51.03300 38.68800 23.17600
C  50.78800 40.61700 24.51200
N  48.69900 33.94600 24.74100
C  49.24700 34.82700 23.89400
C  49.38800 34.26400 22.49100
C  48.90000 32.78300 22.72100
C  48.44200 32.75500 24.11800
C  48.62200 34.96600 21.29400
C  49.94000 31.67300 22.45900
C  51.27300 31.83200 23.13100
N  47.36300 32.62500 26.83000
C  47.28000 31.54000 25.96100
C  46.32800 30.61000 26.56800
C  46.02600 31.07300 27.87200
C  46.73900 32.32300 27.99200
C  45.78200 29.41400 25.95900
C  45.44100 30.70200 29.13800
O  44.75400 29.76400 29.43800
C  45.53500 32.06200 29.93900
C  45.69300 31.75500 31.35800
O  46.48500 30.93600 31.71900
O  44.80500 32.40800 32.12900
C  44.78900 31.94000 33.56400
H  48.21300 38.36100 29.28100
H  49.87900 36.71100 23.21800
H  47.51800 30.78300 24.04000
H  46.23500 34.63100 31.66700
H  47.91300 36.87700 31.30400
H  45.93900 38.06000 30.27100
H  45.91800 37.47400 31.88900
H  45.03700 36.48300 30.73800
H  49.08600 35.06500 31.80200
H  48.56300 33.43600 31.43700
H  49.07500 34.05400 33.78000
H  47.85400 32.96700 33.52200
H  48.97900 40.03700 28.23600
H  49.09300 40.85300 26.58900
H  50.47000 40.30100 27.62100
H  49.76800 40.92900 24.74000
H  50.91900 41.11300 23.55100
H  51.52900 40.96900 25.22900
H  50.42700 34.25600 22.16200
H  48.00800 32.71400 22.09700
H  48.12100 35.80100 21.78300
H  47.90900 34.33700 20.76200
H  49.29800 35.34400 20.52600
H  50.06400 31.66900 21.37700
H  49.55700 30.66400 22.61100
H  52.07300 32.06700 22.42900
H  51.66400 30.97400 23.67600
H  51.28500 32.57700 23.92700
H  45.77400 29.56900 24.88000
H  44.80200 29.08800 26.30800
H  46.48700 28.58600 26.03800
H  44.54700 32.51100 29.83500
H  44.40900 32.69800 34.24900
H  45.76100 31.70100 33.99600
H  44.26400 30.98900 33.65900

