158

Mg -1.40400 17.27800 26.53600
C  -1.84900 15.33000 29.29600
C  -2.08200 20.07900 28.61800
C  -1.30600 19.37800 23.78200
C  -1.09700 14.59100 24.52000
N  -1.99900 17.71300 28.71900
C  -1.93200 16.70200 29.66000
C  -1.90800 17.24600 31.06700
C  -2.18800 18.72500 30.80500
C  -2.14300 18.84700 29.31800
C  -3.49200 19.32800 31.43500
C  -0.66100 16.82500 32.02100
C  -0.41200 17.65000 33.24000
H  -0.42300 16.93100 34.55800
N  -1.65900 19.42400 26.25200
C  -1.83600 20.35500 27.26800
C  -1.77200 21.68000 26.70600
C  -1.60400 21.53900 25.32100
C  -1.45500 20.08700 25.05700
C  -2.03500 23.01300 27.45100
C  -1.70100 22.58700 24.13000
O  -1.88500 22.28700 22.95600
C  -1.64300 24.02100 24.47700
N  -1.47000 17.01900 24.43400
C  -1.30100 18.00700 23.50900
C  -1.28900 17.37600 22.07200
C  -0.89500 15.89100 22.36400
C  -1.08000 15.80400 23.88400
C  -2.51300 17.61800 21.23600
C  0.60000 15.54300 22.05200
C  1.85100 16.26200 22.79500
N  -1.45000 15.38300 26.79900
C  -1.33900 14.34900 25.90000
C  -1.37800 13.08500 26.50100
C  -1.54800 13.43900 27.78100
C  -1.63200 14.82700 27.97700
C  -1.47000 11.82400 25.80500
C  -1.65200 12.83400 29.03100
O  -1.59800 11.62000 29.27500
C  -1.72500 14.02500 30.11900
C  -0.50200 13.83800 31.00000
O  0.66500 14.20300 30.82800
O  -0.91700 13.18400 32.13700
C  0.20100 12.96000 33.07100
H  -2.20600 20.91800 29.30400
H  -1.12300 20.02600 22.92200
H  -1.01900 13.65000 23.97200
H  -2.74000 16.78400 31.59700
H  -1.30700 19.22700 31.20400
H  -4.13600 19.70100 30.63800
H  -3.21800 20.04800 32.20600
H  -4.01800 18.56800 32.01300
H  0.24400 16.74700 31.41900
H  -0.93200 15.83200 32.38000
H  -1.15900 18.44300 33.25800
H  0.59500 18.05000 33.12200
H  -1.12100 23.60600 27.41300
H  -2.47200 22.91100 28.44400
H  -2.67700 23.69100 26.88800
H  -1.17800 24.49200 23.61100
H  -0.88700 24.21200 25.24000
H  -2.57200 24.48100 24.81300
H  -0.53000 17.90700 21.49700
H  -1.55100 15.09500 22.01200
H  -2.26500 17.93800 20.22400
H  -3.07600 18.44800 21.66300
H  -3.19200 16.76700 21.17900
H  0.74200 15.95300 21.05200
H  0.59600 14.45900 21.93400
H  2.53900 15.68200 23.41000
H  1.51900 17.02500 23.49900
H  2.41400 16.67600 21.95700
H  -0.99500 11.84100 24.82400
H  -2.48500 11.45200 25.65900
H  -0.98500 11.05600 26.40800
H  -2.68000 13.97000 30.64100
H  0.30400 13.72200 33.84400
H  1.17200 12.80500 32.60000
H  0.02200 12.04600 33.63700
Mg 41.76600 41.67300 27.30600
C  40.76200 44.15000 29.67900
C  42.54800 39.58700 29.78900
C  42.93200 39.48200 24.93000
C  41.31500 44.06400 24.75500
N  41.61800 41.91300 29.47500
C  41.08400 42.87200 30.24900
C  41.08800 42.44300 31.72500
C  41.72000 41.02300 31.67200
C  41.97900 40.80600 30.19500
C  42.92900 40.70600 32.58000
C  39.81100 42.59100 32.56600
C  39.57000 41.53900 33.57800
H  38.99200 42.02300 34.95500
N  42.55600 39.83500 27.39400
C  42.82000 39.11100 28.52300
C  43.29700 37.79900 28.19700
C  43.48700 37.80900 26.76300
C  42.94000 39.04600 26.30900
C  43.55600 36.73100 29.26700
C  44.14400 36.68400 25.93800
O  44.37600 36.79700 24.77200
C  44.69600 35.43200 26.60500
N  42.01500 41.72000 25.06100
C  42.58600 40.70000 24.36400
C  42.50800 41.04300 22.87700
C  41.92000 42.47700 22.81500
C  41.73500 42.79000 24.32200
C  43.92500 40.84400 22.26300
C  40.55600 42.49800 22.07600
C  39.43800 41.58900 22.47500
N  41.23500 43.78700 27.14700
C  41.04600 44.55500 26.05000
C  40.67800 45.93500 26.54000
C  40.46400 45.70100 27.92800
C  40.83700 44.43000 28.28400
C  40.55900 47.14600 25.73800
C  40.02500 46.42300 29.10100
O  39.62500 47.54600 29.27400
C  40.07800 45.32200 30.36600
C  40.86000 45.92600 31.41900
O  42.03400 46.27100 31.41300
O  39.99000 46.29400 32.39500
C  40.54700 46.96400 33.56500
H  42.64900 38.97200 30.68600
H  43.09000 38.72600 24.15700
H  41.26200 44.87200 24.02200
H  41.83600 43.14600 32.09000
H  40.90000 40.32100 31.82600
H  42.88700 41.24900 33.52300
H  43.87800 40.93600 32.09600
H  42.85800 39.67400 32.92300
H  39.03500 42.54800 31.80200
H  39.86700 43.48200 33.19200
H  40.53000 41.10300 33.85300
H  38.84100 40.81000 33.22300
H  44.58800 36.39100 29.18900
H  42.91700 35.86800 29.07400
H  43.23400 36.78200 30.30700
H  45.53900 35.66300 27.25600
H  44.95500 34.73000 25.81200
H  43.93300 34.99700 27.25100
H  41.81400 40.35200 22.39800
H  42.71000 43.08600 22.37500
H  43.93200 40.27700 21.33200
H  44.57500 40.31400 22.95900
H  44.28300 41.85700 22.08000
H  40.84800 42.21400 21.06500
H  40.19500 43.52200 22.18100
H  39.16200 40.86900 21.70500
H  38.58400 42.24200 22.65600
H  39.60300 41.15800 23.46300
H  40.91500 47.89100 26.44900
H  39.53200 47.35200 25.43800
H  41.33100 47.08200 24.97100
H  39.10900 44.94900 30.69600
H  40.90800 46.34200 34.38400
H  39.64800 47.47900 33.90300
H  41.39100 47.60100 33.30200

