158

Mg 30.76400 58.65800 39.27600
C  28.17400 56.62200 38.45300
C  32.95900 55.79600 38.53300
C  33.20900 60.72200 39.08900
C  28.41600 61.33000 39.58700
N  30.54900 56.47900 38.58400
C  29.32500 55.89700 38.37500
C  29.47900 54.48800 37.85900
C  30.89300 54.12400 38.44200
C  31.57100 55.55300 38.56000
C  30.91000 53.45000 39.88300
C  29.51900 54.46600 36.34700
C  28.91700 53.27500 35.57500
H  28.22300 53.65300 34.29800
N  32.84000 58.34600 38.83900
C  33.53400 57.08500 38.57900
C  34.95800 57.38200 38.46300
C  35.09400 58.86300 38.61800
C  33.70700 59.39000 38.81500
C  35.99600 56.36000 38.17200
C  36.45300 59.63100 38.50700
O  37.54400 59.05300 38.33100
C  36.41500 61.17200 38.51400
N  30.81800 60.80000 39.33500
C  31.99800 61.39000 39.36100
C  31.78900 62.89800 39.60500
C  30.30000 63.08800 40.00100
C  29.79500 61.67000 39.75600
C  32.72100 63.43000 40.72200
C  29.56200 64.17600 39.24900
C  29.36900 64.01800 37.76100
N  28.72300 58.98500 39.15600
C  27.84300 60.03500 39.32900
C  26.46000 59.66900 39.08200
C  26.59700 58.34000 38.72400
C  27.92200 57.94500 38.83800
C  25.31800 60.57200 38.95400
C  25.77800 57.16900 38.33000
O  24.59800 57.15500 38.13600
C  26.76500 55.99700 38.21900
C  26.27700 55.00500 39.19200
O  26.77500 54.76200 40.28500
O  25.22400 54.37700 38.65700
C  24.50000 53.38200 39.41100
H  33.58600 54.91700 38.69700
H  33.99900 61.47500 39.03100
H  27.65800 62.10900 39.69500
H  28.77900 53.74100 38.23300
H  31.36600 53.41200 37.76500
H  29.90900 53.27300 40.27500
H  31.45800 54.03600 40.62000
H  31.38800 52.47500 39.78200
H  30.56200 54.64400 36.08400
H  28.96200 55.34100 36.01300
H  28.11200 52.74000 36.07900
H  29.69800 52.56600 35.30100
H  36.29800 56.36900 37.12500
H  35.68500 55.33200 38.35500
H  36.88700 56.46900 38.78900
H  36.17700 61.53800 39.51300
H  35.71900 61.51600 37.74900
H  37.45500 61.45700 38.35800
H  32.10200 63.41300 38.69600
H  30.33100 63.18600 41.08600
H  32.91200 62.61700 41.42200
H  32.40200 64.34700 41.21700
H  33.66900 63.71200 40.26500
H  30.10400 65.05600 39.59600
H  28.62400 64.01200 39.78000
H  29.37900 64.96900 37.22800
H  28.38700 63.54500 37.75000
H  30.07900 63.39500 37.21700
H  25.65400 61.58200 38.71800
H  24.72100 60.64500 39.86300
H  24.68300 60.20200 38.15000
H  26.85200 55.58300 37.21400
H  24.46300 52.38700 38.96800
H  23.46700 53.70400 39.54400
H  24.83600 53.23800 40.43800
Mg 1.30700 42.65000 26.80800
C  2.63600 42.44400 30.07800
C  -1.73100 41.88300 28.14700
C  0.26300 42.36600 23.78200
C  4.64000 43.24800 25.66100
N  0.50200 42.42400 28.86300
C  1.22500 42.45300 30.00900
C  0.25000 42.26400 31.21200
C  -0.96700 41.66600 30.57100
C  -0.75100 42.06900 29.13200
C  -1.21900 40.16900 30.79600
C  0.06000 43.59300 31.92500
C  0.36200 43.72100 33.47200
H  0.14500 42.60000 34.44100
N  -0.52000 42.37000 26.02400
C  -1.68300 42.04300 26.73700
C  -2.77600 41.82100 25.80700
C  -2.20200 41.95300 24.51100
C  -0.77900 42.21400 24.74300
C  -4.19700 41.63900 26.20900
C  -2.78300 41.63600 23.12800
O  -2.11100 41.63200 22.09800
C  -4.20700 41.07800 23.02700
N  2.37000 42.65300 25.03800
C  1.66100 42.57300 23.85800
C  2.58300 42.53600 22.63700
C  3.88900 43.07000 23.22900
C  3.62600 43.05900 24.76700
C  2.60600 41.13200 22.00100
C  4.55800 44.44600 22.71100
C  3.65900 45.72200 22.54600
N  3.25700 42.91100 27.65900
C  4.55800 43.13400 27.04100
C  5.55900 43.17300 28.04800
C  4.87500 42.82100 29.28200
C  3.49900 42.66000 28.94900
C  6.98800 43.60500 27.97500
C  5.03300 42.62200 30.73300
O  6.07400 42.57000 31.41000
C  3.50400 42.50700 31.31300
C  3.53600 41.25000 32.20000
O  3.45100 40.08400 31.83500
O  3.62600 41.66000 33.48700
C  3.89000 40.63400 34.52100
H  -2.64300 41.49700 28.60600
H  -0.02000 42.33200 22.72800
H  5.58800 43.50700 25.18500
H  0.69200 41.57400 31.93000
H  -1.92600 42.12600 30.81100
H  -0.45500 39.69500 31.41300
H  -1.33000 39.62900 29.85600
H  -2.10500 40.12900 31.43000
H  -0.99100 43.88100 31.89600
H  0.45400 44.40100 31.30900
H  -0.24100 44.51500 33.91200
H  1.41800 43.98600 33.42200
H  -4.44400 40.57900 26.16200
H  -4.96500 42.18300 25.65800
H  -4.18400 41.95600 27.25200
H  -4.45700 40.67900 22.04400
H  -4.85400 41.92500 23.25700
H  -4.28000 40.38800 23.86700
H  2.15000 43.25800 21.94400
H  4.52900 42.18900 23.18000
H  1.84400 40.51800 22.48100
H  3.56700 40.61900 22.04200
H  2.39100 41.32200 20.95000
H  5.27700 44.28000 21.90800
H  5.19700 44.68500 23.56100
H  3.93600 46.36300 23.38400
H  2.60000 45.50300 22.68700
H  3.84000 46.22800 21.59800
H  7.16800 44.01300 26.98100
H  7.69800 42.84400 28.29800
H  7.05600 44.55400 28.50700
H  3.35000 43.47900 31.78100
H  4.67000 39.94600 34.19600
H  2.94600 40.09200 34.57200
H  4.09000 41.06200 35.50300

