158

Mg 46.75400 25.76400 27.72300
C  47.95600 27.94800 30.34600
C  45.82400 23.40500 30.12400
C  46.04700 23.71100 25.20500
C  48.41200 27.91700 25.43300
N  46.93400 25.69500 29.90200
C  47.30600 26.69700 30.80800
C  46.89100 26.35800 32.24500
C  46.31600 24.92600 32.15200
C  46.28400 24.60900 30.63900
C  46.78300 23.82300 33.09100
C  46.05700 27.45200 33.05700
C  46.75900 27.96300 34.35800
H  45.76400 28.29200 35.54400
N  45.84600 23.86300 27.65000
C  45.74500 23.01700 28.74900
C  45.46900 21.66600 28.23300
C  45.34700 21.77900 26.81000
C  45.75300 23.17300 26.48300
C  45.18000 20.52000 29.20400
C  44.93100 20.78400 25.78800
O  44.98600 20.86600 24.55200
C  44.63300 19.36100 26.24300
N  47.08900 25.79800 25.63200
C  46.54800 24.91100 24.79500
C  46.82800 25.21300 23.29700
C  47.62100 26.54700 23.31500
C  47.62700 26.83600 24.87100
C  47.75300 24.13200 22.68200
C  46.95800 27.78600 22.60800
C  47.90100 28.60900 21.65500
N  47.82000 27.57300 27.84100
C  48.40900 28.34300 26.81900
C  49.13200 29.49700 27.37700
C  48.95100 29.37200 28.72400
C  48.13200 28.25400 28.98500
C  49.97000 30.43300 26.70000
C  49.42700 29.95500 30.03800
O  50.13500 30.86400 30.39000
C  48.67500 29.09800 31.12000
C  49.76400 28.53500 31.99500
O  50.62000 27.78300 31.66000
O  49.75500 29.22700 33.22900
C  50.86900 29.10100 34.15800
H  45.47300 22.63200 30.81200
H  45.73100 23.14200 24.32900
H  48.97100 28.62600 24.81800
H  47.88500 26.16400 32.64900
H  45.27300 25.14300 32.38400
H  45.95000 23.56400 33.74400
H  47.58900 24.09700 33.77300
H  47.00500 22.88100 32.59100
H  45.14400 26.99500 33.44100
H  45.95800 28.34000 32.43300
H  47.29600 28.87000 34.07900
H  47.52800 27.25800 34.67100
H  45.57700 19.52200 29.01500
H  44.09800 20.45200 29.31700
H  45.48300 20.76200 30.22200
H  45.53300 18.90400 26.65200
H  44.35900 18.70700 25.41500
H  43.95000 19.26400 27.08700
H  45.88000 25.18600 22.76100
H  48.68200 26.50200 23.06700
H  48.56000 23.71800 23.28600
H  48.19400 24.45600 21.73900
H  47.25600 23.17400 22.53000
H  46.53600 28.43800 23.37200
H  46.13400 27.29700 22.08900
H  47.78400 28.24500 20.63400
H  48.97800 28.51700 21.80000
H  47.63200 29.66600 21.65700
H  49.66400 30.46300 25.65400
H  51.01100 30.20600 26.92800
H  49.76800 31.41700 27.12200
H  47.89800 29.74600 31.52400
H  51.03600 30.09400 34.57500
H  51.80500 28.67200 33.80200
H  50.64700 28.55900 35.07800
Mg 16.40600 52.71500 26.52700
C  18.28600 50.80200 28.85200
C  14.19400 53.41100 29.10700
C  14.75000 54.52100 24.31800
C  18.76300 51.60300 24.00300
N  16.14300 51.89500 28.64700
C  17.12300 51.27500 29.42300
C  16.80900 51.42400 30.89100
C  15.37700 51.88800 30.84400
C  15.19400 52.42900 29.47700
C  14.33800 50.75900 31.13700
C  17.78700 52.38300 31.65800
C  18.13800 51.82100 33.05300
H  17.15500 52.30000 34.18100
N  14.65900 53.73300 26.66000
C  13.96500 53.99300 27.81000
C  12.93100 54.96700 27.52600
C  13.06000 55.27500 26.07700
C  14.23300 54.51500 25.62300
C  12.00700 55.39500 28.62200
C  12.19600 56.31200 25.31900
O  12.50200 56.58600 24.17000
C  11.09800 57.02400 25.93100
N  16.63000 52.95500 24.46700
C  15.79700 53.74700 23.73200
C  16.13000 53.89800 22.20900
C  17.54600 53.08700 22.22800
C  17.68800 52.44400 23.65400
C  15.02900 53.21800 21.33300
C  18.74500 53.87100 21.73000
C  19.09600 55.24100 22.29200
N  18.10200 51.49300 26.41000
C  18.90100 51.08200 25.33200
C  19.96900 50.22000 25.78100
C  19.70100 50.11800 27.15100
C  18.52900 50.85200 27.44100
C  21.01100 49.58400 24.96800
C  20.20100 49.45800 28.28700
O  21.13900 48.63900 28.38800
C  19.44100 50.06500 29.48600
C  19.05500 48.98800 30.47100
O  18.12900 48.17600 30.44800
O  19.91300 49.04400 31.53600
C  19.66200 48.12700 32.63900
H  13.53500 53.63400 29.94900
H  14.16900 55.02100 23.54000
H  19.46000 51.30500 23.21700
H  16.71400 50.41500 31.29200
H  15.24300 52.73700 31.51400
H  13.80500 51.13000 32.01200
H  14.77700 49.78000 31.33100
H  13.74300 50.61300 30.23500
H  17.37800 53.37900 31.82600
H  18.69200 52.49800 31.06100
H  19.19400 51.99100 33.26400
H  17.95500 50.74900 32.99100
H  11.86300 56.44400 28.36300
H  12.25200 55.30900 29.68100
H  11.10700 54.83900 28.36000
H  11.50000 57.70900 26.67700
H  10.32600 56.37400 26.34300
H  10.62800 57.77900 25.30100
H  16.35300 54.91800 21.89500
H  17.48700 52.17000 21.64200
H  14.73300 54.00100 20.63500
H  14.09300 52.91200 21.80000
H  15.50800 52.33000 20.92100
H  18.47600 54.03300 20.68600
H  19.59200 53.18500 21.74300
H  18.82400 56.03800 21.60000
H  20.17100 55.40800 22.36200
H  18.73600 55.54700 23.27500
H  21.74300 50.32800 24.65400
H  20.64700 49.10000 24.06200
H  21.61000 48.90100 25.57000
H  20.14200 50.75500 29.95500
H  19.97000 47.13100 32.32100
H  18.62600 48.16900 32.97300
H  20.24900 48.46900 33.49200

