158

Mg 40.96200 8.98600 30.05500
C  42.65200 10.33300 32.66100
C  38.63600 7.62900 32.28400
C  39.42900 7.34700 27.47600
C  43.67000 9.60100 27.92100
N  40.74800 8.98600 32.22300
C  41.48400 9.73700 33.10000
C  41.00600 9.61700 34.53400
C  39.68800 8.78100 34.40300
C  39.67000 8.38500 32.87500
C  39.55600 7.54600 35.31100
C  40.80500 10.97700 35.14600
C  40.32800 10.98400 36.62200
H  40.98000 11.89800 37.57700
N  39.17800 7.75100 29.91200
C  38.38000 7.34200 30.96400
C  37.19700 6.67100 30.35400
C  37.36600 6.67700 28.97900
C  38.72000 7.29000 28.70300
C  35.95600 6.31300 31.14800
C  36.38400 6.31300 27.84300
O  36.62300 6.49300 26.63300
C  35.01000 5.82100 28.19400
N  41.41000 8.53500 27.98000
C  40.63400 7.86600 27.13700
C  41.17700 7.77800 25.74800
C  42.42000 8.75000 25.83700
C  42.50800 8.99800 27.37800
C  41.55300 6.25600 25.43800
C  42.22900 10.08800 25.09000
C  43.33200 10.73900 24.25900
N  42.79000 9.85900 30.17300
C  43.79400 10.06800 29.24400
C  44.95200 10.73500 29.87200
C  44.53300 10.86500 31.24400
C  43.20200 10.26600 31.37000
C  46.16600 11.32200 29.27700
C  44.97000 11.29800 32.51700
O  46.00300 11.84400 32.80000
C  43.77000 11.07000 33.44700
C  44.27300 10.18900 34.55200
O  44.62700 8.98500 34.45900
O  44.14100 10.81500 35.76200
C  44.39800 9.95800 36.94200
H  37.91700 7.33600 33.05300
H  38.98400 6.79700 26.64500
H  44.43000 9.78700 27.16000
H  41.76500 9.05000 35.07200
H  38.75700 9.33600 34.51600
H  40.47500 7.27800 35.83300
H  39.25800 6.65300 34.76100
H  38.74000 7.81800 35.98000
H  39.97400 11.34600 34.54500
H  41.68100 11.62200 35.07500
H  40.37800 9.97300 37.02400
H  39.26400 11.22100 36.63700
H  35.74400 5.26400 30.93900
H  35.07700 6.94200 31.00800
H  36.23100 6.40300 32.19900
H  34.43700 6.65800 28.59100
H  35.01400 5.05600 28.97100
H  34.55800 5.44500 27.27600
H  40.44800 7.97400 24.96100
H  43.33700 8.24000 25.54300
H  41.22700 5.52300 26.17600
H  42.61500 6.11900 25.23500
H  41.11900 5.96600 24.48100
H  41.83300 10.81500 25.79900
H  41.42500 10.05200 24.35500
H  43.38000 11.81200 24.44200
H  43.13000 10.65900 23.19100
H  44.31000 10.26600 24.35000
H  46.42200 10.79300 28.35900
H  47.03700 11.26400 29.93000
H  46.04200 12.35200 28.94300
H  43.39700 11.99400 33.88900
H  45.43200 9.96900 37.28800
H  43.96500 8.95800 36.91500
H  43.93100 10.49700 37.76700
Mg 6.57900 54.23400 41.41200
C  5.86500 50.73000 40.89400
C  9.70100 53.74100 40.23000
C  6.92700 57.62100 41.15700
C  3.07900 54.65200 41.97400
N  7.57200 52.46400 40.30000
C  7.14400 51.11300 40.40200
C  8.31100 50.23900 39.84500
C  9.57300 51.16200 39.88500
C  8.95300 52.53700 40.22100
C  10.73300 50.70400 40.75800
C  7.97200 49.51000 38.52500
C  6.96400 50.17300 37.51000
H  7.60200 50.64600 36.17600
N  8.11600 55.52200 40.84300
C  9.33300 55.06100 40.49200
C  10.27700 56.17200 40.32000
C  9.51600 57.31100 40.62200
C  8.11000 56.83500 40.87600
C  11.61500 56.01000 39.78400
C  9.97600 58.73400 40.49200
O  11.10000 58.99800 40.02700
C  9.16700 59.97500 40.88100
N  5.23300 55.91500 41.71900
C  5.58100 57.16100 41.41300
C  4.44300 58.22500 41.63700
C  3.25100 57.19200 41.72200
C  3.85700 55.82900 41.77100
C  4.56000 59.14300 43.05300
C  2.09600 57.38100 40.60400
C  2.23100 56.34200 39.47000
N  4.87100 53.03200 41.72300
C  3.56300 53.36900 42.00300
C  2.80400 52.16900 42.13500
C  3.65200 51.15600 41.77000
C  4.89500 51.69200 41.44400
C  1.41000 52.04000 42.66900
C  3.68600 49.71800 41.63600
O  2.80800 48.88300 41.86800
C  5.15100 49.37300 41.01800
C  4.94800 48.51400 39.81400
O  4.25400 48.76300 38.85100
O  5.69900 47.36000 39.99200
C  5.44700 46.33100 38.95700
H  10.77500 53.54500 40.20900
H  7.00000 58.70800 41.07800
H  1.99300 54.74100 42.04300
H  8.43500 49.47200 40.60900
H  9.82500 51.36000 38.84300
H  10.90100 51.55600 41.41600
H  11.56000 50.51500 40.07300
H  10.49200 49.82200 41.35200
H  7.87100 48.43900 38.70100
H  8.90800 49.58100 37.97100
H  6.43600 50.98300 38.01300
H  6.14800 49.49900 37.24900
H  12.18000 55.39500 40.48500
H  12.18500 56.92800 39.64000
H  11.48800 55.44400 38.86100
H  8.41300 60.16800 40.11800
H  9.85300 60.81200 41.00500
H  8.76200 59.75400 41.86800
H  4.46100 58.89600 40.77800
H  2.61900 57.22900 42.60900
H  4.41200 60.16000 42.69100
H  5.56400 58.99400 43.45100
H  3.90900 58.84000 43.87300
H  2.13900 58.39700 40.21000
H  1.17300 57.29800 41.17800
H  3.29000 56.13100 39.32500
H  2.11300 56.73500 38.46000
H  1.66600 55.43600 39.69000
H  1.05600 51.01700 42.79800
H  0.61600 52.55000 42.12300
H  1.39900 52.47700 43.66800
H  5.67200 48.72600 41.72300
H  5.47500 45.38800 39.50200
H  6.19200 46.42700 38.16700
H  4.48100 46.37500 38.45400

