158

Mg 26.58200 0.36000 29.15300
C  28.32100 -0.15100 32.09900
C  23.68800 0.95300 30.98000
C  24.80100 0.31100 26.19600
C  29.40200 -0.70300 27.33700
N  26.09600 0.27900 31.28200
C  27.00200 0.21000 32.30300
C  26.34300 0.34600 33.74500
C  24.79000 0.45800 33.27600
C  24.85400 0.54300 31.76100
C  23.75400 -0.56600 33.72300
C  26.90700 1.43700 34.60700
C  27.36400 1.02800 36.06300
H  27.03500 1.91400 37.17200
N  24.56000 0.78800 28.66200
C  23.52300 1.04700 29.56400
C  22.32400 1.36800 28.80800
C  22.64600 1.16300 27.42000
C  24.06200 0.70200 27.39200
C  21.07200 1.80200 29.49900
C  21.72300 1.27000 26.21800
O  22.01500 1.03400 25.05100
C  20.28600 1.50500 26.59700
N  27.04900 -0.21700 26.95300
C  26.14900 -0.05900 26.00900
C  26.74200 0.05700 24.55500
C  28.32800 -0.13800 24.97700
C  28.28300 -0.40600 26.52300
C  26.23400 -1.03000 23.50600
C  29.24600 1.00600 24.59400
C  29.57900 1.12200 23.11700
N  28.44000 -0.33700 29.52800
C  29.48500 -0.78300 28.75400
C  30.63100 -1.14700 29.55400
C  30.22400 -0.91000 30.89800
C  28.88600 -0.39900 30.83100
C  31.89600 -1.57200 28.99600
C  30.67900 -0.94300 32.30600
O  31.71500 -1.08200 32.87300
C  29.41000 -0.46800 33.10300
C  29.04100 -1.44200 34.10100
O  28.25800 -2.37600 33.89100
O  29.75200 -1.15200 35.21700
C  29.56000 -2.11500 36.36100
H  22.83700 1.24900 31.59700
H  24.19400 0.27500 25.28900
H  30.33500 -0.90100 26.80600
H  26.46300 -0.63400 34.20800
H  24.38900 1.37300 33.71200
H  24.32200 -1.30900 34.28300
H  23.21300 -1.08800 32.93400
H  23.02200 -0.10300 34.38400
H  26.11200 2.17600 34.71100
H  27.72800 1.96800 34.12600
H  28.44200 0.87000 36.09700
H  26.96100 0.05000 36.32600
H  20.79300 2.82500 29.24500
H  21.19400 1.84500 30.58100
H  20.27100 1.06800 29.41100
H  19.84800 0.71600 27.20800
H  19.73100 1.63600 25.66800
H  20.31500 2.51400 27.00900
H  26.56900 1.07200 24.19900
H  28.68800 -1.05300 24.50500
H  25.50700 -1.69900 23.96800
H  27.08900 -1.56400 23.09200
H  25.69700 -0.51400 22.71000
H  30.14500 1.05200 25.20900
H  28.68100 1.91700 24.78900
H  28.99900 1.95700 22.72400
H  29.31800 0.18500 22.62400
H  30.63500 1.37800 23.03300
H  32.12800 -1.06200 28.06100
H  31.89400 -2.61400 28.67500
H  32.73600 -1.40000 29.66900
H  29.69300 0.40400 33.69300
H  29.43200 -3.14600 36.03200
H  28.67800 -1.75100 36.88900
H  30.43800 -2.09400 37.00600
Mg -5.29600 25.60100 24.83400
C  -3.93300 27.19100 27.72300
C  -6.84600 23.47300 26.96800
C  -6.46600 23.91200 22.12800
C  -3.56500 27.81000 22.82800
N  -5.23200 25.30200 27.10600
C  -4.71900 26.16000 28.05300
C  -5.02400 25.63500 29.47400
C  -5.71500 24.23000 29.21000
C  -6.02100 24.34000 27.64800
C  -4.97000 22.92400 29.61700
C  -5.94800 26.76400 30.22500
C  -6.13500 26.62100 31.72600
H  -5.21500 25.59000 32.44600
N  -6.52500 24.00500 24.59100
C  -7.11400 23.24700 25.61900
C  -7.97300 22.23400 25.01900
C  -7.80100 22.24200 23.56400
C  -6.85000 23.35500 23.36500
C  -8.83200 21.37500 25.88100
C  -8.51200 21.37100 22.52200
O  -8.41200 21.56200 21.35900
C  -9.35600 20.25100 22.97000
N  -4.94700 25.73500 22.71000
C  -5.61500 24.96800 21.75900
C  -5.11000 25.32700 20.32600
C  -4.44800 26.75100 20.60800
C  -4.31400 26.79700 22.13700
C  -4.21900 24.29200 19.61800
C  -5.09400 28.01800 20.04000
C  -6.41500 28.48300 20.62000
N  -3.96400 27.18500 25.13600
C  -3.44500 28.01800 24.23000
C  -2.70700 29.06500 24.99600
C  -2.87700 28.73500 26.28800
C  -3.65400 27.58900 26.39300
C  -1.94100 30.23500 24.44500
C  -2.54600 29.14100 27.58200
O  -1.88400 30.07100 27.94900
C  -3.24300 28.12900 28.59900
C  -2.19100 27.47400 29.42900
O  -1.16400 26.89800 28.97800
O  -2.39200 27.58700 30.79600
C  -1.36000 27.35100 31.79600
H  -7.35400 22.76500 27.62600
H  -7.04700 23.60600 21.25500
H  -3.17200 28.63600 22.23200
H  -4.08800 25.44400 29.99900
H  -6.65200 24.25800 29.76700
H  -4.18700 23.08400 30.35900
H  -4.49800 22.54300 28.71200
H  -5.51900 22.06500 30.00300
H  -6.94300 26.48900 29.87400
H  -5.68300 27.81000 30.06800
H  -7.10700 26.18500 31.96000
H  -6.09600 27.59200 32.22000
H  -9.83700 21.08800 25.57200
H  -9.04800 21.85900 26.83400
H  -8.41700 20.38400 26.06700
H  -8.83400 19.49600 23.55800
H  -9.63000 19.84400 21.99600
H  -10.25200 20.70800 23.38800
H  -6.02400 25.40400 19.73800
H  -3.37800 26.81200 20.40500
H  -3.81300 23.65000 20.39900
H  -3.35300 24.86600 19.28900
H  -4.61300 23.69400 18.79500
H  -5.20800 27.78400 18.98100
H  -4.36300 28.82500 20.09800
H  -6.84200 27.78900 21.34400
H  -7.11300 28.58000 19.78800
H  -6.05200 29.45500 20.95500
H  -1.04400 30.02700 23.86200
H  -1.72500 30.91600 25.26800
H  -2.47300 30.79700 23.67800
H  -3.86800 28.74100 29.24900
H  -1.40200 28.09700 32.59000
H  -0.35200 27.15900 31.42800
H  -1.50900 26.31100 32.08600

