158

Mg 47.84800 24.86700 28.14800
C  48.60200 27.02100 30.89800
C  47.62700 22.24200 30.49100
C  47.31700 22.82200 25.65200
C  49.03600 27.31400 25.87900
N  48.01100 24.62800 30.42600
C  48.30500 25.68400 31.30600
C  48.28500 25.17400 32.76400
C  48.26200 23.67700 32.56900
C  47.91200 23.50800 31.10500
C  49.62200 22.94600 33.00500
C  47.06100 25.71000 33.57400
C  47.42500 26.67100 34.74600
H  46.42500 26.62300 35.83400
N  47.41300 22.78700 28.12800
C  47.25100 21.92500 29.13900
C  46.68300 20.69700 28.62300
C  46.45900 20.96900 27.27200
C  47.10100 22.21400 26.96100
C  46.46500 19.46700 29.48400
C  45.65300 20.10100 26.27900
O  45.38600 20.41500 25.12200
C  44.88200 18.97500 26.87000
N  48.28700 25.00200 26.06600
C  47.78400 24.04900 25.28400
C  47.81300 24.47400 23.76200
C  48.19400 26.03500 23.93300
C  48.52300 26.10400 25.38600
C  48.61300 23.60000 22.79500
C  46.99000 26.91400 23.50600
C  47.18200 27.87000 22.31900
N  48.65500 26.80700 28.33600
C  49.16300 27.62900 27.27500
C  49.64200 28.84300 27.97200
C  49.37400 28.70500 29.38200
C  48.82800 27.38200 29.56000
C  50.23600 30.02400 27.28900
C  49.46600 29.35000 30.66100
O  49.91400 30.43900 30.96400
C  48.91100 28.24500 31.68800
C  50.05700 28.01000 32.54900
O  50.92100 27.17600 32.49300
O  49.97800 28.96600 33.61100
C  50.99500 28.87700 34.64500
H  47.54100 21.45800 31.24600
H  46.95100 22.19100 24.83900
H  49.36500 28.06300 25.15600
H  49.16700 25.50100 33.31400
H  47.43200 23.22900 33.11500
H  50.09300 22.31600 32.25100
H  49.39900 22.22900 33.79500
H  50.31000 23.69300 33.40200
H  46.64100 24.86500 34.11900
H  46.33200 26.01100 32.82200
H  47.53400 27.68100 34.34900
H  48.37600 26.30600 35.13200
H  45.42800 19.13400 29.52600
H  46.74900 19.62400 30.52400
H  47.07400 18.67700 29.04400
H  45.61500 18.26000 27.24200
H  44.33500 18.57800 26.01500
H  44.22400 19.35500 27.65100
H  46.76500 24.45100 23.46500
H  49.11900 26.24000 23.39400
H  48.92400 22.71300 23.34600
H  49.51900 24.15300 22.54500
H  48.06200 23.36300 21.88500
H  46.74900 27.59800 24.32000
H  46.17600 26.24600 23.22400
H  46.29400 27.81000 21.69000
H  48.06800 27.52600 21.78400
H  47.28800 28.92000 22.59300
H  50.88400 30.41500 28.07300
H  49.50100 30.78800 27.03800
H  50.78200 29.57000 26.46100
H  48.07500 28.68500 32.23000
H  50.83500 28.10000 35.39200
H  50.96300 29.85400 35.12900
H  51.96700 28.82300 34.15400
Mg 6.16900 54.76800 40.15800
C  5.66800 51.32700 39.83500
C  9.48200 54.19200 39.12600
C  6.52400 58.12200 39.76000
C  2.69900 55.25600 40.55100
N  7.43200 52.92200 39.57800
C  6.98200 51.67800 39.48800
C  8.15900 50.76600 39.02500
C  9.47900 51.64000 39.09400
C  8.80900 52.99300 39.40600
C  10.42900 51.34000 40.28300
C  8.02100 49.94200 37.71800
C  7.22600 50.51500 36.51800
H  6.88200 52.05500 36.52700
N  7.80500 56.01600 39.55000
C  9.11000 55.59500 39.20900
C  9.81600 56.80900 38.92800
C  9.03500 57.92600 39.25100
C  7.72600 57.38700 39.53200
C  11.27000 56.74900 38.50900
C  9.47500 59.44900 39.20600
O  10.66800 59.66900 39.01200
C  8.58400 60.59000 39.40500
N  4.80800 56.33600 39.84600
C  5.25700 57.65600 39.98100
C  4.17000 58.61100 40.29100
C  2.98800 57.73700 40.57600
C  3.51000 56.35200 40.35200
C  4.45700 59.58400 41.42100
C  1.76000 58.06500 39.74200
C  1.70500 57.79100 38.21300
N  4.47200 53.54700 40.36700
C  3.14900 53.88200 40.62400
C  2.34100 52.62800 40.88900
C  3.29500 51.60400 40.55200
C  4.58100 52.22800 40.23400
C  0.87100 52.57400 41.17200
C  3.47700 50.13200 40.42700
O  2.57600 49.28100 40.62900
C  5.01600 49.88800 39.98800
C  5.02500 48.93300 38.89400
O  4.35400 49.02400 37.88000
O  5.74200 47.84200 39.10600
C  5.57800 46.61400 38.35400
H  10.51400 54.18800 38.76900
H  6.67500 59.20100 39.82700
H  1.65900 55.35500 40.87000
H  8.20300 49.99500 39.79400
H  10.07800 51.68800 38.18500
H  11.20200 52.07300 40.51700
H  10.83300 50.33200 40.19200
H  9.95400 51.22900 41.25800
H  7.63700 48.94100 37.91800
H  9.03200 49.80500 37.33500
H  6.36900 49.85500 36.37800
H  7.90700 50.36200 35.68100
H  11.56100 57.58500 37.87300
H  11.53200 55.79700 38.04600
H  11.84000 56.88400 39.42900
H  7.77500 60.60600 38.67500
H  9.03400 61.56200 39.60500
H  8.30400 60.29000 40.41500
H  3.87000 59.24000 39.45300
H  2.61400 57.80400 41.59800
H  5.52100 59.78400 41.54600
H  3.93200 59.27800 42.32600
H  4.00500 60.53300 41.13000
H  1.41300 59.08200 39.92700
H  0.97700 57.51800 40.26700
H  1.39900 58.66000 37.63100
H  1.01200 56.98400 37.97800
H  2.65100 57.35000 37.90000
H  0.30600 53.19800 40.48000
H  0.68500 53.00800 42.15400
H  0.65200 51.51000 41.08100
H  5.60300 49.41600 40.77700
H  5.44300 46.95200 37.32700
H  4.67100 46.09300 38.66200
H  6.40800 45.91200 38.43300

