158

Mg 47.47900 16.01900 27.54600
C  45.52200 15.62600 30.57400
C  49.75000 17.64300 29.31200
C  49.11800 16.41300 24.66300
C  44.88800 14.49500 25.86800
N  47.61500 16.51800 29.77800
C  46.78400 16.25400 30.80300
C  47.23100 16.93200 32.12100
C  48.57700 17.61600 31.65500
C  48.71300 17.27700 30.18700
C  48.56200 19.19700 31.78900
C  47.41800 15.91300 33.20800
C  46.59200 16.09300 34.48700
H  46.38800 17.44300 35.05000
N  49.22300 16.97300 27.06400
C  50.09900 17.53900 27.94800
C  51.37400 17.72900 27.27800
C  51.22900 17.29300 25.91500
C  49.78600 16.84700 25.81200
C  52.58500 18.25600 28.02300
C  52.27800 17.30500 24.79100
O  52.05600 16.75700 23.69800
C  53.60100 17.95800 25.05100
N  47.19200 15.37000 25.59800
C  47.95400 15.70100 24.53900
C  47.35000 15.36600 23.16900
C  46.02900 14.64000 23.54500
C  46.01200 14.80500 25.12900
C  47.10300 16.59900 22.17000
C  45.92600 13.11700 23.18400
C  44.65900 12.70800 22.50200
N  45.66400 15.04300 28.09500
C  44.70500 14.62800 27.26700
C  43.59600 14.11200 28.02900
C  43.88200 14.53700 29.35400
C  45.16400 15.11300 29.34100
C  42.38900 13.39300 27.56700
C  43.35900 14.56700 30.72800
O  42.26200 14.18800 31.17900
C  44.42400 15.35800 31.56200
C  43.80300 16.48700 32.30400
O  43.78500 17.65700 32.10200
O  43.18800 15.90600 33.37500
C  42.29400 16.77400 34.15600
H  50.51200 18.11900 29.93300
H  49.72900 16.59500 23.77600
H  44.09700 14.00900 25.29300
H  46.51900 17.68100 32.46800
H  49.44300 17.34200 32.25900
H  47.73900 19.51100 32.43100
H  48.42900 19.73900 30.85300
H  49.48900 19.40900 32.32300
H  48.44300 15.83900 33.57100
H  47.04500 14.95800 32.83700
H  46.99800 15.47200 35.28600
H  45.55500 15.75800 34.53300
H  53.20800 17.38300 28.21600
H  52.50000 18.72100 29.00500
H  53.16800 18.96400 27.43500
H  53.47500 19.01400 25.29100
H  54.26300 17.93300 24.18500
H  54.00200 17.35400 25.86500
H  48.01800 14.68800 22.63700
H  45.12700 15.11800 23.16300
H  47.87300 16.58800 21.39800
H  47.26900 17.55400 22.66900
H  46.12100 16.60000 21.69600
H  46.10900 12.52700 24.08200
H  46.70400 12.91600 22.44800
H  44.65900 12.79000 21.41500
H  43.87400 13.32600 22.93700
H  44.53500 11.64400 22.70400
H  42.70300 12.43300 27.15600
H  41.98400 13.85900 26.66900
H  41.68900 13.20300 28.38100
H  44.90400 14.70700 32.29300
H  41.75700 17.48100 33.52300
H  42.83400 17.38100 34.88200
H  41.68400 16.03500 34.67500
Mg 35.75400 48.59900 25.27000
C  35.74400 46.60700 28.26900
C  34.66400 51.25200 27.15400
C  35.36700 50.32700 22.42200
C  36.73800 45.80200 23.45400
N  35.22500 48.80200 27.52700
C  35.26600 47.91100 28.52600
C  35.08100 48.59700 29.91100
C  34.63700 50.01700 29.45900
C  34.69600 50.03100 27.93500
C  33.26600 50.42700 29.93800
C  36.29700 48.57100 30.79200
C  36.09800 48.56600 32.30800
H  34.71600 48.67100 32.97800
N  35.34000 50.58200 24.83900
C  34.83800 51.51500 25.77700
C  34.63800 52.80200 25.09300
C  34.82000 52.50100 23.74700
C  35.20600 51.09900 23.61900
C  34.16400 54.06100 25.77800
C  34.80000 53.43200 22.57500
O  35.06900 53.02900 21.47300
C  34.52800 54.85900 22.76500
N  35.85000 48.08000 23.20900
C  35.78900 49.03000 22.23800
C  36.28500 48.46700 20.85300
C  36.67100 47.03100 21.22700
C  36.50500 47.00800 22.76300
C  35.22200 48.55500 19.65200
C  38.07700 46.63600 20.74700
C  39.24000 47.17700 21.52900
N  36.00600 46.55700 25.65600
C  36.54200 45.56300 24.85600
C  36.69700 44.34900 25.70800
C  36.45200 44.75700 26.96700
C  35.99600 46.08300 26.93600
C  37.16000 42.92200 25.18700
C  36.35500 44.22100 28.30500
O  36.33800 43.05900 28.59000
C  36.03600 45.39100 29.23700
C  34.90500 45.17400 30.14500
O  33.74900 45.39300 29.91800
O  35.47300 44.72900 31.30700
C  34.45700 44.56900 32.40200
H  34.33200 52.09500 27.76400
H  35.30000 50.83900 21.46000
H  37.07400 45.02300 22.76600
H  34.27600 48.07700 30.43100
H  35.42200 50.72100 29.73500
H  33.32900 51.31400 30.56800
H  32.82900 49.66800 30.58800
H  32.57500 50.73500 29.15400
H  36.98100 49.40900 30.65600
H  36.85400 47.67900 30.50500
H  36.70800 49.35000 32.75700
H  36.52100 47.64900 32.71900
H  35.02900 54.72000 25.85300
H  33.78600 53.69300 26.73200
H  33.36000 54.57900 25.25500
H  34.84300 55.46000 21.91200
H  35.10500 55.22500 23.61400
H  33.46100 55.04100 22.89100
H  37.13900 49.08000 20.56400
H  35.91600 46.34600 20.84000
H  35.10500 47.65000 19.05500
H  35.50200 49.28500 18.89300
H  34.23700 48.85200 20.01200
H  38.05700 47.11000 19.76600
H  38.13900 45.54800 20.76400
H  39.67500 46.38100 22.13400
H  38.80000 47.92700 22.18600
H  40.08000 47.59000 20.97100
H  36.73300 42.73600 24.20200
H  36.76900 42.13100 25.82800
H  38.24600 42.97300 25.26600
H  36.90900 45.62200 29.84700
H  34.17500 43.53300 32.58700
H  33.57700 45.17500 32.18900
H  34.82100 44.85500 33.38900

