158

Mg 5.75200 54.00500 40.44000
C  4.92300 50.44300 40.21900
C  8.71000 53.14600 38.92200
C  6.07700 57.18400 40.07500
C  2.46800 54.33800 41.68300
N  6.70500 51.94400 39.67700
C  6.18000 50.70800 39.65100
C  7.21000 49.69500 39.11300
C  8.53600 50.63100 38.95200
C  7.96900 52.04700 39.14100
C  9.60100 50.30900 40.01300
C  6.89000 49.19700 37.71400
C  6.14200 50.22600 36.76900
H  6.23900 50.13700 35.30700
N  7.22900 54.98200 39.62600
C  8.46900 54.47900 39.07900
C  9.27500 55.62700 38.85700
C  8.48100 56.76300 39.02600
C  7.21900 56.36200 39.58900
C  10.70500 55.46800 38.36900
C  8.99800 58.15800 38.77300
O  10.18500 58.38100 38.53800
C  8.22300 59.38900 38.96200
N  4.41500 55.56000 40.73100
C  4.85200 56.85800 40.63100
C  3.75500 57.88100 41.17000
C  2.60900 56.87200 41.55700
C  3.16300 55.50500 41.25400
C  4.35500 58.71800 42.32600
C  1.26200 57.18100 40.89000
C  -0.10900 56.88900 41.64900
N  4.00000 52.63300 40.91300
C  2.79000 52.99100 41.49700
C  1.98300 51.82600 41.73900
C  2.85600 50.78900 41.40000
C  4.01200 51.34000 40.76700
C  0.57400 51.78200 42.26400
C  3.01900 49.38300 41.28700
O  2.32600 48.48600 41.74000
C  4.32300 49.06200 40.50100
C  3.93700 48.15800 39.39100
O  3.28100 48.46300 38.37700
O  4.49800 46.94000 39.65100
C  4.36200 45.90300 38.57800
H  9.71100 53.02800 38.50100
H  6.30300 58.24800 39.98100
H  1.52800 54.54500 42.20000
H  7.45200 48.86100 39.77100
H  8.95600 50.70800 37.94900
H  9.53800 49.28000 40.36800
H  9.65600 51.10500 40.75500
H  10.51300 50.28400 39.41700
H  6.20600 48.37700 37.92900
H  7.79000 48.81500 37.23200
H  6.50300 51.24600 36.90600
H  5.08100 50.09300 36.97800
H  10.83700 56.01000 37.43200
H  11.07300 54.44500 38.28300
H  11.34800 55.88500 39.14500
H  8.79100 60.26700 38.65500
H  8.01500 59.46500 40.02900
H  7.36900 59.29800 38.29000
H  3.50900 58.47200 40.28800
H  2.39800 56.99300 42.62000
H  5.42300 58.85500 42.15800
H  4.10000 58.27500 43.28900
H  3.81000 59.66200 42.32600
H  1.26400 56.71200 39.90600
H  1.38600 58.19300 40.50200
H  -0.49900 57.86100 41.95300
H  -0.07800 56.23300 42.51900
H  -0.75500 56.37700 40.93600
H  -0.01500 52.26300 41.48300
H  0.36600 52.36500 43.16200
H  0.20500 50.78600 42.51100
H  5.00500 48.57800 41.19900
H  4.57300 46.22900 37.56000
H  3.36100 45.47000 38.57600
H  5.12100 45.18300 38.88400
Mg -5.33700 25.11200 26.06600
C  -3.82500 26.28600 29.02600
C  -7.29600 23.02200 27.97400
C  -6.06200 23.30300 23.20600
C  -3.23200 27.12200 24.26000
N  -5.42300 24.56700 28.27000
C  -4.78900 25.30300 29.26200
C  -5.54500 25.06500 30.61000
C  -6.37500 23.78100 30.22900
C  -6.38500 23.76200 28.73200
C  -5.88500 22.50200 30.89200
C  -6.42800 26.33700 31.02700
C  -6.23500 26.64700 32.51000
H  -5.70000 25.59100 33.47800
N  -6.60900 23.52400 25.64100
C  -7.36800 22.79600 26.57700
C  -8.19500 21.91800 25.86000
C  -7.87300 21.94800 24.46500
C  -6.84200 22.96700 24.40100
C  -9.27400 21.06100 26.50000
C  -8.46300 21.11300 23.27100
O  -8.26300 21.39300 22.09500
C  -9.30400 19.97900 23.66600
N  -4.78900 25.16200 23.98400
C  -5.14600 24.32100 23.02900
C  -4.41700 24.67000 21.70200
C  -3.52600 25.98100 22.05000
C  -3.91600 26.13800 23.53800
C  -3.74000 23.51800 20.83500
C  -3.74000 27.19300 21.03900
C  -5.15800 27.77100 21.31000
N  -3.91700 26.52100 26.48600
C  -3.22200 27.32800 25.64100
C  -2.38100 28.21200 26.33600
C  -2.59500 27.81400 27.69900
C  -3.50900 26.76800 27.74600
C  -1.46400 29.30400 25.75800
C  -2.24400 28.12300 29.07000
O  -1.51700 28.97300 29.49200
C  -3.12100 27.13200 29.96400
C  -2.22700 26.31100 30.80300
O  -1.51900 25.37800 30.36700
O  -2.25700 26.81000 32.07000
C  -1.12600 26.37700 32.84400
H  -7.86100 22.39200 28.66400
H  -6.16700 22.68500 22.31200
H  -2.58000 27.79500 23.69900
H  -4.67000 24.81700 31.21100
H  -7.38700 23.79100 30.63200
H  -4.98300 22.62800 31.49100
H  -5.68600 21.80300 30.08000
H  -6.59300 22.05400 31.58900
H  -7.46500 26.13800 30.75500
H  -6.06600 27.17400 30.43000
H  -7.19000 27.02600 32.87600
H  -5.54900 27.48500 32.63800
H  -10.30000 21.11400 26.13400
H  -9.50700 21.29200 27.54000
H  -9.05500 19.99400 26.54200
H  -9.50500 19.47700 22.72000
H  -10.29800 20.29700 23.97900
H  -8.86800 19.28200 24.38200
H  -5.18000 25.01700 21.00500
H  -2.47900 25.68800 21.97000
H  -3.84000 22.59200 21.40000
H  -2.68400 23.72100 20.65300
H  -4.17600 23.44400 19.83900
H  -3.60600 26.75700 20.04900
H  -3.06700 28.02700 21.23300
H  -5.80600 27.11200 21.88900
H  -5.67400 27.93200 20.36300
H  -5.04400 28.79300 21.66900
H  -2.05700 30.14300 25.39500
H  -0.79600 28.98100 24.95900
H  -0.72000 29.47100 26.53800
H  -3.78700 27.73800 30.57700
H  -1.17300 26.95900 33.76500
H  -0.19700 26.67600 32.35800
H  -1.19600 25.30400 33.02000

