158

Mg 44.59900 5.33300 47.49200
C  42.46400 8.17200 47.28100
C  41.77800 3.40100 47.01600
C  46.51500 2.72100 47.07400
C  47.34800 7.47100 47.57700
N  42.30900 5.74900 47.27200
C  41.73900 6.95700 47.12600
C  40.19300 6.86900 47.03300
C  40.00500 5.32100 46.92100
C  41.42700 4.72400 47.12300
C  39.02300 4.68300 47.90500
C  39.57900 7.62700 45.84400
C  40.23200 7.19100 44.53400
H  40.65000 8.16900 43.33100
N  44.22600 3.25800 47.14100
C  42.99200 2.66500 47.00300
C  43.19100 1.23700 46.91200
C  44.58600 1.03600 46.85400
C  45.17900 2.35600 47.01700
C  42.04900 0.22900 46.73600
C  45.33500 -0.31300 46.75700
O  44.67900 -1.34200 46.73900
C  46.70700 -0.55700 46.95800
N  46.64200 5.13200 47.30800
C  47.20600 3.93300 47.19400
C  48.78500 4.01100 47.39300
C  48.92600 5.57000 47.59200
C  47.53600 6.12400 47.50800
C  49.29200 3.16300 48.57100
C  49.95200 6.23600 46.59400
C  50.99800 7.11700 47.23600
N  44.90100 7.38300 47.42900
C  46.07900 8.12100 47.45500
C  45.79900 9.45400 47.36500
C  44.37700 9.53700 47.42400
C  43.84100 8.27700 47.34600
C  46.84500 10.55500 47.19600
C  43.25900 10.45200 47.27100
O  43.22000 11.61700 47.00500
C  41.97300 9.62600 47.18600
C  41.11100 9.84200 48.31800
O  41.00900 9.08800 49.28300
O  40.28000 10.88200 48.04900
C  39.14700 11.07600 48.95000
H  40.87100 2.82300 46.82100
H  47.24800 1.93000 46.90400
H  48.07400 8.27400 47.72100
H  39.73300 7.21400 47.95900
H  39.66000 4.99400 45.94000
H  38.33100 5.37100 48.39100
H  39.55400 4.16900 48.70600
H  38.28800 4.08900 47.36200
H  39.58800 8.71300 45.94400
H  38.53500 7.33400 45.73700
H  39.43500 6.52000 44.21300
H  41.15900 6.62700 44.63100
H  41.23000 0.83200 46.34500
H  41.80500 -0.19100 47.71200
H  42.24900 -0.58300 46.03700
H  47.33800 -0.01700 46.25200
H  46.97700 -1.61100 46.88800
H  46.99800 -0.16200 47.93200
H  49.34600 3.70800 46.50900
H  49.26100 5.72800 48.61700
H  48.44000 2.52400 48.79800
H  49.56200 3.79900 49.41400
H  50.15500 2.62000 48.18500
H  49.40500 6.76000 45.81000
H  50.50000 5.51300 45.98800
H  51.59200 6.44100 47.85100
H  50.53600 7.92400 47.80500
H  51.52100 7.59600 46.40900
H  47.67800 10.51600 47.89800
H  46.36400 11.53300 47.18200
H  47.33400 10.37400 46.23900
H  41.48900 9.82300 46.23000
H  39.17000 12.07800 49.37800
H  39.19300 10.42800 49.82400
H  38.27700 10.95300 48.30500
Mg 55.37300 23.80600 44.22400
C  53.01500 26.47500 43.42900
C  53.10700 21.58900 43.17800
C  57.87700 21.64100 44.45300
C  57.74500 26.49200 44.65800
N  53.23000 24.12400 43.20300
C  52.41100 25.19900 43.21800
C  51.03500 24.83400 42.68900
C  51.04900 23.26500 42.87500
C  52.53000 22.93900 43.17300
C  50.21200 22.73300 44.03900
C  50.74600 25.26100 41.22100
C  49.25100 25.22500 40.88500
H  49.08500 24.55800 39.45500
N  55.48600 21.86800 43.83600
C  54.39200 21.09300 43.56700
C  54.84800 19.74600 43.59100
C  56.26600 19.70700 43.88800
C  56.58700 21.13900 44.08100
C  53.88800 18.69300 43.26000
C  57.12800 18.50000 44.04300
O  56.65700 17.38200 43.77900
C  58.59300 18.47100 44.36500
N  57.48700 24.06500 44.30900
C  58.32100 22.98000 44.48800
C  59.69100 23.27400 44.89500
C  59.69300 24.90100 45.05000
C  58.24600 25.18600 44.61200
C  60.15100 22.70800 46.32400
C  60.83600 25.76800 44.24200
C  61.34300 27.12100 44.80200
N  55.42100 25.97600 44.15700
C  56.38400 26.92500 44.43100
C  55.82500 28.21700 44.44500
C  54.53300 28.05900 44.05400
C  54.33200 26.71300 43.83400
C  56.41400 29.47600 44.90300
C  53.39300 28.80600 43.86100
O  53.14100 29.99100 44.12800
C  52.35900 27.83200 43.23700
C  52.21900 28.17000 41.81300
O  52.98600 27.68800 40.96400
O  51.13800 29.00200 41.59400
C  51.05600 29.43900 40.14200
H  52.39600 20.80900 42.89500
H  58.71000 20.97800 44.69100
H  58.45200 27.29100 44.89100
H  50.24600 25.23500 43.32600
H  50.66000 22.76000 41.99100
H  50.89400 22.46300 44.84500
H  49.71100 21.84700 43.64600
H  49.48500 23.41900 44.47300
H  51.41600 24.63800 40.62900
H  50.98100 26.29400 40.96100
H  48.83700 26.21900 41.05100
H  48.78200 24.54900 41.60000
H  53.39000 18.16200 44.07100
H  54.38600 18.01100 42.57100
H  53.01200 18.93800 42.66100
H  59.27300 18.76500 43.56500
H  58.87700 17.45600 44.64400
H  58.74300 19.04000 45.28300
H  60.39500 23.04300 44.09500
H  59.61400 25.30500 46.05900
H  59.93600 23.33900 47.18600
H  61.20500 22.43100 46.29300
H  59.62200 21.76100 46.43200
H  60.45700 25.95700 43.23800
H  61.74000 25.16100 44.18500
H  62.43100 27.11600 44.73900
H  61.09500 27.12500 45.86300
H  61.04200 28.02900 44.27800
H  55.66500 30.26100 44.80200
H  57.23900 29.76700 44.25400
H  56.72400 29.40600 45.94600
H  51.39200 27.95000 43.72500
H  50.81000 28.48500 39.67400
H  52.02200 29.83100 39.82400
H  50.21800 30.08200 39.87200

