158

Mg -2.52400 17.12600 27.79000
C  -2.93400 15.02800 30.55800
C  -3.14300 19.95500 30.01100
C  -2.35400 19.15800 25.23800
C  -2.63600 14.38400 25.60900
N  -2.97200 17.41200 30.02300
C  -3.00500 16.38700 30.90000
C  -3.27700 16.93300 32.30800
C  -3.30700 18.52900 32.13800
C  -3.17300 18.66900 30.69300
C  -4.38300 19.31000 32.88800
C  -2.24500 16.53400 33.44200
C  -2.21300 17.25900 34.79800
H  -1.92600 16.40700 36.04600
N  -2.64400 19.26000 27.59700
C  -2.88100 20.20600 28.59900
C  -2.83200 21.56900 28.05100
C  -2.57000 21.43200 26.65400
C  -2.53500 19.92200 26.40200
C  -2.86700 22.84200 28.88500
C  -2.29300 22.46100 25.62300
O  -2.23000 22.16900 24.44100
C  -1.94400 23.84700 26.04400
N  -2.57400 16.85400 25.71400
C  -2.36200 17.88500 24.86900
C  -2.23800 17.35900 23.41100
C  -2.37800 15.79500 23.57300
C  -2.56400 15.66400 25.04400
C  -3.33800 17.97700 22.40300
C  -1.19400 15.06000 22.90600
C  0.22400 14.95000 23.55600
N  -2.59700 15.19500 27.94300
C  -2.69700 14.17800 26.99000
C  -2.85300 12.83700 27.63300
C  -2.88600 13.18200 29.00900
C  -2.78600 14.67200 29.16600
C  -3.09900 11.53200 27.05700
C  -3.09400 12.58200 30.35800
O  -3.27800 11.43700 30.70500
C  -3.13200 13.75600 31.43100
C  -2.00200 13.44300 32.34100
O  -0.85700 13.75900 32.15500
O  -2.46300 12.70100 33.38600
C  -1.45300 12.26800 34.35000
H  -3.14900 20.73200 30.77800
H  -2.21300 19.79700 24.36300
H  -2.61600 13.54000 24.91700
H  -4.24500 16.60500 32.68600
H  -2.36600 18.97500 32.46200
H  -5.19400 19.73500 32.29700
H  -3.87400 20.07900 33.46800
H  -4.85200 18.65200 33.62000
H  -1.22900 16.54400 33.04800
H  -2.51900 15.52500 33.75100
H  -3.16900 17.75400 34.97100
H  -1.50800 18.06400 34.58700
H  -1.89600 23.29900 29.07700
H  -3.33100 22.73700 29.86600
H  -3.45800 23.53800 28.28900
H  -1.51100 24.40700 25.21500
H  -1.10500 23.85400 26.74100
H  -2.78900 24.36100 26.50100
H  -1.34500 17.69300 22.88200
H  -3.35500 15.45900 23.22600
H  -3.89200 18.68300 23.02100
H  -3.92100 17.11500 22.07800
H  -2.87200 18.36800 21.49900
H  -1.03100 15.59400 21.96900
H  -1.52700 14.03600 22.73800
H  0.68200 15.92100 23.74300
H  0.88500 14.26100 23.02900
H  -0.02100 14.40600 24.46900
H  -3.70000 11.73500 26.17000
H  -3.55700 11.02400 27.90500
H  -2.12000 11.08000 26.89500
H  -4.09500 13.77800 31.94100
H  -0.63200 11.69000 33.92600
H  -1.89300 11.55000 35.04200
H  -1.04500 13.09800 34.92700
Mg 49.20500 47.96400 42.61500
C  45.89100 47.58900 41.32200
C  49.79400 44.82800 41.43400
C  52.26100 48.48100 43.54600
C  48.23200 51.19000 43.58700
N  48.02200 46.53600 41.25400
C  46.70000 46.56900 40.94500
C  46.31000 45.32800 40.11900
C  47.54500 44.38200 40.37800
C  48.48900 45.31300 41.06200
C  47.11800 43.20800 41.33600
C  46.07600 45.77900 38.67300
C  44.77600 45.36700 37.89400
H  44.93000 44.51900 36.62800
N  50.80100 46.84400 42.46000
C  50.85300 45.57300 41.95400
C  52.22600 45.13200 41.93700
C  52.99800 46.14300 42.57900
C  52.03000 47.25300 42.89200
C  52.63800 43.78500 41.31800
C  54.47800 46.08000 42.79000
O  55.14800 45.12300 42.45500
C  55.21600 47.17000 43.49800
N  50.16500 49.66600 43.34300
C  51.46800 49.61100 43.62500
C  51.92900 50.93700 44.32900
C  50.61100 51.78100 44.36700
C  49.62900 50.87800 43.72800
C  52.58300 50.85400 45.74900
C  50.73700 53.17800 43.67600
C  50.80500 54.27300 44.78500
N  47.45700 49.13100 42.55700
C  47.24200 50.38100 43.02700
C  45.85300 50.77500 42.78200
C  45.24100 49.65800 42.23500
C  46.30900 48.76400 42.01300
C  45.29400 52.12200 43.05400
C  43.99500 49.16000 41.60600
O  42.88200 49.60100 41.44600
C  44.41500 47.72700 41.02700
C  43.54700 46.73900 41.64500
O  43.71400 46.41100 42.80200
O  42.61100 46.30400 40.72500
C  41.65100 45.38600 41.28600
H  50.07300 43.79300 41.22600
H  53.22700 48.58700 44.04400
H  47.86300 52.13700 43.98700
H  45.40200 44.97100 40.60600
H  47.84500 44.07400 39.37600
H  46.16500 43.32700 41.85000
H  47.85800 43.21400 42.13700
H  47.22000 42.20900 40.91100
H  46.84300 45.41100 37.99200
H  46.17400 46.86500 38.66600
H  44.28900 46.21400 37.41000
H  44.03400 44.86800 38.51800
H  52.63400 43.83900 40.23000
H  51.95900 42.99400 41.63700
H  53.60400 43.45700 41.70200
H  55.06100 48.10400 42.95900
H  56.30200 47.07500 43.50900
H  54.78900 47.15400 44.50100
H  52.72700 51.27800 43.67000
H  50.34800 51.99300 45.40300
H  52.50900 49.82600 46.10200
H  52.24100 51.55600 46.51000
H  53.59000 51.19500 45.50800
H  49.82000 53.28700 43.09500
H  51.60500 53.11200 43.02000
H  50.26900 55.14500 44.41000
H  51.84100 54.50300 45.03400
H  50.35900 54.13700 45.77000
H  45.16800 52.78400 42.19700
H  45.85200 52.66800 43.81500
H  44.34600 52.09700 43.59100
H  44.23600 47.79000 39.95400
H  41.90800 44.32700 41.29600
H  40.68600 45.30900 40.78600
H  41.37500 45.56200 42.32500

