158

Mg 17.43300 -2.83100 27.95600
C  16.42400 -0.60800 30.41500
C  19.65000 -4.38400 30.27200
C  19.14200 -4.41300 25.43100
C  15.98900 -0.72600 25.56300
N  17.94200 -2.50900 30.05800
C  17.36200 -1.52800 30.87600
C  17.80300 -1.63300 32.38000
C  18.78500 -2.82100 32.24900
C  18.87500 -3.22700 30.73700
C  20.12600 -2.43800 32.84600
C  16.53400 -1.91900 33.30900
C  16.72600 -2.42600 34.79600
H  18.03700 -2.08400 35.48700
N  18.96500 -4.31900 27.86300
C  19.66600 -4.89000 28.88700
C  20.34300 -6.03600 28.36900
C  20.14700 -6.09500 26.98200
C  19.42000 -4.87900 26.70300
C  21.24600 -6.78700 29.23900
C  20.62200 -7.13200 26.01700
O  20.42800 -7.11500 24.79600
C  21.49700 -8.24900 26.51500
N  17.64900 -2.49700 25.83600
C  18.40800 -3.32600 25.03600
C  18.06700 -3.09600 23.49900
C  16.96700 -1.95400 23.60100
C  16.77900 -1.73200 25.10400
C  19.19400 -2.63100 22.48400
C  15.58400 -2.49300 22.99600
C  14.45100 -2.93400 23.87500
N  16.30800 -1.06400 27.87800
C  15.80200 -0.33400 26.87100
C  15.01800 0.75900 27.42600
C  15.21600 0.67000 28.80500
C  16.03000 -0.43500 29.05400
C  14.12100 1.64800 26.53300
C  14.94800 1.34100 30.07200
O  14.29300 2.33300 30.29200
C  15.80100 0.56700 31.13300
C  16.72100 1.55400 31.81400
O  17.81900 1.89500 31.42700
O  16.11600 2.00800 33.04500
C  16.89000 2.91200 33.87500
H  20.22400 -4.86400 31.06600
H  19.51600 -4.88000 24.51800
H  15.31300 -0.23500 24.85900
H  18.25800 -0.70300 32.72100
H  18.45400 -3.69300 32.81300
H  20.14700 -1.58700 33.52700
H  20.82500 -2.34000 32.01600
H  20.52800 -3.26900 33.42600
H  15.94600 -2.63500 32.73500
H  15.97600 -1.00900 33.52900
H  16.65600 -3.51400 34.82800
H  15.85900 -2.05800 35.34400
H  21.71400 -6.26000 30.07100
H  22.20100 -7.07200 28.79900
H  20.72800 -7.62800 29.69900
H  22.55200 -7.97600 26.47100
H  21.42200 -9.08400 25.81900
H  21.26300 -8.66700 27.49400
H  17.71000 -4.03100 23.06700
H  17.33700 -1.00100 23.22400
H  19.42500 -3.31400 21.66700
H  20.04000 -2.34300 23.10900
H  18.76400 -1.85100 21.85600
H  15.71100 -3.32300 22.30100
H  15.13000 -1.63700 22.49500
H  14.51700 -3.25400 24.91400
H  13.93400 -3.71900 23.32300
H  13.76300 -2.09700 23.75700
H  13.19900 1.94900 27.02900
H  13.84400 1.06800 25.65200
H  14.57700 2.62700 26.38500
H  15.09400 0.20900 31.88100
H  16.34900 3.82500 34.12400
H  17.90400 3.07400 33.51000
H  17.04100 2.35400 34.79900
Mg 46.66700 16.19100 27.56500
C  44.92900 15.80800 30.50600
C  48.97600 18.29900 29.13700
C  48.01800 17.14600 24.49400
C  44.15400 14.55700 25.88400
N  46.92900 16.95500 29.65400
C  46.16100 16.50900 30.72100
C  46.77800 17.01300 32.03500
C  47.99300 17.91900 31.55300
C  47.96400 17.75800 30.02000
C  47.92700 19.38600 31.96800
C  47.10300 15.83500 33.00000
C  46.39600 16.00100 34.38700
H  46.05100 17.40700 34.87900
N  48.32100 17.39500 26.92800
C  49.21700 18.00700 27.76600
C  50.27500 18.57600 27.01500
C  49.95500 18.45100 25.62300
C  48.69100 17.65600 25.64300
C  51.38800 19.42600 27.66000
C  50.72800 18.89900 24.36200
O  50.33900 18.57100 23.25300
C  51.93500 19.79800 24.56800
N  46.14200 15.88300 25.49700
C  46.89300 16.32100 24.44500
C  46.38900 15.77500 23.15600
C  45.15900 14.86700 23.53300
C  45.14900 15.00700 25.07300
C  46.12200 16.85800 22.06000
C  45.16000 13.44500 22.94600
C  45.22900 13.31100 21.38100
N  44.98100 15.15800 28.11500
C  44.02700 14.60800 27.29300
C  42.89000 14.10600 28.07500
C  43.30100 14.44700 29.37900
C  44.45300 15.24800 29.30400
C  41.60700 13.51300 27.53600
C  42.86100 14.53200 30.75600
O  41.81800 14.15000 31.29600
C  43.93800 15.35700 31.55500
C  43.12000 16.35600 32.34100
O  42.92400 17.49500 31.92200
O  42.80100 15.90500 33.58300
C  41.97400 16.70800 34.44400
H  49.77600 18.83600 29.64900
H  48.38800 17.37500 23.49200
H  43.32400 13.99900 25.44500
H  45.95200 17.61900 32.40500
H  48.92800 17.50000 31.92300
H  48.82200 19.51700 32.57500
H  46.99900 19.51500 32.52600
H  47.99400 20.07300 31.12400
H  48.17500 15.89700 33.18800
H  46.94300 14.89800 32.46600
H  47.08400 15.53500 35.09300
H  45.51200 15.36900 34.30900
H  51.45800 19.43800 28.74800
H  51.19700 20.48800 27.50400
H  52.32500 19.11500 27.19900
H  52.66900 19.25600 25.16400
H  51.54700 20.64800 25.12900
H  52.33500 20.09900 23.60000
H  47.25000 15.17600 22.85900
H  44.27800 15.33600 23.09400
H  45.19500 16.73600 21.50100
H  46.85200 16.71800 21.26300
H  46.22700 17.92200 22.27500
H  44.33100 12.79000 23.21300
H  45.98400 12.97200 23.48100
H  46.15100 12.75900 21.19500
H  45.21600 14.28000 20.88200
H  44.36000 12.77800 20.99600
H  41.97100 12.83400 26.76500
H  40.87000 14.26200 27.24500
H  41.22500 12.83300 28.29700
H  44.38500 14.79400 32.37400
H  42.45900 16.57800 35.41100
H  41.05100 16.16800 34.65500
H  41.63100 17.69000 34.11700

