158

Mg -2.07000 16.92100 26.35000
C  -2.65000 14.94200 29.13000
C  -2.63600 19.66300 28.26700
C  -2.26100 18.56300 23.47200
C  -2.43800 13.80600 24.26600
N  -2.56700 17.17900 28.47900
C  -2.58700 16.28200 29.45000
C  -2.61600 16.92800 30.84800
C  -2.66500 18.43600 30.50900
C  -2.66100 18.44900 28.99000
C  -3.79300 19.22700 31.26000
C  -1.50500 16.62000 31.84200
C  -1.41000 17.40300 33.13900
H  -0.74000 16.71500 34.35100
N  -2.20500 18.88800 25.90600
C  -2.45000 19.85500 26.88300
C  -2.57000 21.13900 26.14200
C  -2.23000 20.78800 24.81500
C  -2.25400 19.35700 24.68800
C  -3.01300 22.52400 26.71300
C  -1.89900 21.80200 23.68100
O  -1.71300 21.37300 22.51600
C  -1.66800 23.19200 24.01500
N  -2.17500 16.19500 24.15000
C  -2.20800 17.17500 23.19500
C  -2.10300 16.61200 21.71700
C  -2.51300 15.11300 22.05000
C  -2.26800 15.03100 23.56900
C  -2.85200 17.14400 20.59000
C  -1.66200 14.16600 21.15300
C  -2.48700 13.45700 20.07000
N  -2.44300 14.81200 26.60500
C  -2.57400 13.73200 25.69700
C  -2.97800 12.54400 26.46100
C  -2.91700 12.92600 27.84300
C  -2.61300 14.27100 27.85600
C  -3.22400 11.24300 25.89300
C  -3.04200 12.49600 29.27100
O  -3.10600 11.35600 29.73900
C  -2.92500 13.81500 30.14800
C  -1.72700 13.45600 30.97000
O  -0.58100 13.60600 30.61600
O  -2.05000 12.78100 32.14900
C  -0.89300 12.26700 32.92500
H  -2.63500 20.55300 28.90000
H  -2.36200 19.20800 22.59700
H  -2.69700 12.95600 23.63100
H  -3.59100 16.65000 31.24800
H  -1.73200 18.93600 30.76900
H  -4.54600 19.40500 30.49200
H  -3.41700 20.19000 31.60700
H  -4.10600 18.61200 32.10400
H  -0.52700 16.74300 31.37700
H  -1.56600 15.54900 32.03500
H  -2.38200 17.80100 33.43000
H  -0.81400 18.30900 33.03800
H  -3.61600 22.42900 27.61500
H  -3.71200 22.95700 25.99700
H  -2.09600 23.09600 26.85700
H  -1.17200 23.72700 23.20500
H  -0.88400 23.27000 24.76900
H  -2.59100 23.70900 24.27600
H  -1.06300 16.69300 21.39900
H  -3.58200 14.89900 22.02500
H  -3.59600 17.87400 20.90900
H  -3.22100 16.43800 19.84500
H  -2.18900 17.76700 19.99000
H  -1.39900 13.29400 21.75200
H  -0.74600 14.59600 20.74700
H  -2.17300 13.90900 19.12900
H  -3.56500 13.53300 20.21500
H  -2.28200 12.39600 19.92400
H  -2.58200 10.96500 25.05600
H  -4.28200 11.18500 25.63900
H  -2.89800 10.41900 26.52700
H  -3.81100 13.99000 30.76000
H  -0.56900 13.10600 33.54100
H  -0.08900 11.73300 32.41700
H  -1.31400 11.55700 33.63700
Mg 46.80100 16.79900 27.86700
C  44.97300 16.22400 30.88500
C  48.94800 18.76500 29.71300
C  48.37100 17.65700 25.02800
C  44.24100 15.57400 26.15000
N  46.82100 17.56200 30.12300
C  46.05900 17.06300 31.19200
C  46.58700 17.58800 32.53200
C  47.75100 18.54600 32.10700
C  47.90600 18.18700 30.56200
C  47.83600 20.03500 32.50400
C  46.89300 16.36700 33.47900
C  46.00000 16.29400 34.72100
H  45.69800 17.55900 35.43200
N  48.45100 18.04100 27.45600
C  49.21400 18.74000 28.35900
C  50.28700 19.32400 27.60100
C  50.14700 19.00200 26.25000
C  48.94800 18.18400 26.18200
C  51.31800 20.26600 28.27400
C  51.08200 19.28900 25.03100
O  50.84700 18.91600 23.90800
C  52.37600 19.96400 25.23200
N  46.49700 16.44100 25.92100
C  47.25900 16.85000 24.89700
C  46.65700 16.66500 23.52800
C  45.49000 15.68100 23.83000
C  45.37100 15.89200 25.40300
C  46.28000 17.98000 22.72900
C  45.75200 14.24200 23.26000
C  46.01300 13.10000 24.28300
N  44.95600 15.95600 28.33300
C  44.00200 15.46000 27.51700
C  42.90100 14.91300 28.31200
C  43.22000 15.15600 29.62800
C  44.46900 15.84700 29.58800
C  41.87300 14.09300 27.57600
C  42.76100 14.99300 30.96600
O  41.72300 14.48800 31.43800
C  43.88600 15.71100 31.86100
C  43.14200 16.78200 32.58600
O  43.03700 17.92400 32.22100
O  42.51600 16.25400 33.65800
C  41.64000 17.15300 34.37600
H  49.60400 19.42100 30.28800
H  48.91400 17.83800 24.09900
H  43.47100 15.13700 25.51100
H  45.84500 18.28000 32.93000
H  48.58000 18.09400 32.65300
H  46.96000 20.22100 33.12600
H  47.79800 20.70100 31.64200
H  48.66400 20.15800 33.20200
H  47.94300 16.37000 33.77000
H  46.69200 15.45100 32.92300
H  46.59500 15.65700 35.37500
H  45.05300 15.79400 34.51700
H  51.56900 21.09500 27.61200
H  52.18400 19.65700 28.53400
H  50.85400 20.60200 29.20100
H  53.06700 19.43500 25.88900
H  52.03900 20.92100 25.62900
H  53.04100 20.12600 24.38400
H  47.39100 16.15700 22.90300
H  44.63400 16.06500 23.27600
H  45.31000 17.99800 22.23200
H  47.03500 18.34000 22.03000
H  46.19100 18.77800 23.46600
H  46.64100 14.13900 22.63800
H  44.85300 13.90800 22.74200
H  46.75100 13.49100 24.98300
H  46.32800 12.21600 23.72800
H  45.07100 12.96000 24.81400
H  41.05500 14.66900 27.14400
H  41.46200 13.44300 28.34900
H  42.31100 13.46800 26.79700
H  44.06000 14.85100 32.50800
H  42.16700 18.06000 34.67100
H  41.23300 16.65400 35.25600
H  40.78700 17.40600 33.74600

