158

Mg 35.19400 48.65800 25.92800
C  35.49100 46.68500 28.86500
C  33.87400 51.07500 27.80700
C  34.87100 50.26900 23.15200
C  35.90400 45.62400 24.05700
N  34.59100 48.72200 27.96600
C  34.95100 47.91100 29.03000
C  34.65800 48.59600 30.38600
C  33.78100 49.83200 29.97500
C  34.15100 49.92100 28.46800
C  32.24800 49.72400 30.31300
C  36.02900 49.00700 30.99900
C  36.35400 48.41800 32.40900
H  36.17400 49.37200 33.61500
N  34.56600 50.51100 25.49500
C  34.02900 51.37600 26.44300
C  33.81800 52.63600 25.72700
C  34.21500 52.40700 24.41300
C  34.57400 51.00800 24.32300
C  33.31600 53.80600 26.48200
C  34.26800 53.41400 23.26400
O  34.50900 53.06300 22.14200
C  34.03200 54.89100 23.62000
N  35.26900 48.01700 23.89700
C  35.11700 48.91300 22.91600
C  35.11800 48.27600 21.48300
C  35.75800 46.88900 21.85700
C  35.58100 46.81800 23.37400
C  33.64000 48.21700 20.87000
C  37.24800 46.67900 21.45600
C  37.50700 45.33400 20.66500
N  35.61200 46.51900 26.35700
C  35.89500 45.47700 25.47800
C  36.11700 44.24700 26.28100
C  36.11000 44.72300 27.62300
C  35.66600 46.09800 27.57700
C  36.39200 42.86600 25.78300
C  36.23300 44.38300 29.02100
O  36.52400 43.34400 29.57100
C  35.90100 45.65000 29.89800
C  34.71700 45.16500 30.71600
O  33.53600 44.97400 30.32100
O  35.17000 44.97100 32.01400
C  34.08300 44.82600 33.07700
H  33.49300 51.83000 28.49700
H  34.81900 50.78000 22.18900
H  36.24100 44.78700 23.44200
H  34.13000 47.88900 31.02600
H  33.99800 50.80600 30.41300
H  31.62700 50.16600 29.53400
H  32.06500 50.15500 31.29700
H  32.02900 48.65800 30.36700
H  36.18400 50.08500 30.93900
H  36.88000 48.58400 30.46400
H  37.37000 48.03000 32.48300
H  35.68200 47.59300 32.64400
H  34.07900 54.57900 26.57400
H  32.81800 53.68600 27.44400
H  32.49700 54.25900 25.92500
H  34.52900 55.27400 24.51100
H  32.97300 54.95500 23.87300
H  34.12500 55.48300 22.70900
H  35.76400 48.80800 20.78500
H  35.10500 46.06600 21.56800
H  33.35800 47.21000 20.56500
H  33.46200 48.87000 20.01600
H  32.89400 48.61700 21.55700
H  37.87300 46.57800 22.34300
H  37.61300 47.57900 20.96200
H  38.47200 45.55800 20.21100
H  36.85800 45.21100 19.79700
H  37.48800 44.49000 21.35400
H  36.12100 42.81200 24.72900
H  35.84900 42.01600 26.19600
H  37.46800 42.69300 25.76500
H  36.75300 45.88700 30.53500
H  33.92500 43.77100 33.30200
H  33.12100 45.21200 32.73800
H  34.48700 45.31200 33.96500
Mg -2.64200 35.04200 25.77000
C  -4.43300 33.55200 28.51200
C  -1.59300 37.46400 27.95200
C  -0.96700 36.41400 23.20400
C  -4.29700 32.80400 23.66200
N  -3.27600 35.55800 27.95300
C  -3.68900 34.62400 28.92400
C  -3.36400 35.11800 30.34400
C  -2.62900 36.52900 30.05500
C  -2.53900 36.55400 28.53000
C  -3.31600 37.77700 30.69700
C  -2.52600 34.08200 31.16600
C  -2.07300 34.38200 32.62800
H  -2.85700 33.82200 33.84300
N  -1.47400 36.72700 25.59100
C  -1.09300 37.60400 26.60100
C  -0.12500 38.56200 25.96500
C  0.22600 38.15800 24.64400
C  -0.74200 37.04300 24.39500
C  0.49200 39.65500 26.62900
C  1.20100 38.69200 23.67500
O  1.35100 38.25200 22.53800
C  2.29900 39.62400 24.21300
N  -2.84000 34.76300 23.67300
C  -2.02100 35.48900 22.81200
C  -2.14200 34.88000 21.39100
C  -3.02300 33.63400 21.56000
C  -3.39600 33.71100 23.07000
C  -2.58900 35.83600 20.26400
C  -2.43600 32.32800 21.11600
C  -1.48500 31.68500 22.12800
N  -4.11500 33.51500 25.93100
C  -4.61500 32.68800 25.03200
C  -5.43200 31.74500 25.60400
C  -5.43700 32.00100 26.95800
C  -4.62500 33.12900 27.14200
C  -6.19500 30.64800 24.88400
C  -5.92900 31.64300 28.28400
O  -6.67700 30.71800 28.50600
C  -5.16300 32.49900 29.32200
C  -6.16000 33.11600 30.28000
O  -6.84600 34.08400 30.02300
O  -6.15200 32.47100 31.46800
C  -7.01100 33.11400 32.45600
H  -1.10800 38.06900 28.72100
H  -0.49600 36.82300 22.30700
H  -4.64500 31.99900 23.01100
H  -4.21100 35.23200 31.01900
H  -1.60200 36.38700 30.39300
H  -3.58500 38.57400 30.00400
H  -2.75200 38.27900 31.48200
H  -4.19200 37.61700 31.32700
H  -1.60900 33.93200 30.59700
H  -3.07500 33.14100 31.18800
H  -1.96500 35.46200 32.72100
H  -1.09100 33.92500 32.75500
H  0.04200 39.77900 27.61500
H  0.45900 40.59300 26.07600
H  1.50300 39.40700 26.95300
H  1.82200 40.49500 24.66100
H  2.64700 39.96400 23.23700
H  3.16400 39.26500 24.77100
H  -1.13900 34.61900 21.05300
H  -3.98500 33.80100 21.07600
H  -3.48200 35.40900 19.80800
H  -1.79000 35.79000 19.52300
H  -2.65200 36.84500 20.67100
H  -1.89900 32.54800 20.19300
H  -3.18500 31.56700 20.89800
H  -0.69300 31.46400 21.41200
H  -2.00800 30.81500 22.52400
H  -1.12600 32.32300 22.93600
H  -6.48100 29.79000 25.49300
H  -5.72400 30.32800 23.95500
H  -7.12600 31.16500 24.65100
H  -4.55800 31.77300 29.86500
H  -8.00300 33.27600 32.03500
H  -6.59200 34.04100 32.84700
H  -7.35600 32.53900 33.31600

