158

Mg 35.82000 2.06900 29.69400
C  33.43700 3.13500 32.19200
C  38.10800 2.23400 32.27100
C  38.19600 1.75400 27.38900
C  33.25700 2.16600 27.30100
N  35.73000 2.40100 31.92100
C  34.60100 2.67700 32.75600
C  35.04000 2.79700 34.22400
C  36.57400 2.86700 34.13000
C  36.83600 2.42700 32.74200
C  37.29100 4.19600 34.52600
C  34.42500 1.61300 34.99700
C  34.29200 1.58200 36.52200
H  34.70700 2.86100 37.30700
N  37.91700 1.88700 29.82200
C  38.67600 2.01600 30.97200
C  40.03900 1.74200 30.69000
C  40.13000 1.70600 29.22700
C  38.71500 1.82900 28.71300
C  41.17400 1.58700 31.69300
C  41.39900 1.52900 28.34700
O  41.35000 1.45700 27.11300
C  42.78200 1.32400 29.04500
N  35.72900 1.89600 27.67100
C  36.85600 1.72800 26.94600
C  36.51800 1.45500 25.45600
C  34.99500 1.28700 25.52100
C  34.55000 1.73300 26.93200
C  37.00700 2.51300 24.32700
C  34.42700 -0.13500 25.19200
C  33.91500 -0.45100 23.79400
N  33.77200 2.59300 29.61500
C  32.85600 2.60400 28.60500
C  31.56500 3.16800 29.12400
C  31.75000 3.40000 30.44900
C  33.10100 2.97100 30.75300
C  30.38600 3.50100 28.31100
C  31.18200 3.82600 31.70800
O  30.00700 4.18700 31.91700
C  32.18400 3.75300 32.86400
C  32.44400 5.08500 33.42300
O  33.16500 5.92400 32.92200
O  31.73100 5.23000 34.64400
C  31.66100 6.49200 35.38600
H  38.91000 2.26400 33.01200
H  38.85000 1.47400 26.56100
H  32.45100 2.10800 26.56600
H  34.63000 3.75100 34.55700
H  36.91000 2.07600 34.80100
H  37.08900 5.01500 33.83600
H  38.34000 3.90900 34.58700
H  37.03200 4.65800 35.47900
H  34.79600 0.69600 34.54000
H  33.35200 1.52700 34.82700
H  34.87800 0.74200 36.89500
H  33.28900 1.24000 36.77700
H  41.75400 2.48500 31.48100
H  41.79600 0.70900 31.51800
H  40.70700 1.52800 32.67600
H  43.62800 1.37500 28.35900
H  42.83700 0.46900 29.71800
H  42.79800 2.20700 29.68400
H  36.92600 0.49800 25.13300
H  34.46200 2.00900 24.90200
H  37.68500 3.23700 24.77900
H  36.14800 3.04400 23.91800
H  37.67100 2.04700 23.59900
H  33.66400 -0.27900 25.95600
H  35.15100 -0.84200 25.59600
H  33.90500 0.49500 23.25400
H  32.91400 -0.87800 23.72500
H  34.57300 -1.09800 23.21400
H  30.68300 3.37400 27.27000
H  30.02100 4.50900 28.50800
H  29.51400 2.87700 28.50800
H  31.79900 3.05300 33.60500
H  30.68500 6.81200 35.75000
H  31.96200 7.30500 34.72600
H  32.26400 6.38400 36.28800
Mg 9.58100 47.41500 27.59200
C  7.32400 47.28000 30.29500
C  11.99100 48.28400 29.89000
C  11.83600 47.72500 25.01500
C  7.03700 47.13200 25.33500
N  9.63500 47.89500 29.85500
C  8.63000 47.67700 30.75000
C  9.08100 47.92600 32.16700
C  10.52000 48.31000 32.00500
C  10.73800 48.19100 30.49800
C  10.97900 49.65600 32.62700
C  8.82600 46.81000 33.09600
C  9.81400 46.55600 34.27000
H  9.32700 45.65600 35.42400
N  11.58100 48.00100 27.43400
C  12.41200 48.22100 28.50400
C  13.73700 48.40300 28.02600
C  13.70000 48.24900 26.64600
C  12.35300 48.01900 26.29600
C  14.94600 48.70400 28.91500
C  14.84300 48.49900 25.65000
O  14.74100 48.46000 24.46600
C  16.25000 48.79700 26.16100
N  9.49500 47.53000 25.41400
C  10.51000 47.46800 24.61800
C  10.09200 47.33800 23.15300
C  8.49500 47.22100 23.23800
C  8.31700 47.28200 24.70800
C  10.64900 48.40000 22.19700
C  7.92700 45.87100 22.65400
C  7.60800 45.90300 21.10700
N  7.58200 47.15100 27.76100
C  6.63100 47.14500 26.75500
C  5.32800 47.03500 27.38300
C  5.57700 46.98600 28.76100
C  6.96600 47.20700 28.91600
C  4.05200 46.80900 26.76800
C  4.93900 46.84000 30.04600
O  3.72300 46.72000 30.31700
C  6.06300 46.89800 31.08100
C  6.15400 45.52400 31.69400
O  6.70900 44.52200 31.21800
O  5.61000 45.61200 32.96800
C  5.68600 44.35000 33.78100
H  12.73800 48.73400 30.54600
H  12.52400 47.74600 24.16700
H  6.25900 47.07600 24.57100
H  8.47300 48.75200 32.53700
H  11.09500 47.54900 32.53300
H  10.12000 50.20400 33.01300
H  11.52500 50.22900 31.87700
H  11.62900 49.37500 33.45600
H  8.63300 45.83400 32.65000
H  7.94500 47.09300 33.67300
H  9.95500 47.54900 34.69700
H  10.77500 46.16500 33.93900
H  14.61200 48.52100 29.93600
H  15.22400 49.74900 28.78500
H  15.78000 48.03400 28.70100
H  16.89000 49.10200 25.33400
H  16.73500 47.88700 26.51500
H  16.24900 49.65200 26.83800
H  10.47100 46.42200 22.69900
H  8.03300 48.08400 22.75700
H  11.29000 48.99400 22.84800
H  9.82500 48.93600 21.72700
H  11.22900 47.93300 21.40000
H  7.01800 45.58600 23.18500
H  8.70100 45.11900 22.80600
H  7.80400 46.90200 20.71500
H  6.58400 45.62200 20.86100
H  8.26500 45.17600 20.63000
H  3.51100 47.64400 27.21400
H  3.60300 45.84100 26.99100
H  4.06200 46.92400 25.68400
H  5.77700 47.66900 31.79600
H  6.30200 43.60300 33.27900
H  4.64100 44.05300 33.86300
H  5.94500 44.60000 34.81000

