158

Mg 34.53200 2.92500 29.31000
C  32.44000 4.09400 31.98000
C  37.09300 2.67800 31.69100
C  36.51000 1.99800 26.91500
C  31.83500 3.56100 27.13100
N  34.64400 3.18700 31.50800
C  33.67200 3.58500 32.40400
C  34.20100 3.66600 33.84900
C  35.74400 3.58600 33.65500
C  35.83200 3.14600 32.15000
C  36.50300 4.92800 33.93600
C  33.46200 2.64900 34.80900
C  33.82500 2.72600 36.34500
H  34.73100 3.90300 36.96200
N  36.60500 2.39400 29.26300
C  37.46000 2.28700 30.38400
C  38.66600 1.68500 29.90200
C  38.59000 1.55200 28.47500
C  37.16100 1.91400 28.12500
C  39.81200 1.39900 30.86400
C  39.70600 1.14400 27.41600
O  39.53700 1.15500 26.21800
C  40.96200 0.65500 27.90100
N  34.29900 3.03500 27.27000
C  35.25300 2.50600 26.46400
C  34.83300 2.55900 25.01700
C  33.29500 2.95800 25.09600
C  33.15600 3.20000 26.61600
C  35.70500 3.41600 24.12000
C  32.25700 1.87000 24.53000
C  32.02300 0.65500 25.44100
N  32.51500 3.64900 29.52500
C  31.56300 3.84800 28.50500
C  30.35000 4.30700 29.01900
C  30.65300 4.35700 30.40000
C  31.99700 4.09400 30.63500
C  29.11400 4.46600 28.31700
C  30.05000 4.74900 31.60800
O  28.95200 5.22700 31.88200
C  31.18600 4.46500 32.70400
C  31.29300 5.74600 33.48900
O  31.76500 6.79100 33.05900
O  31.24400 5.46400 34.82100
C  31.58200 6.44300 35.89600
H  37.81700 2.51900 32.49300
H  37.06500 1.54900 26.08900
H  31.05900 3.78800 26.39800
H  33.91600 4.66100 34.19200
H  36.08500 2.82900 34.36100
H  37.40500 4.75200 34.52200
H  35.98200 5.64900 34.56500
H  36.76900 5.31000 32.95000
H  34.01100 1.77700 34.45400
H  32.39500 2.60100 34.59000
H  34.30100 1.78400 36.61900
H  33.00100 2.82100 37.05300
H  40.03600 0.34200 30.72200
H  39.43900 1.40300 31.88800
H  40.70600 1.99700 30.68800
H  41.46800 1.29900 28.62000
H  41.68300 0.61700 27.08400
H  40.80200 -0.32200 28.35500
H  35.00600 1.56400 24.60600
H  33.16800 3.87800 24.52600
H  36.54000 3.84800 24.67200
H  35.11900 4.25100 23.73500
H  36.08900 2.93200 23.22200
H  32.62300 1.42300 23.60600
H  31.33100 2.41200 24.33800
H  32.80700 -0.07700 25.24400
H  31.05200 0.30700 25.08700
H  32.06300 0.82800 26.51600
H  29.09500 3.72700 27.51500
H  28.98100 5.47100 27.91500
H  28.29300 4.26100 29.00400
H  30.86400 3.62200 33.31400
H  31.26600 7.42800 35.55200
H  32.66700 6.44600 36.00600
H  31.09100 6.22700 36.84400
Mg 51.05500 46.26700 42.66700
C  48.10000 47.76800 41.63300
C  50.17800 43.53100 40.74100
C  54.13400 44.95100 43.14000
C  52.12700 49.30200 44.11000
N  49.30200 45.73200 41.33300
C  48.26800 46.48300 41.03800
C  47.23300 45.85600 40.16700
C  47.84300 44.45500 39.93900
C  49.14300 44.51600 40.71600
C  46.97800 43.17400 40.27900
C  47.02600 46.71700 38.87100
C  45.60000 46.91600 38.41600
H  45.21400 46.38500 37.00200
N  51.96400 44.39800 42.07800
C  51.46200 43.46100 41.30500
C  52.37600 42.33100 41.28000
C  53.52700 42.67700 41.98900
C  53.25200 44.05800 42.38100
C  52.12000 40.98700 40.53800
C  54.74400 41.92700 42.11000
O  54.83700 40.86400 41.52800
C  55.80900 42.34500 42.94900
N  52.86900 46.99500 43.51800
C  54.00800 46.30300 43.55000
C  55.10200 47.11200 44.20800
C  54.48900 48.54600 44.41500
C  53.07300 48.31000 43.95200
C  55.63700 46.37500 45.45500
C  55.10500 49.80600 43.74900
C  54.72800 50.10500 42.27400
N  50.30900 48.19000 42.89200
C  50.82100 49.38300 43.41100
C  49.83800 50.38400 43.30000
C  48.71300 49.81000 42.75900
C  49.05400 48.46900 42.47200
C  49.94500 51.84800 43.51000
C  47.31100 50.08000 42.35300
O  46.64900 51.04900 42.46000
C  46.94900 48.75500 41.48700
C  45.63000 48.29900 41.97900
O  45.57900 47.63600 42.96500
O  44.64900 48.67200 41.15800
C  43.26700 48.41500 41.52800
H  49.88600 42.60000 40.25100
H  55.14700 44.57600 43.30200
H  52.21400 50.27800 44.59200
H  46.28100 45.75600 40.68800
H  47.90900 44.36400 38.85500
H  45.92000 43.43300 40.24900
H  47.22500 43.00300 41.32700
H  47.17200 42.28500 39.68000
H  47.46600 46.12300 38.07000
H  47.62300 47.62800 38.82300
H  45.39400 47.98400 38.49300
H  44.93300 46.39100 39.10000
H  52.13900 41.14100 39.46000
H  51.20800 40.57300 40.96900
H  52.78200 40.12200 40.50900
H  56.53300 41.54000 43.07000
H  55.40500 42.62000 43.92300
H  56.43500 43.16100 42.58700
H  55.99100 47.19000 43.58400
H  54.38500 48.70000 45.48900
H  55.58200 46.93700 46.38700
H  56.66800 46.02600 45.40200
H  55.12500 45.43900 45.67800
H  56.19000 49.69900 43.73200
H  54.76900 50.65000 44.35100
H  53.91200 50.82400 42.20900
H  54.44300 49.22500 41.69800
H  55.56200 50.57200 41.74900
H  49.65100 52.17500 44.50800
H  49.22000 52.24500 42.80000
H  50.96900 52.07800 43.21700
H  46.83200 48.88400 40.41100
H  43.00300 47.36400 41.40700
H  42.54100 49.04600 41.01600
H  43.14600 48.70800 42.57100

