158

Mg 40.47600 9.26300 28.55700
C  42.29000 10.81200 31.35700
C  38.47600 7.77400 30.93900
C  38.82000 8.19500 26.08200
C  42.96600 10.67300 26.48700
N  40.37300 9.29900 30.85800
C  41.15900 10.05400 31.76700
C  40.64900 9.82000 33.22300
C  39.44900 8.88900 32.97900
C  39.44800 8.52900 31.49500
C  39.40900 7.50000 33.76500
C  40.37300 11.10300 34.04400
C  39.25700 11.10000 35.16100
H  39.65700 11.83600 36.47500
N  38.96800 8.03300 28.48400
C  38.18000 7.52000 29.58500
C  37.08000 6.70600 28.96700
C  37.14700 6.88800 27.56200
C  38.35500 7.62400 27.30800
C  36.08700 5.88700 29.81100
C  36.20800 6.30300 26.51600
O  36.56400 6.28800 25.36100
C  34.83600 5.59300 26.86600
N  40.91600 9.32900 26.59200
C  39.90600 8.99600 25.76100
C  40.29300 9.27800 24.27500
C  41.64400 9.96700 24.37400
C  41.88200 9.95100 25.89200
C  40.22900 8.09000 23.29100
C  41.79600 11.21400 23.51700
C  41.33800 12.61900 24.12000
N  42.25500 10.49200 28.80100
C  43.15000 10.91000 27.84800
C  44.30800 11.53000 28.41600
C  44.01200 11.47600 29.80100
C  42.70500 10.87300 29.98800
C  45.57100 11.94800 27.69900
C  44.55800 11.80300 31.09700
O  45.54200 12.51400 31.33600
C  43.47700 11.40900 32.16900
C  44.04000 10.46700 33.21900
O  44.55400 9.42300 32.86500
O  43.73600 10.90700 34.50800
C  43.86200 9.96000 35.61800
H  37.70100 7.42000 31.62300
H  38.30500 7.81800 25.19500
H  43.68900 10.86900 25.69200
H  41.40500 9.25900 33.77100
H  38.54900 9.50100 33.04800
H  38.35800 7.36700 34.02400
H  40.04000 7.64600 34.64100
H  39.74900 6.68800 33.12200
H  40.36100 11.88800 33.28800
H  41.32300 11.43000 34.46900
H  38.84200 10.15700 35.51600
H  38.37100 11.64400 34.83300
H  35.08500 6.14700 29.47000
H  36.16500 6.06000 30.88400
H  36.22900 4.81600 29.66600
H  35.09400 4.71400 27.45600
H  34.38800 5.17300 25.96500
H  34.25700 6.35400 27.39000
H  39.58100 10.05300 23.99000
H  42.39000 9.24000 24.05100
H  39.95300 7.13300 23.73300
H  41.19700 7.95400 22.80900
H  39.50000 8.34000 22.52000
H  41.27500 11.01000 22.58200
H  42.85000 11.27100 23.24300
H  41.18100 12.57400 25.19800
H  40.41100 12.82600 23.58500
H  42.02400 13.44600 23.93200
H  45.25900 12.84500 27.16400
H  45.86200 11.15800 27.00600
H  46.40200 12.15000 28.37500
H  43.20500 12.23300 32.82800
H  44.47000 9.08100 35.40100
H  42.84300 9.69700 35.90100
H  44.33600 10.37600 36.50800
Mg 52.88300 23.49300 44.70000
C  50.25600 25.69100 43.81500
C  51.18400 21.05600 42.87300
C  55.69600 21.72700 44.74100
C  54.50100 26.22900 46.10200
N  50.95500 23.42200 43.53100
C  50.11100 24.48700 43.20100
C  49.10400 24.08700 42.14400
C  49.15300 22.44500 42.23700
C  50.55700 22.27400 42.85400
C  48.04700 21.74900 42.98000
C  49.24400 24.61600 40.63500
C  50.64100 24.92600 40.00700
H  50.70700 25.55800 38.66000
N  53.30800 21.49500 44.03900
C  52.46400 20.65900 43.30900
C  53.09100 19.43700 43.18300
C  54.35700 19.55200 43.80500
C  54.59100 20.97400 44.18400
C  52.47100 18.13400 42.57700
C  55.28500 18.35100 43.95100
O  55.01100 17.18600 43.60300
C  56.63200 18.54000 44.66200
N  54.83600 23.99200 45.15700
C  55.81500 22.99900 45.24500
C  57.13500 23.51900 45.86700
C  56.68400 24.97700 46.34000
C  55.28900 25.11000 45.77500
C  57.75600 22.60600 46.90300
C  57.60200 26.13100 45.96800
C  57.37000 26.92200 44.64600
N  52.47100 25.67600 44.98300
C  53.17500 26.60600 45.67300
C  52.48500 27.79600 45.78900
C  51.33900 27.55000 45.02000
C  51.32400 26.22400 44.57600
C  52.79200 29.01800 46.52100
C  50.12200 28.09600 44.43600
O  49.57900 29.22900 44.59600
C  49.33800 26.89300 43.67100
C  48.89400 27.42000 42.27800
O  49.67000 27.71000 41.36500
O  47.49000 27.49500 42.28900
C  46.85000 28.14400 41.15000
H  50.63800 20.33100 42.26500
H  56.61200 21.17000 44.53500
H  55.01400 27.04600 46.61400
H  48.19000 24.44800 42.61700
H  49.19600 21.97900 41.25300
H  47.65100 20.91600 42.39900
H  47.38800 22.61100 43.07900
H  48.32600 21.60900 44.02400
H  48.57200 25.47300 40.58700
H  48.89100 23.84400 39.95100
H  51.07900 23.92900 39.95900
H  51.18900 25.60900 40.65700
H  53.20800 17.59200 41.98300
H  51.57800 18.32400 41.98200
H  52.09700 17.35600 43.24200
H  56.44500 18.95200 45.65400
H  57.25700 19.17900 44.03900
H  57.13900 17.59400 44.84900
H  57.83900 23.61500 45.04000
H  56.54800 24.96500 47.42200
H  57.77100 23.09600 47.87600
H  58.78100 22.31100 46.68000
H  57.22000 21.67400 47.08600
H  58.48300 25.59000 45.62300
H  57.87600 26.72600 46.83900
H  58.14200 26.75500 43.89400
H  57.48200 27.96700 44.93400
H  56.41200 26.77900 44.14700
H  51.95200 29.39800 47.10200
H  53.32600 29.74700 45.91200
H  53.55000 28.67700 47.22600
H  48.42900 26.77300 44.26000
H  45.77600 27.96800 41.21200
H  47.16000 27.73400 40.18900
H  47.05000 29.21400 41.21600

