158

Mg 26.07700 1.06500 29.61200
C  28.19100 0.63600 32.30700
C  23.43700 1.18100 31.69800
C  24.22800 1.62100 26.95900
C  28.90800 0.45100 27.44700
N  25.83300 0.64000 31.86400
C  26.86200 0.66000 32.75200
C  26.22000 0.80700 34.22000
C  24.67000 0.84000 33.96600
C  24.60700 0.76200 32.42200
C  23.91200 -0.22700 34.84500
C  26.79000 1.93100 35.12300
C  25.92800 2.31900 36.41100
H  26.74800 2.03300 37.63900
N  24.09700 1.28800 29.34900
C  23.13800 1.28900 30.34600
C  21.82600 1.49400 29.77500
C  22.03700 1.63700 28.39000
C  23.46700 1.46000 28.17500
C  20.57900 1.62200 30.62000
C  20.93800 1.77300 27.28600
O  21.22900 1.79300 26.10800
C  19.43800 1.79500 27.66000
N  26.44800 0.81900 27.46100
C  25.53100 1.28900 26.61600
C  26.08000 1.39100 25.20300
C  27.63900 1.25100 25.41600
C  27.66700 0.81300 26.88000
C  25.35100 0.42200 24.21200
C  28.41900 2.67200 25.09500
C  28.00900 3.78700 26.07600
N  28.18600 0.62900 29.78900
C  29.19100 0.43000 28.83400
C  30.38600 0.04100 29.57200
C  30.08100 0.24700 30.89400
C  28.70600 0.58100 31.04000
C  31.62400 -0.47400 28.93900
C  30.59800 0.12700 32.20400
O  31.72600 -0.25400 32.48600
C  29.42200 0.48900 33.21700
C  29.39100 -0.64100 34.19000
O  28.75700 -1.65500 34.12200
O  30.18500 -0.33500 35.25900
C  29.95600 -1.17000 36.39700
H  22.65000 1.29900 32.44600
H  23.60500 1.97200 26.13400
H  29.74800 0.45400 26.74900
H  26.37300 -0.15100 34.71600
H  24.38000 1.84300 34.27800
H  24.56600 -1.05800 35.11100
H  23.16100 -0.78600 34.28600
H  23.42400 0.22400 35.70800
H  26.81100 2.82100 34.49400
H  27.79700 1.69500 35.46700
H  24.92300 1.90500 36.49800
H  25.79000 3.39800 36.47600
H  19.99200 2.53200 30.49500
H  20.84100 1.34100 31.64000
H  19.91500 0.84100 30.25000
H  19.20900 2.31100 28.59300
H  19.17800 0.74700 27.80300
H  18.73100 2.06000 26.87400
H  25.92900 2.39800 24.81400
H  28.12800 0.47400 24.82900
H  24.77400 -0.31900 24.76400
H  25.95100 -0.15300 23.50700
H  24.66900 1.05400 23.64300
H  28.19900 2.88300 24.04800
H  29.47300 2.50700 25.32100
H  27.56300 3.47300 27.01900
H  27.35500 4.40100 25.45600
H  28.89800 4.35300 26.35400
H  32.23200 -1.08500 29.60700
H  32.16800 0.43400 28.68000
H  31.41300 -1.07300 28.05300
H  29.72500 1.43600 33.66500
H  29.09800 -0.77700 36.94200
H  30.79700 -1.08500 37.08400
H  29.98100 -2.23200 36.15300
Mg 26.36200 50.83600 26.48500
C  24.49700 52.02700 29.25400
C  28.87700 50.03800 28.85800
C  28.05800 49.79800 24.00300
C  23.96500 52.44800 24.43900
N  26.66500 51.17700 28.81100
C  25.63000 51.29400 29.68600
C  25.96700 50.99200 31.17500
C  27.40000 50.37400 30.98100
C  27.72600 50.54700 29.41900
C  28.47400 50.95200 31.92200
C  24.85200 50.22000 32.05900
C  25.43600 49.33400 33.28200
H  24.90100 49.71900 34.72400
N  28.18700 49.93900 26.42300
C  29.12400 49.72600 27.47300
C  30.29600 49.10800 26.80300
C  29.95700 48.83800 25.46700
C  28.72800 49.56900 25.24400
C  31.49600 48.70100 27.60200
C  30.72400 47.97600 24.47200
O  30.28200 47.70600 23.33900
C  32.11000 47.39600 24.81600
N  26.17100 51.25700 24.44400
C  26.93200 50.55400 23.58600
C  26.42500 50.59900 22.20500
C  25.09600 51.42400 22.33200
C  25.07300 51.86900 23.80900
C  27.46500 51.19300 21.20100
C  23.81200 50.68000 21.88200
C  22.77200 51.49400 21.06700
N  24.66100 52.09300 26.73900
C  23.75900 52.62400 25.80600
C  22.66700 53.22600 26.46100
C  22.93600 53.07700 27.78800
C  24.11400 52.36100 27.92900
C  21.55900 53.92400 25.75800
C  22.36800 53.30400 29.14400
O  21.37600 53.92900 29.52200
C  23.42600 52.63100 30.12300
C  23.88300 53.67200 31.09300
O  24.55600 54.70900 30.81700
O  23.27600 53.41000 32.28500
C  23.34800 54.41000 33.37400
H  29.65900 49.66500 29.52300
H  28.68100 49.39100 23.20300
H  23.22100 52.81500 23.72800
H  26.09700 51.92000 31.73100
H  27.44700 49.30300 31.17600
H  29.26800 51.39900 31.32400
H  28.98600 50.15500 32.46200
H  28.09800 51.64700 32.67400
H  24.27400 49.56700 31.40400
H  24.06300 50.83200 32.49600
H  26.51800 49.29900 33.15700
H  25.04500 48.32300 33.16200
H  31.34200 48.96400 28.64900
H  32.35400 49.24000 27.20000
H  31.71500 47.63500 27.55400
H  32.72800 48.06200 25.41900
H  32.59500 46.98400 23.93200
H  31.89200 46.59400 25.52100
H  26.29400 49.57900 21.84400
H  25.21700 52.38500 21.83300
H  28.31800 51.48600 21.81400
H  27.08300 52.08600 20.70500
H  27.67900 50.41100 20.47300
H  23.28400 50.29900 22.75600
H  24.01100 49.85200 21.20200
H  21.80000 51.33400 21.53400
H  22.83100 51.11900 20.04600
H  23.03900 52.54900 21.00700
H  21.18400 53.29100 24.95400
H  21.84000 54.91300 25.39500
H  20.70200 54.12200 26.40300
H  22.87300 51.83600 30.62400
H  23.76000 55.36200 33.04000
H  24.08500 54.11500 34.12100
H  22.40600 54.67800 33.85200

