158

Mg 45.53800 5.13300 46.58000
C  43.81000 8.14200 46.14000
C  42.71800 3.51300 45.50900
C  47.37600 2.37000 46.35100
C  48.51200 7.01700 46.77500
N  43.46900 5.81900 45.97600
C  42.97000 7.03000 45.90500
C  41.47900 7.06400 45.52400
C  41.15600 5.56700 45.38200
C  42.54800 4.88800 45.66400
C  40.12700 5.03400 46.47300
C  41.17400 7.99700 44.28000
C  42.22600 7.84300 43.17700
H  41.62500 7.49700 41.82400
N  45.06000 3.17400 46.17500
C  43.88700 2.72300 45.67000
C  44.01700 1.29400 45.44500
C  45.32600 0.92000 45.67100
C  45.99600 2.16500 46.09200
C  42.75800 0.50200 44.96700
C  45.88900 -0.53600 45.59400
O  45.10000 -1.41900 45.22200
C  47.29200 -0.92400 46.06500
N  47.71000 4.75400 46.67100
C  48.21200 3.53700 46.61100
C  49.69200 3.47600 46.62200
C  50.03900 5.02900 46.78600
C  48.69500 5.66800 46.68100
C  50.21600 2.66400 47.79000
C  51.14000 5.55700 45.78400
C  52.58100 5.48000 46.42100
N  46.10600 7.09900 46.50100
C  47.34900 7.70800 46.61200
C  47.16100 9.15000 46.56900
C  45.75700 9.31100 46.55400
C  45.18700 8.07300 46.32900
C  48.24700 10.11600 46.67800
C  44.69100 10.36000 46.57000
O  44.82000 11.59200 46.52200
C  43.36500 9.56200 46.41200
C  42.53100 9.61900 47.77900
O  42.48200 8.76800 48.59900
O  41.91500 10.82300 47.94400
C  41.20800 11.08300 49.20500
H  41.78000 3.02800 45.23300
H  48.03000 1.53600 46.08900
H  49.46400 7.50900 46.98500
H  40.90800 7.70600 46.19400
H  40.84200 5.19700 44.40600
H  40.62100 4.63600 47.36000
H  39.55200 4.29800 45.91100
H  39.51200 5.90300 46.70600
H  41.21100 9.05300 44.54700
H  40.11300 7.90300 44.04500
H  42.82400 6.96400 43.41300
H  42.89600 8.70100 43.24000
H  43.04200 -0.25900 44.24100
H  42.07000 1.15800 44.43400
H  42.18500 0.09800 45.80200
H  47.41400 -1.99800 46.21200
H  47.47400 -0.44500 47.02700
H  48.05300 -0.70500 45.31600
H  50.11100 3.18600 45.65800
H  50.39700 5.19000 47.80300
H  50.76200 1.75200 47.55300
H  49.42000 2.26900 48.42100
H  50.83500 3.28300 48.44100
H  50.95600 6.58200 45.46300
H  51.15700 5.04400 44.82200
H  53.04100 4.60800 45.95600
H  52.60200 5.40000 47.50700
H  53.11800 6.37300 46.10300
H  48.74800 9.95100 47.63200
H  47.92500 11.15200 46.57300
H  48.91300 10.00900 45.82200
H  42.74600 10.02600 45.64400
H  40.69700 12.04500 49.17400
H  41.93400 11.10900 50.01800
H  40.56700 10.23700 49.45300
Mg 34.43600 3.58400 29.48300
C  32.27500 4.52700 32.10400
C  36.98300 3.37600 31.74700
C  36.59300 3.21000 26.99100
C  31.95800 4.26500 27.18500
N  34.58600 3.83000 31.65900
C  33.56900 4.24800 32.57100
C  34.05900 4.21200 34.03500
C  35.64800 4.05500 33.85300
C  35.73600 3.69400 32.35700
C  36.59400 5.26200 34.18900
C  33.34000 3.08800 34.85000
C  33.01700 3.31200 36.32700
H  34.07800 4.11500 37.05700
N  36.43100 3.14000 29.40100
C  37.31000 2.96000 30.46200
C  38.57800 2.49700 29.97900
C  38.52900 2.50100 28.56800
C  37.11900 2.94200 28.26300
C  39.64600 1.97400 30.88100
C  39.59500 2.28900 27.52900
O  39.43000 2.31300 26.30300
C  40.98200 1.98300 27.94100
N  34.30200 3.84000 27.30000
C  35.32200 3.61000 26.50100
C  34.91300 3.79900 25.04100
C  33.36100 3.92200 25.10500
C  33.16500 3.95200 26.61700
C  35.74500 4.82600 24.14800
C  32.60500 2.77600 24.44200
C  31.18900 3.14300 24.02800
N  32.46900 4.18900 29.61700
C  31.60200 4.37400 28.55700
C  30.33200 4.74400 29.12700
C  30.55300 4.88900 30.50400
C  31.84000 4.39500 30.76900
C  29.07900 5.12100 28.36800
C  29.96900 5.33200 31.79800
O  28.84800 5.78000 32.07800
C  31.05100 5.02800 32.86200
C  31.29200 6.34500 33.71000
O  31.87400 7.35100 33.34200
O  30.74500 6.16200 35.01100
C  30.66300 7.33900 35.86600
H  37.74700 3.12700 32.48700
H  37.22000 2.90100 26.15200
H  31.17800 4.65500 26.52900
H  33.80200 5.18100 34.46400
H  35.95400 3.17100 34.41200
H  37.28500 4.95900 34.97500
H  36.04500 6.09100 34.63400
H  37.10600 5.51400 33.26000
H  33.95300 2.18700 34.85100
H  32.40400 2.86400 34.33700
H  32.88000 2.34500 36.81000
H  32.00900 3.71600 36.41800
H  40.16800 1.12600 30.43800
H  39.15800 1.58000 31.77300
H  40.41600 2.72900 31.04100
H  41.70100 2.39100 27.23000
H  41.11300 0.91000 28.08100
H  41.32400 2.36600 28.90300
H  35.32800 2.88900 24.60700
H  33.06700 4.92100 24.78300
H  36.44100 4.31500 23.48300
H  36.32100 5.50600 24.77600
H  35.17900 5.41000 23.42400
H  32.50200 1.94000 25.13300
H  33.05300 2.33100 23.55400
H  30.98700 3.31400 22.97000
H  30.79600 3.96600 24.62500
H  30.60200 2.26600 24.30000
H  28.96900 4.58400 27.42600
H  28.91000 6.17300 28.14100
H  28.21200 4.72600 28.89800
H  30.71700 4.20600 33.49500
H  29.59500 7.37900 36.08000
H  31.06900 8.27700 35.48700
H  31.33200 7.10700 36.69500

