158

Mg 24.02100 -4.74600 45.91700
C  26.22200 -2.44400 44.42200
C  21.60200 -3.78200 43.73500
C  22.27200 -7.64600 46.72700
C  26.91000 -6.21700 47.49500
N  24.00600 -3.36800 44.23400
C  24.99700 -2.43200 43.79800
C  24.42600 -1.40100 42.77900
C  22.91500 -1.61600 42.93400
C  22.83100 -3.04600 43.72200
C  22.17700 -0.51000 43.62100
C  24.98700 -1.68300 41.37600
C  25.45200 -0.47700 40.63500
H  25.33100 -0.54900 39.07100
N  22.11000 -5.48200 45.47900
C  21.28300 -4.90100 44.54200
C  20.02900 -5.68600 44.56800
C  20.21200 -6.78600 45.48800
C  21.58900 -6.69400 45.92500
C  18.81800 -5.27500 43.78300
C  19.22300 -7.89000 45.80700
O  18.12500 -7.82200 45.25400
C  19.42600 -9.01900 46.82200
N  24.55100 -6.68900 47.05000
C  23.60000 -7.65500 47.21300
C  24.21300 -8.81200 47.95700
C  25.71000 -8.46900 48.11200
C  25.77100 -6.99300 47.55700
C  23.48800 -9.19800 49.30000
C  26.71300 -9.46900 47.46800
C  26.93500 -10.70000 48.23100
N  26.12000 -4.37000 46.08400
C  27.12400 -4.90900 46.87900
C  28.31000 -4.09600 46.70700
C  28.00100 -3.15700 45.71900
C  26.65200 -3.37200 45.35200
C  29.63600 -4.28800 47.43200
C  28.58700 -2.09700 44.95400
O  29.72900 -1.63200 44.95000
C  27.45400 -1.63600 44.03800
C  27.15600 -0.19200 44.43700
O  26.48800 0.14000 45.35400
O  27.86700 0.69800 43.61400
C  27.69100 2.15000 43.87900
H  20.77900 -3.44600 43.10100
H  21.79900 -8.54200 47.13300
H  27.75600 -6.72800 47.95900
H  24.71100 -0.38000 43.02900
H  22.35500 -1.89200 42.04100
H  22.92100 0.10900 44.12200
H  21.45600 -0.82200 44.37600
H  21.78400 0.15900 42.85600
H  24.18200 -2.05200 40.74000
H  25.75700 -2.44400 41.50300
H  26.49400 -0.25800 40.86800
H  24.92300 0.44100 40.89000
H  18.48300 -6.08200 43.13100
H  19.00500 -4.49700 43.04300
H  18.01900 -5.05900 44.49300
H  18.46600 -9.50700 46.99100
H  19.83900 -8.76800 47.79900
H  19.95900 -9.85700 46.37300
H  24.25200 -9.69200 47.31500
H  25.98400 -8.43600 49.16600
H  23.99900 -8.83900 50.19400
H  23.46400 -10.28800 49.30700
H  22.51300 -8.71300 49.27800
H  27.65600 -8.92600 47.41000
H  26.24400 -9.69800 46.51100
H  26.55200 -11.52800 47.63500
H  26.49300 -10.61700 49.22400
H  27.99400 -10.89000 48.40300
H  29.75400 -5.37200 47.40100
H  29.55100 -3.82000 48.41300
H  30.45600 -3.88800 46.83600
H  27.78000 -1.60300 42.99900
H  27.61900 2.67600 42.92800
H  28.61800 2.52500 44.31300
H  26.77000 2.47700 44.36300
Mg -11.06000 39.24900 41.14600
C  -9.65200 36.15100 40.33600
C  -8.45000 40.83500 39.48400
C  -12.88100 42.14400 41.15400
C  -13.80300 37.46000 42.22800
N  -9.28200 38.54000 40.12900
C  -9.00000 37.23900 39.74600
C  -7.76100 37.25900 38.80500
C  -7.15800 38.70700 39.07000
C  -8.40700 39.43100 39.59900
C  -6.03900 38.53000 40.12000
C  -8.18200 37.05700 37.40300
C  -7.23100 36.15400 36.56500
H  -7.02600 36.51600 35.10900
N  -10.71000 41.23800 40.51200
C  -9.57700 41.65200 39.84100
C  -9.64300 43.13800 39.71600
C  -10.83500 43.56500 40.30700
C  -11.55500 42.28100 40.62500
C  -8.55400 43.82300 39.02700
C  -11.19900 45.06600 40.50200
O  -10.35700 45.94800 40.23400
C  -12.45300 45.45800 41.15100
N  -13.06200 39.70600 41.41200
C  -13.56300 40.96900 41.43700
C  -14.99200 40.97500 41.84000
C  -15.33800 39.44900 42.04300
C  -14.03000 38.80200 41.79700
C  -15.31300 41.92200 43.10500
C  -16.45600 38.86700 41.13300
C  -17.87000 38.58500 41.75100
N  -11.60400 37.19500 41.40000
C  -12.70700 36.65700 41.92400
C  -12.56100 35.22800 42.03700
C  -11.31600 34.99600 41.42300
C  -10.82300 36.20800 40.99600
C  -13.51800 34.25700 42.66600
C  -10.36900 33.96900 41.13500
O  -10.32300 32.74300 41.37300
C  -9.25500 34.70900 40.25100
C  -7.94800 34.44900 40.97500
O  -7.38700 35.11900 41.83700
O  -7.39400 33.30600 40.39400
C  -6.23000 32.86800 41.11200
H  -7.56400 41.28900 39.03600
H  -13.38100 43.07100 41.44600
H  -14.69200 36.92700 42.57100
H  -7.09400 36.46500 39.14000
H  -6.92400 39.29900 38.18500
H  -6.17000 37.74000 40.86000
H  -5.89700 39.38600 40.78000
H  -5.15700 38.39300 39.49400
H  -8.14900 37.97900 36.82200
H  -9.18900 36.64300 37.36300
H  -7.47900 35.09300 36.61300
H  -6.26100 36.31300 37.03600
H  -8.57400 43.61000 37.95900
H  -7.59800 43.53800 39.46500
H  -8.70800 44.90100 39.09200
H  -12.44300 44.97000 42.12600
H  -13.31900 45.03700 40.64100
H  -12.57100 46.54100 41.19900
H  -15.63800 41.32700 41.03600
H  -15.74400 39.39300 43.05300
H  -14.55300 42.59800 43.49600
H  -15.59200 41.37000 44.00200
H  -16.21700 42.45200 42.80300
H  -16.23800 37.87100 40.74800
H  -16.66900 39.44400 40.23300
H  -17.74800 37.91100 42.59900
H  -18.60400 38.36800 40.97500
H  -18.10700 39.57500 42.14000
H  -13.54800 34.48100 43.73200
H  -13.29900 33.20500 42.48300
H  -14.57500 34.43200 42.46600
H  -9.17100 34.47000 39.19100
H  -6.04800 31.88800 40.67100
H  -6.42200 32.67800 42.16800
H  -5.45900 33.59500 40.85600

