158

Mg -2.59700 17.13000 26.40000
C  -2.98500 14.73000 28.99000
C  -2.83600 19.56700 28.72600
C  -2.52300 19.43200 23.93900
C  -2.45200 14.52500 24.17300
N  -2.80600 17.08000 28.53400
C  -2.96200 16.02300 29.42800
C  -3.19900 16.55400 30.89700
C  -3.44900 18.15000 30.76300
C  -2.97300 18.30400 29.24500
C  -4.91300 18.58900 31.12200
C  -1.97700 16.29700 31.79700
C  -1.88700 16.94700 33.17600
H  -1.26600 16.21000 34.38000
N  -2.46700 19.17000 26.34500
C  -2.64000 20.04700 27.40100
C  -2.65600 21.41900 26.91800
C  -2.35800 21.41300 25.56500
C  -2.44500 19.95800 25.19900
C  -2.95200 22.61900 27.76200
C  -2.09300 22.53200 24.57600
O  -1.92200 22.30800 23.36200
C  -1.91800 23.88300 25.06500
N  -2.36900 17.00800 24.42000
C  -2.38700 18.08300 23.55700
C  -2.28200 17.60900 22.04800
C  -2.03100 16.02500 22.23900
C  -2.27700 15.80800 23.69000
C  -3.64700 17.96500 21.40400
C  -0.59000 15.63200 21.74300
C  0.51200 15.64400 22.78900
N  -2.73700 15.05400 26.43300
C  -2.58000 14.14500 25.48100
C  -2.73600 12.78400 26.04300
C  -2.96500 12.94400 27.38200
C  -2.87200 14.39800 27.60200
C  -2.32200 11.58000 25.31100
C  -3.18500 12.23700 28.66400
O  -3.35900 11.07200 28.87600
C  -3.10100 13.36400 29.71400
C  -1.94500 13.09500 30.58300
O  -0.82500 13.48000 30.44600
O  -2.39300 12.37800 31.70600
C  -1.51700 11.96600 32.84400
H  -3.07600 20.24900 29.54400
H  -2.60600 20.14500 23.11600
H  -2.37800 13.78600 23.37200
H  -4.10400 16.10400 31.30600
H  -2.68200 18.65600 31.34900
H  -5.59300 17.80300 31.45200
H  -5.31000 18.76000 30.12100
H  -4.90000 19.47900 31.75100
H  -1.11000 16.59700 31.20800
H  -2.08900 15.28700 32.19100
H  -2.96400 17.09500 33.25900
H  -1.30500 17.85000 32.99300
H  -3.37800 22.42300 28.74700
H  -3.74300 23.11400 27.19900
H  -2.10200 23.29900 27.79400
H  -2.84400 24.20700 25.53900
H  -1.80200 24.60800 24.25900
H  -1.09000 23.87600 25.77400
H  -1.48800 18.16100 21.54400
H  -2.65300 15.40700 21.59200
H  -4.34800 17.13000 21.39100
H  -3.55100 18.16700 20.33700
H  -4.09800 18.83800 21.87600
H  -0.31600 16.20700 20.85800
H  -0.62500 14.57600 21.47500
H  1.04200 14.69200 22.75700
H  0.15000 15.94700 23.77100
H  1.26700 16.31400 22.37700
H  -2.08000 10.79100 26.02300
H  -1.41100 11.75500 24.73900
H  -3.10600 11.24100 24.63300
H  -3.89300 13.38200 30.46300
H  -1.77800 10.91700 32.98400
H  -1.91700 12.50100 33.70500
H  -0.44200 12.13200 32.77100
Mg -1.51300 34.17500 27.18700
C  -3.09000 32.43700 29.80700
C  -0.22800 36.33900 29.41900
C  -0.35600 35.95300 24.50900
C  -3.21500 31.88800 24.87500
N  -1.72000 34.39700 29.35700
C  -2.36200 33.62500 30.21400
C  -2.18800 34.03900 31.68900
C  -1.47800 35.41500 31.52400
C  -1.14200 35.42500 30.04000
C  -2.37700 36.59000 31.90600
C  -1.32700 33.03000 32.52400
C  -1.97100 32.44000 33.76800
H  -1.17500 32.52600 35.05100
N  -0.32000 35.85500 26.99000
C  0.15200 36.56200 28.05100
C  0.95900 37.64400 27.57300
C  0.90100 37.58700 26.11500
C  0.06800 36.46900 25.76700
C  1.85200 38.56700 28.35100
C  1.67500 38.55700 25.05800
O  1.52100 38.29100 23.87100
C  2.52000 39.71400 25.48600
N  -1.72900 33.90900 25.11600
C  -1.15700 34.85700 24.21400
C  -1.74600 34.62900 22.82900
C  -2.27900 33.14500 22.92500
C  -2.39200 32.88700 24.37400
C  -2.87000 35.64300 22.28200
C  -1.44300 32.07100 22.33000
C  -0.28500 31.42900 23.17600
N  -2.86600 32.45300 27.28600
C  -3.43500 31.67000 26.28300
C  -4.24900 30.62900 26.89500
C  -4.08000 30.83800 28.25800
C  -3.23200 31.94200 28.48000
C  -5.10600 29.67100 26.12700
C  -4.55200 30.48300 29.58600
O  -5.36200 29.65600 29.89900
C  -3.99500 31.52400 30.59300
C  -5.10000 32.31600 31.13000
O  -6.03400 32.90700 30.57000
O  -5.04700 32.15200 32.43400
C  -6.13100 32.76700 33.19700
H  0.12900 37.11600 30.09800
H  -0.05100 36.49600 23.61200
H  -3.80900 31.33100 24.14700
H  -3.15200 34.34100 32.09800
H  -0.52500 35.50700 32.04600
H  -3.24100 36.23300 32.46800
H  -2.63800 37.12600 30.99400
H  -1.86100 37.35500 32.48600
H  -0.40400 33.44600 32.92800
H  -1.00800 32.22000 31.86800
H  -2.24300 31.39200 33.64600
H  -2.91400 32.92400 34.01800
H  1.56600 38.25700 29.35700
H  1.64900 39.62100 28.16100
H  2.87800 38.43100 28.01100
H  3.41600 39.27600 25.92700
H  1.98100 40.37400 26.16600
H  2.83400 40.15500 24.54000
H  -0.93800 34.56700 22.10000
H  -3.26600 32.98000 22.49400
H  -2.38200 36.07800 21.41000
H  -3.03200 36.46700 22.97600
H  -3.78900 35.08800 22.09700
H  -0.84400 32.51800 21.53700
H  -2.10100 31.36200 21.82700
H  0.58400 31.32500 22.52600
H  -0.49500 30.41400 23.51300
H  -0.04400 31.96800 24.09200
H  -5.87400 30.21400 25.57600
H  -5.41400 28.80400 26.71000
H  -4.44000 29.38400 25.31300
H  -3.51400 30.98200 31.40700
H  -7.13800 32.43900 32.93900
H  -5.93600 33.82800 33.03800
H  -6.00700 32.43400 34.22700

