158

Mg 41.58200 41.82900 27.79400
C  40.68400 44.33700 30.18000
C  42.45400 39.79900 30.44400
C  42.80600 39.67700 25.61300
C  41.40200 44.23400 25.33600
N  41.62200 42.04200 30.07200
C  41.06700 43.12200 30.77500
C  40.92700 42.65800 32.25600
C  41.62900 41.25400 32.35500
C  41.97300 41.02000 30.85900
C  42.87100 41.08800 33.21200
C  39.36300 42.65000 32.79700
C  38.89400 43.78000 33.75000
H  38.45100 43.42100 35.19800
N  42.53500 39.91300 27.98700
C  42.76600 39.30800 29.16700
C  43.12300 37.92300 28.83100
C  43.10000 37.80200 27.40100
C  42.77000 39.13700 26.94900
C  43.52500 36.85100 29.87100
C  43.31000 36.65300 26.60600
O  43.33100 36.67800 25.37600
C  43.49000 35.33700 27.16700
N  42.04300 41.89400 25.87000
C  42.58600 40.93100 25.15300
C  42.67900 41.22200 23.65800
C  42.04300 42.59600 23.50500
C  41.83700 42.95100 25.01500
C  44.08500 41.08000 23.10000
C  40.67700 42.62200 22.71700
C  39.54000 41.83100 23.34100
N  41.04500 43.82100 27.72600
C  41.00700 44.65300 26.61300
C  40.51300 45.96800 27.02500
C  40.32400 45.83400 28.42600
C  40.67000 44.58100 28.82100
C  40.19700 47.14300 26.13800
C  39.86800 46.54300 29.63700
O  39.49700 47.66600 29.83000
C  40.16100 45.57000 30.78200
C  40.99700 46.25400 31.82300
O  42.12500 45.95800 32.28000
O  40.13600 47.16400 32.48400
C  40.52400 47.85700 33.71000
H  42.74400 39.06200 31.19500
H  43.27200 39.05300 24.84800
H  41.15200 44.92200 24.52600
H  41.51600 43.30700 32.90400
H  40.96500 40.41000 32.54100
H  42.55500 40.43700 34.02700
H  43.00600 42.05200 33.70100
H  43.75700 40.75100 32.67500
H  39.04600 41.66600 33.14100
H  38.87700 42.71200 31.82300
H  38.03800 44.28400 33.29900
H  39.69900 44.51100 33.82800
H  43.20200 37.03400 30.89500
H  44.59300 36.63400 29.85000
H  42.96100 35.99700 29.49800
H  42.48800 35.14700 27.55300
H  44.34100 35.34500 27.84900
H  43.69000 34.60900 26.38100
H  41.96500 40.53100 23.21100
H  42.74300 43.29000 23.04000
H  43.95500 40.13700 22.56900
H  44.79900 40.83500 23.88600
H  44.50000 41.80400 22.40000
H  40.82300 42.12700 21.75700
H  40.35000 43.63000 22.46400
H  38.67200 42.48400 23.43100
H  39.82100 41.47500 24.33200
H  39.36900 40.96600 22.69900
H  39.32500 47.67800 26.51200
H  39.99700 46.76900 25.13400
H  41.01400 47.86300 26.07500
H  39.24700 45.30400 31.31400
H  39.75800 48.54300 34.06900
H  41.27700 48.56500 33.36400
H  40.67200 47.24600 34.60000
Mg -1.58700 34.30200 26.45600
C  -3.13100 32.51600 29.24700
C  -0.19900 36.34600 28.61700
C  -0.66400 36.15400 23.81400
C  -3.65300 32.35100 24.41000
N  -1.45500 34.18500 28.68500
C  -2.19800 33.49100 29.59800
C  -1.81200 33.92800 31.00600
C  -1.19800 35.33400 30.81900
C  -0.85300 35.27000 29.27100
C  -2.01800 36.62200 31.34300
C  -0.97200 32.84800 31.77000
C  -1.48700 32.68300 33.16900
H  -0.41800 32.34400 34.23200
N  -0.56800 35.95600 26.24200
C  -0.00500 36.67000 27.24100
C  0.75600 37.79500 26.64500
C  0.62400 37.80600 25.22600
C  -0.23600 36.61800 25.03300
C  1.67700 38.66000 27.48400
C  1.17600 38.67500 24.08200
O  1.11400 38.36500 22.91200
C  1.88700 39.95900 24.42700
N  -1.93800 34.11200 24.36900
C  -1.52100 35.09900 23.53400
C  -2.15000 34.85300 22.16400
C  -2.85600 33.54100 22.30900
C  -2.79000 33.26700 23.79300
C  -2.97200 35.97700 21.47000
C  -2.25200 32.45700 21.34400
C  -0.94700 31.70500 21.84000
N  -3.19200 32.89200 26.70600
C  -3.87000 32.13900 25.74700
C  -4.81700 31.29100 26.34100
C  -4.55000 31.34800 27.71500
C  -3.58500 32.35500 27.89400
C  -5.79100 30.29500 25.78700
C  -4.88400 30.81800 29.00500
O  -5.71200 29.99800 29.35600
C  -3.99900 31.56200 30.07600
C  -4.95300 32.20000 31.02800
O  -5.77600 33.07300 30.80500
O  -4.58700 31.78000 32.25100
C  -5.37600 32.31900 33.36400
H  0.26400 37.12100 29.23000
H  -0.30500 36.66000 22.91500
H  -4.35200 31.92500 23.68700
H  -2.75300 34.00300 31.55000
H  -0.22600 35.30300 31.31100
H  -2.25100 37.13700 30.41100
H  -1.35700 37.13800 32.04000
H  -2.97800 36.40900 31.81300
H  0.07700 33.13200 31.68800
H  -1.35300 31.92600 31.33100
H  -2.36600 32.04900 33.28700
H  -1.91400 33.63100 33.49700
H  1.54800 38.30700 28.50800
H  1.29100 39.67900 27.51500
H  2.70600 38.67000 27.12400
H  1.46500 40.73100 23.78400
H  2.95800 39.88300 24.23700
H  1.70200 40.39900 25.40700
H  -1.25500 34.62100 21.58700
H  -3.90600 33.63900 22.03500
H  -2.40800 36.47600 20.68300
H  -3.15500 36.71100 22.25500
H  -3.92800 35.75200 20.99700
H  -2.03700 32.85700 20.35300
H  -3.01800 31.68500 21.26600
H  -1.11900 30.65400 22.07200
H  -0.42500 32.19300 22.66300
H  -0.20800 31.81700 21.04700
H  -5.59300 30.24600 24.71600
H  -6.83100 30.54200 26.00300
H  -5.64900 29.36800 26.34200
H  -3.32800 30.84500 30.55000
H  -6.30700 32.83800 33.13600
H  -4.61700 32.94600 33.83300
H  -5.57300 31.47000 34.01800

