158

Mg -10.10100 40.63600 42.89700
C  -9.43800 37.28300 41.87500
C  -7.12900 41.60800 41.51600
C  -11.16800 43.93200 42.95300
C  -13.36300 39.56100 43.69000
N  -8.52700 39.54400 41.77800
C  -8.47200 38.19500 41.45400
C  -7.12000 37.80300 40.76000
C  -6.36200 39.26000 40.89800
C  -7.36900 40.18400 41.45900
C  -5.02300 39.08500 41.67700
C  -7.31000 37.40400 39.22800
C  -6.65700 36.06000 38.94900
H  -5.73500 36.08200 37.72000
N  -9.30400 42.54300 42.33600
C  -7.99000 42.68700 41.82100
C  -7.74200 44.12700 41.66500
C  -8.92100 44.85300 42.07400
C  -9.87400 43.79000 42.46900
C  -6.41300 44.71500 41.14100
C  -9.11500 46.33500 42.03400
O  -8.20200 47.11600 41.70900
C  -10.43600 47.02900 42.51000
N  -11.99400 41.57000 43.25300
C  -12.09900 42.95500 43.29300
C  -13.60700 43.31400 43.71100
C  -14.16600 41.99300 44.24100
C  -13.14000 40.98000 43.68300
C  -13.76300 44.55500 44.62000
C  -15.63500 41.76300 43.61700
C  -15.74500 41.32900 42.13200
N  -11.22600 38.78800 42.94700
C  -12.49800 38.54100 43.27600
C  -12.72600 37.10300 43.40600
C  -11.50700 36.57300 42.85600
C  -10.66900 37.68100 42.52300
C  -13.96500 36.51000 43.77900
C  -10.89400 35.29800 42.43500
O  -11.22300 34.12200 42.48700
C  -9.59000 35.82300 41.75300
C  -8.56800 35.03400 42.44400
O  -8.03400 35.25400 43.49100
O  -8.23500 33.95600 41.65300
C  -7.26000 33.05600 42.28200
H  -6.09000 41.82200 41.25500
H  -11.66500 44.90100 42.86800
H  -14.29600 39.27800 44.18200
H  -6.55400 37.04200 41.29600
H  -6.06400 39.58300 39.90000
H  -4.73700 38.05800 41.90300
H  -5.07000 39.58900 42.64200
H  -4.18400 39.59800 41.20700
H  -6.98600 38.07500 38.43200
H  -8.38800 37.25200 39.18300
H  -7.43300 35.35600 38.65000
H  -6.02900 35.77900 39.79400
H  -6.44800 45.49500 40.38100
H  -5.97300 43.81900 40.70400
H  -5.63900 44.85200 41.89600
H  -10.31400 48.09000 42.29100
H  -10.72700 46.79600 43.53400
H  -11.18700 46.58700 41.85400
H  -14.13800 43.52200 42.78200
H  -14.30600 41.97300 45.32200
H  -12.76200 44.91600 44.85400
H  -14.28500 44.36700 45.55900
H  -14.32800 45.33900 44.11600
H  -16.10700 42.73900 43.50100
H  -16.19000 41.22400 44.38500
H  -14.74200 41.28300 41.70700
H  -16.29000 42.05500 41.53000
H  -16.17700 40.33000 42.19200
H  -13.81400 35.55100 44.27500
H  -14.75200 36.40600 43.03200
H  -14.51800 37.14400 44.47200
H  -9.62900 35.61500 40.68400
H  -7.59500 32.61100 43.21900
H  -6.36200 33.61700 42.54000
H  -6.94500 32.32800 41.53400
Mg -1.79600 34.34700 26.83200
C  -3.22500 32.51300 29.57300
C  -0.31400 36.34600 29.04400
C  -0.84400 36.13600 24.13400
C  -3.54500 32.14300 24.72900
N  -1.80300 34.29700 29.06700
C  -2.38700 33.55000 29.98700
C  -2.06100 33.96300 31.46600
C  -1.10700 35.22400 31.19700
C  -1.06100 35.29700 29.63600
C  -1.47000 36.59700 31.91500
C  -1.43000 32.89400 32.29300
C  -2.23000 32.51400 33.62300
H  -1.45600 32.22600 34.88700
N  -0.66900 35.98400 26.70800
C  -0.06500 36.69300 27.70000
C  0.71500 37.68300 27.14600
C  0.53800 37.69900 25.73800
C  -0.45700 36.63100 25.45300
C  1.48300 38.69000 28.05300
C  1.13100 38.63600 24.67000
O  0.74700 38.70700 23.47200
C  2.24000 39.54200 25.00800
N  -2.19200 34.20300 24.73300
C  -1.62400 35.03700 23.78700
C  -1.94800 34.59800 22.34300
C  -2.52100 33.17900 22.63300
C  -2.73200 33.10300 24.14900
C  -3.03700 35.53300 21.71900
C  -1.59200 32.06200 22.02900
C  -0.12300 32.02100 22.59600
N  -3.06900 32.71100 27.02500
C  -3.75200 31.99400 26.05300
C  -4.63300 31.03300 26.66700
C  -4.39400 31.18900 28.02000
C  -3.45000 32.20500 28.23900
C  -5.55700 30.00500 26.13900
C  -4.78000 30.68200 29.38800
O  -5.59000 29.82500 29.70900
C  -4.04600 31.51700 30.46000
C  -5.09800 32.08500 31.33000
O  -5.68000 33.12000 31.10700
O  -5.36100 31.25800 32.43800
C  -6.48600 31.72700 33.28200
H  0.24800 36.89900 29.80000
H  -0.46600 36.66700 23.25800
H  -4.02700 31.38800 24.10400
H  -3.02700 34.27300 31.86500
H  -0.08200 35.12100 31.55200
H  -2.04300 37.18200 31.19600
H  -0.64100 37.17600 32.32200
H  -2.19500 36.45600 32.71600
H  -0.51100 33.21300 32.78500
H  -1.31300 32.02400 31.64700
H  -2.58700 31.50100 33.44100
H  -3.11600 33.11800 33.81700
H  0.79100 38.72500 28.89500
H  1.74800 39.66800 27.65100
H  2.39100 38.13800 28.29800
H  1.89200 40.21800 25.78800
H  2.48200 40.19500 24.17000
H  3.06000 39.01800 25.50000
H  -0.99400 34.62200 21.81600
H  -3.48400 32.98700 22.16100
H  -3.28400 36.26100 22.49200
H  -3.90500 34.98200 21.35500
H  -2.74800 36.04400 20.80100
H  -1.49500 32.25700 20.96100
H  -2.00900 31.07200 22.21000
H  0.03200 32.70800 23.42900
H  0.66500 32.09200 21.84700
H  0.07400 31.04000 23.02800
H  -5.36400 29.00100 26.51700
H  -5.46700 30.00600 25.05200
H  -6.54500 30.34900 26.44700
H  -3.36800 30.88200 31.03100
H  -7.21800 32.23000 32.65000
H  -6.00400 32.44300 33.94800
H  -6.88000 30.98500 33.97600

