158

Mg 47.77600 15.78700 28.18700
C  45.91200 15.45000 31.20200
C  49.73200 18.16600 29.72300
C  49.18700 16.61500 25.19400
C  45.23100 13.91900 26.50000
N  47.80900 16.72500 30.22900
C  47.04000 16.30800 31.27300
C  47.58700 17.04900 32.48500
C  48.63600 18.06800 31.96600
C  48.83200 17.52800 30.56800
C  48.23000 19.61100 31.89100
C  48.10000 15.98900 33.53700
C  47.87800 16.18800 35.00500
H  47.89700 17.57200 35.56600
N  49.40200 17.01200 27.62200
C  50.07200 17.91800 28.35400
C  51.09600 18.55600 27.56400
C  51.05000 18.01800 26.27700
C  49.86500 17.07800 26.31400
C  52.04100 19.57500 28.13900
C  51.87700 18.31600 25.06000
O  51.79100 17.60100 24.08900
C  52.76700 19.45800 25.13400
N  47.31100 15.33700 26.18500
C  48.00100 15.83600 25.12500
C  47.38900 15.36900 23.76600
C  46.26800 14.41400 24.18300
C  46.31700 14.47100 25.74600
C  46.95300 16.56900 22.91500
C  46.36000 12.89300 23.75800
C  45.19900 12.34900 22.87100
N  45.96100 14.74300 28.70200
C  45.10100 13.97700 27.93800
C  44.07900 13.35900 28.82700
C  44.37000 13.92800 30.06500
C  45.51300 14.72100 29.98500
C  42.97400 12.54400 28.19700
C  43.94200 13.96100 31.45300
O  43.01800 13.39500 31.97100
C  44.89700 14.92100 32.20200
C  44.25600 16.01600 32.96900
O  44.10000 17.12500 32.37100
O  43.89800 15.68100 34.26700
C  43.15600 16.73200 34.99200
H  50.11200 19.10200 30.13600
H  49.49400 16.83100 24.16900
H  44.52700 13.32600 25.91300
H  46.71400 17.60100 32.83300
H  49.51600 17.90700 32.58800
H  48.01000 19.92400 30.87000
H  48.97700 20.26700 32.33800
H  47.26800 19.85700 32.33800
H  49.14700 15.77900 33.31700
H  47.79800 15.05200 33.07000
H  48.74000 15.67300 35.43000
H  46.96600 15.64800 35.25900
H  53.06700 19.37000 27.83300
H  52.03000 19.56900 29.22900
H  51.62600 20.49000 27.71500
H  52.07300 20.24900 25.41900
H  53.00800 19.84700 24.14500
H  53.64700 19.28000 25.75200
H  48.16100 14.75200 23.30600
H  45.31000 14.82100 23.86000
H  47.31500 16.44900 21.89400
H  47.47800 17.43600 23.31800
H  45.89200 16.74300 23.09400
H  46.42100 12.19000 24.58900
H  47.30900 12.70400 23.25700
H  45.68500 12.05100 21.94200
H  44.50500 13.12900 22.55800
H  44.61300 11.53100 23.29100
H  43.53100 11.79000 27.64000
H  42.26300 13.02600 27.52500
H  42.34500 12.08800 28.96100
H  45.47500 14.41400 32.97500
H  42.10400 16.70500 34.70800
H  43.57800 17.72000 34.80700
H  43.14400 16.44100 36.04200
Mg -11.15200 38.83200 40.47600
C  -9.59500 35.45000 40.21700
C  -8.33800 40.10900 39.26200
C  -12.91700 41.69000 40.34000
C  -14.09200 37.08900 41.47100
N  -9.26100 37.83200 39.67500
C  -8.81400 36.57200 39.83200
C  -7.36000 36.51700 39.27700
C  -6.87600 38.00800 39.38400
C  -8.26800 38.70400 39.43300
C  -6.01100 38.55100 40.53200
C  -7.34000 36.01700 37.84900
C  -6.05100 35.29400 37.30000
H  -5.36100 36.08200 36.20000
N  -10.68900 40.66200 39.79600
C  -9.42700 41.00500 39.41200
C  -9.38400 42.47700 39.31300
C  -10.65400 42.96400 39.68100
C  -11.55000 41.74300 39.89100
C  -8.19000 43.14400 38.76000
C  -11.02100 44.52500 39.69500
O  -10.14400 45.40500 39.73800
C  -12.47000 44.94400 39.71200
N  -13.31500 39.32700 40.73800
C  -13.77900 40.57100 40.64900
C  -15.30000 40.59200 40.76000
C  -15.53500 39.14900 41.29500
C  -14.29200 38.48500 41.12000
C  -16.13300 41.66200 41.58200
C  -16.75400 38.42400 40.49300
C  -16.43700 37.95600 39.07700
N  -11.77900 36.69200 40.87600
C  -12.96500 36.22300 41.32900
C  -12.82600 34.79700 41.55700
C  -11.53700 34.41200 41.13800
C  -10.96000 35.58600 40.65300
C  -14.01100 33.88400 41.90300
C  -10.58500 33.31300 40.90000
O  -10.61300 32.09000 41.12600
C  -9.35700 33.94700 40.22000
C  -8.02200 33.37700 40.62200
O  -7.13800 33.18700 39.81400
O  -7.91700 33.24400 41.97800
C  -6.63500 32.69900 42.39800
H  -7.48600 40.78300 39.15000
H  -13.40000 42.63700 40.09000
H  -14.88800 36.49400 41.92400
H  -6.76900 35.88400 39.93800
H  -6.39400 38.36400 38.47400
H  -5.57900 37.68400 41.03300
H  -6.58600 39.17000 41.22100
H  -5.30000 39.21500 40.04100
H  -7.54700 36.87200 37.20600
H  -8.14200 35.30600 37.65000
H  -6.28900 34.28300 36.97100
H  -5.29600 35.16000 38.07400
H  -7.84100 42.64300 37.85700
H  -7.45600 43.18500 39.56600
H  -8.43900 44.19300 38.59800
H  -13.10200 44.47100 38.96000
H  -12.41900 46.01400 39.51100
H  -12.83600 44.86800 40.73600
H  -15.68600 40.72600 39.74900
H  -15.68300 39.16600 42.37500
H  -16.87400 42.03300 40.87400
H  -15.53900 42.51800 41.90500
H  -16.84900 41.30700 42.32300
H  -17.62200 39.05500 40.29900
H  -17.13500 37.60700 41.10500
H  -16.29500 36.87600 39.08600
H  -15.52800 38.48900 38.79800
H  -17.13600 38.15500 38.26400
H  -14.27100 33.94800 42.95900
H  -13.80700 32.87600 41.54100
H  -14.79400 34.23300 41.22900
H  -9.41000 33.62200 39.18100
H  -5.82500 33.36600 42.10300
H  -6.41100 31.66300 42.14500
H  -6.74000 32.83700 43.47400

