158

Mg 6.46000 53.96900 40.73500
C  5.42000 50.55600 40.45800
C  9.58100 53.02200 39.75100
C  7.01100 57.18900 40.27000
C  3.03600 54.66000 41.77900
N  7.20200 52.10300 39.85900
C  6.67500 50.82100 39.85400
C  7.64900 49.80400 39.15000
C  9.00100 50.52600 39.47600
C  8.60300 52.01200 39.66500
C  9.70800 49.90500 40.75600
C  7.22900 49.66800 37.65400
C  7.59500 48.26800 36.93500
H  6.73200 47.84900 35.80200
N  8.15900 54.96700 40.12100
C  9.33300 54.39200 39.81100
C  10.23800 55.43200 39.55000
C  9.60400 56.69000 39.71300
C  8.14400 56.34300 40.01800
C  11.72700 55.20500 39.15600
C  10.22400 58.01200 39.51100
O  11.42600 58.13000 39.20600
C  9.43100 59.30000 39.50800
N  5.17800 55.60800 40.81900
C  5.68100 56.89200 40.65300
C  4.52900 57.94000 40.92700
C  3.38800 57.08700 41.57500
C  3.96000 55.68800 41.47200
C  4.94100 59.18600 41.79300
C  1.95500 57.15100 40.90500
C  1.40900 58.60300 40.59500
N  4.60400 52.86300 41.17500
C  3.41400 53.27900 41.68400
C  2.51800 52.14300 41.98700
C  3.31500 51.06300 41.56200
C  4.51000 51.53600 41.05300
C  1.17400 52.11600 42.55700
C  3.41600 49.60600 41.36600
O  2.61500 48.70100 41.65300
C  4.85200 49.19800 40.77100
C  4.69900 48.29000 39.57300
O  4.21400 48.52600 38.49700
O  5.05100 47.01100 39.94900
C  5.02900 45.92600 38.97000
H  10.58300 52.66600 39.49800
H  7.13000 58.27400 40.30300
H  2.06300 54.95200 42.18000
H  7.57800 48.83200 39.63800
H  9.66500 50.31300 38.63800
H  9.13700 49.13600 41.27800
H  9.92300 50.71300 41.45600
H  10.61500 49.40600 40.41700
H  7.82200 50.45300 37.18500
H  6.21600 50.00500 37.43100
H  7.60200 47.52900 37.73700
H  8.61200 48.49100 36.61300
H  11.90100 54.13300 39.06500
H  12.40900 55.62400 39.89600
H  11.96200 55.63500 38.18300
H  10.04500 60.19200 39.37500
H  8.97800 59.20500 40.49400
H  8.81100 59.29100 38.61200
H  4.17100 58.25300 39.94600
H  3.18900 57.25500 42.63300
H  4.06200 59.64200 42.24800
H  5.40700 59.88300 41.09600
H  5.73300 58.96000 42.50700
H  1.28900 56.65100 41.60800
H  2.02900 56.63800 39.94600
H  2.05600 59.34400 41.06500
H  0.36500 58.72900 40.88000
H  1.44300 58.61100 39.50500
H  0.64000 53.06600 42.54600
H  1.16900 51.74300 43.58100
H  0.64500 51.31000 42.04700
H  5.47200 48.68100 41.50400
H  4.20800 45.99600 38.25600
H  5.06700 44.96000 39.47300
H  5.88000 46.09400 38.31100
Mg -10.33800 38.39800 40.95400
C  -8.45200 35.41900 40.70900
C  -8.05600 40.13800 39.18200
C  -12.58600 40.87000 40.62800
C  -12.93000 36.34000 42.42400
N  -8.66600 37.70600 39.78700
C  -7.95300 36.51800 39.96700
C  -6.61000 36.53300 39.34000
C  -6.54900 38.05100 38.82700
C  -7.86100 38.71400 39.27000
C  -5.18400 38.75500 39.27100
C  -6.38700 35.58000 38.16200
C  -4.95800 35.10200 38.21000
H  -3.95200 35.53900 37.10000
N  -10.26000 40.34800 40.13200
C  -9.19100 40.93300 39.47800
C  -9.49200 42.29600 39.15000
C  -10.86300 42.49400 39.52100
C  -11.25700 41.20500 40.15900
C  -8.59900 43.15800 38.36700
C  -11.65000 43.77800 39.26100
O  -11.20000 44.65600 38.51000
C  -13.07800 43.98300 39.78900
N  -12.46300 38.48600 41.38200
C  -13.17400 39.67100 41.13700
C  -14.71600 39.49400 41.38100
C  -14.77200 37.97600 41.83700
C  -13.27200 37.56000 41.94100
C  -15.24400 40.47500 42.46500
C  -15.57500 36.93600 40.92200
C  -16.91600 36.35800 41.58000
N  -10.64500 36.32300 41.49400
C  -11.72600 35.67700 42.09500
C  -11.31600 34.28200 42.36700
C  -9.98900 34.21200 41.92800
C  -9.64000 35.41600 41.34100
C  -12.12700 33.25200 43.05600
C  -8.87300 33.30100 41.86500
O  -8.85800 32.16700 42.31700
C  -7.78500 34.02600 41.05500
C  -6.53100 34.14600 41.88000
O  -5.74800 33.24500 42.12400
O  -6.30800 35.43100 42.31000
C  -5.16500 35.80700 43.14400
H  -7.25000 40.77800 38.81800
H  -13.31200 41.67800 40.51500
H  -13.73300 35.79400 42.92300
H  -5.82200 36.42800 40.08600
H  -6.64300 38.12200 37.74300
H  -4.38300 38.01800 39.21700
H  -5.23700 39.11700 40.29800
H  -5.03800 39.62600 38.63200
H  -6.71200 36.13400 37.28100
H  -7.02000 34.69400 38.21700
H  -5.07100 34.02300 38.10600
H  -4.42500 35.30200 39.14000
H  -7.75100 42.67100 37.88600
H  -8.21000 44.01600 38.91400
H  -9.18200 43.61100 37.56500
H  -13.02600 43.72400 40.84600
H  -13.62100 43.24500 39.19900
H  -13.36200 45.00600 39.54000
H  -15.17600 39.47300 40.39300
H  -15.16800 37.94400 42.85200
H  -14.39000 40.95600 42.94100
H  -15.84600 39.93900 43.19900
H  -15.88700 41.18900 41.95000
H  -14.92500 36.10500 40.64900
H  -15.81100 37.33700 39.93700
H  -17.66800 37.07400 41.24700
H  -16.83800 36.24200 42.66100
H  -17.27700 35.44200 41.11200
H  -12.28700 32.33600 42.48800
H  -13.04400 33.79700 43.27800
H  -11.79500 32.91800 44.03900
H  -7.41300 33.42800 40.22200
H  -4.26500 35.76100 42.53100
H  -5.01400 35.21600 44.04700
H  -5.41600 36.81500 43.47300

