158

Mg 6.31500 54.15500 41.17800
C  5.42200 50.65900 40.58800
C  9.39600 53.53500 40.08500
C  6.76500 57.41800 41.39400
C  2.80400 54.60500 41.72100
N  7.20500 52.21300 40.32400
C  6.74400 50.88900 40.28100
C  7.88000 49.95300 40.00800
C  9.18400 50.92600 39.90300
C  8.61400 52.31100 40.10500
C  10.29300 50.60200 40.87300
C  7.67500 49.13300 38.67300
C  7.09200 49.87500 37.49100
H  6.25400 49.11100 36.40300
N  7.94300 55.39500 40.88200
C  9.15600 54.90600 40.38200
C  10.02300 56.05000 40.29500
C  9.30500 57.19700 40.78000
C  7.94500 56.73400 41.03100
C  11.43000 56.02000 39.78700
C  9.81600 58.59700 40.92700
O  11.02400 58.85400 40.77800
C  9.00400 59.74800 41.28000
N  4.97000 55.72700 41.52700
C  5.42400 57.02200 41.58400
C  4.32700 57.97700 42.01300
C  3.05300 57.05800 42.05500
C  3.59600 55.68300 41.78400
C  4.59400 58.64200 43.35100
C  1.82700 57.44500 41.25300
C  1.89000 57.33700 39.75000
N  4.50600 52.95200 41.23800
C  3.17100 53.25400 41.52700
C  2.37300 52.13700 41.62500
C  3.20700 51.03600 41.41300
C  4.49900 51.57800 41.07000
C  0.85000 52.10400 41.82000
C  3.29700 49.58400 41.29900
O  2.49300 48.72400 41.56000
C  4.83200 49.30000 40.87200
C  4.66500 48.38600 39.74100
O  4.12400 48.68400 38.68600
O  5.08400 47.06000 40.03300
C  4.68400 46.09500 39.05200
H  10.42800 53.34100 39.78300
H  6.85200 58.49600 41.54700
H  1.71800 54.69800 41.78200
H  7.99900 49.21400 40.80000
H  9.77100 50.88900 38.98600
H  10.15400 49.63600 41.35600
H  10.07800 51.31200 41.67200
H  11.30300 50.83600 40.53400
H  7.16200 48.18200 38.81300
H  8.64700 48.89900 38.23900
H  7.90500 50.36200 36.95200
H  6.47900 50.67500 37.90600
H  11.37900 56.22000 38.71700
H  11.89000 55.04000 39.91000
H  12.03200 56.77600 40.29200
H  9.64500 60.59500 41.52400
H  8.48800 59.45900 42.19500
H  8.34500 60.02500 40.45600
H  4.27300 58.69500 41.19500
H  2.73700 56.93400 43.09100
H  3.99800 58.47200 44.24800
H  4.31100 59.64100 43.01900
H  5.67100 58.59900 43.51500
H  1.68900 58.50200 41.48300
H  0.96300 56.98100 41.72800
H  1.62700 58.28000 39.27000
H  1.23500 56.54300 39.39200
H  2.91900 57.18900 39.42200
H  0.67800 51.94200 42.88500
H  0.49400 51.20900 41.31000
H  0.30400 52.94800 41.40000
H  5.30000 48.76900 41.70000
H  5.11200 45.12300 39.29900
H  5.08800 46.30000 38.06000
H  3.59400 46.09000 39.07700
Mg -11.64300 17.02000 42.89800
C  -8.56600 15.60900 42.48400
C  -10.55500 19.98900 41.40700
C  -14.75400 18.12300 42.86900
C  -12.90500 13.65000 43.39400
N  -9.77900 17.71200 42.06500
C  -8.64800 16.96500 42.05200
C  -7.51600 17.69300 41.31600
C  -8.09600 19.16600 41.23300
C  -9.54900 18.95500 41.62200
C  -7.39700 20.30100 42.02700
C  -7.16100 16.98000 39.94100
C  -5.58500 16.65900 39.82500
H  -5.09200 15.70100 38.71900
N  -12.55000 18.83000 42.13800
C  -11.95500 19.88300 41.56400
C  -12.93600 20.85600 41.26200
C  -14.18500 20.45300 41.81000
C  -13.85600 19.08600 42.31600
C  -12.64000 22.16000 40.58300
C  -15.49700 21.26100 41.79700
O  -15.62600 22.42700 41.40000
C  -16.61200 20.66500 42.54500
N  -13.62400 15.96500 42.83000
C  -14.68000 16.75000 43.13900
C  -15.92300 15.84000 43.58800
C  -15.34100 14.39800 43.41100
C  -13.83200 14.62200 43.18000
C  -16.44200 16.04900 45.01300
C  -15.83300 13.51800 42.18200
C  -16.02100 12.03400 42.46300
N  -10.93900 14.99500 43.07900
C  -11.51200 13.81800 43.38100
C  -10.53500 12.76900 43.55400
C  -9.32600 13.48700 43.24000
C  -9.62400 14.79500 42.95100
C  -10.74200 11.36600 43.93300
C  -7.91300 13.30200 43.02800
O  -7.21600 12.33400 43.22600
C  -7.39400 14.64000 42.43500
C  -6.29800 15.06000 43.35500
O  -6.39300 15.53300 44.45000
O  -5.08500 14.80400 42.72000
C  -3.83500 15.25100 43.42300
H  -10.07700 20.91800 41.09000
H  -15.81500 18.35200 42.99200
H  -13.26500 12.66100 43.68600
H  -6.69200 17.69600 42.03100
H  -8.15300 19.35200 40.16000
H  -7.13600 21.01000 41.24200
H  -6.51200 19.91600 42.53300
H  -8.03300 20.83000 42.73600
H  -7.44000 17.62100 39.10400
H  -7.76400 16.07600 39.85300
H  -5.15200 16.33000 40.77000
H  -5.14700 17.64400 39.66600
H  -12.01000 21.87400 39.74100
H  -12.01000 22.75800 41.24200
H  -13.49500 22.71600 40.19900
H  -17.32700 21.46000 42.75300
H  -16.22600 20.24400 43.47400
H  -17.11500 19.90900 41.94200
H  -16.68800 16.11300 42.86100
H  -15.40900 13.76900 44.29800
H  -16.45500 15.16800 45.65500
H  -17.42500 16.51100 45.09600
H  -15.76200 16.82500 45.36400
H  -15.15000 13.53700 41.33200
H  -16.71000 14.06900 41.84200
H  -15.46800 11.81000 43.37400
H  -15.63300 11.32300 41.73300
H  -17.04800 11.71800 42.64400
H  -9.84700 10.77300 43.74400
H  -11.58400 10.96600 43.36700
H  -10.94700 11.30200 45.00200
H  -7.01800 14.55900 41.41600
H  -3.40000 14.28400 43.67600
H  -3.94100 15.72400 44.39900
H  -3.04900 15.73000 42.83900

