158

Mg 35.80600 1.62200 29.94800
C  33.63300 2.91500 32.23400
C  38.23700 1.35900 32.29600
C  38.06500 0.69800 27.47400
C  33.39400 2.10200 27.42000
N  35.90400 2.14400 31.96100
C  34.84700 2.58700 32.71900
C  35.26400 2.64100 34.24000
C  36.77200 2.31800 34.19400
C  37.01300 1.82100 32.70700
C  37.82000 3.41100 34.66200
C  34.32700 1.63400 35.09000
C  33.87800 2.06500 36.46600
H  34.69700 3.09500 37.22500
N  37.87800 1.15800 29.94900
C  38.72300 0.98100 31.02700
C  39.99500 0.50300 30.67200
C  39.91800 0.26300 29.20500
C  38.60000 0.72600 28.83400
C  41.21000 0.35400 31.58200
C  40.88500 -0.39500 28.19800
O  40.74300 -0.40600 26.96600
C  42.12300 -0.98800 28.75200
N  35.76400 1.57900 27.74900
C  36.78700 1.13000 26.98800
C  36.55700 1.31800 25.53000
C  35.02000 1.56600 25.42800
C  34.67300 1.74100 26.97000
C  37.46400 2.34500 24.81300
C  34.21900 0.53300 24.68800
C  34.27500 -0.83800 25.32100
N  33.82500 2.19400 29.84900
C  32.97700 2.39300 28.76000
C  31.73200 2.97200 29.22100
C  31.93200 3.00600 30.62300
C  33.25100 2.73700 30.89300
C  30.53400 3.23300 28.45400
C  31.24400 3.46000 31.76700
O  30.08300 3.78200 31.95300
C  32.38800 3.45200 32.95400
C  32.54800 4.76500 33.65200
O  33.22600 5.66300 33.24000
O  32.12700 4.64900 34.91600
C  32.01400 5.92000 35.63500
H  39.06500 1.41900 33.00600
H  38.59100 0.39800 26.56500
H  32.53800 2.19800 26.74900
H  35.03600 3.66300 34.54400
H  36.93100 1.54200 34.94300
H  37.21000 4.19200 35.11700
H  38.29600 3.96500 33.85300
H  38.55600 3.09800 35.40300
H  34.96200 0.77200 35.29400
H  33.51300 1.24700 34.47700
H  33.90800 1.19400 37.12100
H  32.82400 2.32200 36.36300
H  41.91100 1.15800 31.35700
H  41.71700 -0.60500 31.48000
H  40.95700 0.49000 32.63400
H  42.66700 -1.47300 27.94100
H  41.80300 -1.77000 29.44000
H  42.78700 -0.20400 29.11800
H  36.75400 0.41100 24.95900
H  34.78600 2.56100 25.04900
H  37.85000 3.01100 25.58500
H  36.98700 2.88900 23.99800
H  38.33200 1.83900 24.39100
H  34.49400 0.59400 23.63500
H  33.21800 0.95800 24.62000
H  33.27200 -1.02200 25.70600
H  34.94000 -0.84400 26.18400
H  34.42700 -1.67500 24.64000
H  29.75000 3.37200 29.19900
H  30.23200 2.43000 27.78200
H  30.53700 4.20500 27.96000
H  31.95800 2.72200 33.64000
H  32.19900 5.75900 36.69700
H  31.02400 6.36000 35.51300
H  32.65900 6.70500 35.24000
Mg 29.90800 58.30800 39.69000
C  27.30200 56.02200 38.97300
C  32.11600 55.96900 38.57300
C  32.31200 60.71400 40.01300
C  27.39200 60.67100 40.25300
N  29.71600 56.27000 39.03600
C  28.60400 55.57700 38.71000
C  28.99400 54.24600 38.10200
C  30.46100 54.07500 38.47900
C  30.82300 55.50300 38.73300
C  30.79700 53.04600 39.64500
C  28.70100 54.22000 36.62500
C  27.65800 53.30200 36.05800
H  26.83600 54.00100 34.96700
N  31.95900 58.32100 39.55000
C  32.66700 57.28900 38.95300
C  34.04100 57.65800 38.84400
C  34.16100 58.93300 39.38900
C  32.77600 59.40000 39.65400
C  35.12900 56.73000 38.12400
C  35.52100 59.68400 39.54300
O  36.60300 59.25300 39.13300
C  35.60000 61.02700 40.19100
N  29.83600 60.35900 40.18400
C  30.97600 61.16900 40.20400
C  30.54300 62.60900 40.42600
C  29.00700 62.59000 40.48800
C  28.74500 61.10600 40.22600
C  31.25400 63.32800 41.56800
C  28.20600 63.48200 39.52200
C  26.82600 63.99800 40.10000
N  27.70000 58.41800 39.56900
C  26.87900 59.40500 39.88100
C  25.49000 58.91400 39.80800
C  25.66500 57.63000 39.38300
C  27.01100 57.32300 39.31500
C  24.26300 59.64200 40.03900
C  24.84700 56.41600 39.07000
O  23.60700 56.29300 39.10300
C  25.91600 55.40000 38.67800
C  25.61500 54.09100 39.32500
O  25.96800 53.80900 40.46100
O  24.85800 53.32900 38.45300
C  24.36000 52.12700 39.07200
H  32.83700 55.27100 38.14200
H  33.04800 61.52000 40.02000
H  26.61500 61.42300 40.40500
H  28.45900 53.46100 38.63800
H  30.93900 53.70100 37.57300
H  30.09900 52.23200 39.84200
H  30.92200 53.62000 40.56300
H  31.73100 52.55800 39.36600
H  29.62300 54.07800 36.06100
H  28.38700 55.26000 36.52600
H  26.89500 52.94500 36.74900
H  28.19000 52.46500 35.60800
H  35.73800 56.24300 38.88600
H  35.76300 57.37000 37.51200
H  34.85400 55.93800 37.42800
H  35.10600 61.75700 39.54900
H  36.58500 61.26200 40.59200
H  35.02000 60.91600 41.10700
H  30.80100 63.22900 39.56800
H  28.80300 62.81100 41.53600
H  31.88200 62.58500 42.05900
H  30.54100 63.83200 42.22100
H  31.83200 64.13400 41.11400
H  27.90900 62.90900 38.64400
H  28.69900 64.39200 39.18200
H  26.09700 63.59800 39.39500
H  26.71800 65.08300 40.10300
H  26.56500 63.62900 41.09200
H  24.39900 60.72100 39.96200
H  23.92900 59.39400 41.04600
H  23.54800 59.42200 39.24600
H  25.68500 55.20500 37.63000
H  25.00100 51.75800 39.87200
H  24.10600 51.31900 38.38600
H  23.46000 52.34200 39.64700

