158

Mg 30.01200 57.89800 40.18900
C  27.60000 55.79500 38.94900
C  32.51700 56.02200 39.08500
C  32.11200 60.64500 40.86700
C  27.28400 60.31300 40.90500
N  29.98600 56.06100 39.21200
C  28.93700 55.36500 38.75400
C  29.35200 53.92800 38.30300
C  30.88200 53.97500 38.51200
C  31.20500 55.45500 38.87600
C  31.61000 52.93300 39.45100
C  28.98100 53.53700 36.79600
C  28.86100 54.68400 35.80500
H  27.86600 54.55600 34.65400
N  32.04500 58.20600 40.14000
C  32.91100 57.28000 39.60500
C  34.23400 57.74000 39.85900
C  34.16900 59.08100 40.29000
C  32.70100 59.38400 40.42500
C  35.47000 56.95300 39.59200
C  35.43000 60.07700 40.44800
O  36.57500 59.79500 40.12500
C  35.24100 61.47600 41.07900
N  29.73000 60.22000 40.73400
C  30.80200 61.01000 41.06500
C  30.29800 62.43400 41.61100
C  28.79200 62.12600 41.72900
C  28.53000 60.78800 41.07200
C  30.96700 63.03900 42.88000
C  27.90200 63.30000 41.40100
C  27.19200 63.89300 42.61800
N  27.88400 58.04400 40.02100
C  26.94100 59.03400 40.38400
C  25.64000 58.58900 40.00900
C  25.84200 57.33600 39.41000
C  27.22300 57.06200 39.49000
C  24.37100 59.40300 40.08100
C  25.16600 56.24400 38.75200
O  24.02500 56.15200 38.41800
C  26.29800 55.15800 38.50800
C  25.88400 53.99900 39.26600
O  26.25300 53.61600 40.42100
O  24.85400 53.38600 38.59500
C  23.96000 52.45400 39.31300
H  33.37200 55.38800 38.84300
H  32.71500 61.44900 41.29400
H  26.44000 60.95900 41.15700
H  28.87000 53.29900 39.05200
H  31.37200 53.94200 37.53900
H  30.88800 52.18900 39.78700
H  32.12000 53.47700 40.24600
H  32.41400 52.45800 38.88800
H  28.06300 52.95200 36.86400
H  29.77700 52.86300 36.48100
H  29.80800 54.95800 35.33800
H  28.57400 55.59100 36.33600
H  35.27800 55.88400 39.49100
H  36.36800 57.12500 40.18400
H  35.63400 57.18000 38.53800
H  36.20600 61.90300 41.35100
H  34.76800 61.34100 42.05100
H  34.81100 62.13900 40.32800
H  30.40000 63.13900 40.78600
H  28.75100 61.88900 42.79200
H  31.74500 62.39800 43.29500
H  30.24000 63.24100 43.66600
H  31.49900 63.97000 42.68300
H  27.15800 63.09000 40.63300
H  28.49200 64.13400 41.02200
H  27.82300 64.55400 43.21100
H  26.83300 63.18500 43.36500
H  26.35000 64.49100 42.26900
H  24.48200 60.11800 40.89600
H  23.54600 58.71700 40.27200
H  24.19700 59.97600 39.17000
H  26.24500 55.04200 37.42500
H  23.56800 51.82000 38.51900
H  23.20000 53.10100 39.75100
H  24.50900 51.84800 40.03400
Mg 17.15800 51.80400 26.01600
C  19.02900 50.41200 28.69200
C  14.74200 52.91100 28.33700
C  15.32700 52.63600 23.51000
C  19.35400 50.04400 23.85800
N  16.92000 51.60000 28.26000
C  17.92100 51.16500 29.10300
C  17.57100 51.54200 30.51700
C  16.11100 52.06100 30.42000
C  15.88400 52.19100 28.91500
C  15.04000 51.11900 31.01300
C  18.61100 52.56900 31.19700
C  18.71100 52.56100 32.80600
H  17.70200 51.72500 33.59800
N  15.21500 52.68100 25.94100
C  14.45500 53.10100 26.94200
C  13.25200 53.65600 26.38000
C  13.39200 53.63000 24.95600
C  14.68400 52.93500 24.73500
C  12.07200 54.14400 27.25900
C  12.38900 54.02500 23.89400
O  12.68600 54.06400 22.70600
C  11.10800 54.55600 24.29500
N  17.35400 51.42400 23.91700
C  16.51600 52.05900 23.02700
C  16.92500 51.74500 21.56400
C  18.30500 51.07200 21.79200
C  18.32900 50.79400 23.24300
C  15.89200 50.87400 20.72700
C  19.64600 51.81900 21.39500
C  19.57200 53.36300 21.55300
N  18.90900 50.54800 26.14000
C  19.68700 49.92800 25.22700
C  20.75200 49.20000 25.88100
C  20.54700 49.35500 27.24800
C  19.41700 50.21400 27.40700
C  21.70700 48.42800 25.07500
C  21.07400 48.99200 28.57700
O  21.96200 48.24800 28.85500
C  20.14800 49.74400 29.55100
C  19.53500 48.80600 30.66700
O  18.45500 48.20900 30.55200
O  20.44100 48.71800 31.72400
C  20.07500 47.98100 32.95200
H  13.98800 53.23900 29.05600
H  14.84700 53.02700 22.61100
H  20.11000 49.63300 23.18600
H  17.55200 50.60100 31.06600
H  16.04000 53.08100 30.79600
H  14.28800 51.72300 31.52200
H  15.46000 50.44100 31.75500
H  14.44900 50.47600 30.36000
H  18.29900 53.60700 31.07900
H  19.61000 52.43100 30.78400
H  18.62500 53.59500 33.14000
H  19.74100 52.32700 33.07600
H  11.26400 53.46300 26.99500
H  11.74800 55.15800 27.02200
H  12.03800 54.03000 28.34300
H  11.29400 55.55900 24.67900
H  10.57700 53.87200 24.95600
H  10.47900 54.55100 23.40500
H  16.94300 52.71800 21.07400
H  18.27500 50.09300 21.31200
H  14.92600 50.67400 21.19000
H  16.28400 49.89200 20.46200
H  15.83200 51.46000 19.81000
H  19.78700 51.60300 20.33600
H  20.46000 51.45100 22.02000
H  20.47900 53.66000 22.08000
H  18.73700 53.50400 22.24000
H  19.46100 53.95800 20.64600
H  22.30500 49.11900 24.48200
H  21.33400 47.81400 24.25600
H  22.29900 47.91100 25.83000
H  20.58600 50.52100 30.17700
H  18.99300 48.04600 33.07200
H  20.58600 48.45300 33.79100
H  20.37200 46.93500 33.03300

