158

Mg 17.11900 51.44100 26.21300
C  18.91500 49.92400 28.66700
C  14.73800 52.46000 28.66400
C  15.23100 52.88400 23.76200
C  19.32100 50.37100 23.81900
N  16.86100 51.08600 28.32800
C  17.80300 50.61500 29.18600
C  17.43900 50.78000 30.68700
C  15.98600 51.30700 30.59800
C  15.82000 51.61600 29.10100
C  15.04200 50.14900 31.20200
C  18.33800 51.78500 31.36000
C  18.70000 51.51200 32.86200
H  17.64200 50.76200 33.66200
N  15.26700 52.55000 26.22000
C  14.47300 52.85900 27.33300
C  13.45400 53.69500 26.86900
C  13.52900 53.81200 25.43500
C  14.67700 53.03700 25.06600
C  12.39500 54.34300 27.84500
C  12.64000 54.61200 24.48200
O  12.79700 54.71200 23.29900
C  11.55900 55.41000 25.01600
N  17.15600 51.49200 24.13200
C  16.37800 52.27400 23.33100
C  16.91400 52.28900 21.93000
C  18.30200 51.85200 22.09200
C  18.31300 51.20900 23.50400
C  16.04100 51.32200 21.04900
C  19.42000 52.99800 21.98900
C  20.62000 52.55600 21.19000
N  18.73400 50.22200 26.20200
C  19.58800 49.97400 25.17800
C  20.73200 49.13900 25.68600
C  20.51100 49.12300 27.05800
C  19.31900 49.78700 27.29700
C  21.76400 48.37900 24.87400
C  21.03500 48.64500 28.35500
O  22.07400 48.06800 28.60200
C  20.03400 49.19200 29.44400
C  19.57500 48.07300 30.27200
O  18.93200 47.09200 29.89100
O  20.03500 48.24500 31.56700
C  19.98900 47.19400 32.58900
H  14.08500 52.65100 29.51800
H  14.71700 53.35300 22.92100
H  20.18300 50.23300 23.16400
H  17.54500 49.81700 31.18700
H  15.80100 52.18300 31.21900
H  15.50200 49.20400 31.48900
H  14.30300 50.00400 30.41300
H  14.49300 50.33800 32.12500
H  17.81000 52.73400 31.45800
H  19.25500 51.85000 30.77500
H  18.87000 52.51000 33.26700
H  19.60400 50.90600 32.78900
H  12.61600 53.99200 28.85300
H  11.38900 54.10400 27.50000
H  12.74600 55.37400 27.83300
H  11.79800 56.25000 25.66700
H  10.87700 54.62900 25.35200
H  11.13000 55.98000 24.19200
H  16.87100 53.26700 21.45100
H  18.44900 51.12500 21.29500
H  16.55800 50.37200 20.91400
H  15.93600 51.78400 20.06800
H  15.11100 51.09100 21.56800
H  19.80100 53.16300 22.99600
H  19.10200 53.95800 21.58400
H  20.38800 51.63300 20.65700
H  21.43900 52.37200 21.88500
H  21.08900 53.18700 20.43600
H  21.93700 48.77900 23.87400
H  21.45300 47.34200 24.75100
H  22.60300 48.34900 25.56900
H  20.59800 49.83000 30.12400
H  18.93100 47.08300 32.83000
H  20.54600 47.55100 33.45500
H  20.34400 46.22100 32.25000
Mg -3.19500 34.44500 26.81500
C  -4.95800 32.92200 29.44000
C  -1.93500 36.64500 29.03400
C  -1.47900 35.63700 24.33400
C  -4.85200 32.23900 24.49400
N  -3.41500 34.68200 29.04800
C  -4.13800 33.96000 29.92800
C  -4.04800 34.54400 31.35500
C  -3.27400 35.86500 31.05700
C  -2.83700 35.74700 29.65000
C  -4.13300 37.22300 31.22900
C  -3.53900 33.53200 32.43400
C  -4.25500 33.48500 33.80600
H  -3.52300 33.08200 35.08300
N  -1.95200 35.98600 26.64800
C  -1.54700 36.78400 27.64300
C  -0.64600 37.79800 27.08900
C  -0.49600 37.53600 25.72900
C  -1.35800 36.38400 25.48700
C  -0.09400 38.95000 27.86500
C  0.38000 38.25900 24.67500
O  0.29400 37.92700 23.50100
C  1.31900 39.33000 25.03900
N  -3.42200 34.19400 24.67300
C  -2.39800 34.69700 23.92900
C  -2.31100 34.05000 22.57500
C  -3.27300 32.84900 22.68500
C  -3.99100 33.20700 23.99000
C  -2.79500 35.06300 21.38900
C  -2.55000 31.47000 22.56500
C  -3.31900 30.41100 21.67800
N  -4.59600 32.93100 26.94200
C  -5.16200 32.12500 25.87700
C  -5.93300 31.04700 26.46000
C  -5.92000 31.37500 27.88000
C  -5.09200 32.52200 28.09200
C  -6.54400 29.79900 25.77100
C  -6.43900 30.98700 29.20000
O  -7.09400 30.04600 29.57000
C  -5.83100 31.96200 30.17800
C  -6.93600 32.65000 30.90400
O  -7.37600 33.74900 30.63600
O  -7.33200 31.96500 31.99700
C  -8.34100 32.54300 32.90700
H  -1.57000 37.34500 29.78900
H  -0.73800 35.88200 23.56900
H  -5.14900 31.47200 23.77600
H  -5.02400 34.94300 31.63100
H  -2.40800 35.80000 31.71600
H  -3.48400 38.01300 31.60700
H  -4.99900 36.98000 31.84600
H  -4.61300 37.61500 30.33200
H  -2.48300 33.71400 32.63500
H  -3.54900 32.50600 32.06600
H  -5.10800 32.84300 33.58600
H  -4.68300 34.48400 33.88200
H  -0.18000 38.85200 28.94800
H  -0.71300 39.81100 27.61200
H  0.97200 39.12900 27.72500
H  1.91800 39.55200 24.15600
H  1.87700 38.85800 25.84800
H  0.88100 40.24600 25.43600
H  -1.27400 33.76900 22.39200
H  -4.03700 32.93500 21.91200
H  -3.56500 34.69400 20.71200
H  -1.80900 35.12300 20.92800
H  -3.17300 36.02100 21.74700
H  -2.42200 31.06200 23.56700
H  -1.58100 31.59900 22.08300
H  -2.54400 29.92200 21.08600
H  -4.13500 30.81100 21.07700
H  -3.68900 29.57700 22.27400
H  -6.32600 29.93100 24.71100
H  -7.61500 29.97200 25.87600
H  -6.18100 28.87000 26.21100
H  -5.21700 31.42800 30.90400
H  -8.98400 33.29300 32.44600
H  -7.79700 32.93200 33.76700
H  -8.93200 31.69000 33.23900

