158

Mg 8.11600 4.22400 27.31900
C  9.52200 2.36600 29.94800
C  6.44500 6.14600 29.51100
C  6.60500 5.43000 24.59900
C  9.82700 1.78500 25.15200
N  7.94800 4.19600 29.49800
C  8.69900 3.43300 30.36200
C  8.46700 3.99900 31.81800
C  7.39900 5.16500 31.65600
C  7.25000 5.18700 30.12300
C  5.97600 5.08300 32.38300
C  9.85200 4.50500 32.38000
C  10.10300 4.01200 33.81200
H  10.65800 5.10900 34.83500
N  6.72100 5.64000 27.11200
C  6.11200 6.36000 28.13800
C  5.43600 7.48700 27.54900
C  5.43900 7.20300 26.14300
C  6.26900 6.02200 25.87100
C  4.51400 8.40500 28.39100
C  4.73400 7.98200 25.08900
O  4.70900 7.69500 23.90000
C  4.07800 9.30800 25.38000
N  8.09700 3.59000 25.19200
C  7.40500 4.32400 24.28000
C  7.73800 3.88400 22.82500
C  8.89100 2.86400 23.00700
C  8.94000 2.73400 24.53800
C  6.54600 3.40800 21.95700
C  10.24400 3.25900 22.37000
C  11.05600 2.21600 21.66900
N  9.47800 2.48700 27.49400
C  10.00300 1.60000 26.56600
C  10.94100 0.68000 27.28700
C  10.76600 0.97300 28.66100
C  9.87700 1.98200 28.64000
C  11.60400 -0.44900 26.60800
C  11.17600 0.63000 30.02300
O  12.11600 -0.04500 30.41200
C  10.32800 1.55600 30.88200
C  9.55100 0.75800 31.90900
O  8.57000 0.01400 31.70800
O  9.95200 1.09700 33.17400
C  9.06000 0.59500 34.24100
H  6.13100 6.90800 30.22700
H  6.09700 5.74900 23.68700
H  10.56600 1.20500 24.59400
H  7.98600 3.20400 32.38800
H  7.71800 6.16000 31.96600
H  5.17900 5.30900 31.67500
H  6.02600 5.92000 33.07900
H  5.93400 4.18200 32.99500
H  9.83300 5.59300 32.45700
H  10.67800 4.28600 31.70300
H  10.87700 3.24700 33.75400
H  9.19300 3.56400 34.21000
H  3.56500 8.51600 27.86700
H  4.87600 9.43300 28.42900
H  4.36300 7.95700 29.37300
H  4.16000 9.95300 24.50500
H  4.65200 9.77200 26.18200
H  3.02000 9.06900 25.48800
H  8.09500 4.72900 22.23600
H  8.60900 1.86600 22.66900
H  5.65000 3.18400 22.53500
H  6.86000 2.53900 21.37900
H  6.24000 4.19100 21.26300
H  10.86400 3.43200 23.25000
H  10.22700 4.23800 21.89100
H  11.28800 2.60300 20.67700
H  10.59400 1.24200 21.50400
H  11.99900 2.12800 22.20900
H  12.33200 0.04900 25.96700
H  10.93800 -1.18700 26.16100
H  12.19100 -0.97900 27.35800
H  11.04500 2.18500 31.41000
H  8.01900 0.76400 33.96300
H  9.23500 1.01000 35.23400
H  9.20100 -0.48300 34.31600
Mg 47.03400 24.99800 28.47200
C  48.02700 27.35700 30.82100
C  46.56900 22.71600 31.07600
C  46.15000 22.61100 26.16100
C  48.37500 27.02200 25.96500
N  47.28200 25.10600 30.69900
C  47.48700 26.22900 31.39300
C  47.40900 25.98800 32.90800
C  47.18100 24.41800 32.94300
C  46.94700 24.00400 31.47900
C  48.25200 23.63900 33.71000
C  46.22400 26.75200 33.56900
C  45.56800 26.25800 34.84800
H  45.34100 27.17800 36.03600
N  46.32500 23.00000 28.61500
C  46.15600 22.21400 29.80700
C  45.68500 20.89900 29.48300
C  45.55600 20.83800 28.04200
C  45.97200 22.17600 27.56400
C  45.62800 19.67600 30.48100
C  45.18800 19.60000 27.14600
O  45.26200 19.74600 25.97100
C  44.78200 18.29500 27.72900
N  47.29500 24.84500 26.41000
C  46.74600 23.77800 25.68700
C  46.90200 24.07400 24.19700
C  47.29600 25.55000 24.15900
C  47.73700 25.82100 25.62300
C  47.75900 23.02400 23.53300
C  46.29300 26.65400 23.58400
C  46.77400 27.50900 22.38700
N  47.96300 26.76500 28.33100
C  48.54900 27.44900 27.27200
C  49.13000 28.66600 27.72100
C  48.93000 28.65300 29.07700
C  48.21000 27.53400 29.42400
C  49.77900 29.68500 26.94000
C  49.17500 29.38600 30.21700
O  49.75800 30.39300 30.37700
C  48.48800 28.62400 31.43600
C  49.48900 28.40200 32.52200
O  50.52000 27.77200 32.42800
O  49.18900 29.24800 33.59300
C  50.11800 29.21900 34.75900
H  46.46600 21.98900 31.88500
H  45.84500 21.97500 25.32700
H  48.60800 27.73900 25.17500
H  48.36100 26.17600 33.40600
H  46.26000 24.22100 33.49300
H  49.15100 24.25500 33.73300
H  48.49000 22.75600 33.11800
H  47.97900 23.31300 34.71400
H  45.40900 26.87500 32.85600
H  46.43500 27.81000 33.72800
H  46.16500 25.44900 35.26800
H  44.61300 25.77700 34.63300
H  44.67400 19.15200 30.55200
H  46.00500 20.03000 31.44000
H  46.34600 19.01900 29.99000
H  43.93000 18.38600 28.40300
H  45.62500 17.89000 28.28900
H  44.62900 17.54500 26.95300
H  45.92100 24.01100 23.72700
H  48.19100 25.78100 23.58200
H  48.57000 23.55700 23.03600
H  47.21800 22.42900 22.79800
H  48.16700 22.34100 24.27800
H  45.93200 27.35200 24.34000
H  45.47000 26.10900 23.12100
H  46.08400 27.34500 21.55900
H  47.76000 27.21300 22.02700
H  46.68700 28.53100 22.75500
H  50.50600 29.30400 26.22300
H  50.22900 30.46900 27.54800
H  49.03800 30.22700 26.35100
H  47.64400 29.15500 31.87700
H  49.78400 28.58100 35.57700
H  50.01000 30.18300 35.25400
H  51.14400 29.06800 34.42100

