158

Mg 7.99300 2.95000 27.11800
C  9.15600 1.74400 30.19200
C  6.01900 5.15000 28.91300
C  6.80100 4.05800 24.17800
C  9.45100 0.28200 25.55900
N  7.50100 3.30000 29.30100
C  8.19400 2.73900 30.31200
C  7.87200 3.51100 31.63600
C  6.72800 4.47300 31.21100
C  6.73700 4.26600 29.73500
C  5.32000 4.15300 31.87700
C  9.03400 4.26900 32.36500
C  8.69700 5.09500 33.56800
H  9.28100 4.57300 34.91500
N  6.48600 4.37200 26.64700
C  5.87400 5.19700 27.53400
C  5.19000 6.17500 26.76800
C  5.36600 5.88000 25.37700
C  6.25900 4.67700 25.34500
C  4.35800 7.31200 27.38700
C  4.88300 6.70400 24.08700
O  5.39400 6.48900 22.97200
C  3.98100 7.87000 24.17200
N  8.07100 2.11700 25.10300
C  7.57400 2.79100 24.08100
C  7.68800 1.93100 22.78200
C  8.64400 0.81400 23.21900
C  8.62800 1.03500 24.71700
C  6.28200 1.44200 22.18700
C  10.04100 0.87900 22.58000
C  11.01900 1.78600 23.38200
N  9.19100 1.44700 27.64800
C  9.80900 0.44500 26.92600
C  10.62100 -0.41900 27.75400
C  10.41000 0.08500 29.01100
C  9.50600 1.20700 28.95200
C  11.43900 -1.58300 27.33100
C  10.81400 -0.11700 30.37900
O  11.63700 -0.93200 30.80400
C  10.14500 1.04900 31.19100
C  9.51000 0.48100 32.41500
O  8.54100 -0.27700 32.47600
O  10.21200 1.00000 33.47800
C  9.55500 0.58900 34.72000
H  5.55900 5.96500 29.47700
H  6.54900 4.36500 23.16000
H  9.94700 -0.53100 25.02400
H  7.51500 2.78900 32.37000
H  7.07700 5.49800 31.33600
H  4.53600 3.99900 31.13600
H  5.17500 5.07000 32.44700
H  5.36900 3.36100 32.62500
H  9.54000 4.86500 31.60500
H  9.72600 3.54100 32.78900
H  7.62700 5.26000 33.69200
H  9.15800 6.07700 33.45800
H  4.39500 7.48000 28.46400
H  3.31000 7.28300 27.08800
H  4.68400 8.22400 26.88800
H  3.54600 8.16100 23.21500
H  4.60200 8.72200 24.45000
H  3.17900 7.73300 24.89700
H  8.21600 2.51800 22.03000
H  8.19700 -0.12500 22.89200
H  6.15100 1.82100 21.17400
H  5.48900 1.71900 22.88300
H  6.12000 0.36700 22.11700
H  10.04000 1.17800 21.53200
H  10.51500 -0.10200 22.56600
H  11.72200 1.12700 23.89200
H  10.54800 2.51100 24.04500
H  11.58500 2.43900 22.71700
H  12.51200 -1.39500 27.37100
H  11.34500 -1.79400 26.26500
H  11.13600 -2.44300 27.92800
H  10.84600 1.85200 31.41500
H  8.50400 0.88000 34.71400
H  10.17700 0.96500 35.53200
H  9.49800 -0.49700 34.78400
Mg 34.88300 3.36300 30.22700
C  32.49300 4.46300 32.56900
C  37.20500 3.71400 32.79400
C  37.18600 2.63200 28.00000
C  32.55100 3.72300 27.71700
N  34.76900 4.01200 32.42800
C  33.66400 4.34700 33.15700
C  33.95900 4.45000 34.66600
C  35.56300 4.64500 34.63700
C  35.91100 4.04800 33.25700
C  36.19700 6.06400 35.02600
C  33.45400 3.14800 35.38600
C  33.05300 3.38800 36.86300
H  33.70800 4.43500 37.61300
N  36.82100 3.10100 30.32100
C  37.59900 3.26900 31.46000
C  38.83400 2.44100 31.25400
C  38.94400 2.13900 29.86100
C  37.61600 2.65900 29.33200
C  39.65700 1.97400 32.44400
C  39.95300 1.32100 29.09200
O  39.94800 1.33900 27.85400
C  40.96700 0.53000 29.75800
N  34.87100 3.36000 28.09800
C  35.95000 3.11300 27.35900
C  35.71100 3.12700 25.83000
C  34.15000 3.38300 25.80200
C  33.82400 3.47900 27.28600
C  36.57400 4.11600 24.99900
C  33.17100 2.51900 25.00000
C  32.68900 1.17200 25.53900
N  32.86800 3.80100 30.12500
C  32.07400 3.93200 29.05200
C  30.70500 4.28100 29.48800
C  30.79500 4.38900 30.86900
C  32.15500 4.19800 31.23400
C  29.53700 4.42900 28.54400
C  30.06100 4.58900 32.10600
O  28.85600 4.77900 32.28700
C  31.16000 4.77200 33.25300
C  31.01000 6.14600 33.81800
O  31.18700 7.13900 33.07300
O  30.71800 6.10100 35.16600
C  30.87100 7.33900 35.90100
H  38.01000 3.73500 33.53100
H  37.97300 2.26100 27.34100
H  31.72000 3.97900 27.05600
H  33.64700 5.36400 35.17200
H  35.94300 3.96600 35.40000
H  37.08400 6.15400 34.39900
H  36.42400 6.04300 36.09200
H  35.45500 6.82600 34.78700
H  34.24800 2.40200 35.37800
H  32.55700 2.85900 34.83800
H  33.11300 2.35300 37.20200
H  31.99500 3.63600 36.77500
H  40.08500 2.80300 33.00700
H  40.46800 1.32300 32.11600
H  39.04700 1.30500 33.05100
H  41.78300 1.13700 30.15200
H  41.41800 -0.07200 28.96800
H  40.49100 -0.12700 30.48600
H  35.87400 2.15000 25.37500
H  34.04900 4.40300 25.43000
H  37.36400 4.62200 25.55400
H  35.90700 4.77500 24.44400
H  37.07600 3.56600 24.20300
H  33.62300 2.32800 24.02600
H  32.32300 3.17400 24.80400
H  32.74300 0.98900 26.61200
H  33.19200 0.41900 24.93200
H  31.60800 1.22000 25.40600
H  29.38500 3.49200 28.00700
H  29.76500 5.24600 27.85900
H  28.68400 4.68800 29.17000
H  30.84100 4.04600 34.00100
H  29.87300 7.47600 36.31700
H  31.27000 8.18800 35.34600
H  31.56800 7.20000 36.72700

