158

Mg -0.06200 43.61400 25.51000
C  2.05500 43.12500 28.21100
C  -2.52400 42.37700 27.39300
C  -2.07700 44.07000 22.84300
C  2.68300 44.07200 23.45600
N  -0.24700 42.90200 27.56200
C  0.73100 42.95000 28.55100
C  0.22300 42.56800 29.90500
C  -1.16700 41.97400 29.58900
C  -1.31200 42.41500 28.07100
C  -1.21200 40.42600 29.90500
C  0.13700 43.94600 30.72400
C  0.34000 43.93400 32.26800
H  0.28100 42.48500 32.92600
N  -2.02900 43.24800 25.18500
C  -2.91000 42.70400 26.07400
C  -4.17600 42.58300 25.45200
C  -4.16400 43.27700 24.18900
C  -2.70400 43.58400 24.03000
C  -5.44000 42.00700 26.19100
C  -5.21400 43.80600 23.33000
O  -5.04600 44.54300 22.38300
C  -6.59900 43.26800 23.48500
N  0.24500 43.97200 23.45400
C  -0.77400 44.38100 22.61400
C  -0.24800 44.85200 21.21700
C  1.29700 44.82100 21.49600
C  1.42600 44.21300 22.91400
C  -0.72600 43.88500 20.06300
C  2.16600 46.07800 21.33200
C  2.17000 47.17900 22.45800
N  1.96900 43.62200 25.73500
C  2.99700 43.74400 24.78400
C  4.29600 43.55300 25.47700
C  3.96900 43.28200 26.76400
C  2.53200 43.29300 26.88600
C  5.68700 43.72000 24.86100
C  4.57700 43.00800 28.08300
O  5.75900 42.84500 28.33900
C  3.28500 42.92600 29.05400
C  3.34100 41.64100 29.68000
O  2.70400 40.63100 29.39500
O  4.33600 41.67800 30.58800
C  4.94900 40.44400 30.97000
H  -3.26700 41.84100 27.98700
H  -2.74000 44.16900 21.98100
H  3.55400 44.24600 22.82100
H  0.79500 41.77200 30.38200
H  -1.91900 42.49000 30.18600
H  -2.14700 40.32800 30.45600
H  -0.46000 40.00900 30.57500
H  -1.23900 39.74000 29.05800
H  -0.84700 44.36800 30.52400
H  0.80300 44.67600 30.26400
H  -0.32100 44.57400 32.85200
H  1.36500 44.24000 32.48100
H  -5.10400 41.46900 27.07700
H  -5.78600 41.19500 25.55200
H  -6.28000 42.69800 26.26300
H  -7.06400 43.65100 24.39300
H  -6.53700 42.18300 23.39300
H  -7.23900 43.54500 22.64700
H  -0.50500 45.89300 21.02100
H  1.63700 44.09700 20.75500
H  0.12500 43.48900 19.50800
H  -1.37500 44.53300 19.47500
H  -1.23100 43.00700 20.46500
H  1.80700 46.49400 20.39100
H  3.20300 45.78100 21.18100
H  3.19200 47.37300 22.78100
H  1.50600 47.03500 23.31000
H  1.80200 48.08000 21.96600
H  5.75800 44.59100 24.21000
H  6.04500 42.85700 24.30000
H  6.35500 44.06500 25.65100
H  3.25200 43.66500 29.85500
H  4.81500 39.60000 30.29300
H  4.47800 40.11200 31.89600
H  6.02100 40.59500 31.09400
Mg -11.09200 16.65700 41.72900
C  -7.76400 17.37400 41.56100
C  -11.83500 19.99100 41.14500
C  -14.37100 15.85600 41.60300
C  -10.34100 13.25200 42.13100
N  -9.94200 18.42400 41.34500
C  -8.61000 18.44300 41.26800
C  -8.07900 19.83400 40.91700
C  -9.36200 20.75900 41.16200
C  -10.43600 19.66300 41.26200
C  -9.34400 21.51800 42.51900
C  -7.67500 19.89000 39.44000
C  -6.20600 20.33300 39.19200
H  -5.52600 19.65100 38.02300
N  -12.85900 17.76700 41.17300
C  -12.95300 19.09200 41.08500
C  -14.33300 19.41400 40.90000
C  -15.07700 18.21600 40.96700
C  -14.08500 17.20400 41.28400
C  -14.73400 20.82700 40.73800
C  -16.59000 18.13600 40.58600
O  -17.26100 19.15000 40.38800
C  -17.20400 16.74400 40.33500
N  -12.19600 14.75300 41.80400
C  -13.54800 14.70100 41.83100
C  -14.10300 13.30200 42.04300
C  -12.76600 12.41700 42.01900
C  -11.70800 13.51100 41.96700
C  -14.89800 13.12300 43.27600
C  -12.84900 11.39800 40.80400
C  -13.14000 9.91200 41.09100
N  -9.37200 15.46700 41.86600
C  -9.22600 14.14400 42.13000
C  -7.75500 13.82300 41.98100
C  -7.17700 15.12900 41.90400
C  -8.20600 16.06600 41.80100
C  -7.13100 12.49600 41.94500
C  -5.86500 15.80800 41.83500
O  -4.67800 15.44700 41.93500
C  -6.23800 17.31100 41.65100
C  -5.64000 18.10700 42.72300
O  -6.29000 18.65900 43.54100
O  -4.28800 18.05800 42.57700
C  -3.53400 19.11800 43.32300
H  -12.04500 21.05700 41.03000
H  -15.41200 15.60300 41.81500
H  -10.13000 12.19000 42.27200
H  -7.24200 20.16000 41.53500
H  -9.59300 21.44200 40.34400
H  -8.66100 21.05300 43.23100
H  -10.34600 21.63400 42.93200
H  -8.94600 22.50900 42.30200
H  -8.27900 20.47600 38.74800
H  -7.78300 18.89800 39.00200
H  -5.59800 20.31300 40.09600
H  -6.24000 21.36900 38.85500
H  -14.66100 21.14400 39.69800
H  -14.16400 21.47800 41.40100
H  -15.73400 20.79200 41.17000
H  -18.11100 16.89000 39.74900
H  -17.46400 16.19300 41.23900
H  -16.52100 16.20000 39.68300
H  -14.72200 13.17500 41.15400
H  -12.68300 11.84000 42.94000
H  -15.81300 13.68700 43.09300
H  -14.26500 13.60900 44.01900
H  -14.95100 12.07400 43.56800
H  -11.86200 11.42800 40.34200
H  -13.57500 11.79300 40.09300
H  -13.70600 9.81500 42.01700
H  -12.18200 9.41000 41.23100
H  -13.68000 9.49500 40.24100
H  -6.85700 12.38700 40.89500
H  -7.88500 11.71100 41.99900
H  -6.22000 12.35900 42.52800
H  -5.81400 17.74000 40.74300
H  -4.07300 20.06600 43.34100
H  -2.52400 19.20500 42.92300
H  -3.41600 18.79300 44.35600

