158

Mg 26.19300 0.02700 29.34200
C  28.09900 -0.33600 32.22200
C  23.39400 0.65800 31.36900
C  24.24000 0.20800 26.66200
C  28.86000 -1.28100 27.45800
N  25.80100 0.10300 31.54500
C  26.72900 -0.01600 32.57300
C  26.15900 0.12100 33.95200
C  24.59400 0.12000 33.58200
C  24.57100 0.29700 32.10000
C  23.79200 -1.14800 34.12600
C  26.78900 1.35700 34.59300
C  26.01000 1.85900 35.88900
H  26.79700 2.06800 37.15400
N  24.19900 0.46300 29.05600
C  23.20300 0.69400 29.96400
C  21.92000 0.90200 29.31800
C  22.10200 0.86300 27.96100
C  23.56100 0.53900 27.83300
C  20.65300 1.19700 30.07100
C  21.20000 1.11200 26.75900
O  21.54100 1.02000 25.59800
C  19.86000 1.61100 27.01800
N  26.56700 -0.41200 27.36400
C  25.56400 -0.22200 26.44300
C  26.14000 -0.69300 25.07900
C  27.69200 -0.73400 25.28700
C  27.72800 -0.87300 26.80400
C  25.53300 -2.02300 24.47100
C  28.55900 0.49300 24.82800
C  30.03000 0.19900 24.50700
N  28.06600 -0.62900 29.68300
C  29.10000 -1.11400 28.85300
C  30.26900 -1.35500 29.53900
C  30.00000 -1.06200 30.85800
C  28.61400 -0.59900 30.91300
C  31.44800 -2.05600 28.86500
C  30.48900 -1.04500 32.24000
O  31.57800 -1.26700 32.69700
C  29.28300 -0.63200 33.14000
C  29.03000 -1.84200 34.04300
O  28.54800 -2.88600 33.68800
O  29.29900 -1.52800 35.35500
C  29.17200 -2.60800 36.33000
H  22.46300 0.80300 31.92100
H  23.79700 0.29300 25.66800
H  29.66400 -1.60300 26.79300
H  26.34000 -0.78200 34.53400
H  24.19800 1.03500 34.02100
H  24.46500 -1.84000 34.63300
H  23.38700 -1.73300 33.30100
H  23.02600 -0.81000 34.82300
H  26.79100 2.26200 33.98500
H  27.80800 1.15100 34.92000
H  25.07700 1.32000 36.05600
H  25.60500 2.85700 35.72500
H  20.08800 1.99900 29.59700
H  20.69800 1.48900 31.12100
H  19.93300 0.39400 29.91000
H  19.96600 2.56000 27.54500
H  19.29700 0.84300 27.54900
H  19.31800 1.81800 26.09600
H  25.94700 0.11300 24.37100
H  28.07900 -1.63200 24.80500
H  26.22200 -2.86300 24.55700
H  25.17200 -1.80900 23.46500
H  24.66600 -2.30000 25.07100
H  28.58000 1.10700 25.72800
H  28.22400 1.06300 23.96200
H  30.27100 0.72100 23.58100
H  30.17400 -0.88100 24.47700
H  30.68500 0.60600 25.27700
H  32.24000 -2.33600 29.55900
H  31.90100 -1.38600 28.13400
H  31.07100 -2.97800 28.42200
H  29.47000 0.19300 33.82700
H  29.95800 -3.36300 36.34300
H  28.19400 -3.02400 36.08800
H  29.00000 -2.15700 37.30700
Mg 15.96700 51.81400 25.91800
C  17.73700 51.07200 28.86200
C  13.23600 52.60400 27.91300
C  14.37700 52.61100 23.24100
C  18.63500 50.64100 24.00500
N  15.49500 51.71700 28.11500
C  16.44500 51.57100 29.11200
C  15.88800 51.85600 30.43700
C  14.32600 52.12600 30.07300
C  14.31200 52.20000 28.58200
C  13.20800 51.13900 30.59700
C  16.76900 53.00900 31.06200
C  17.00300 52.98800 32.54900
H  16.02700 52.12100 33.32200
N  14.00200 52.47800 25.53600
C  13.13700 52.67500 26.48000
C  11.92800 53.29400 25.83500
C  12.30000 53.41700 24.45900
C  13.60100 52.85500 24.35900
C  10.70600 53.79500 26.59300
C  11.55200 54.13700 23.36300
O  11.95400 54.18200 22.25400
C  10.26700 54.95600 23.60800
N  16.45300 51.58800 23.87500
C  15.61400 51.98900 22.97200
C  16.13600 51.66400 21.51300
C  17.57100 51.18500 21.71500
C  17.65200 51.13700 23.26100
C  15.19900 50.69200 20.69600
C  18.62300 52.16100 21.14400
C  19.33500 51.75400 19.78800
N  17.73600 50.97200 26.31200
C  18.75300 50.63800 25.44500
C  19.92400 50.18200 26.14600
C  19.53200 50.27700 27.50900
C  18.26400 50.78100 27.54100
C  21.25700 49.66900 25.49100
C  19.95900 49.99000 28.89300
O  20.97800 49.48600 29.33700
C  18.84500 50.64100 29.76000
C  18.38500 49.61000 30.79700
O  17.61200 48.70800 30.65300
O  19.13800 49.86100 31.94700
C  18.83800 48.91600 32.97600
H  12.42900 53.06800 28.48400
H  13.92800 52.88000 22.28200
H  19.53200 50.27300 23.50100
H  15.91400 50.88800 30.93700
H  14.25600 53.17200 30.36900
H  13.60800 50.54600 31.41900
H  12.92200 50.41700 29.83100
H  12.32600 51.63200 31.00700
H  16.07700 53.84500 30.96700
H  17.56700 53.23700 30.35500
H  16.95000 54.00700 32.93300
H  18.00400 52.56300 32.63300
H  10.66500 53.24600 27.53400
H  9.80400 53.61900 26.00700
H  10.66100 54.88400 26.58100
H  10.37400 55.64400 24.44700
H  9.50500 54.18000 23.67800
H  10.20400 55.66200 22.77900
H  16.15600 52.55200 20.88100
H  17.75200 50.18000 21.33500
H  14.57500 50.08400 21.35100
H  15.80000 50.13500 19.97800
H  14.51500 51.29500 20.09800
H  19.38000 52.30100 21.91500
H  18.14400 53.12600 20.98100
H  20.39400 51.53100 19.92500
H  19.16200 52.52400 19.03600
H  18.85300 50.82200 19.49500
H  21.55400 50.23200 24.60600
H  21.08100 48.62800 25.21700
H  22.01400 49.77000 26.26800
H  19.25200 51.49100 30.30700
H  18.90400 47.90200 32.58000
H  17.86700 49.05200 33.45200
H  19.56600 49.02300 33.78000

