158

Mg 2.15700 -2.49600 44.60300
C  5.14600 -0.95900 43.74500
C  0.44600 -0.11100 42.86800
C  -0.57900 -4.43500 45.02700
C  4.05100 -5.32200 45.71600
N  2.72100 -0.94800 43.17600
C  4.01600 -0.42400 43.09400
C  4.05900 0.80000 42.23700
C  2.50200 1.07500 41.98000
C  1.83600 -0.09100 42.68000
C  2.09400 2.40100 42.44700
C  4.81700 0.81900 40.85600
C  6.01200 1.84500 40.67400
H  6.76600 1.34400 39.50500
N  0.22000 -2.24600 44.11500
C  -0.34800 -1.18300 43.38300
C  -1.78600 -1.35400 43.23000
C  -2.08900 -2.63100 43.84000
C  -0.81700 -3.16700 44.40100
C  -2.60600 -0.45100 42.27600
C  -3.48200 -3.40100 43.79700
O  -4.48700 -2.84700 43.35000
C  -3.62700 -4.75100 44.32900
N  1.73700 -4.55800 45.47100
C  0.50400 -5.09600 45.42800
C  0.50100 -6.50000 46.03800
C  1.99400 -6.81400 46.02600
C  2.65200 -5.50700 45.81000
C  -0.27200 -6.78300 47.35000
C  2.52900 -7.91500 45.00600
C  3.49800 -8.94400 45.64300
N  4.22100 -3.03200 44.89300
C  4.79300 -4.18500 45.33500
C  6.26100 -4.05200 45.19800
C  6.48300 -2.74100 44.62500
C  5.20600 -2.19400 44.46200
C  7.21900 -5.21200 45.53800
C  7.45700 -1.81400 44.20500
O  8.66900 -1.87500 44.26300
C  6.61500 -0.56600 43.71700
C  7.10200 0.37700 44.77300
O  7.02800 0.15000 45.97400
O  7.25300 1.60600 44.18700
C  7.59400 2.62300 45.23400
H  -0.06900 0.76800 42.47600
H  -1.44500 -5.07400 45.21300
H  4.59400 -6.24100 45.95000
H  4.43100 1.56600 42.91700
H  2.30600 0.91800 40.91900
H  2.89800 3.13700 42.44800
H  1.72600 2.38600 43.47300
H  1.23100 2.81000 41.92300
H  4.10300 1.13800 40.09700
H  5.16100 -0.17900 40.58400
H  6.65400 1.82800 41.55500
H  5.66100 2.85300 40.45400
H  -2.80400 -1.04900 41.38600
H  -2.13600 0.51100 42.07200
H  -3.61100 -0.28200 42.66200
H  -4.63100 -5.09200 44.07700
H  -3.57300 -4.70600 45.41600
H  -2.92200 -5.47200 43.91400
H  0.06500 -7.10900 45.24500
H  2.22100 -7.05500 47.06400
H  0.41300 -7.02700 48.16200
H  -1.02800 -7.56600 47.29200
H  -0.70600 -5.82500 47.63500
H  3.02400 -7.41100 44.17600
H  1.70700 -8.41900 44.49900
H  3.39200 -9.99600 45.37500
H  3.51200 -8.96800 46.73300
H  4.48200 -8.63900 45.28800
H  8.21600 -5.02700 45.13800
H  6.92200 -6.14100 45.05200
H  7.15600 -5.22100 46.62600
H  6.99300 -0.23600 42.74900
H  6.96200 3.50400 45.35100
H  8.53300 3.08400 44.93000
H  7.85500 2.21100 46.20900
Mg 24.36300 -5.58400 46.31500
C  26.73100 -3.30000 44.67900
C  22.11600 -4.78200 43.94700
C  22.61100 -7.96800 47.59800
C  27.28100 -6.62900 48.26600
N  24.41700 -4.14200 44.51100
C  25.45300 -3.38500 44.02900
C  25.02700 -2.61800 42.76100
C  23.48800 -2.93400 42.77800
C  23.32000 -4.02500 43.78000
C  22.63500 -1.63500 43.03700
C  25.78500 -3.10400 41.49900
C  26.32300 -1.84100 40.69600
H  26.30600 -1.71900 39.11600
N  22.58600 -6.26500 45.86300
C  21.75400 -5.75000 44.88600
C  20.42000 -6.41300 45.06000
C  20.59200 -7.46100 46.06500
C  21.93400 -7.19800 46.63500
C  19.25500 -5.82500 44.28500
C  19.51400 -8.59900 46.23500
O  18.45700 -8.63200 45.62000
C  19.78800 -9.76800 47.20000
N  24.91800 -7.17000 47.71200
C  23.91700 -7.97400 48.18100
C  24.54400 -9.13900 48.89400
C  25.95600 -8.65600 49.21800
C  26.08500 -7.38800 48.39700
C  23.76700 -9.56800 50.24000
C  27.20900 -9.63500 48.94000
C  28.43600 -9.54300 49.78500
N  26.47200 -4.98000 46.62000
C  27.45500 -5.48200 47.45800
C  28.67400 -4.73200 47.24800
C  28.36600 -3.82000 46.21700
C  27.08000 -4.09400 45.77600
C  29.92600 -4.87800 48.03400
C  29.00700 -2.81700 45.34200
O  30.09900 -2.39900 45.38600
C  27.95000 -2.59000 44.16600
C  27.79300 -1.14200 44.25600
O  28.18500 -0.31600 43.41300
O  27.26600 -0.83100 45.44400
C  27.07200 0.65200 45.65100
H  21.44700 -4.67000 43.09100
H  22.13500 -8.87000 47.98800
H  28.24400 -6.96800 48.65400
H  25.21300 -1.55800 42.93600
H  23.32600 -3.33300 41.77600
H  21.58100 -1.88700 42.92300
H  22.70500 -0.90200 42.23300
H  22.77300 -1.22900 44.03900
H  25.10800 -3.63200 40.82800
H  26.48500 -3.90300 41.74300
H  27.32800 -1.69500 41.09200
H  25.93500 -0.86900 41.00000
H  19.01200 -4.88300 44.77600
H  18.40100 -6.47600 44.47300
H  19.60900 -5.65300 43.26900
H  20.68300 -10.36000 47.01100
H  19.02100 -10.54000 47.14800
H  19.87100 -9.39200 48.22000
H  24.54800 -10.04600 48.28800
H  26.00300 -8.28200 50.24100
H  23.44800 -10.61000 50.19700
H  22.94400 -8.97400 50.63700
H  24.42700 -9.68900 51.09800
H  27.68200 -9.49000 47.96900
H  26.82300 -10.64600 49.06800
H  29.35200 -9.47800 49.19700
H  28.54900 -10.46700 50.35100
H  28.39300 -8.68300 50.45400
H  29.95500 -5.36800 49.00800
H  30.16100 -3.82300 48.17600
H  30.67000 -5.36600 47.40400
H  28.27000 -2.94300 43.18500
H  25.99700 0.83100 45.63400
H  27.61500 1.19900 44.88100
H  27.53200 0.93200 46.59900

