158

Mg 47.74300 15.25700 27.45700
C  45.58600 14.98000 30.26100
C  49.63000 17.39900 29.32100
C  49.68800 15.36100 24.87100
C  45.40400 13.32400 25.67300
N  47.65100 16.02900 29.57900
C  46.73400 15.74600 30.60800
C  47.05500 16.42200 31.94000
C  48.13400 17.47000 31.43200
C  48.57600 16.87000 30.03300
C  47.54500 18.90200 31.32500
C  47.60500 15.38400 32.98300
C  47.07400 15.58500 34.42900
H  48.12600 15.43800 35.58000
N  49.44000 16.22300 27.15900
C  50.08600 17.02800 28.04200
C  51.34700 17.36900 27.45700
C  51.38200 16.84600 26.10500
C  50.11600 16.13900 25.98100
C  52.45500 18.04000 28.22800
C  52.46600 16.86600 25.02800
O  52.28300 16.37500 23.88100
C  53.76200 17.54800 25.22100
N  47.54000 14.44700 25.55600
C  48.56300 14.61700 24.61900
C  48.28800 13.87500 23.35200
C  46.90800 13.13900 23.62500
C  46.61500 13.67100 25.07700
C  48.18100 14.78500 22.11300
C  47.02200 11.62400 23.65200
C  47.61100 10.85300 22.48000
N  45.85300 14.40300 27.87600
C  45.03900 13.68200 27.03400
C  43.82300 13.35300 27.74600
C  43.97000 13.80200 29.09000
C  45.25300 14.48200 29.05500
C  42.58300 12.54200 27.12700
C  43.40100 13.87100 30.37800
O  42.27800 13.55400 30.74300
C  44.50100 14.59000 31.28300
C  43.80900 15.71400 31.95500
O  43.72600 16.87200 31.56900
O  43.48200 15.32400 33.27300
C  42.97300 16.40400 34.18300
H  50.24600 18.05100 29.94300
H  50.46300 15.08100 24.15500
H  44.63600 12.75300 25.14900
H  46.23400 16.97400 32.39800
H  49.06500 17.47800 32.00100
H  48.29400 19.64700 31.59200
H  46.65900 18.93600 31.95900
H  47.33900 19.27700 30.32200
H  48.68900 15.48800 32.94200
H  47.28700 14.37800 32.70800
H  46.40800 14.76700 34.70200
H  46.60400 16.54400 34.64900
H  51.94000 18.42200 29.10900
H  52.86600 18.81500 27.58000
H  53.11900 17.27400 28.63000
H  53.64800 18.62600 25.33100
H  54.33500 17.28700 24.33100
H  54.12500 17.16900 26.17700
H  49.11100 13.20100 23.11500
H  46.12200 13.42800 22.92800
H  49.19700 14.73500 21.72300
H  47.94600 15.83600 22.28300
H  47.57800 14.21800 21.40400
H  46.00400 11.29300 23.86000
H  47.64000 11.35700 24.50900
H  46.92400 10.08600 22.12200
H  48.58100 10.47700 22.80600
H  47.88000 11.43300 21.59700
H  42.21400 11.63700 27.61100
H  42.76900 12.24100 26.09600
H  41.65600 13.11600 27.15500
H  44.72500 13.91600 32.11000
H  42.80000 15.92000 35.14500
H  42.02700 16.88300 33.93400
H  43.70600 17.19700 34.33400
Mg 15.89600 52.95900 25.07900
C  17.31100 51.72900 28.04600
C  13.10300 53.83000 26.96900
C  14.44500 53.98400 22.25800
C  18.54600 51.72100 23.22700
N  15.44400 52.95500 27.23400
C  16.13500 52.48200 28.26200
C  15.52500 52.79900 29.59900
C  14.11000 53.22000 29.17900
C  14.17400 53.24700 27.68200
C  12.87900 52.33700 29.60500
C  16.29400 53.84800 30.40100
C  16.52100 53.57200 31.94200
H  15.72700 52.46700 32.63400
N  14.08100 53.86800 24.66400
C  13.00900 54.11000 25.58600
C  11.94500 54.71500 24.82600
C  12.32700 54.80700 23.42100
C  13.61100 54.17700 23.41500
C  10.65100 55.07000 25.52400
C  11.59200 55.34100 22.24900
O  12.09300 55.41600 21.12700
C  10.21700 55.85500 22.36700
N  16.43600 52.88300 23.03200
C  15.69500 53.45100 22.00600
C  16.48200 53.34000 20.61300
C  17.83500 52.87700 21.05800
C  17.60700 52.41800 22.45800
C  15.77200 52.45400 19.48100
C  19.00700 53.95100 20.97300
C  20.13000 53.70200 19.89100
N  17.46300 51.74000 25.45000
C  18.47800 51.35600 24.65500
C  19.35800 50.42500 25.40600
C  18.95400 50.57500 26.77700
C  17.82200 51.37700 26.69900
C  20.62400 49.75300 24.81800
C  19.23500 50.25500 28.15000
O  20.16300 49.56800 28.60700
C  18.28000 51.04100 29.05100
C  17.55300 50.18800 30.02900
O  16.49100 49.56400 29.87000
O  18.50300 49.77700 30.93000
C  18.34700 48.72000 31.89000
H  12.30400 54.13900 27.64600
H  14.03000 54.30200 21.29900
H  19.32600 51.32400 22.57400
H  15.37300 51.84500 30.10500
H  13.89700 54.23100 29.52800
H  12.66000 51.73600 28.72300
H  12.04900 52.86000 30.08100
H  13.21800 51.63900 30.37000
H  15.86100 54.84000 30.27700
H  17.25200 53.83800 29.88100
H  16.21900 54.52500 32.37700
H  17.57700 53.37500 32.12800
H  9.88100 54.75700 24.81900
H  10.60200 56.11100 25.84400
H  10.59500 54.41400 26.39200
H  10.08100 56.57200 23.17700
H  9.43300 55.09700 22.38400
H  10.14100 56.42100 21.43900
H  16.72600 54.26300 20.08600
H  18.03600 52.07300 20.35000
H  16.41000 51.88200 18.80800
H  15.18600 53.10200 18.83000
H  15.07400 51.75600 19.94200
H  19.54000 54.07600 21.91500
H  18.57600 54.94500 20.84500
H  21.09800 53.86200 20.36400
H  20.00300 54.36300 19.03400
H  20.01900 52.64200 19.66200
H  21.34000 50.57400 24.82200
H  20.40600 49.48700 23.78300
H  20.89900 48.90200 25.44100
H  18.91400 51.73800 29.59800
H  19.01600 47.89600 31.64100
H  17.36100 48.25500 31.87000
H  18.45800 49.15400 32.88400

