158

Mg 16.58200 -2.27200 27.77200
C  15.54500 -0.25500 30.46500
C  18.51600 -4.14000 29.90400
C  18.16700 -3.50400 25.16500
C  15.05800 0.16100 25.73100
N  17.06000 -2.11000 29.89000
C  16.37100 -1.35400 30.79200
C  16.74000 -1.67300 32.24200
C  17.78400 -2.78800 32.00600
C  17.77800 -3.10500 30.49200
C  19.29700 -2.41800 32.51700
C  15.55500 -2.02100 33.21300
C  15.48500 -1.26800 34.54300
H  16.79100 -0.60200 35.10500
N  18.02200 -3.71800 27.53000
C  18.67600 -4.44000 28.56000
C  19.50200 -5.38100 27.99400
C  19.36300 -5.29600 26.53800
C  18.46500 -4.11600 26.33300
C  20.38200 -6.31900 28.82200
C  19.98100 -6.11400 25.40500
O  19.84300 -5.80300 24.24000
C  20.72500 -7.33000 25.65400
N  16.55800 -1.77400 25.68300
C  17.27500 -2.46500 24.79700
C  17.16400 -1.94100 23.40100
C  15.96300 -0.92100 23.55000
C  15.86400 -0.81100 25.08700
C  18.49300 -1.42500 22.81300
C  14.65300 -1.28400 22.90300
C  13.55200 -1.85400 23.83200
N  15.41900 -0.48700 27.94800
C  14.80000 0.40100 27.04600
C  14.10600 1.43500 27.77200
C  14.37400 1.18600 29.10100
C  15.12100 0.05900 29.20900
C  13.20100 2.43200 27.19400
C  14.09800 1.72300 30.39000
O  13.52000 2.71400 30.75000
C  14.84100 0.73100 31.41800
C  15.77400 1.64600 32.12400
O  16.86100 2.08300 31.70100
O  15.10200 2.18200 33.22800
C  15.94900 3.29000 33.82600
H  18.88900 -4.86200 30.63300
H  18.63300 -3.91900 24.26800
H  14.68300 0.85500 24.97500
H  17.34200 -0.87400 32.67700
H  17.61300 -3.75600 32.47900
H  19.34500 -1.40900 32.92900
H  20.01300 -2.61100 31.71900
H  19.52700 -3.17200 33.27000
H  15.61400 -3.09800 33.36900
H  14.59400 -1.89000 32.71500
H  15.14300 -1.98600 35.28900
H  14.78500 -0.43300 34.51900
H  20.05000 -7.35500 28.75700
H  20.39300 -6.07100 29.88300
H  21.42200 -6.31700 28.49500
H  21.56100 -6.99000 26.26500
H  20.99800 -7.88000 24.75400
H  20.05100 -7.93900 26.25700
H  16.80800 -2.82900 22.87700
H  16.21500 0.08600 23.21900
H  19.13600 -1.08300 23.62400
H  18.33200 -0.56000 22.17000
H  19.00400 -2.20900 22.25500
H  14.83000 -1.93200 22.04400
H  14.24100 -0.33700 22.55500
H  12.69600 -1.19300 23.96300
H  13.85600 -2.28100 24.78800
H  13.12400 -2.59900 23.16000
H  12.18400 2.03900 27.19700
H  13.28800 2.68500 26.13800
H  13.18500 3.35400 27.77500
H  14.15500 0.35200 32.17500
H  16.97500 2.96400 33.99700
H  15.49900 3.47700 34.80100
H  15.92000 4.18800 33.20900
Mg 35.09800 2.85500 29.51100
C  33.00100 3.92600 32.12900
C  37.74300 3.04400 31.69500
C  37.32000 2.59400 26.92600
C  32.48600 3.39700 27.23000
N  35.23900 3.42700 31.70100
C  34.26400 3.72300 32.58800
C  34.81300 3.78500 34.02500
C  36.41700 3.71300 33.80300
C  36.47900 3.31300 32.34900
C  37.15300 5.06400 34.10400
C  34.32000 2.52000 34.86900
C  34.39400 2.54600 36.45000
H  35.15900 3.64400 37.04900
N  37.21400 2.58500 29.39400
C  38.04400 2.61700 30.39500
C  39.34200 2.18200 29.95600
C  39.34900 2.11600 28.54400
C  37.93900 2.39600 28.19200
C  40.52400 2.19100 30.93400
C  40.45500 1.86300 27.54700
O  40.15000 1.71900 26.39500
C  41.98700 1.63100 27.97800
N  34.91500 3.09500 27.37800
C  35.98900 2.93800 26.46400
C  35.46000 2.74200 25.04700
C  33.95700 3.00900 25.17900
C  33.73500 3.15300 26.67000
C  36.12000 3.45500 23.79100
C  32.94900 1.98300 24.51500
C  33.05100 0.53900 25.24600
N  33.18400 3.42400 29.60400
C  32.24300 3.62300 28.56500
C  31.00600 4.05400 29.16600
C  31.26100 4.06600 30.57600
C  32.61200 3.80000 30.79000
C  29.74200 4.37500 28.45700
C  30.59100 4.26800 31.86500
O  29.46600 4.44400 32.17300
C  31.73500 4.19200 32.88900
C  31.76000 5.45800 33.70000
O  32.27100 6.47500 33.32000
O  31.17000 5.26500 34.92700
C  31.20500 6.38400 35.93200
H  38.59100 2.97900 32.38000
H  37.96400 2.35100 26.07800
H  31.62500 3.36400 26.55900
H  34.48900 4.68200 34.55200
H  36.86700 2.88500 34.35000
H  37.76300 5.38000 33.25800
H  37.87900 4.93600 34.90600
H  36.50700 5.89600 34.38300
H  34.88200 1.65800 34.50700
H  33.28000 2.33400 34.60100
H  34.71200 1.57000 36.81700
H  33.39100 2.70800 36.84400
H  40.89700 3.16900 31.23700
H  41.33200 1.59000 30.51700
H  40.32600 1.54200 31.78700
H  42.58300 1.29000 27.13200
H  42.09200 0.88100 28.76200
H  42.40200 2.57700 28.32800
H  35.47500 1.65800 24.93400
H  33.71300 3.99000 24.76900
H  36.19700 2.73300 22.97800
H  37.15400 3.72900 24.00100
H  35.46400 4.31100 23.63300
H  33.19600 1.76400 23.47600
H  31.92000 2.32400 24.62400
H  33.38600 -0.15100 24.47200
H  32.11900 0.23800 25.72400
H  33.89300 0.49200 25.93600
H  29.33500 3.50300 27.94500
H  29.97100 5.12800 27.70300
H  28.96800 4.78500 29.10500
H  31.44900 3.44200 33.62600
H  31.22700 6.04400 36.96800
H  30.35800 7.04900 35.76500
H  32.07200 7.03700 35.84300

