158

Mg 1.87500 -2.18100 44.36300
C  5.26900 -0.96800 44.04100
C  0.98100 0.42400 42.46400
C  -1.03100 -3.65100 44.20300
C  3.25800 -5.15700 45.81200
N  3.01900 -0.55900 43.14100
C  4.38600 -0.28400 43.22700
C  4.65400 0.99200 42.48700
C  3.22500 1.63200 42.41400
C  2.35000 0.45000 42.80300
C  3.08300 2.94300 43.35100
C  5.45200 0.75600 41.17700
C  6.86000 1.37800 41.26800
H  7.93100 1.22300 40.20100
N  0.17600 -1.68400 43.42400
C  -0.07100 -0.50200 42.71400
C  -1.48900 -0.26100 42.48000
C  -2.08400 -1.50100 43.02600
C  -0.96500 -2.33600 43.57500
C  -2.06000 0.91200 41.75200
C  -3.55500 -1.79000 42.87500
O  -4.29600 -0.95600 42.36900
C  -4.16900 -3.05800 43.44800
N  1.21100 -4.13200 44.97700
C  -0.04500 -4.46700 44.69300
C  -0.41700 -5.89200 45.24000
C  0.99500 -6.36300 45.78600
C  1.90600 -5.19300 45.44700
C  -1.46300 -5.99300 46.37500
C  1.50700 -7.75800 45.30800
C  2.10600 -8.68500 46.42400
N  3.79500 -2.92000 44.92300
C  4.18400 -4.09600 45.55700
C  5.60300 -4.03300 45.91600
C  5.97200 -2.75200 45.43100
C  4.89100 -2.19800 44.72200
C  6.37100 -5.03900 46.65000
C  7.18000 -1.87200 45.26000
O  8.31700 -2.00200 45.62100
C  6.71300 -0.68600 44.33400
C  6.96600 0.49800 45.18100
O  6.31800 0.71500 46.18500
O  8.02200 1.31200 44.72600
C  8.13600 2.60200 45.49100
H  0.63500 1.36400 42.03000
H  -2.02900 -4.08200 44.31300
H  3.56400 -6.07500 46.31700
H  5.22800 1.58000 43.20400
H  3.11800 2.05500 41.41500
H  2.24400 3.04500 44.04000
H  3.00600 3.68500 42.55700
H  3.99900 3.16900 43.89800
H  4.96600 1.27400 40.35000
H  5.57500 -0.30500 40.95700
H  7.26900 1.21500 42.26500
H  6.58700 2.43300 41.25700
H  -3.00600 1.20900 42.20600
H  -2.19500 0.76400 40.68000
H  -1.49600 1.83400 41.89100
H  -4.04900 -3.98200 42.88300
H  -5.22700 -2.81600 43.35400
H  -3.87600 -3.04700 44.49800
H  -0.69100 -6.43800 44.33800
H  0.91000 -6.30700 46.87100
H  -1.51500 -4.98400 46.78300
H  -1.14900 -6.66500 47.17400
H  -2.40300 -6.27300 45.89800
H  2.33200 -7.52100 44.63700
H  0.82900 -8.36800 44.71100
H  1.72200 -9.68500 46.22200
H  1.84300 -8.31100 47.41300
H  3.18700 -8.58600 46.32400
H  6.08700 -5.05700 47.70200
H  7.43800 -4.86100 46.51600
H  6.23000 -5.99500 46.14500
H  7.39300 -0.73000 43.48300
H  7.27200 3.21500 45.23600
H  8.93100 3.21000 45.05900
H  8.17200 2.43500 46.56700
Mg -11.70100 16.68300 41.30500
C  -8.86600 14.86800 40.83900
C  -10.28300 19.38200 39.73700
C  -14.79200 18.17000 41.27600
C  -13.40200 13.73300 42.26100
N  -9.88200 16.92300 40.09700
C  -8.76300 16.13800 40.27800
C  -7.47600 16.76600 39.70000
C  -8.02200 18.18300 39.26500
C  -9.50500 18.23400 39.82400
C  -7.09500 19.41300 39.76600
C  -6.87000 15.98400 38.45600
C  -5.44800 16.36200 38.20400
H  -5.18400 16.81300 36.79400
N  -12.37900 18.63100 40.75900
C  -11.66000 19.53600 40.08800
C  -12.46600 20.69900 39.78800
C  -13.74500 20.49500 40.43200
C  -13.72500 19.05000 40.87300
C  -11.98500 21.90900 38.91200
C  -14.84300 21.49900 40.41400
O  -14.72100 22.59400 39.86200
C  -16.26500 21.22600 41.02100
N  -13.78400 16.04700 41.51200
C  -14.89600 16.86600 41.47200
C  -16.16600 16.12300 41.76600
C  -15.75400 14.69000 42.13200
C  -14.21600 14.79500 41.99700
C  -17.17200 16.82800 42.70700
C  -16.47600 13.57000 41.40800
C  -17.44100 12.54900 42.21900
N  -11.23300 14.63400 41.55200
C  -12.00000 13.61700 42.08500
C  -11.09800 12.49400 42.24500
C  -9.87800 12.94900 41.80800
C  -9.99800 14.26000 41.35900
C  -11.54100 11.10900 42.65900
C  -8.47100 12.49900 41.54600
O  -7.94200 11.40600 41.61100
C  -7.75700 13.77400 40.97000
C  -6.79200 14.20100 42.05700
O  -7.06300 14.80400 43.04600
O  -5.46600 13.92000 41.76300
C  -4.56900 14.05200 42.86400
H  -9.79400 20.15600 39.14200
H  -15.76800 18.64400 41.40100
H  -13.80800 12.77900 42.60500
H  -6.73200 16.93400 40.47900
H  -7.99500 18.39500 38.19600
H  -7.18300 20.18200 38.99800
H  -6.11100 18.98300 39.95200
H  -7.54800 19.98000 40.58000
H  -7.55600 16.24200 37.64900
H  -7.01300 14.91300 38.59600
H  -4.87600 15.45200 38.38800
H  -5.11300 17.09900 38.93300
H  -12.19400 22.85400 39.41300
H  -12.62300 21.85900 38.03000
H  -10.90700 21.98000 38.76700
H  -16.78200 22.18400 40.97200
H  -16.13000 20.93100 42.06200
H  -16.81000 20.47500 40.44800
H  -16.59400 16.10500 40.76400
H  -16.00600 14.52000 43.17900
H  -16.78500 17.79600 43.02700
H  -17.59800 16.18000 43.47300
H  -18.12700 17.02000 42.21900
H  -15.75600 13.20000 40.67800
H  -17.20200 14.08400 40.77800
H  -18.48300 12.70500 41.93800
H  -17.18500 12.59500 43.27700
H  -17.13700 11.57500 41.83500
H  -11.89100 10.64400 41.73700
H  -12.28000 11.01200 43.45400
H  -10.66700 10.65400 43.12500
H  -7.18800 13.42800 40.10600
H  -4.44900 15.12800 42.98800
H  -3.57200 13.73200 42.56100
H  -4.85900 13.55300 43.78800

