158

Mg 45.93200 34.14200 28.00400
C  44.51200 32.06200 30.50000
C  45.67200 36.83400 30.12900
C  47.17900 36.18600 25.65300
C  45.95800 31.40000 25.87900
N  45.10900 34.38400 30.04900
C  44.84000 33.38400 30.92800
C  44.87600 33.90000 32.36400
C  44.88400 35.49500 32.17400
C  45.21400 35.58800 30.70600
C  43.65500 36.29000 32.63600
C  46.06600 33.25400 33.23900
C  46.96800 34.18300 33.97800
H  46.58000 34.67500 35.38000
N  46.32300 36.19800 27.93600
C  46.15200 37.09500 28.90800
C  46.66300 38.40700 28.53200
C  47.21200 38.31100 27.22600
C  46.89600 36.85600 26.87100
C  46.60200 39.55500 29.46400
C  47.91100 39.43700 26.28700
O  48.23300 39.25200 25.10100
C  48.07700 40.81600 26.86000
N  46.33600 33.90500 25.95000
C  46.89600 34.88800 25.24800
C  47.45800 34.30800 23.86500
C  47.12500 32.76300 23.98400
C  46.41900 32.66600 25.33700
C  46.87700 34.94000 22.62500
C  48.28100 31.80500 23.90100
C  48.28200 31.00000 22.64900
N  45.28600 32.17900 28.05000
C  45.44600 31.17300 27.16700
C  44.83500 29.94600 27.68600
C  44.54100 30.19300 29.01600
C  44.77500 31.59800 29.17600
C  44.66900 28.53200 26.96700
C  44.09800 29.59700 30.30600
O  43.92200 28.44600 30.63400
C  43.81900 30.84100 31.22500
C  44.14300 30.49500 32.63800
O  45.09200 29.83600 33.04300
O  43.15800 31.07700 33.41100
C  43.27700 30.89400 34.83800
H  45.81200 37.52800 30.96000
H  47.74100 36.82700 24.97100
H  45.86800 30.59200 25.14900
H  43.94200 33.62200 32.85100
H  45.74900 35.91600 32.68800
H  43.86500 36.85900 33.54200
H  42.78300 35.64800 32.76200
H  43.42800 37.11000 31.95500
H  46.66200 32.57100 32.63200
H  45.69400 32.64100 34.06000
H  47.51400 34.93800 33.41100
H  47.79800 33.50800 34.18700
H  47.59600 39.99400 29.38600
H  46.30500 39.26300 30.47100
H  45.84200 40.30600 29.24700
H  47.10400 41.27400 27.03600
H  48.77000 41.38800 26.24400
H  48.65800 40.79300 27.78200
H  48.54300 34.38000 23.93700
H  46.34300 32.48100 23.27900
H  47.32200 35.93000 22.52800
H  45.83400 35.17800 22.83100
H  47.05100 34.26600 21.78600
H  48.25700 31.12100 24.74900
H  49.18800 32.39300 24.04100
H  49.24700 30.58000 22.36300
H  47.87300 31.72100 21.94200
H  47.55300 30.19100 22.70200
H  45.43200 28.54800 26.18800
H  43.76600 28.33300 26.39000
H  44.93300 27.76900 27.69900
H  42.74400 31.00300 31.15000
H  43.51000 29.87600 35.15000
H  42.29400 30.99200 35.29700
H  43.97600 31.60400 35.27900
Mg 15.46600 51.72500 25.08400
C  17.47200 50.79800 27.88500
C  12.85700 52.18700 27.27800
C  13.52500 52.42200 22.41000
C  17.85400 50.43000 23.00700
N  15.25400 51.61000 27.30300
C  16.24200 51.30400 28.27700
C  15.70200 51.68900 29.66300
C  14.14100 51.83200 29.40100
C  14.07100 51.87700 27.90400
C  13.26700 50.74100 29.96900
C  16.46000 52.89700 30.17100
C  16.47100 53.24900 31.69500
H  15.67600 52.34000 32.66100
N  13.49000 52.34500 24.86600
C  12.56100 52.35500 25.84600
C  11.26800 52.68100 25.38200
C  11.40700 52.64900 23.97200
C  12.85000 52.48600 23.69300
C  10.07600 52.87400 26.24700
C  10.36900 52.70200 22.85400
O  10.56400 52.78700 21.64900
C  8.88900 52.66500 23.28200
N  15.68900 51.56600 23.00100
C  14.79500 52.05100 22.11600
C  15.44300 52.19400 20.72100
C  16.80100 51.36500 20.89400
C  16.77200 51.02400 22.35700
C  14.70600 51.66400 19.45700
C  18.13000 51.96800 20.37100
C  18.77000 51.37000 19.18000
N  17.33300 50.86600 25.38200
C  18.16700 50.36500 24.43600
C  19.33500 49.78300 25.08200
C  19.11200 49.89700 26.44800
C  17.87900 50.56500 26.58000
C  20.46200 49.07000 24.34200
C  19.58400 49.56500 27.72000
O  20.61000 49.01800 28.06600
C  18.57100 50.19600 28.73400
C  18.10500 49.09900 29.48900
O  17.27700 48.28400 29.19600
O  18.74900 49.16800 30.71700
C  18.46800 48.23500 31.79900
H  12.06000 52.26600 28.02000
H  13.01700 52.72500 21.49200
H  18.63000 50.07000 22.32900
H  15.90100 50.92500 30.41500
H  13.83100 52.81300 29.76000
H  12.72900 51.21100 30.79200
H  13.93300 49.91800 30.22900
H  12.62900 50.42800 29.14300
H  16.07700 53.77800 29.65600
H  17.48300 52.68900 29.85600
H  16.20300 54.30300 31.77400
H  17.51800 53.06700 31.93700
H  10.43700 53.28100 27.19200
H  9.50000 51.95800 26.38200
H  9.41700 53.66900 25.89900
H  8.91900 51.75200 23.87600
H  8.35900 52.31700 22.39500
H  8.67000 53.56000 23.86300
H  15.66100 53.24300 20.52200
H  16.69900 50.36100 20.48100
H  15.31600 50.97900 18.86900
H  14.48000 52.50500 18.80100
H  13.82000 51.11100 19.76800
H  18.83100 52.20700 21.17100
H  17.89800 52.95900 19.98100
H  18.83200 52.06200 18.34100
H  18.19000 50.54100 18.77600
H  19.76700 50.96000 19.34700
H  20.97500 49.79800 23.71400
H  20.03200 48.29200 23.71200
H  21.08100 48.62000 25.11900
H  19.16300 50.89700 29.32300
H  19.04900 48.39900 32.70700
H  18.64800 47.22200 31.44000
H  17.43800 48.26200 32.15500

