158

Mg 45.20100 4.69900 46.50700
C  42.96900 7.45500 46.58600
C  42.26800 2.74000 46.13900
C  47.13400 2.10200 45.71100
C  47.85600 6.95100 46.06000
N  42.85600 5.09500 46.33600
C  42.25500 6.30200 46.45800
C  40.69800 6.18200 46.32300
C  40.48500 4.65000 46.36700
C  41.97700 4.10800 46.35700
C  39.59300 4.09600 47.51700
C  40.03300 6.94800 45.08300
C  40.81300 6.77500 43.77500
H  40.11000 6.23700 42.50600
N  44.71200 2.69100 45.95100
C  43.47600 2.09000 45.92300
C  43.73300 0.64800 45.87100
C  45.08600 0.48100 45.44200
C  45.73400 1.81700 45.67500
C  42.61100 -0.32400 45.70500
C  45.76800 -0.76400 44.92900
O  45.19900 -1.84200 44.87500
C  47.12100 -0.76600 44.30600
N  47.20300 4.59000 45.93500
C  47.82600 3.39000 45.77500
C  49.33400 3.53100 45.47600
C  49.50100 5.10800 45.63700
C  48.09600 5.61800 45.85300
C  50.39400 2.75800 46.32800
C  50.23400 5.85600 44.45700
C  49.39200 5.96500 43.18800
N  45.41900 6.72800 46.43500
C  46.58200 7.55200 46.32100
C  46.16900 8.94200 46.62400
C  44.80500 8.93000 46.67700
C  44.36000 7.57900 46.57400
C  47.06800 10.17400 46.55100
C  43.71200 9.78900 46.83000
O  43.54200 11.01200 46.86600
C  42.40100 8.80800 46.77600
C  41.71100 8.88800 48.12200
O  41.94800 8.14800 49.08800
O  40.67000 9.79300 48.01200
C  39.83300 10.00000 49.20700
H  41.38400 2.10900 46.25300
H  47.75700 1.20600 45.67900
H  48.70000 7.64100 46.00100
H  40.39800 6.73500 47.21300
H  40.04700 4.30500 45.43000
H  38.85700 3.37200 47.16600
H  38.95800 4.91000 47.86600
H  40.20100 3.62800 48.29100
H  39.98400 8.01300 45.31300
H  38.96400 6.73700 45.11100
H  41.60200 6.03500 43.90800
H  41.27300 7.71500 43.47000
H  42.39800 -0.95300 46.56900
H  42.79200 -1.02600 44.89100
H  41.63900 0.15900 45.60800
H  47.85200 -0.90400 45.10300
H  47.20200 0.11100 43.66300
H  47.24400 -1.61600 43.63600
H  49.46700 3.15300 44.46300
H  49.98600 5.29700 46.59400
H  49.92600 2.37200 47.23300
H  51.25700 3.38200 46.56300
H  50.85700 1.94200 45.77400
H  51.11800 5.34000 44.08200
H  50.55600 6.87300 44.67900
H  49.98800 5.46000 42.42700
H  49.17500 6.92800 42.72800
H  48.41600 5.49700 43.31200
H  46.67500 11.19000 46.58300
H  47.60000 10.30100 45.60800
H  47.76400 10.23600 47.38800
H  41.71500 9.15100 46.00100
H  39.97000 9.06400 49.74700
H  38.84700 10.39900 48.96600
H  40.35700 10.76200 49.78300
Mg 16.47200 51.25200 26.17900
C  18.31900 49.75400 28.74500
C  14.19400 52.24400 28.45500
C  14.96700 52.65100 23.72400
C  19.02400 50.03300 24.07700
N  16.23800 50.97800 28.36600
C  17.16200 50.53000 29.25900
C  16.75600 50.83700 30.70300
C  15.24200 51.19800 30.61600
C  15.22400 51.52300 29.04400
C  14.17000 50.07800 30.97100
C  17.79900 51.71900 31.33000
C  17.81100 51.87800 32.82300
H  16.77500 51.12800 33.65600
N  14.75800 52.32600 26.06000
C  14.01300 52.62900 27.09400
C  13.01000 53.57100 26.63700
C  13.16800 53.75800 25.20400
C  14.30500 52.85800 24.91600
C  11.91100 54.08800 27.53100
C  12.31000 54.46600 24.17400
O  12.57000 54.48700 22.94000
C  10.93300 54.96100 24.50100
N  16.83600 51.06800 24.20700
C  16.03300 51.85400 23.37600
C  16.64300 51.92100 21.97700
C  17.95700 51.06400 22.14600
C  17.98400 50.67200 23.57900
C  15.61800 51.47800 20.95700
C  19.19500 51.79200 21.58500
C  19.69000 53.06000 22.31400
N  18.21000 49.98600 26.32500
C  19.16200 49.59800 25.38600
C  20.31000 48.90100 25.95900
C  19.94900 48.84200 27.36300
C  18.72700 49.59000 27.49300
C  21.56800 48.47300 25.23500
C  20.36200 48.44300 28.71800
O  21.34800 47.87200 29.14300
C  19.40700 49.18600 29.66700
C  18.95600 48.25000 30.68900
O  17.96200 47.51400 30.48200
O  19.61500 48.43100 31.85700
C  19.11800 47.53500 32.99100
H  13.54900 52.66400 29.23000
H  14.58500 53.36300 22.99000
H  19.85700 49.83900 23.39800
H  16.90400 49.82500 31.07900
H  15.03800 52.12500 31.15300
H  14.74700 49.17800 31.18300
H  13.58000 49.96000 30.06200
H  13.44400 50.17600 31.77900
H  17.69600 52.73700 30.95400
H  18.76900 51.38700 30.96100
H  17.74200 52.95300 32.98900
H  18.80800 51.53500 33.09900
H  11.72500 55.13200 27.28000
H  12.12400 53.84900 28.57300
H  11.00400 53.51200 27.34900
H  10.98100 55.68500 25.31400
H  10.50800 54.04100 24.90200
H  10.38100 55.22300 23.59800
H  16.94500 52.96200 21.86800
H  17.87700 50.14200 21.57100
H  15.10600 52.30600 20.46600
H  14.87100 50.87700 21.47700
H  16.08600 50.91500 20.15000
H  18.88000 52.09900 20.58800
H  20.08200 51.16200 21.52500
H  19.51000 53.95200 21.71500
H  20.70900 53.02800 22.69800
H  19.06900 53.23500 23.19300
H  21.94000 49.24600 24.56300
H  21.43600 47.51700 24.72800
H  22.33000 48.36000 26.00600
H  20.01200 50.03700 29.98200
H  18.78600 48.22200 33.76900
H  20.02000 46.96800 33.22300
H  18.21400 46.94900 32.82400

