158

Mg 9.29900 47.47100 26.43700
C  7.35200 47.88900 29.42900
C  12.14100 48.36800 28.17500
C  11.01600 47.27600 23.61300
C  6.28600 46.62800 24.77300
N  9.63800 48.25600 28.50600
C  8.70800 48.21200 29.57800
C  9.36600 48.60300 30.87000
C  10.83400 49.10200 30.39200
C  10.88900 48.58100 28.91700
C  11.23300 50.59000 30.45500
C  9.67400 47.35900 31.80900
C  9.13600 47.52400 33.20500
H  9.35100 46.37300 34.24900
N  11.27200 47.67800 26.01600
C  12.32200 47.95400 26.87000
C  13.60400 48.01400 26.17700
C  13.33200 47.79300 24.83100
C  11.85700 47.56200 24.75200
C  14.96700 48.35100 26.85400
C  14.20700 47.60900 23.63500
O  13.75700 47.30300 22.56300
C  15.59900 47.88200 23.77700
N  8.76300 47.01500 24.54400
C  9.70000 46.95700 23.53700
C  9.04900 46.53800 22.24100
C  7.59400 46.16700 22.61600
C  7.49200 46.71000 24.04500
C  9.10900 47.62100 21.07300
C  7.29900 44.73400 22.38400
C  8.10500 43.68400 23.12900
N  7.20900 47.32500 26.90500
C  6.14400 47.04400 26.06900
C  4.98400 47.09000 26.89800
C  5.39500 47.33800 28.19400
C  6.79500 47.55300 28.20600
C  3.57100 46.98100 26.38200
C  4.92000 47.55400 29.56000
O  3.85800 47.63700 30.10400
C  6.19000 47.79600 30.42000
C  6.30900 46.55300 31.30200
O  6.68400 45.44100 30.99500
O  5.82900 46.79700 32.57900
C  5.88800 45.74400 33.56100
H  12.98200 48.76900 28.74500
H  11.35400 47.32100 22.57500
H  5.45800 46.30400 24.13900
H  8.79800 49.42900 31.29700
H  11.66900 48.64500 30.92300
H  11.98900 50.68900 29.67600
H  11.51900 50.95500 31.44100
H  10.22700 50.95500 30.24400
H  10.72500 47.19000 32.04200
H  9.12900 46.48300 31.45800
H  8.05100 47.58200 33.12200
H  9.41800 48.49900 33.60100
H  15.63300 47.49800 26.72900
H  15.01600 48.67200 27.89400
H  15.43900 49.24300 26.44300
H  16.16600 47.76100 22.85400
H  15.81700 47.08200 24.48500
H  15.70300 48.85200 24.26400
H  9.67700 45.74300 21.83900
H  6.89400 46.82800 22.10500
H  9.53800 47.18000 20.17300
H  9.80700 48.41300 21.34100
H  8.11900 47.99800 20.81500
H  7.25200 44.49100 21.32300
H  6.29000 44.60400 22.77500
H  9.05200 44.01500 23.55500
H  8.26400 42.82000 22.48300
H  7.65400 43.27700 24.03300
H  2.87900 47.52900 27.02100
H  3.24100 45.96300 26.17200
H  3.51900 47.50600 25.42800
H  6.16100 48.75000 30.94600
H  4.92100 45.24400 33.61100
H  5.89100 46.25900 34.52200
H  6.72100 45.05400 33.42300
Mg -1.87900 34.18500 27.31400
C  -3.58300 32.14900 29.75200
C  -0.62600 36.03100 30.08600
C  -0.61800 36.45600 25.24000
C  -3.55100 32.58300 24.81600
N  -2.12200 34.08300 29.62800
C  -2.88400 33.24900 30.36800
C  -2.86400 33.51100 31.83200
C  -2.03200 34.86600 31.84800
C  -1.52400 35.04700 30.48300
C  -2.95100 36.10800 32.32900
C  -2.16900 32.33300 32.55700
C  -2.95700 31.70700 33.79400
H  -2.23500 31.77400 35.15400
N  -0.67300 35.89300 27.64800
C  -0.17200 36.39500 28.83900
C  0.77800 37.46100 28.49900
C  0.72700 37.69800 27.09500
C  -0.23700 36.70500 26.60000
C  1.61700 38.18000 29.45400
C  1.32700 38.72700 26.25200
O  1.12200 38.91300 25.06400
C  2.35400 39.61700 26.87700
N  -2.06500 34.46500 25.31900
C  -1.51900 35.55300 24.71300
C  -1.93500 35.57900 23.22900
C  -2.53800 34.19200 23.07600
C  -2.77200 33.74400 24.48200
C  -2.97600 36.76400 22.91200
C  -1.70400 33.20000 22.15400
C  -0.94300 32.08400 22.88800
N  -3.23000 32.67600 27.22000
C  -3.75700 32.10000 26.07800
C  -4.71400 31.10300 26.50900
C  -4.59500 31.07800 27.88500
C  -3.68800 32.03400 28.26500
C  -5.59100 30.25400 25.60300
C  -5.09600 30.38500 29.05800
O  -5.88000 29.44200 29.13900
C  -4.48100 31.03900 30.30400
C  -5.67500 31.53000 31.08900
O  -6.54100 32.28400 30.74200
O  -5.62900 30.90300 32.30900
C  -6.79700 30.82000 33.20500
H  -0.17500 36.70900 30.81400
H  -0.27000 37.21000 24.53000
H  -4.07900 32.25200 23.91900
H  -3.88500 33.76600 32.11600
H  -1.23700 34.78700 32.59000
H  -2.45400 36.50300 33.21500
H  -3.97600 35.76400 32.46900
H  -2.92800 36.88600 31.56600
H  -1.17800 32.70400 32.81700
H  -2.03400 31.58100 31.77900
H  -3.28500 30.69000 33.57800
H  -3.90600 32.22600 33.92900
H  1.53900 37.71300 30.43600
H  1.18100 39.17900 29.44200
H  2.61100 38.04000 29.02800
H  1.95100 40.19800 27.70700
H  2.73500 40.33800 26.15400
H  3.20100 39.06700 27.28500
H  -1.08100 35.77000 22.57900
H  -3.54200 34.31900 22.67300
H  -3.90400 36.47800 22.41800
H  -2.48100 37.60800 22.43000
H  -3.33700 37.06000 23.89700
H  -0.96900 33.69600 21.52000
H  -2.36000 32.76800 21.39800
H  -0.43600 32.53000 23.74400
H  -0.17200 31.70400 22.21900
H  -1.65200 31.30500 23.17000
H  -6.49500 30.00900 26.16100
H  -5.11300 29.33800 25.25500
H  -5.90800 30.89600 24.78200
H  -3.85500 30.32100 30.83400
H  -6.92500 29.79000 33.53900
H  -7.72300 31.04900 32.67800
H  -6.61300 31.42200 34.09500

