158

Mg 43.79200 4.51400 47.85600
C  41.62900 7.20000 47.23100
C  41.26000 2.36900 47.52600
C  46.05000 2.11600 47.65100
C  46.54100 6.91200 47.82400
N  41.68300 4.70100 47.36000
C  41.01800 5.90200 47.23400
C  39.48700 5.65500 47.10600
C  39.31200 4.11000 47.40100
C  40.77800 3.71300 47.61600
C  38.36300 3.70300 48.58400
C  39.05500 6.06700 45.64300
C  37.82900 6.93600 45.45900
H  37.10900 6.85000 44.11800
N  43.64900 2.51000 47.58100
C  42.51800 1.82400 47.53900
C  42.83100 0.38900 47.55300
C  44.26600 0.27300 47.41800
C  44.74000 1.67600 47.54700
C  41.70400 -0.63200 47.62200
C  45.01800 -1.04500 47.30900
O  44.45000 -2.12400 47.31100
C  46.50400 -1.00800 47.08600
N  45.94200 4.49600 47.66500
C  46.58000 3.34000 47.76800
C  48.14600 3.54300 47.84100
C  48.31100 5.11300 47.75000
C  46.81800 5.55400 47.74700
C  48.81900 2.87300 49.10100
C  49.01000 5.62900 46.47000
C  50.42200 6.07500 46.63000
N  44.07900 6.65400 47.73600
C  45.24000 7.47100 47.66500
C  44.78100 8.86800 47.53300
C  43.38600 8.86100 47.49200
C  42.98900 7.46800 47.44200
C  45.67200 10.04700 47.29900
C  42.16900 9.61700 47.31300
O  42.07000 10.84900 47.33000
C  40.96600 8.52800 47.06900
C  39.92100 8.81400 48.05900
O  39.89900 8.40400 49.18100
O  38.84000 9.49500 47.46000
C  37.72500 9.82800 48.38400
H  40.42300 1.66900 47.49000
H  46.86400 1.39300 47.73300
H  47.33400 7.66200 47.85000
H  38.99400 6.26500 47.86300
H  38.92900 3.62200 46.50400
H  37.61900 2.96000 48.29700
H  37.73900 4.53700 48.90500
H  38.94500 3.37400 49.44500
H  38.75100 5.15200 45.13600
H  39.88300 6.52400 45.10200
H  38.19200 7.96300 45.41700
H  37.12400 6.78000 46.27500
H  40.83200 -0.31300 48.19300
H  42.21000 -1.40300 48.20400
H  41.35200 -1.10400 46.70500
H  46.86800 -0.40100 46.25800
H  46.85500 -1.99000 46.76900
H  47.09000 -0.78300 47.97800
H  48.58400 3.17200 46.91400
H  48.63600 5.64600 48.64300
H  49.59100 2.13200 48.89400
H  48.03100 2.51400 49.76300
H  49.29500 3.70900 49.61400
H  48.42900 6.40900 45.97700
H  49.03700 4.86500 45.69200
H  50.83800 5.78200 45.66500
H  50.97900 5.55000 47.40600
H  50.60600 7.13700 46.79100
H  46.37500 9.83100 46.49400
H  46.16900 10.34600 48.22200
H  44.95000 10.83100 47.07100
H  40.41100 8.74500 46.15700
H  37.61300 9.02800 49.11600
H  36.80300 10.18100 47.92200
H  38.10500 10.70000 48.91500
Mg 47.20900 16.00400 28.35700
C  45.09000 15.94800 31.26000
C  49.44900 17.89800 30.38000
C  49.19700 16.15400 25.77000
C  44.71100 14.49900 26.57300
N  47.19400 16.94400 30.50700
C  46.38000 16.52400 31.52000
C  46.81100 17.01900 32.84100
C  48.06400 17.89500 32.57200
C  48.27000 17.59100 31.06700
C  48.03500 19.37400 32.96800
C  47.07300 15.84300 33.82300
C  46.64200 16.00000 35.29000
H  46.10300 17.38300 35.80800
N  49.07900 16.84400 28.10100
C  49.83700 17.63900 29.02400
C  51.04500 18.02600 28.37500
C  51.00900 17.58100 27.03400
C  49.71600 16.85200 26.87400
C  52.23700 18.72900 29.05900
C  52.02200 17.78300 25.91600
O  51.91600 17.18900 24.86800
C  53.10400 18.80300 25.94400
N  46.95000 15.37900 26.48200
C  47.89000 15.61400 25.53300
C  47.47100 15.16400 24.14100
C  46.08100 14.59800 24.42600
C  45.88800 14.78900 25.94600
C  47.46600 16.28900 23.03700
C  45.90100 13.08200 24.05200
C  46.36300 12.03700 25.07700
N  45.26300 15.26600 28.80600
C  44.36600 14.64500 27.90600
C  43.29600 14.24800 28.73100
C  43.47300 14.76500 30.03700
C  44.74400 15.39400 30.01200
C  42.11800 13.49700 28.12600
C  42.83100 14.99100 31.28800
O  41.72100 14.73800 31.66000
C  43.89300 15.69300 32.18400
C  43.32200 16.99000 32.66500
O  43.42600 18.05600 32.06700
O  42.60400 16.69800 33.81300
C  41.87200 17.81300 34.36600
H  50.31700 18.31400 30.89500
H  49.79500 16.26800 24.86400
H  43.92200 13.98700 26.01900
H  46.09300 17.73100 33.24800
H  48.88200 17.41300 33.10700
H  47.18200 19.67400 33.57600
H  48.07400 20.11000 32.16500
H  48.90100 19.56200 33.60300
H  48.12800 15.56900 33.83300
H  46.50600 15.01500 33.39700
H  47.50300 15.79500 35.92700
H  45.91100 15.23400 35.54700
H  52.96700 17.92100 29.10100
H  52.11300 18.81300 30.13900
H  52.73600 19.61200 28.65900
H  53.91800 18.32500 26.49000
H  52.77200 19.75400 26.36000
H  53.53500 19.03600 24.97100
H  48.08900 14.32800 23.81300
H  45.36100 15.21900 23.89200
H  47.01400 15.88600 22.13100
H  48.49700 16.53700 22.78400
H  47.09000 17.25800 23.36500
H  46.11400 12.91200 22.99700
H  44.83500 12.87400 24.14700
H  45.55600 11.48900 25.56300
H  46.95700 12.45900 25.88900
H  47.10000 11.35000 24.66100
H  41.88400 12.71000 28.84300
H  42.39200 13.05600 27.16800
H  41.27300 14.16500 27.96000
H  44.11600 15.02600 33.01700
H  41.41500 18.48700 33.64100
H  42.35000 18.46300 35.09800
H  41.09300 17.35200 34.97400

