158

Mg 9.03200 3.96800 27.15800
C  10.04900 2.26200 30.07000
C  7.09900 6.05500 28.97500
C  7.95700 5.15000 24.26000
C  10.52900 1.24400 25.31300
N  8.64300 4.04700 29.37300
C  9.22100 3.31700 30.37600
C  8.87000 3.98500 31.79000
C  7.75200 5.02900 31.38700
C  7.83900 5.09600 29.82500
C  6.31600 4.81600 31.80700
C  10.07600 4.63800 32.56400
C  10.37900 4.10600 34.02200
H  10.86700 5.15900 35.12300
N  7.64700 5.42300 26.64800
C  6.98200 6.24000 27.55900
C  6.25800 7.28400 26.82400
C  6.53500 7.04500 25.40200
C  7.40900 5.87300 25.36000
C  5.37800 8.33400 27.49500
C  6.12700 7.87100 24.22100
O  6.53500 7.70900 23.11500
C  5.10100 8.96300 24.42000
N  9.37400 3.36100 25.05400
C  8.69500 3.97900 24.08000
C  9.13900 3.45300 22.75200
C  9.68100 2.04900 23.05700
C  9.89500 2.20600 24.57600
C  8.06800 3.32300 21.64600
C  10.96600 1.72100 22.31200
C  11.09000 0.28600 21.83100
N  10.13800 2.14400 27.51900
C  10.73500 1.21900 26.72400
C  11.48300 0.22000 27.51300
C  11.24400 0.63600 28.83600
C  10.44600 1.81700 28.79000
C  12.32800 -0.94900 27.00200
C  11.60100 0.38300 30.23000
O  12.39800 -0.40900 30.71500
C  10.87500 1.38800 31.02200
C  9.95800 0.63200 31.91200
O  8.89300 0.07200 31.57300
O  10.47000 0.74500 33.15100
C  9.74800 0.46400 34.40200
H  6.49800 6.76400 29.54700
H  7.67700 5.58900 23.30000
H  11.09600 0.49500 24.75600
H  8.34100 3.22100 32.36000
H  7.98800 5.97000 31.88400
H  5.73100 4.39400 30.99000
H  5.94000 5.80200 32.08100
H  6.36300 4.22600 32.72300
H  9.94000 5.71000 32.70700
H  10.98100 4.40300 32.00400
H  11.32300 3.56500 33.95500
H  9.56100 3.55600 34.48900
H  5.13600 7.98700 28.50000
H  4.43100 8.35100 26.95500
H  5.70100 9.37500 27.51900
H  4.29500 8.42700 24.92000
H  4.81500 9.30300 23.42500
H  5.56800 9.80400 24.93400
H  9.88400 4.18700 22.44600
H  8.98100 1.21700 22.98000
H  7.18600 3.25100 22.28300
H  8.08400 2.35600 21.14500
H  7.89100 4.21200 21.04000
H  11.85800 1.90000 22.91200
H  11.03200 2.35000 21.42400
H  11.88800 -0.32000 22.26100
H  11.21700 0.34800 20.75000
H  10.22100 -0.33700 22.04600
H  12.71500 -0.81000 25.99300
H  11.73200 -1.86200 27.00500
H  13.19500 -1.15000 27.63000
H  11.55000 2.04600 31.57000
H  10.23400 -0.08300 35.21000
H  8.84000 -0.09300 34.17300
H  9.33800 1.31600 34.94500
Mg 34.71400 3.46100 29.13200
C  32.54100 4.13700 31.72400
C  37.27700 3.02500 31.48100
C  36.76200 2.62000 26.71000
C  32.14200 3.82300 26.92500
N  34.84400 3.56000 31.41000
C  33.80400 3.87800 32.22200
C  34.15400 3.75800 33.74100
C  35.80800 3.57800 33.61200
C  36.04300 3.37500 32.09100
C  36.73700 4.78000 34.11300
C  33.42200 2.56200 34.35000
C  32.97200 2.81300 35.78100
H  34.01400 3.47300 36.73300
N  36.75200 2.88800 29.07200
C  37.63700 2.73600 30.12100
C  38.96100 2.42500 29.62700
C  38.79000 2.29500 28.19300
C  37.38800 2.56300 27.89000
C  40.15600 2.21100 30.46500
C  39.86200 1.84800 27.18400
O  39.65000 1.85100 25.96900
C  41.27900 1.43800 27.64700
N  34.47800 3.10500 27.12200
C  35.52300 2.90900 26.32600
C  35.12000 2.96200 24.86000
C  33.55700 3.21000 24.86300
C  33.34600 3.34200 26.41600
C  35.91500 4.00000 23.93300
C  32.83600 2.00300 24.35300
C  32.84300 1.64800 22.82800
N  32.79500 4.00600 29.24700
C  31.86300 4.12700 28.25800
C  30.63400 4.69300 28.77700
C  30.86500 4.73700 30.11800
C  32.19200 4.23500 30.39000
C  29.44800 5.05100 28.00500
C  30.31800 5.10400 31.38900
O  29.25900 5.70200 31.67200
C  31.32000 4.57300 32.48500
C  31.65800 5.72800 33.31300
O  32.36900 6.68600 33.04800
O  31.06100 5.56200 34.54000
C  31.59800 6.48200 35.52900
H  38.03400 2.89200 32.25700
H  37.45100 2.60100 25.86300
H  31.32300 3.92800 26.21000
H  33.90100 4.67000 34.28200
H  36.20100 2.69500 34.11600
H  36.01500 5.59600 34.14800
H  37.55100 5.03700 33.43600
H  37.10400 4.48600 35.09600
H  34.09300 1.70600 34.27500
H  32.50400 2.31800 33.81400
H  32.60800 1.82900 36.07600
H  32.06000 3.40000 35.89100
H  40.59700 1.25300 30.19000
H  39.87600 2.11700 31.51400
H  40.81600 3.07900 30.48700
H  41.89100 2.09500 28.26600
H  41.87200 1.39500 26.73300
H  41.25500 0.48400 28.17300
H  35.39000 2.03000 24.36500
H  33.30100 4.14300 24.36100
H  36.43600 4.61700 24.66400
H  35.21400 4.46000 23.23700
H  36.67200 3.50100 23.32900
H  31.77700 2.12200 24.58400
H  33.16800 1.11000 24.88300
H  33.49800 2.15200 22.11700
H  31.79000 1.67400 22.55000
H  33.28300 0.65000 22.84000
H  29.19900 4.25800 27.30000
H  29.58100 6.05000 27.58900
H  28.61400 5.14100 28.70100
H  31.01400 3.74600 33.12500
H  30.88600 7.30500 35.58200
H  32.66400 6.69900 35.45900
H  31.44500 5.86300 36.41200

