158

Mg 1.65400 -2.89300 44.84800
C  4.96100 -1.93300 44.01800
C  0.64800 0.04400 43.09300
C  -1.41200 -3.98400 45.01400
C  2.87700 -5.92400 45.92300
N  2.77100 -1.13000 43.68600
C  4.13600 -0.99500 43.52300
C  4.41100 0.38800 42.79800
C  3.02200 1.11100 42.87000
C  2.05900 -0.04800 43.18600
C  2.89200 2.32100 43.77800
C  4.84000 0.14300 41.32900
C  6.06800 0.81000 40.90200
H  6.58000 0.48400 39.49600
N  -0.16100 -2.09400 44.24400
C  -0.36000 -0.92000 43.57200
C  -1.72800 -0.72500 43.42000
C  -2.39900 -1.96600 43.84900
C  -1.34500 -2.75800 44.41800
C  -2.36500 0.52800 42.74500
C  -3.93700 -2.22400 43.89100
O  -4.75100 -1.34100 43.61200
C  -4.56200 -3.46500 44.38600
N  0.82500 -4.86100 45.38200
C  -0.47200 -4.96300 45.44800
C  -0.94700 -6.29200 46.16700
C  0.49000 -6.98500 46.24700
C  1.46800 -5.90600 45.84500
C  -1.66000 -6.15300 47.52400
C  0.66600 -8.26100 45.40800
C  0.00600 -9.46800 45.98300
N  3.53000 -3.80000 45.00700
C  3.88300 -5.01600 45.54100
C  5.37100 -5.23500 45.61300
C  5.83700 -4.00300 45.00700
C  4.67300 -3.19000 44.64700
C  6.20100 -6.37500 46.19100
C  6.99700 -3.17500 44.70600
O  8.22400 -3.43600 44.70200
C  6.45900 -1.84500 44.04400
C  6.97800 -0.71900 45.02400
O  6.46200 -0.38900 46.10400
O  7.95300 -0.08900 44.30300
C  8.20000 1.21800 44.85900
H  0.25900 0.94000 42.60500
H  -2.40700 -4.41200 45.15500
H  3.36700 -6.79000 46.37300
H  5.25700 0.83200 43.32400
H  2.66400 1.46800 41.90400
H  3.73300 2.29600 44.47100
H  1.95500 2.31100 44.33500
H  2.90800 3.24500 43.20000
H  4.00600 0.47100 40.70800
H  4.97700 -0.90300 41.05800
H  6.90300 0.51400 41.53800
H  5.84600 1.87400 40.98400
H  -2.01400 0.80000 41.74900
H  -2.09400 1.42700 43.29900
H  -3.45300 0.57300 42.70800
H  -4.06400 -4.38200 44.07200
H  -5.49900 -3.64000 43.85900
H  -4.75800 -3.57800 45.45200
H  -1.61000 -6.88100 45.53300
H  0.67400 -7.28100 47.28000
H  -1.03200 -6.60500 48.29200
H  -2.64100 -6.62600 47.54300
H  -1.80400 -5.09600 47.75000
H  1.71100 -8.57300 45.39400
H  0.49600 -8.06100 44.35000
H  -0.86800 -9.27600 46.60400
H  0.73800 -10.00900 46.58300
H  -0.39700 -10.02000 45.13300
H  6.27000 -7.29100 45.60500
H  5.71400 -6.65900 47.12300
H  7.23800 -6.04200 46.23200
H  6.91100 -1.61800 43.07800
H  7.20700 1.64600 44.99000
H  8.73200 1.94300 44.24200
H  8.73800 1.11600 45.80200
Mg -4.31000 24.71100 26.00900
C  -2.96000 25.82400 28.94900
C  -6.60700 22.84700 27.86600
C  -5.66000 23.36700 23.19200
C  -1.94900 26.30000 24.16700
N  -4.56700 24.33500 28.14300
C  -4.10100 25.09800 29.22700
C  -4.67500 24.65300 30.58000
C  -5.56000 23.46400 30.15700
C  -5.61300 23.51700 28.61900
C  -5.10800 22.12600 30.74600
C  -5.52700 25.87900 31.25300
C  -5.69700 25.80000 32.82200
H  -4.95900 24.70600 33.73400
N  -5.97800 23.38300 25.60200
C  -6.79700 22.80800 26.49000
C  -7.81700 22.05500 25.81600
C  -7.59900 22.23000 24.40100
C  -6.36500 23.06200 24.33000
C  -8.98400 21.33200 26.51000
C  -8.43300 21.73600 23.18500
O  -8.03900 21.79600 22.01000
C  -9.71000 21.06500 23.48100
N  -3.88000 24.91300 23.94700
C  -4.52000 24.22100 22.99000
C  -3.71700 24.27600 21.68000
C  -2.52300 25.21300 22.02500
C  -2.74500 25.47900 23.42800
C  -3.26200 22.84200 21.28900
C  -2.43500 26.45900 21.14200
C  -1.19800 26.51800 20.26600
N  -2.75000 25.93500 26.43600
C  -1.82600 26.50400 25.54500
C  -0.89000 27.32900 26.31700
C  -1.31400 27.11100 27.67800
C  -2.36500 26.17400 27.65800
C  0.22400 28.20200 25.94600
C  -0.92300 27.37300 29.09600
O  -0.10100 28.16200 29.50500
C  -2.01200 26.67800 29.89500
C  -1.37800 26.00200 31.03100
O  -0.47400 25.16300 30.85700
O  -1.85500 26.44700 32.17200
C  -1.10300 25.91100 33.28200
H  -7.34100 22.17600 28.31700
H  -5.93000 22.88100 22.25200
H  -1.30900 26.97800 23.59800
H  -3.90900 24.39700 31.31200
H  -6.57400 23.56700 30.54300
H  -5.98000 21.75100 31.28200
H  -4.28900 22.19700 31.46100
H  -4.86100 21.36800 30.00300
H  -6.49200 26.04800 30.77700
H  -4.92700 26.78700 31.19400
H  -6.78200 25.69700 32.83200
H  -5.54800 26.70200 33.41500
H  -9.06100 21.63000 27.55600
H  -8.80200 20.26200 26.41000
H  -9.92600 21.59000 26.02600
H  -10.16900 20.78300 22.53400
H  -10.28500 21.80200 24.04100
H  -9.56800 20.22000 24.15600
H  -4.39600 24.75300 20.97300
H  -1.58100 24.68700 21.86900
H  -2.18000 22.71100 21.29100
H  -3.49000 22.63800 20.24300
H  -3.49600 22.10700 22.05900
H  -2.42700 27.38000 21.72600
H  -3.30500 26.50600 20.48800
H  -0.60400 25.60600 20.20700
H  -0.52700 27.22700 20.75000
H  -1.32700 26.99800 19.29500
H  0.39500 28.21100 24.87000
H  1.10900 27.78100 26.42400
H  0.09900 29.25200 26.20900
H  -2.54900 27.52500 30.32200
H  -0.04800 25.98000 33.02000
H  -1.32100 24.85700 33.45600
H  -1.36900 26.50700 34.15500

