158

Mg 16.66400 -1.42500 27.70400
C  15.81900 0.39700 30.56600
C  18.87200 -3.25800 29.58800
C  17.76400 -2.94900 24.85300
C  14.75300 0.67900 25.72800
N  17.34100 -1.34400 29.79900
C  16.92400 -0.42500 30.76300
C  17.52300 -0.67600 32.12500
C  18.60300 -1.77500 31.66400
C  18.24100 -2.24600 30.31700
C  20.00900 -1.19300 31.75000
C  16.50500 -1.28000 33.14100
C  16.23400 -0.54200 34.49500
H  17.54400 0.00500 35.09700
N  18.04500 -2.98000 27.30900
C  18.74000 -3.62100 28.25200
C  19.39600 -4.76900 27.56600
C  19.20800 -4.61200 26.13200
C  18.30400 -3.47800 26.04400
C  20.19600 -5.83800 28.27300
C  19.75000 -5.36800 24.94400
O  19.53200 -5.10000 23.78100
C  20.52000 -6.62600 25.10400
N  16.51000 -0.99900 25.66200
C  16.93900 -1.82300 24.67500
C  16.51900 -1.26400 23.28900
C  15.49600 -0.14900 23.58100
C  15.52700 -0.18200 25.11800
C  17.72100 -0.77000 22.47800
C  14.09200 -0.32300 22.90400
C  14.07800 -0.35300 21.38200
N  15.42600 0.21300 28.05900
C  14.70900 0.93500 27.08900
C  13.89600 1.84600 27.80900
C  14.33500 1.70300 29.20200
C  15.21100 0.64300 29.28900
C  12.76600 2.81400 27.31700
C  14.13400 2.19500 30.53500
O  13.28300 3.01300 30.94200
C  15.08100 1.37800 31.43600
C  15.92900 2.48600 31.95700
O  16.81400 3.03800 31.35000
O  15.27200 2.88400 33.11200
C  15.70500 4.13800 33.62800
H  19.53400 -3.88800 30.18600
H  17.89400 -3.37900 23.85800
H  13.99800 1.17500 25.11500
H  17.93100 0.26200 32.50200
H  18.52500 -2.69100 32.24900
H  20.07500 -0.32500 32.40600
H  20.45200 -0.95600 30.78200
H  20.74300 -1.82100 32.25400
H  16.78300 -2.32000 33.31600
H  15.53000 -1.19900 32.66100
H  15.83800 -1.29100 35.18100
H  15.42700 0.18000 34.37500
H  19.98400 -6.86700 27.98200
H  20.00000 -5.87300 29.34400
H  21.25400 -5.66200 28.08100
H  20.89300 -7.02300 24.15900
H  19.77100 -7.29700 25.52300
H  21.30700 -6.51400 25.85000
H  16.01000 -2.11000 22.82800
H  15.86900 0.82000 23.24900
H  17.75800 0.31100 22.34200
H  17.75000 -1.32300 21.53900
H  18.65600 -1.11300 22.92000
H  13.44300 0.50500 23.18800
H  13.66500 -1.29300 23.15900
H  13.12700 -0.07100 20.93200
H  14.28800 -1.36700 21.04000
H  14.89000 0.26700 21.00200
H  12.72200 3.74100 27.88900
H  11.75800 2.40600 27.38200
H  12.89600 3.15700 26.29100
H  14.61600 0.91200 32.30500
H  15.01800 4.98000 33.54000
H  16.71400 4.37800 33.29200
H  15.77500 3.90500 34.69100
Mg -12.80600 16.78500 42.64300
C  -9.64400 15.39700 41.76400
C  -11.65600 19.67300 41.07000
C  -15.89900 17.89600 42.56100
C  -13.84300 13.38600 43.12200
N  -10.91400 17.38600 41.40000
C  -9.73800 16.77400 41.50100
C  -8.63200 17.66800 40.90000
C  -9.14600 19.03800 41.05700
C  -10.63700 18.75500 41.24800
C  -8.52000 19.86300 42.23800
C  -8.12900 17.37900 39.49500
C  -6.59100 16.99200 39.29800
H  -6.43000 15.91900 38.24400
N  -13.63600 18.56900 42.08700
C  -13.01300 19.59300 41.38900
C  -13.94700 20.66400 41.15600
C  -15.23600 20.24200 41.64300
C  -14.98600 18.87900 42.15500
C  -13.47100 21.98500 40.67100
C  -16.57500 21.05400 41.49800
O  -16.63300 22.19000 40.99600
C  -17.87400 20.48400 41.85400
N  -14.62000 15.72500 42.64500
C  -15.80200 16.47600 42.72600
C  -17.00400 15.62000 42.95200
C  -16.36400 14.20500 43.18400
C  -14.86400 14.39500 42.96600
C  -17.92700 16.12600 44.12500
C  -16.95100 13.11100 42.22000
C  -16.25800 12.69900 40.86900
N  -11.86800 14.78400 42.80400
C  -12.47400 13.53300 43.03700
C  -11.49100 12.53500 43.00700
C  -10.34400 13.22000 42.57800
C  -10.63600 14.55600 42.33800
C  -11.60700 11.11200 43.29100
C  -8.92000 13.08400 42.23400
O  -8.15600 12.14800 42.32800
C  -8.47200 14.42000 41.56200
C  -7.27300 14.82800 42.25300
O  -7.24100 15.30800 43.39900
O  -6.13100 14.46400 41.61000
C  -4.98600 14.21200 42.51300
H  -11.36100 20.64000 40.65700
H  -16.92700 18.20600 42.76100
H  -14.18600 12.41400 43.48300
H  -7.84700 17.48300 41.63400
H  -9.07700 19.73100 40.21800
H  -8.11500 20.77800 41.80700
H  -7.72400 19.34400 42.77300
H  -9.21700 20.09400 43.04300
H  -8.13800 18.33000 38.96300
H  -8.77500 16.68600 38.95500
H  -6.20000 16.56600 40.22200
H  -6.16000 17.93400 38.95800
H  -13.28700 22.09400 39.60200
H  -12.58800 22.30200 41.22400
H  -14.13600 22.82700 40.86400
H  -18.60500 21.22900 41.54100
H  -18.10400 20.31900 42.90700
H  -18.01600 19.61100 41.21800
H  -17.56300 15.77500 42.02900
H  -16.59000 13.82400 44.18000
H  -18.16800 15.21300 44.67000
H  -18.82600 16.55400 43.68300
H  -17.50200 16.86900 44.80000
H  -18.01700 13.29900 42.09200
H  -16.88400 12.26400 42.90200
H  -15.60200 11.85700 41.09000
H  -15.49400 13.45400 40.68500
H  -16.96000 12.51500 40.05600
H  -11.72100 10.60500 42.33300
H  -12.46500 10.95600 43.94500
H  -10.71700 10.77000 43.81900
H  -8.31700 14.30300 40.49000
H  -5.06300 13.45300 43.29200
H  -4.62800 15.13800 42.96300
H  -4.13200 13.79900 41.97700

