158

Mg 16.41000 -1.45100 27.98900
C  15.09500 0.64500 30.39600
C  18.27000 -3.05900 30.48500
C  17.68700 -3.44100 25.68000
C  14.86800 0.48700 25.54100
N  16.68800 -1.16500 30.20700
C  16.02600 -0.21600 30.97000
C  16.35100 -0.50300 32.49200
C  17.59100 -1.45200 32.47900
C  17.52200 -1.92100 30.93300
C  18.95400 -0.72800 32.93600
C  15.12600 -1.11100 33.22100
C  15.16400 -1.23500 34.73900
H  16.39600 -0.67400 35.43300
N  17.76000 -3.09400 28.10800
C  18.40900 -3.55400 29.19700
C  19.23400 -4.72800 28.79100
C  18.97300 -4.94900 27.39600
C  18.11700 -3.78700 27.00100
C  20.16900 -5.51500 29.66200
C  19.48100 -6.11900 26.46800
O  19.14500 -6.05700 25.29900
C  20.22800 -7.27000 27.00300
N  16.23800 -1.49600 25.89200
C  16.95600 -2.35100 25.14200
C  17.07900 -2.00500 23.61300
C  16.21800 -0.63900 23.60100
C  15.75000 -0.50700 25.05400
C  18.57000 -1.85600 23.22900
C  14.97600 -0.68500 22.66700
C  15.22500 -0.35200 21.17100
N  15.34800 0.24500 27.90500
C  14.61800 0.85800 26.85800
C  13.79400 1.88600 27.36400
C  13.97600 1.82300 28.75000
C  14.89100 0.78600 29.01500
C  12.94100 2.68700 26.46600
C  13.43600 2.40700 29.99300
O  12.71100 3.34000 30.29100
C  14.17900 1.61200 31.11600
C  14.97500 2.69600 31.84500
O  16.06600 3.12600 31.56000
O  14.14500 3.09700 32.90700
C  14.88300 4.00200 33.74200
H  18.74700 -3.66700 31.25700
H  18.34800 -3.98900 25.00500
H  14.47900 1.05500 24.69300
H  16.68700 0.40300 32.99700
H  17.48000 -2.36400 33.06600
H  19.72600 -0.92200 32.19200
H  19.27800 -1.19800 33.86500
H  18.88800 0.35400 33.05500
H  15.10800 -2.11900 32.80500
H  14.14300 -0.74900 32.92100
H  14.96500 -2.29100 34.92400
H  14.31900 -0.60000 35.00500
H  19.62700 -6.33200 30.13700
H  20.38500 -4.90100 30.53600
H  21.05300 -5.73400 29.06300
H  21.18600 -6.92500 27.39200
H  20.37900 -7.89000 26.12000
H  19.54100 -7.64500 27.76100
H  16.58200 -2.86200 23.15800
H  16.84900 0.15000 23.19300
H  19.11600 -1.54400 24.12000
H  18.70500 -1.06600 22.49000
H  19.03900 -2.74300 22.80400
H  14.43400 0.22800 22.91400
H  14.26200 -1.50800 22.70500
H  14.82700 -1.17500 20.57800
H  16.31200 -0.29000 21.11400
H  14.66000 0.53900 20.89700
H  12.33100 3.37600 27.05000
H  12.17100 2.09100 25.97600
H  13.50200 3.35200 25.80900
H  13.41500 1.12200 31.72000
H  15.45700 4.72100 33.15700
H  15.40800 3.43200 34.50800
H  14.17700 4.58900 34.33100
Mg -12.30200 15.86400 42.07300
C  -9.17500 14.27000 41.65600
C  -11.21700 18.47200 40.07900
C  -15.34800 17.08800 42.10600
C  -13.35300 12.91200 43.76200
N  -10.37500 16.32200 41.00300
C  -9.23100 15.58200 40.98300
C  -8.10400 16.29700 40.26400
C  -8.86800 17.54400 39.62400
C  -10.25300 17.46500 40.28600
C  -8.09000 18.90900 39.95900
C  -7.28500 15.46000 39.20600
C  -5.79300 15.55800 39.34600
H  -4.95600 14.80200 38.38000
N  -13.14600 17.62700 41.34000
C  -12.51000 18.57400 40.57000
C  -13.41100 19.68600 40.33400
C  -14.70500 19.27200 40.81700
C  -14.45400 17.94800 41.45800
C  -12.91100 20.99000 39.66900
C  -15.94400 20.06500 40.68100
O  -15.91000 21.11400 40.02300
C  -17.18500 19.66500 41.16000
N  -14.19400 14.96800 42.66400
C  -15.25600 15.80500 42.70700
C  -16.42800 14.99900 43.27900
C  -15.74800 13.82400 44.01800
C  -14.34500 13.89200 43.47300
C  -17.39600 15.88400 44.08300
C  -16.55700 12.51500 43.74100
C  -17.11400 11.89800 45.07400
N  -11.51200 13.93200 42.60400
C  -12.07000 12.85600 43.24800
C  -11.03100 11.83500 43.49300
C  -9.90800 12.35900 42.97200
C  -10.23300 13.60000 42.31400
C  -11.30100 10.59700 44.30800
C  -8.50300 12.07900 42.64400
O  -7.75700 11.10200 42.94200
C  -7.98900 13.30100 41.75600
C  -6.93000 13.94400 42.48100
O  -7.13800 14.88200 43.26300
O  -5.73900 13.38200 42.10900
C  -4.53900 14.06100 42.62500
H  -10.92600 19.22600 39.34500
H  -16.38200 17.41700 42.22200
H  -13.66400 12.06500 44.37700
H  -7.51500 16.73100 41.07200
H  -9.00400 17.58800 38.54400
H  -8.51500 19.40900 40.82900
H  -8.13200 19.48500 39.03400
H  -7.03600 18.66700 40.09400
H  -7.62200 15.81400 38.23200
H  -7.66800 14.44000 39.15700
H  -5.53300 15.15100 40.32300
H  -5.48700 16.59000 39.51600
H  -11.84500 21.13600 39.84000
H  -13.37500 21.84400 40.16300
H  -13.19700 20.98400 38.61700
H  -17.50400 18.74100 40.67800
H  -17.84500 20.50300 40.93500
H  -17.11300 19.53200 42.23900
H  -16.99000 14.62400 42.42400
H  -15.71900 14.05700 45.08300
H  -17.59600 15.41200 45.04500
H  -18.28900 16.08400 43.49100
H  -17.05100 16.89000 44.32300
H  -15.81900 11.82400 43.33300
H  -17.36100 12.70700 43.03100
H  -18.16700 11.73700 44.84100
H  -17.01000 12.50000 45.97600
H  -16.67800 10.91800 45.26700
H  -11.80800 10.85900 45.23700
H  -10.34100 10.16600 44.59300
H  -11.94100 9.93000 43.73000
H  -7.50200 12.98900 40.83200
H  -3.74600 13.93200 41.88700
H  -4.22500 13.55900 43.54000
H  -4.49100 15.13600 42.79200

