158

Mg 25.37900 -7.44400 47.92800
C  27.72900 -4.98800 46.92700
C  23.32600 -6.50400 45.28900
C  23.57700 -10.23200 48.36000
C  27.81700 -8.74600 50.02400
N  25.59000 -6.07700 46.11500
C  26.61200 -5.07800 45.97900
C  26.32600 -4.05500 44.90200
C  24.82800 -4.45000 44.60400
C  24.56700 -5.80600 45.28200
C  23.76500 -3.31500 45.01100
C  27.34300 -4.34200 43.80900
C  28.23300 -3.17700 43.24900
H  27.80600 -2.62200 41.83900
N  23.61400 -8.23300 46.98600
C  22.90400 -7.65900 46.00800
C  21.75800 -8.48600 45.76800
C  21.75000 -9.50500 46.76900
C  22.98200 -9.39300 47.43600
C  20.71000 -8.12200 44.69300
C  20.56700 -10.57200 46.88700
O  19.50900 -10.42800 46.33400
C  20.56500 -11.73200 47.92400
N  25.52900 -9.16000 49.16500
C  24.64700 -10.17100 49.14700
C  25.13200 -11.32600 50.04400
C  26.50700 -10.87700 50.63700
C  26.65900 -9.47700 49.97200
C  24.06300 -11.58900 51.15100
C  27.67200 -11.88700 50.31800
C  28.56200 -12.14300 51.52600
N  27.32100 -6.79500 48.66200
C  28.18000 -7.51300 49.46300
C  29.48800 -6.85000 49.36600
C  29.33100 -5.72400 48.60500
C  28.00800 -5.81400 48.04300
C  30.72900 -7.35500 49.98900
C  29.96700 -4.55100 48.00800
O  31.10300 -4.10200 48.17600
C  28.93600 -3.94200 47.00600
C  28.55200 -2.55500 47.40100
O  27.83800 -2.26900 48.30100
O  28.93900 -1.72200 46.37800
C  28.35900 -0.38600 46.38600
H  22.61300 -6.12100 44.55600
H  22.95300 -11.10700 48.55900
H  28.59900 -9.25000 50.59600
H  26.56100 -3.09400 45.35800
H  24.73500 -4.64200 43.53500
H  24.24100 -2.41300 45.39800
H  23.12800 -3.72200 45.79600
H  23.25600 -2.96700 44.11200
H  26.80900 -4.71000 42.93300
H  28.01600 -5.15600 44.07800
H  29.20100 -3.65900 43.11300
H  28.31100 -2.44900 44.05700
H  20.30100 -9.01000 44.20900
H  21.10700 -7.41700 43.96300
H  19.91600 -7.58300 45.21100
H  20.74000 -11.35600 48.93200
H  21.36100 -12.40500 47.60400
H  19.56500 -12.16500 47.95000
H  25.22000 -12.18500 49.37900
H  26.48600 -10.68200 51.70900
H  23.45400 -12.45300 50.88500
H  23.32100 -10.79500 51.06700
H  24.62300 -11.81300 52.05900
H  28.23100 -11.54500 49.44700
H  27.31900 -12.86200 49.98100
H  28.96600 -13.15000 51.42500
H  28.00700 -11.92700 52.43900
H  29.41300 -11.46700 51.43200
H  31.35400 -6.48600 50.19300
H  31.28500 -7.90900 49.23300
H  30.57300 -7.90600 50.91600
H  29.32100 -3.91500 45.98600
H  28.52000 -0.06100 45.35800
H  29.01800 0.28600 46.93400
H  27.31300 -0.27200 46.67200
Mg 29.38100 59.38700 40.60300
C  26.35200 57.70700 40.13200
C  30.98600 56.60300 39.22000
C  32.21200 61.08600 40.66400
C  27.55000 62.30800 41.42000
N  28.67000 57.48000 39.58700
C  27.42400 56.93900 39.63900
C  27.39200 55.63700 38.80800
C  28.93300 55.18700 38.78900
C  29.58000 56.47800 39.27500
C  29.28800 53.88600 39.60200
C  26.73800 55.75900 37.42900
C  25.80500 54.60800 37.00000
H  25.81000 54.04400 35.61400
N  31.34700 58.93000 39.96300
C  31.78100 57.69200 39.55800
C  33.19700 57.70800 39.46200
C  33.61700 59.04800 39.99000
C  32.39800 59.71800 40.29000
C  34.08400 56.62400 38.84600
C  34.96300 59.53600 40.16100
O  35.88800 58.82500 39.84900
C  35.27900 60.84500 40.81600
N  29.74900 61.46900 40.82200
C  31.05000 61.87100 40.90400
C  31.06700 63.35100 41.39400
C  29.58000 63.72800 41.55000
C  28.90600 62.44400 41.30400
C  32.09900 63.67400 42.51700
C  29.18000 64.98700 40.70300
C  28.46600 66.14600 41.47800
N  27.42100 59.94700 40.81300
C  26.75900 61.15300 41.17200
C  25.33600 60.91700 41.25600
C  25.13300 59.57400 40.97000
C  26.42000 59.06800 40.61700
C  24.33900 61.93300 41.64400
C  24.07100 58.47300 40.81800
O  22.86300 58.49700 41.06600
C  24.88900 57.29600 40.22700
C  24.71200 56.23400 41.19800
O  24.66600 56.33000 42.39200
O  24.63500 54.99800 40.57400
C  24.80100 53.83000 41.45900
H  31.51700 55.78600 38.72800
H  33.08400 61.73600 40.75600
H  27.08900 63.27800 41.61800
H  26.84200 54.96200 39.46400
H  29.26000 54.94800 37.77700
H  29.76800 54.06900 40.56400
H  29.96200 53.31300 38.96400
H  28.46000 53.18600 39.71000
H  27.56100 55.82600 36.71700
H  26.25600 56.73600 37.38400
H  24.74900 54.85300 37.11600
H  25.88100 53.77000 37.69300
H  33.65600 55.78400 38.29900
H  34.60400 56.21900 39.71300
H  34.89200 57.02400 38.23400
H  35.17100 61.62800 40.06500
H  36.33700 60.69700 41.03300
H  34.77800 60.93300 41.78000
H  31.54400 63.99700 40.65700
H  29.38300 63.94000 42.60100
H  32.39000 62.67500 42.84200
H  31.62500 64.17300 43.36300
H  32.97500 64.21600 42.16200
H  28.45100 64.69800 39.94600
H  29.98800 65.44600 40.13200
H  27.39500 66.15000 41.27200
H  29.02500 67.07600 41.37600
H  28.51500 65.87700 42.53300
H  24.68600 62.88900 41.25400
H  24.23200 61.92300 42.72900
H  23.40400 61.55600 41.23000
H  24.48800 56.86700 39.30900
H  24.46100 52.95500 40.90600
H  24.16700 53.91500 42.34100
H  25.84100 53.57900 41.66500

