158

Mg 15.94700 -1.27100 27.49400
C  14.80800 0.58100 30.40700
C  18.08500 -3.02000 29.46200
C  17.15700 -2.61500 24.71100
C  13.91700 1.00400 25.55400
N  16.50200 -1.15400 29.70900
C  15.80900 -0.39500 30.62200
C  16.24400 -0.87700 32.04200
C  17.36000 -1.94700 31.74600
C  17.37900 -2.00200 30.21300
C  18.74000 -1.70300 32.40900
C  15.12400 -1.39900 32.82000
C  15.24700 -1.20100 34.36500
H  16.40600 -0.52800 35.01100
N  17.42100 -2.57700 27.15100
C  18.15800 -3.18500 28.10900
C  18.99500 -4.24000 27.42900
C  18.69300 -4.20900 25.99200
C  17.76700 -3.07200 25.89500
C  19.85400 -5.09800 28.17000
C  19.14800 -5.17100 24.90300
O  18.80600 -4.95700 23.73000
C  19.99700 -6.35200 25.25700
N  15.57000 -0.92500 25.46000
C  16.17800 -1.65300 24.47000
C  15.54800 -1.35300 23.07500
C  14.68600 -0.09300 23.34500
C  14.68100 -0.00000 24.91100
C  16.51300 -1.28000 21.83900
C  13.28200 -0.10200 22.71700
C  13.26600 -0.15100 21.21400
N  14.60500 0.44100 27.85700
C  13.92700 1.26900 26.99700
C  13.17700 2.25700 27.72200
C  13.43400 2.02700 29.08700
C  14.27700 0.94900 29.11500
C  12.46700 3.31500 27.03400
C  13.24900 2.49400 30.46200
O  12.62500 3.49500 30.91600
C  14.13700 1.47400 31.36600
C  15.07800 2.28800 32.28000
O  16.24100 2.58800 32.05900
O  14.36600 2.63600 33.41800
C  14.94500 3.64500 34.36500
H  18.61800 -3.68000 30.15000
H  17.39800 -3.12000 23.77300
H  13.32300 1.64100 24.89600
H  16.61000 -0.00800 32.58800
H  17.04100 -2.84600 32.27400
H  19.08700 -2.51200 33.05200
H  18.54200 -0.85600 33.06500
H  19.45400 -1.33000 31.67400
H  14.88200 -2.38300 32.41800
H  14.19200 -0.85600 32.66200
H  15.14900 -2.17700 34.84100
H  14.37000 -0.63800 34.68300
H  20.67600 -5.63300 27.69400
H  19.32900 -5.93000 28.63900
H  20.28500 -4.54500 29.00500
H  21.04500 -6.08300 25.39400
H  19.95000 -6.99900 24.38100
H  19.58100 -6.90800 26.09700
H  14.84100 -2.16500 22.90700
H  15.19300 0.81500 23.01900
H  17.44900 -1.79400 22.05800
H  16.70700 -0.37800 21.25800
H  15.98500 -1.92000 21.13200
H  12.71600 0.78700 22.99700
H  12.79700 -1.00000 23.09800
H  12.81000 0.70000 20.70800
H  12.74200 -1.05200 20.89700
H  14.27100 -0.21800 20.79700
H  13.12700 3.75200 26.28600
H  12.40400 4.05000 27.83600
H  11.47900 3.03200 26.67100
H  13.31700 0.95500 31.86300
H  14.52100 3.49500 35.35700
H  14.70500 4.66400 34.05900
H  16.00800 3.42600 34.46300
Mg 17.45700 52.34300 26.29600
C  19.67800 51.13100 28.80600
C  15.06500 52.81400 28.68200
C  15.35900 53.43900 23.83300
C  19.75900 51.16600 23.84900
N  17.37900 51.89300 28.44700
C  18.41700 51.52100 29.31200
C  17.95400 51.60000 30.77700
C  16.43600 51.92600 30.63000
C  16.27100 52.25400 29.15200
C  15.49100 50.73800 31.11000
C  18.73800 52.64100 31.51300
C  18.86100 52.43100 33.02100
H  17.97000 51.39500 33.72300
N  15.53100 53.10600 26.24800
C  14.67400 53.16200 27.38000
C  13.40100 53.63500 27.01700
C  13.46700 53.84700 25.59500
C  14.82000 53.49300 25.12600
C  12.11400 53.79900 27.92500
C  12.40200 54.37000 24.65800
O  12.52800 54.42300 23.45500
C  11.16000 54.92600 25.22200
N  17.57700 52.31000 24.19900
C  16.58400 52.95400 23.38400
C  16.99500 52.79800 21.92300
C  18.31500 51.93000 21.94100
C  18.53800 51.77100 23.44900
C  15.94700 52.04400 20.97900
C  19.45100 52.64200 21.11200
C  20.23200 53.80600 21.80000
N  19.38600 51.40200 26.26000
C  20.20300 51.04000 25.18400
C  21.42300 50.47900 25.72400
C  21.21700 50.52800 27.12800
C  20.02100 51.01300 27.38300
C  22.65000 49.86600 24.96700
C  21.88200 50.14800 28.39100
O  23.02800 49.69300 28.62900
C  20.93500 50.59900 29.53500
C  20.61300 49.39600 30.35800
O  19.71900 48.62700 30.07400
O  21.37200 49.38000 31.48500
C  20.76300 48.44200 32.46000
H  14.30200 52.87700 29.46100
H  14.68200 53.69500 23.01600
H  20.48900 50.74300 23.15600
H  18.06100 50.65400 31.30700
H  16.20900 52.77900 31.26900
H  14.80900 51.09900 31.87900
H  16.05400 49.87900 31.47500
H  14.97400 50.26200 30.27600
H  18.20500 53.59100 31.46500
H  19.71800 52.86500 31.09300
H  18.74100 53.32200 33.63600
H  19.85300 52.04300 33.25300
H  11.72100 54.79700 28.12000
H  12.27000 53.36100 28.91100
H  11.36300 53.05500 27.66000
H  11.27300 55.59000 26.07900
H  10.58600 54.11100 25.66400
H  10.63500 55.47900 24.44300
H  17.13100 53.80500 21.53000
H  18.16000 50.92900 21.53800
H  14.98900 51.99600 21.49600
H  16.33100 51.06800 20.68000
H  15.84300 52.61100 20.05400
H  18.98100 53.08800 20.23500
H  20.09100 51.88200 20.66300
H  19.60300 54.26800 22.56200
H  20.50700 54.57500 21.07900
H  21.13200 53.40000 22.26100
H  23.52200 50.45400 25.25500
H  22.38600 49.89500 23.91000
H  22.73000 48.86400 25.38800
H  21.45700 51.21700 30.26500
H  21.16300 48.75900 33.42300
H  21.03000 47.40200 32.27100
H  19.67400 48.47600 32.50800

