158

Mg 34.75000 2.79300 29.02700
C  32.75500 3.31400 31.85700
C  37.43400 2.21300 31.15700
C  36.61400 2.44400 26.34000
C  31.88600 3.64500 27.01300
N  35.04600 2.87100 31.22900
C  34.08000 2.90200 32.19400
C  34.60000 2.74000 33.64200
C  36.18800 2.60700 33.34200
C  36.31200 2.63400 31.82400
C  37.04900 3.78400 33.98500
C  33.93300 1.59200 34.39800
C  33.58600 1.78000 35.90400
H  34.43400 2.65600 36.81900
N  36.73700 2.44900 28.72800
C  37.65900 2.19400 29.72000
C  39.00100 2.02700 29.05300
C  38.83100 2.14100 27.66700
C  37.32700 2.27100 27.48300
C  40.30000 2.01700 29.81800
C  39.88900 2.08200 26.64300
O  39.52100 2.17300 25.44300
C  41.32100 1.68800 26.89700
N  34.30900 3.25300 26.93000
C  35.26100 2.85500 26.03100
C  34.76900 3.15100 24.59500
C  33.22900 3.37100 24.83600
C  33.12300 3.46600 26.39700
C  35.55700 4.21400 23.92100
C  32.24500 2.33000 24.20800
C  32.28700 0.92200 24.74600
N  32.76100 3.23700 29.32300
C  31.69700 3.56400 28.45600
C  30.48100 3.72300 29.16600
C  30.83500 3.66800 30.49400
C  32.16300 3.35900 30.59700
C  29.11000 4.04700 28.70300
C  30.34400 3.80200 31.88000
O  29.20600 3.96000 32.32200
C  31.59100 3.55800 32.77500
C  31.74100 4.78500 33.67400
O  32.04700 5.90600 33.29400
O  31.48100 4.56200 34.97800
C  31.62000 5.74200 35.83500
H  38.24500 1.97500 31.84800
H  37.15800 2.38100 25.39500
H  31.11600 3.76300 26.24700
H  34.46100 3.72600 34.08600
H  36.53200 1.70000 33.83900
H  36.39400 4.49400 34.49000
H  37.69000 4.30500 33.27400
H  37.65500 3.23700 34.70600
H  34.71600 0.83700 34.32600
H  33.07200 1.27600 33.81000
H  33.41000 0.79400 36.33200
H  32.61700 2.27800 35.88000
H  40.88900 1.14200 29.54500
H  40.13500 1.94900 30.89300
H  40.81400 2.97600 29.74400
H  41.29400 0.72300 27.40300
H  41.74400 2.26700 27.71800
H  41.78800 1.69600 25.91200
H  34.84600 2.24900 23.98800
H  33.02900 4.37200 24.45500
H  36.00500 4.75400 24.75500
H  34.92000 4.91700 23.38400
H  36.30100 3.84300 23.21700
H  32.44000 2.22800 23.14000
H  31.26400 2.80500 24.20900
H  32.38500 0.25100 23.89300
H  31.37300 0.80900 25.33000
H  33.11600 0.73900 25.42900
H  29.07300 5.02100 28.21300
H  28.45900 4.16000 29.57000
H  28.90200 3.27600 27.96100
H  31.39800 2.67000 33.37800
H  31.07500 5.52800 36.75500
H  31.25500 6.69000 35.43900
H  32.69400 5.83900 35.99300
Mg 49.08700 35.60000 27.79300
C  47.14000 33.89600 30.20900
C  49.65100 38.17700 30.14600
C  50.88400 36.98600 25.46500
C  47.88800 33.15300 25.49300
N  48.51200 35.95100 29.87200
C  47.75000 35.09700 30.65800
C  47.92000 35.60400 32.11100
C  48.21500 37.16000 31.90200
C  48.95300 37.04200 30.57200
C  46.89900 37.95700 31.89000
C  49.04600 34.74100 32.79900
C  48.81500 34.35800 34.27500
H  47.97500 35.26900 35.12600
N  50.01100 37.39600 27.84800
C  50.25000 38.28000 28.85900
C  51.06700 39.39900 28.37700
C  51.44900 39.05000 27.04700
C  50.77200 37.74800 26.72000
C  51.37800 40.59400 29.25200
C  52.43000 39.74800 26.11600
O  52.77200 39.30100 25.05500
C  53.11600 41.01000 26.55500
N  49.24100 35.26000 25.82100
C  50.19200 35.88200 25.06300
C  50.37700 35.26300 23.70600
C  49.62700 33.91300 23.86900
C  48.87100 34.07800 25.15600
C  49.91600 36.15600 22.52300
C  50.35800 32.56900 23.89100
C  50.04400 31.59800 22.82400
N  47.93300 33.76300 27.81500
C  47.51100 32.95500 26.77900
C  46.70000 31.86500 27.36600
C  46.43300 32.22900 28.63100
C  47.18800 33.41000 28.86600
C  46.13300 30.62100 26.67100
C  45.64600 31.91000 29.80200
O  44.96000 30.91700 30.07800
C  46.01500 33.08500 30.83500
C  46.45500 32.45600 32.10800
O  47.46200 31.75600 32.29500
O  45.43300 32.61000 33.03800
C  45.69400 31.96500 34.33500
H  49.77100 39.01800 30.83200
H  51.57300 37.34500 24.69800
H  47.68200 32.41100 24.71800
H  46.94400 35.42800 32.56300
H  48.92200 37.57900 32.61900
H  46.88400 38.53000 32.81600
H  45.96000 37.40300 31.90600
H  46.88100 38.61500 31.02200
H  49.88300 35.42400 32.65800
H  49.23700 33.87300 32.16800
H  49.71900 34.37200 34.88500
H  48.33400 33.38000 34.24000
H  52.31800 40.42200 29.77500
H  50.65500 40.89600 30.01000
H  51.44300 41.48900 28.63200
H  53.49400 40.98200 27.57700
H  52.36400 41.79700 26.50100
H  54.00200 41.33800 26.01100
H  51.42000 34.94600 23.69300
H  48.84000 33.84300 23.11800
H  50.74300 36.27000 21.82300
H  49.56500 37.14700 22.81100
H  49.06500 35.73900 21.98300
H  50.28700 32.07400 24.86000
H  51.41400 32.81300 23.78100
H  51.01100 31.50100 22.33000
H  49.29800 31.97000 22.12100
H  49.67600 30.63200 23.16900
H  46.94200 30.18600 26.08300
H  45.54900 30.87300 25.78600
H  45.64600 29.84200 27.25800
H  45.11000 33.68500 30.92600
H  45.84400 30.90300 34.14100
H  44.90800 32.19000 35.05600
H  46.64000 32.38200 34.68100

