158

Mg 55.50500 23.01100 44.56000
C  53.18000 25.44800 43.11100
C  53.21700 20.65300 43.49600
C  57.90700 20.85000 44.95800
C  57.75000 25.68500 45.05300
N  53.39200 23.05900 43.42900
C  52.66400 24.15200 43.02300
C  51.24500 23.72400 42.47500
C  51.09900 22.28200 42.98400
C  52.57400 21.92300 43.34400
C  50.24700 22.18400 44.15000
C  51.03300 23.81700 40.93800
C  49.71800 24.53400 40.45900
H  49.19200 24.13400 39.07700
N  55.53500 20.98000 44.41500
C  54.50300 20.18700 43.92600
C  55.01200 18.80400 43.92800
C  56.32600 18.78900 44.43900
C  56.66500 20.22500 44.62200
C  54.11800 17.72500 43.52600
C  57.26200 17.51400 44.74700
O  56.83500 16.40500 44.49800
C  58.64500 17.64300 45.24100
N  57.57400 23.21800 44.60200
C  58.38900 22.16100 45.01900
C  59.73600 22.52600 45.68300
C  59.54000 24.10000 45.78600
C  58.14000 24.34500 45.14600
C  60.09000 21.81000 47.02000
C  60.75700 24.93300 45.14600
C  61.16200 26.17500 45.96700
N  55.55100 25.16300 44.11800
C  56.50400 26.09600 44.47900
C  55.95100 27.43000 44.23700
C  54.69600 27.18500 43.60100
C  54.49400 25.81400 43.56400
C  56.55000 28.70600 44.67500
C  53.57500 27.85700 43.01400
O  53.36300 29.09200 42.88500
C  52.50200 26.77500 42.64200
C  52.48500 26.78800 41.14500
O  53.45400 26.41300 40.45800
O  51.36500 27.44100 40.65000
C  51.42000 27.49600 39.20900
H  52.54500 19.81500 43.29800
H  58.74400 20.22200 45.27100
H  58.34400 26.50700 45.45600
H  50.47800 24.34100 42.94300
H  50.66500 21.62400 42.23100
H  49.26800 21.75100 43.94400
H  50.00000 23.11800 44.65400
H  50.79700 21.51200 44.80900
H  50.93500 22.80500 40.54700
H  51.84000 24.35000 40.43500
H  49.80700 25.62100 40.48400
H  48.92200 24.28400 41.16000
H  53.80800 17.92000 42.50000
H  53.20200 17.68500 44.11500
H  54.60700 16.76100 43.38500
H  59.25400 18.24200 44.56400
H  59.17000 16.69000 45.28800
H  58.64500 18.02100 46.26300
H  60.38900 22.14800 44.89700
H  59.31400 24.42500 46.80200
H  59.24100 21.26500 47.43200
H  60.31000 22.60100 47.73700
H  60.98500 21.18700 47.02300
H  60.56900 25.27700 44.12900
H  61.59600 24.24000 45.08300
H  60.27100 26.50700 46.50000
H  61.41600 26.96300 45.25800
H  62.04900 26.05600 46.58900
H  56.71000 28.83800 45.74500
H  55.95900 29.60000 44.47300
H  57.50900 28.77900 44.16400
H  51.51400 26.99000 43.04800
H  51.94300 28.44000 39.05500
H  50.42300 27.59100 38.78000
H  51.85600 26.68400 38.62800
Mg -10.01500 16.81500 40.98400
C  -6.49300 16.65200 40.94900
C  -9.83100 20.12300 40.66100
C  -13.21500 16.74000 39.87900
C  -9.89400 13.22400 40.78100
N  -8.35300 18.24700 40.78200
C  -6.97300 17.97200 40.69300
C  -6.12800 19.23800 40.60700
C  -7.28100 20.24000 41.00100
C  -8.59400 19.52500 40.80400
C  -7.15000 21.02400 42.33800
C  -5.45300 19.42300 39.20900
C  -3.95100 19.01100 39.09100
H  -3.52300 18.19900 37.83900
N  -11.46300 18.23600 40.57700
C  -11.12800 19.58600 40.51400
C  -12.29200 20.33400 40.24600
C  -13.34600 19.40600 39.96300
C  -12.77000 18.06300 40.14200
C  -12.25200 21.75300 39.93700
C  -14.69900 19.73000 39.60900
O  -15.05600 20.92600 39.61200
C  -15.79100 18.66300 39.37300
N  -11.37200 15.21400 40.57800
C  -12.61600 15.47600 40.05200
C  -13.36500 14.16400 39.62800
C  -12.30500 13.12500 39.92900
C  -11.09300 13.87900 40.42000
C  -14.76500 14.03100 40.29600
C  -12.04200 11.99800 38.80700
C  -13.29900 11.46000 38.08000
N  -8.55600 15.24000 41.02600
C  -8.71200 13.86900 41.01400
C  -7.36400 13.23500 41.23600
C  -6.48800 14.29200 41.20800
C  -7.24100 15.47500 41.06300
C  -7.00100 11.89200 41.44000
C  -5.11700 14.69700 41.26300
O  -4.12600 14.00500 41.46700
C  -5.02000 16.22000 41.04500
C  -4.30500 16.69100 42.27000
O  -3.10300 16.80300 42.43200
O  -5.18700 17.23200 43.16400
C  -4.66800 17.72300 44.42000
H  -9.68400 21.20400 40.60800
H  -14.21600 16.64000 39.45400
H  -9.93400 12.13400 40.72100
H  -5.38500 19.13900 41.39900
H  -7.21000 20.94800 40.17500
H  -8.07100 20.89500 42.90700
H  -7.07100 22.09700 42.16500
H  -6.36400 20.62300 42.97800
H  -5.42500 20.45900 38.87200
H  -5.93800 18.73700 38.51500
H  -3.77900 18.56500 40.07000
H  -3.31100 19.89300 39.08600
H  -12.36200 21.91600 38.86500
H  -11.34200 22.33700 40.07600
H  -13.06200 22.26200 40.45900
H  -16.75800 19.16300 39.30500
H  -15.65900 18.04700 40.26200
H  -15.67900 18.02600 38.49600
H  -13.73500 14.19900 38.60300
H  -12.53800 12.49900 40.79100
H  -14.71500 13.16900 40.96000
H  -15.62900 13.83400 39.66100
H  -14.96800 14.87200 40.95900
H  -11.63800 11.15400 39.36500
H  -11.39900 12.52500 38.10200
H  -13.31500 11.60900 37.00000
H  -14.11200 12.07900 38.45800
H  -13.57800 10.46600 38.43000
H  -6.98900 11.68100 42.50900
H  -5.94800 11.82500 41.16600
H  -7.64600 11.20200 40.89700
H  -4.41700 16.44900 40.16600
H  -4.07900 18.62200 44.23400
H  -4.14200 16.99500 45.03700
H  -5.54200 17.95500 45.02900

