158

Mg 41.06500 9.19500 29.91500
C  43.03800 10.60000 32.33200
C  38.92100 7.96900 32.28800
C  39.18000 7.69100 27.48400
C  43.59400 9.91600 27.46000
N  40.96900 9.29200 32.04600
C  41.89600 9.95000 32.86500
C  41.38600 9.98700 34.27000
C  40.24200 8.94700 34.23300
C  40.01300 8.65300 32.73200
C  40.57400 7.61400 35.07000
C  41.00300 11.41200 34.73400
C  40.48400 11.60200 36.21800
H  41.33500 12.37200 37.31300
N  39.15500 8.14200 29.84200
C  38.43200 7.76800 30.99300
C  37.14800 7.22100 30.48000
C  37.22600 7.14000 29.06200
C  38.55500 7.64700 28.74100
C  36.11800 6.73000 31.51100
C  36.17800 6.69700 28.02500
O  36.33600 6.61500 26.84200
C  34.88100 6.39200 28.50100
N  41.35200 8.80300 27.77700
C  40.39900 8.20000 27.04600
C  40.70300 8.26100 25.52700
C  42.08100 8.98400 25.52400
C  42.38900 9.29100 26.99500
C  40.68500 6.92600 24.74300
C  42.10700 10.22100 24.59600
C  41.80800 11.59600 25.12700
N  42.96100 10.10000 29.84800
C  43.85400 10.27800 28.79000
C  45.04000 10.86400 29.31100
C  44.72200 11.11100 30.70300
C  43.51900 10.52600 30.95000
C  46.33500 11.21300 28.60000
C  45.17600 11.71100 31.91800
O  46.24100 12.20400 32.18100
C  44.16600 11.27900 33.11000
C  44.90100 10.42800 34.04200
O  45.25000 9.24600 33.84000
O  45.14800 11.17500 35.10600
C  45.99000 10.58700 36.10600
H  38.21900 7.63200 33.05300
H  38.55500 7.37400 26.64500
H  44.35500 10.19600 26.72900
H  42.21200 9.58800 34.85800
H  39.38600 9.37200 34.75600
H  41.62300 7.32000 35.03500
H  40.04300 6.75700 34.65500
H  40.29500 7.82200 36.10300
H  40.26800 11.91800 34.10800
H  41.95500 11.91300 34.56200
H  40.23600 10.70000 36.77800
H  39.47900 12.00200 36.35200
H  36.42300 6.67200 32.55600
H  35.83000 5.75800 31.11100
H  35.22800 7.35700 31.45200
H  34.40900 7.25100 28.97800
H  35.06200 5.56600 29.18900
H  34.22100 5.97000 27.74300
H  39.89700 8.90000 25.16500
H  42.90200 8.34600 25.19800
H  40.07800 6.94100 23.83800
H  40.17800 6.16700 25.33900
H  41.70700 6.60500 24.54100
H  41.37300 10.08400 23.80200
H  43.04600 10.37200 24.06500
H  42.79700 11.98700 25.36400
H  41.22500 11.42200 26.03100
H  41.17200 12.22700 24.50700
H  46.14700 11.02800 27.54200
H  47.16600 10.59200 28.93700
H  46.56300 12.21400 28.96600
H  43.76500 12.16700 33.59900
H  45.82900 9.56600 36.45400
H  45.76600 11.24100 36.94900
H  46.96600 10.64200 35.62300
Mg 47.60700 24.77400 27.93100
C  48.51000 26.87000 30.62400
C  46.74700 22.37300 30.29700
C  47.19500 22.58500 25.39400
C  48.96400 27.06900 25.70400
N  47.62700 24.68000 30.18000
C  48.01400 25.62900 31.07700
C  47.71000 25.26800 32.53600
C  47.29600 23.74900 32.34300
C  47.09600 23.64300 30.88000
C  48.35800 22.79600 33.00400
C  46.65900 26.11300 33.27700
C  47.29800 26.89100 34.50700
H  46.45700 27.59800 35.56300
N  46.99700 22.74300 27.83500
C  46.63700 21.95900 28.93900
C  46.11400 20.74500 28.42800
C  46.29700 20.78200 26.97100
C  46.81000 22.08500 26.68800
C  45.62000 19.65000 29.36300
C  45.83200 19.72200 25.94900
O  46.18500 19.70000 24.76500
C  45.08900 18.55800 26.39400
N  48.07100 24.82500 25.89200
C  47.77900 23.84600 25.02700
C  48.18600 24.17000 23.58800
C  48.41700 25.70100 23.66700
C  48.49100 25.91400 25.17500
C  49.26300 23.24400 22.83400
C  47.28000 26.60500 23.07700
C  47.85400 27.88700 22.39000
N  48.57900 26.58300 28.07000
C  49.04300 27.34900 27.11000
C  49.61400 28.60100 27.69100
C  49.49900 28.42600 29.03200
C  48.82500 27.16100 29.24300
C  50.26700 29.72000 26.87500
C  49.72900 29.00100 30.37800
O  50.25900 30.06900 30.69900
C  49.04100 28.03400 31.43500
C  50.17500 27.64600 32.35200
O  50.71100 26.56400 32.28900
O  50.58800 28.71100 33.15600
C  51.66600 28.36900 34.01000
H  46.49700 21.59400 31.02100
H  46.97700 21.88300 24.58600
H  49.35700 27.87700 25.08400
H  48.71600 25.23200 32.95600
H  46.27800 23.61400 32.70700
H  47.94700 22.13400 33.76600
H  49.22800 23.25200 33.47700
H  48.73800 22.24000 32.14700
H  45.72900 25.57900 33.47300
H  46.45800 26.87300 32.52200
H  47.82900 27.75900 34.11500
H  47.95100 26.16500 34.99100
H  44.53500 19.54600 29.35700
H  45.86300 19.78700 30.41700
H  46.08400 18.73300 29.00000
H  44.24700 19.02300 26.90600
H  45.64800 17.87400 27.03300
H  44.78000 18.00300 25.50800
H  47.22300 23.96600 23.12000
H  49.37300 25.98200 23.22400
H  48.75600 22.48100 22.24200
H  49.89700 22.83700 23.62200
H  49.91400 23.89400 22.25000
H  46.50900 26.73700 23.83600
H  46.65000 26.12200 22.33000
H  47.71100 28.74200 23.05200
H  47.32300 28.12900 21.47000
H  48.88100 27.87900 22.02500
H  49.82500 29.87600 25.89100
H  51.35400 29.65300 26.81600
H  50.07600 30.54900 27.55600
H  48.23500 28.52200 31.98400
H  52.56900 28.10200 33.46100
H  51.44500 27.51100 34.64600
H  51.93700 29.19100 34.67300

