158

Mg 24.84600 1.79200 30.20900
C  27.14100 1.43100 32.81000
C  22.43400 2.38500 32.38100
C  22.65800 1.67500 27.62000
C  27.34700 0.65300 28.01000
N  24.80500 1.90500 32.35200
C  25.86700 1.91500 33.25300
C  25.46900 2.38600 34.59100
C  23.90300 2.43000 34.52700
C  23.65300 2.19900 32.98000
C  23.25100 1.41900 35.48400
C  26.05900 3.71600 35.03200
C  27.30700 3.69200 35.92700
H  27.16100 4.28800 37.34000
N  22.81100 2.04300 30.07300
C  22.01700 2.32000 31.09800
C  20.64500 2.48200 30.64600
C  20.64700 2.09700 29.28200
C  22.11600 1.98900 28.87900
C  19.48500 2.82600 31.50300
C  19.45400 1.96800 28.31400
O  19.55800 1.70100 27.09600
C  18.06400 2.07700 28.78000
N  25.02300 1.26700 28.10000
C  23.93300 1.32500 27.26500
C  24.28600 0.85700 25.83900
C  25.76600 0.41600 26.01500
C  26.06500 0.77700 27.47800
C  23.33500 -0.18600 25.17500
C  26.68700 1.15900 25.02900
C  27.29300 2.48700 25.43900
N  26.90100 1.22300 30.30600
C  27.81200 0.70700 29.33600
C  29.13300 0.40000 29.91500
C  28.91700 0.73000 31.30500
C  27.52100 1.11300 31.51700
C  30.36400 -0.19800 29.27700
C  29.54500 0.87700 32.61900
O  30.72800 0.70900 32.94500
C  28.49900 1.11900 33.60700
C  28.46000 0.12800 34.73600
O  27.62800 -0.75400 34.83500
O  29.42300 0.39200 35.68300
C  29.27600 -0.34200 36.96800
H  21.66600 2.66600 33.10500
H  22.00000 1.82400 26.76200
H  28.17300 0.37100 27.35400
H  25.81800 1.55500 35.20500
H  23.54900 3.41100 34.84700
H  22.39300 0.96900 34.98400
H  22.88400 1.87300 36.40400
H  23.95900 0.64900 35.79000
H  25.31500 4.28100 35.59200
H  26.24700 4.29000 34.12500
H  28.12200 4.25200 35.46800
H  27.80500 2.72400 35.98900
H  19.71000 3.04100 32.54700
H  18.81300 1.97300 31.59800
H  19.01000 3.70400 31.06600
H  17.89700 1.23800 29.45600
H  17.37500 1.98300 27.94000
H  17.97000 3.04400 29.27400
H  24.26600 1.67300 25.11700
H  25.98500 -0.64200 25.87500
H  23.81700 -1.16200 25.22900
H  22.97300 -0.05800 24.15500
H  22.40600 -0.36000 25.71900
H  26.15000 1.18400 24.08100
H  27.53900 0.49500 24.88600
H  28.37500 2.39700 25.53500
H  26.83700 2.89000 26.34300
H  27.12900 3.25500 24.68200
H  31.05800 0.53000 28.85500
H  30.12700 -0.86300 28.44700
H  30.89100 -0.68100 30.09900
H  28.84400 2.07000 34.01300
H  30.16100 -0.17400 37.58200
H  28.93300 -1.37700 36.96500
H  28.50900 0.17100 37.54800
Mg -12.60200 38.40700 41.34600
C  -10.60500 35.78500 40.47800
C  -10.38600 40.59700 40.00200
C  -15.18000 40.69600 41.11800
C  -15.06800 36.07300 42.52500
N  -10.79600 38.12200 40.08800
C  -10.10900 36.97200 39.89800
C  -8.66800 37.19600 39.40100
C  -8.62800 38.75100 39.41100
C  -9.99800 39.21400 39.89600
C  -7.41600 39.49200 40.09100
C  -8.44900 36.59700 37.92200
C  -7.24200 35.74400 37.71500
H  -6.56500 35.98100 36.40900
N  -12.72600 40.36400 40.69800
C  -11.63400 41.12200 40.27700
C  -12.05300 42.48800 40.13700
C  -13.44900 42.55000 40.37100
C  -13.84500 41.16900 40.77500
C  -11.25100 43.68600 39.79400
C  -14.27500 43.82400 40.39600
O  -13.79400 44.93200 40.13100
C  -15.72800 43.86200 40.82200
N  -14.83000 38.48100 41.93100
C  -15.67700 39.46600 41.55900
C  -17.13300 39.14800 41.78800
C  -17.08500 37.72500 42.30100
C  -15.57700 37.39800 42.28200
C  -17.94700 40.06500 42.74200
C  -17.99000 36.74400 41.51900
C  -18.82000 35.69400 42.44400
N  -12.78500 36.40600 41.60900
C  -13.79200 35.56200 42.17200
C  -13.34500 34.18600 42.14200
C  -12.11100 34.26900 41.51900
C  -11.81800 35.57600 41.17400
C  -14.12400 32.97900 42.59600
C  -11.05600 33.47900 40.95700
O  -11.03200 32.22500 40.93800
C  -10.01400 34.38300 40.34800
C  -8.77700 33.96900 41.08900
O  -7.88500 33.30500 40.58800
O  -8.70100 34.62600 42.26700
C  -7.53500 34.27000 43.05900
H  -9.52900 41.21700 39.73100
H  -15.95600 41.45300 40.98800
H  -15.86000 35.40800 42.87600
H  -7.89100 36.90200 40.10700
H  -8.51200 39.10000 38.38400
H  -6.65300 38.78200 40.41100
H  -7.78800 39.99600 40.98300
H  -6.91900 40.30100 39.55500
H  -8.57400 37.37000 37.16400
H  -9.38500 36.08100 37.70600
H  -7.41800 34.68500 37.90300
H  -6.51400 35.98800 38.48900
H  -10.19000 43.44900 39.71600
H  -11.43400 44.37700 40.61700
H  -11.57300 44.10100 38.84000
H  -16.19600 44.84400 40.75000
H  -15.86700 43.37300 41.78600
H  -16.19000 43.26100 40.04000
H  -17.61800 39.15900 40.81200
H  -17.29300 37.75400 43.37100
H  -17.38300 40.97000 42.96700
H  -18.13300 39.68100 43.74500
H  -18.87500 40.40200 42.28000
H  -17.42300 36.10000 40.84600
H  -18.64700 37.30500 40.85400
H  -19.78400 36.06200 42.79700
H  -18.16700 35.32500 43.23400
H  -19.12200 34.83800 41.84100
H  -13.86900 32.91200 43.65400
H  -13.81300 32.14200 41.97100
H  -15.17000 33.22400 42.41100
H  -9.93500 34.03200 39.31900
H  -7.87600 33.44800 43.68900
H  -7.19800 35.07600 43.71100
H  -6.68000 33.94800 42.46500

