158

Mg 24.65100 -4.94100 45.81000
C  26.84400 -2.50200 44.28600
C  22.30300 -4.14000 43.66100
C  23.19200 -7.73800 46.88200
C  27.46600 -5.69900 48.03900
N  24.69500 -3.46500 44.15600
C  25.57800 -2.58500 43.69100
C  25.00900 -1.72300 42.50500
C  23.44300 -2.11100 42.58500
C  23.41600 -3.31900 43.57100
C  22.47400 -0.94500 42.86600
C  25.81400 -1.90500 41.18500
C  26.08700 -0.61600 40.37200
H  25.78400 -0.65800 38.84100
N  22.97100 -5.81700 45.36600
C  22.07400 -5.28600 44.45600
C  20.92600 -6.19200 44.45900
C  21.24100 -7.25300 45.37500
C  22.49500 -6.95400 45.93500
C  19.73700 -6.09600 43.47600
C  20.31300 -8.48700 45.57700
O  19.10300 -8.45700 45.26700
C  20.76800 -9.67300 46.29400
N  25.36700 -6.64900 47.14300
C  24.46500 -7.57000 47.37700
C  24.95700 -8.47500 48.55000
C  26.25900 -7.76300 49.04000
C  26.39900 -6.62200 47.98900
C  23.88200 -8.62900 49.67300
C  27.56100 -8.66100 49.27000
C  28.14100 -8.59600 50.73800
N  26.71900 -4.25200 46.12800
C  27.70200 -4.65100 47.05500
C  28.88700 -3.85300 46.92500
C  28.59500 -2.98300 45.88300
C  27.31700 -3.27500 45.42500
C  30.06900 -3.91200 47.84200
C  29.09300 -1.76600 45.08300
O  29.99900 -1.02100 45.17800
C  28.07600 -1.62700 43.91500
C  27.76000 -0.13100 43.79800
O  27.07700 0.47700 44.57500
O  28.49000 0.40300 42.78000
C  28.15300 1.80200 42.62400
H  21.59200 -3.91900 42.86100
H  22.74200 -8.62300 47.33800
H  28.21500 -5.96200 48.78900
H  25.12900 -0.65200 42.66800
H  23.12500 -2.51300 41.62300
H  21.83600 -1.13800 43.72900
H  21.73300 -0.90700 42.06700
H  22.85600 0.07400 42.92200
H  25.22300 -2.65200 40.65600
H  26.73500 -2.44200 41.41200
H  27.13400 -0.31500 40.33200
H  25.47600 0.15900 40.83300
H  19.81100 -6.97800 42.84000
H  19.62900 -5.28300 42.75800
H  18.84200 -6.25500 44.07700
H  20.80300 -9.67100 47.38300
H  21.72500 -9.98300 45.87600
H  20.14300 -10.50500 45.96900
H  25.23500 -9.48000 48.23200
H  26.01400 -7.17700 49.92600
H  23.54000 -9.66300 49.72500
H  22.97300 -8.03300 49.60000
H  24.28500 -8.45100 50.67000
H  28.30800 -8.31000 48.55800
H  27.48200 -9.70100 48.95400
H  27.45100 -9.23900 51.28500
H  28.31000 -7.61200 51.17500
H  29.09000 -9.12900 50.69100
H  30.92900 -3.73600 47.19700
H  30.03400 -4.92200 48.25200
H  30.00200 -3.19400 48.66000
H  28.45100 -2.04200 42.98000
H  29.05200 2.12300 42.09700
H  27.99400 2.35200 43.55200
H  27.35000 1.89700 41.89400
Mg 34.49600 47.59300 24.69200
C  35.09500 46.21200 27.86700
C  32.87000 50.32700 26.09900
C  33.62900 48.58400 21.65600
C  36.22800 44.94100 23.25400
N  34.07400 48.29300 26.77500
C  34.36300 47.51000 27.86900
C  33.91200 48.27800 29.17000
C  33.18800 49.57100 28.55400
C  33.36700 49.42500 27.07100
C  31.70200 49.85700 29.06600
C  35.00500 48.38000 30.24500
C  34.76400 47.68500 31.58200
H  33.40000 47.57100 32.24500
N  33.47700 49.30500 23.99800
C  32.88300 50.29400 24.72500
C  32.29800 51.27500 23.79200
C  32.33300 50.69900 22.55100
C  33.14100 49.43400 22.69700
C  31.72200 52.69700 24.28500
C  31.83500 51.25500 21.23500
O  31.84200 50.66200 20.17300
C  31.09400 52.60900 21.21400
N  34.90500 46.86100 22.72700
C  34.50500 47.50900 21.66000
C  35.13000 46.90500 20.36800
C  36.08600 45.84600 20.96500
C  35.76600 45.89800 22.38600
C  34.19200 46.37400 19.22100
C  37.55200 45.96000 20.55900
C  38.45600 44.68600 20.62700
N  35.39500 45.97000 25.36500
C  36.03300 44.91200 24.63300
C  36.39400 43.85000 25.59500
C  36.05400 44.25900 26.89000
C  35.49100 45.58700 26.65900
C  37.09600 42.55100 25.21700
C  36.05700 43.88600 28.29500
O  36.48200 42.88200 28.87800
C  35.36500 45.11700 29.02900
C  34.06400 44.71700 29.77200
O  32.92500 44.59800 29.27200
O  34.32100 44.47400 31.12000
C  33.21000 43.77300 31.80300
H  32.50700 51.26300 26.52900
H  33.37100 48.94500 20.65900
H  36.76800 44.05900 22.90500
H  33.09800 47.68800 29.59100
H  33.67600 50.46000 28.95300
H  31.05100 49.91900 28.19400
H  31.65400 50.84400 29.52600
H  31.41000 49.06200 29.75300
H  35.06400 49.45200 30.42900
H  35.95800 48.03300 29.84500
H  35.27000 48.31500 32.31400
H  35.19400 46.68500 31.63500
H  32.23900 53.48900 23.74200
H  31.96400 52.79300 25.34300
H  30.66200 52.81100 24.05800
H  31.80200 53.33800 21.61100
H  30.15600 52.72800 21.75700
H  30.76300 52.84100 20.20200
H  35.74500 47.68500 19.91900
H  35.76000 44.82300 20.77600
H  33.18000 46.52400 19.59600
H  34.31300 45.30000 19.08100
H  34.27600 46.85000 18.24400
H  37.97600 46.66100 21.27700
H  37.58100 46.46200 19.59200
H  39.24900 44.83900 21.35900
H  38.87200 44.58000 19.62500
H  37.87000 43.82000 20.93300
H  37.94700 42.71400 24.55600
H  36.47200 41.81200 24.71300
H  37.54900 42.16100 26.12900
H  35.96300 45.44200 29.88000
H  33.68500 43.42600 32.72000
H  32.78500 42.95900 31.21600
H  32.39700 44.46600 32.02000

