158

Mg 35.15200 2.96100 29.69000
C  32.48300 3.92300 31.88700
C  37.24400 3.37700 32.32200
C  37.56400 2.12600 27.67500
C  32.85100 3.13000 27.02400
N  34.85600 3.50100 31.90400
C  33.70900 3.79900 32.56300
C  33.87200 3.79600 34.15100
C  35.42400 4.09700 34.10800
C  35.87400 3.59900 32.72700
C  35.81900 5.49900 34.55900
C  33.39400 2.42600 34.78600
C  33.12800 2.50300 36.26800
H  33.96900 3.47100 37.06600
N  37.13200 2.68000 29.98600
C  37.87600 2.93900 31.13800
C  39.26500 2.57100 30.95700
C  39.34200 2.13700 29.59500
C  38.02000 2.33300 28.99200
C  40.21800 2.71800 32.05900
C  40.51800 1.55600 28.87500
O  40.44400 1.28200 27.65200
C  41.83700 1.28900 29.52900
N  35.21400 2.66000 27.59200
C  36.32700 2.24700 26.95700
C  36.24200 2.36000 25.42200
C  34.64900 2.58900 25.20100
C  34.20100 2.79100 26.67000
C  37.12500 3.56100 24.84600
C  34.06000 1.28100 24.59700
C  33.34100 1.40000 23.23300
N  33.08600 3.55600 29.40600
C  32.34400 3.46000 28.25900
C  30.94300 3.63900 28.71400
C  30.98300 3.87500 30.11400
C  32.31800 3.78400 30.46700
C  29.76400 3.68300 27.80900
C  30.15200 4.19300 31.34000
O  28.95700 4.41000 31.41500
C  31.07400 4.15400 32.53300
C  31.06400 5.33500 33.41500
O  31.50400 6.43300 33.23400
O  30.57800 4.86200 34.60200
C  30.60300 5.86900 35.66100
H  37.92800 3.51800 33.16200
H  38.41100 1.81600 27.05900
H  32.13900 2.98400 26.20800
H  33.26900 4.60700 34.55900
H  35.85300 3.37800 34.80600
H  36.46800 5.44500 35.43400
H  34.95100 6.05000 34.92000
H  36.31500 6.11200 33.80600
H  34.20600 1.71700 34.63100
H  32.59800 1.97500 34.19300
H  33.16600 1.57600 36.84100
H  32.13500 2.95200 36.25400
H  40.93100 1.89900 31.96400
H  39.67600 2.63300 33.00000
H  40.75000 3.66800 32.11800
H  41.57900 0.65200 30.37500
H  42.29400 2.24500 29.78200
H  42.45800 0.78100 28.79100
H  36.59800 1.40500 25.03600
H  34.58800 3.45500 24.54200
H  36.58800 4.35600 24.32900
H  37.92500 3.21700 24.19100
H  37.58200 4.05300 25.70500
H  33.29300 0.93100 25.28700
H  34.67500 0.38700 24.70000
H  34.08000 1.01900 22.52700
H  33.20400 2.46500 23.04600
H  32.47500 0.74300 23.14700
H  28.95600 4.25500 28.26500
H  29.40400 2.71900 27.44700
H  30.12800 4.26100 26.96100
H  30.79200 3.30700 33.15800
H  30.30800 5.58300 36.67000
H  30.01600 6.72700 35.33400
H  31.63900 6.20400 35.71400
Mg 40.88700 8.83600 29.37600
C  42.59500 10.18800 32.18600
C  38.51300 7.72600 31.54900
C  39.27200 7.81200 26.64200
C  43.48700 10.06400 27.39500
N  40.59600 8.97100 31.62200
C  41.34600 9.66700 32.55000
C  40.70700 9.58200 33.90200
C  39.44100 8.67300 33.68400
C  39.51300 8.43900 32.21900
C  39.37900 7.45200 34.59500
C  40.36400 10.99500 34.49600
C  39.87800 10.97300 35.95900
H  40.69600 11.78000 37.05900
N  39.17800 7.80500 29.13700
C  38.33200 7.45000 30.16200
C  37.05600 6.87100 29.48500
C  37.14100 7.01600 28.06300
C  38.55800 7.52600 27.90600
C  36.14500 6.00100 30.26800
C  36.13300 6.68300 27.01800
O  36.39100 6.76400 25.81600
C  34.78800 6.30800 27.46300
N  41.41900 8.62100 27.36100
C  40.54000 8.22900 26.42000
C  41.12100 8.43200 25.00600
C  42.22200 9.46100 25.26800
C  42.43200 9.37500 26.72800
C  41.64400 7.13200 24.39200
C  41.71600 10.84600 24.90000
C  42.10600 11.36400 23.53900
N  42.75600 9.69200 29.70300
C  43.64500 10.20500 28.76500
C  44.81700 10.75800 29.43000
C  44.49900 10.66900 30.79700
C  43.17300 10.14300 30.89200
C  46.07000 11.32700 28.91500
C  44.88500 11.11000 32.12000
O  45.91500 11.64800 32.51700
C  43.63200 10.84800 33.03100
C  44.14600 9.94800 34.08300
O  44.83400 8.96000 33.92000
O  43.78100 10.41900 35.31300
C  44.21500 9.70200 36.47300
H  37.70300 7.47500 32.23800
H  38.69700 7.50700 25.76600
H  44.13900 10.67000 26.76200
H  41.43400 9.14200 34.58400
H  38.48000 9.16000 33.85100
H  38.40600 7.45400 35.08500
H  40.12600 7.38900 35.38600
H  39.41200 6.66600 33.84100
H  39.61300 11.33200 33.78100
H  41.35800 11.42000 34.35500
H  40.02500 9.92300 36.21000
H  38.83600 11.29000 36.01200
H  36.44100 6.09100 31.31400
H  36.12200 4.95400 29.96700
H  35.13000 6.38900 30.36100
H  34.79200 5.34100 27.96600
H  34.11600 6.30800 26.60400
H  34.47700 7.06400 28.18500
H  40.25100 8.74800 24.43000
H  43.17100 9.23900 24.78000
H  42.71600 6.94700 24.45400
H  41.36200 6.95300 23.35400
H  41.17800 6.29000 24.90500
H  42.00600 11.53700 25.69200
H  40.63500 10.92800 25.01600
H  41.17200 11.56900 23.01600
H  42.59800 10.48100 23.12900
H  42.76800 12.22500 23.63000
H  46.81900 11.18700 29.69500
H  45.97000 12.36700 28.60500
H  46.49200 10.69900 28.13100
H  43.23800 11.78900 33.41500
H  45.25100 10.01700 36.59600
H  44.16800 8.63100 36.27700
H  43.56800 10.15200 37.22600

