158

Mg 24.13700 -5.56000 45.33900
C  26.19600 -3.13900 43.86200
C  21.41700 -4.28400 43.55500
C  22.50900 -8.36600 45.83400
C  26.98900 -6.76700 47.03900
N  23.84500 -3.86500 43.93200
C  24.84400 -3.03300 43.47600
C  24.34700 -2.10400 42.34300
C  22.78700 -2.29500 42.48000
C  22.62100 -3.58200 43.40700
C  21.97700 -0.96900 42.92600
C  24.91400 -2.49300 40.94400
C  25.39800 -1.31000 40.07100
H  25.07900 -1.44000 38.56100
N  22.18000 -6.16900 44.94300
C  21.16800 -5.49300 44.23000
C  20.05600 -6.28200 44.09000
C  20.32000 -7.45400 44.75900
C  21.71700 -7.35200 45.20900
C  18.72800 -5.83900 43.36500
C  19.31800 -8.61600 44.99200
O  18.19900 -8.49300 44.46700
C  19.59300 -9.69300 45.97100
N  24.66700 -7.32700 46.39500
C  23.76900 -8.31100 46.44900
C  24.44700 -9.49700 47.18100
C  25.90000 -9.00500 47.63000
C  25.90200 -7.59900 47.00800
C  23.52600 -10.07100 48.36600
C  27.01400 -9.93300 47.10100
C  28.19300 -10.28400 47.96400
N  26.18900 -4.93700 45.57200
C  27.15600 -5.55900 46.33500
C  28.49800 -4.85900 46.20600
C  28.16800 -3.87700 45.16400
C  26.71100 -4.02800 44.83300
C  29.80500 -5.38900 46.70000
C  28.71500 -2.86900 44.15000
O  29.91400 -2.51400 43.88300
C  27.49200 -2.34300 43.39200
C  27.45400 -0.88100 43.60800
O  26.87300 -0.35500 44.57000
O  27.98100 -0.23900 42.55800
C  27.85100 1.22900 42.61800
H  20.61000 -3.91800 42.91600
H  22.01700 -9.32900 45.98800
H  27.81600 -7.18500 47.61600
H  24.57200 -1.08100 42.64500
H  22.38400 -2.63900 41.52800
H  22.64000 -0.11100 43.04100
H  21.70500 -1.24200 43.94500
H  21.11100 -0.76700 42.29500
H  24.12500 -2.89500 40.30800
H  25.70200 -3.22500 41.11600
H  26.46800 -1.12600 40.16600
H  24.97500 -0.44000 40.57400
H  18.79700 -6.02100 42.29200
H  18.74200 -4.76600 43.55700
H  17.76900 -6.24000 43.69200
H  18.62700 -10.02300 46.35200
H  20.17100 -9.26900 46.79200
H  20.16300 -10.44800 45.42900
H  24.48700 -10.30300 46.44900
H  25.83800 -8.89300 48.71300
H  24.13100 -10.39500 49.21200
H  23.16300 -11.03200 48.00100
H  22.68400 -9.41200 48.58000
H  27.34500 -9.50900 46.15300
H  26.56700 -10.87900 46.79600
H  28.13500 -11.32400 48.28800
H  28.17300 -9.63200 48.83800
H  29.01100 -10.12200 47.26100
H  30.13700 -4.90200 47.61700
H  30.55000 -5.36300 45.90500
H  29.86300 -6.40700 47.08400
H  27.63000 -2.48500 42.32000
H  27.83100 1.56300 41.58100
H  28.76700 1.66200 43.02100
H  26.99900 1.68400 43.12200
Mg 46.78200 17.10400 29.05100
C  45.23500 16.40900 32.11500
C  49.07000 18.95900 30.61000
C  47.90600 17.87300 26.05500
C  43.82200 15.65600 27.49800
N  46.99700 17.73800 31.12000
C  46.33600 17.29900 32.24500
C  47.06700 17.66900 33.47100
C  48.32100 18.48500 32.98400
C  48.14000 18.37100 31.47400
C  48.35300 19.98700 33.33800
C  47.54400 16.49500 34.40200
C  46.85200 16.52500 35.83700
H  46.99800 17.73900 36.70500
N  48.35400 18.21400 28.36100
C  49.16500 18.89100 29.19700
C  50.14400 19.57900 28.37800
C  49.88800 19.27900 26.95300
C  48.69400 18.42900 27.04800
C  51.34100 20.46000 28.83700
C  50.73700 19.60200 25.69600
O  50.36900 19.07300 24.63800
C  51.88200 20.67000 25.71500
N  46.09700 16.52200 27.06400
C  46.76700 17.08800 26.02400
C  46.07100 16.80800 24.59100
C  44.74500 16.15700 25.08800
C  44.89500 16.17100 26.70900
C  45.94400 18.05800 23.60900
C  44.50800 14.71400 24.53400
C  45.32500 13.56400 25.32200
N  44.95700 16.14900 29.59900
C  43.88300 15.64100 28.84300
C  42.87900 15.23700 29.78900
C  43.42300 15.39200 31.04800
C  44.64200 15.99100 30.86400
C  41.51700 14.74900 29.50900
C  43.09000 15.21200 32.39800
O  42.02400 14.82400 32.91300
C  44.23100 15.94500 33.20600
C  43.62700 17.10300 33.93700
O  43.50300 18.20500 33.47700
O  43.23700 16.64200 35.15100
C  42.54300 17.51700 35.97500
H  49.83900 19.57400 31.08100
H  48.38300 18.02300 25.08400
H  42.86100 15.43200 27.03100
H  46.46900 18.38700 34.03200
H  49.26800 17.97800 33.16800
H  49.38300 20.28300 33.53400
H  47.66300 20.23500 34.14400
H  48.07900 20.58100 32.46600
H  48.62500 16.55300 34.53500
H  47.31000 15.60100 33.82300
H  47.44000 15.77300 36.36200
H  45.80500 16.22300 35.82700
H  52.26700 20.07600 28.41000
H  51.35800 20.21100 29.89800
H  51.10800 21.50600 28.63900
H  51.62900 21.52100 26.34700
H  51.74800 20.91400 24.66100
H  52.87600 20.33000 26.00500
H  46.71400 16.14200 24.01600
H  43.86500 16.74800 24.83700
H  46.14000 17.82200 22.56300
H  46.70700 18.79900 23.84300
H  44.93200 18.44900 23.71700
H  44.74100 14.72000 23.46900
H  43.44200 14.54000 24.67900
H  46.11900 13.16700 24.69000
H  44.65700 12.77800 25.67600
H  45.87300 13.89700 26.20300
H  40.99900 15.42800 28.83100
H  41.16200 14.56600 30.52300
H  41.52200 13.77100 29.02800
H  44.66900 15.14200 33.80000
H  41.53000 17.69000 35.61200
H  43.07600 18.46800 35.99300
H  42.62700 17.09900 36.97800

