158

Mg 42.76900 3.91000 46.63500
C  40.89000 6.90400 46.61300
C  39.78400 2.12200 46.72200
C  44.53900 1.28200 45.83200
C  45.61200 5.97100 46.15000
N  40.67600 4.45000 46.77800
C  40.14200 5.75200 46.78700
C  38.62900 5.68500 47.04500
C  38.29100 4.16400 47.08100
C  39.65600 3.52700 46.90500
C  37.69100 3.69700 48.44300
C  37.59200 6.51100 46.20200
C  37.40900 6.09600 44.73800
H  37.86600 7.00300 43.67200
N  42.26900 1.93100 46.42600
C  40.99100 1.38800 46.42400
C  41.07600 -0.02700 46.09400
C  42.45100 -0.28700 45.89100
C  43.12200 1.00600 45.95200
C  39.88900 -0.99800 46.04100
C  42.98500 -1.65000 45.62400
O  42.24100 -2.61500 45.87900
C  44.48200 -1.97500 45.27400
N  44.82200 3.71500 46.08100
C  45.29400 2.43300 46.00200
C  46.82000 2.47700 45.84800
C  47.14900 4.00800 45.94400
C  45.79900 4.60900 46.10200
C  47.51000 1.60600 46.96600
C  48.09100 4.58700 44.90100
C  49.26900 5.48000 45.43500
N  43.24500 6.02300 46.49800
C  44.41700 6.68500 46.24100
C  44.27100 8.15000 46.24000
C  42.84500 8.23900 46.34400
C  42.26800 6.91600 46.50000
C  45.22600 9.29900 45.98600
C  41.71300 9.20900 46.27700
O  41.71800 10.43100 46.12400
C  40.45600 8.32200 46.61000
C  39.87500 8.72400 47.96200
O  40.44100 8.50700 48.99900
O  38.76200 9.50200 47.78600
C  38.17000 9.77200 49.10400
H  38.87400 1.52600 46.81800
H  45.26400 0.46900 45.75400
H  46.51200 6.50800 45.84500
H  38.59500 6.14000 48.03500
H  37.66200 3.70300 46.32000
H  37.17100 4.51100 48.94900
H  38.37100 3.15900 49.10300
H  36.84400 3.08400 48.13600
H  37.67500 7.59300 46.30600
H  36.63100 6.34200 46.68700
H  36.35900 5.88200 44.54100
H  37.98200 5.18000 44.59100
H  38.94300 -0.45900 45.99200
H  39.85400 -1.65000 46.91400
H  40.08000 -1.54300 45.11600
H  45.20800 -1.67800 46.03100
H  44.72000 -1.47800 44.33400
H  44.46300 -3.03900 45.03900
H  47.14200 1.92400 44.96600
H  47.63400 4.16400 46.90800
H  46.83800 1.29800 47.76600
H  48.27800 2.20900 47.45100
H  47.92700 0.70400 46.52000
H  47.61000 5.12700 44.08500
H  48.57000 3.67300 44.55200
H  50.20200 5.23400 44.93000
H  49.45600 5.32700 46.49800
H  49.04700 6.54100 45.31600
H  45.86700 9.55300 46.83000
H  44.73500 10.18700 45.58700
H  45.89600 9.10100 45.14900
H  39.66900 8.53700 45.88700
H  37.16800 10.15600 48.91700
H  38.74500 10.57900 49.55600
H  38.12500 8.90300 49.76100
Mg 42.66500 41.61500 26.45000
C  41.91300 43.86500 29.18500
C  43.63000 39.35200 28.84700
C  44.01500 39.70400 24.06800
C  42.02300 44.07400 24.13900
N  42.76800 41.66700 28.71700
C  42.40500 42.61800 29.60200
C  42.42100 42.06500 31.05700
C  43.16500 40.70500 30.92500
C  43.16700 40.53900 29.39000
C  44.52800 40.66000 31.60300
C  41.08200 41.98800 31.75000
C  41.16300 41.78700 33.27300
H  40.53000 42.84900 34.14000
N  43.75100 39.72700 26.44600
C  43.81700 38.97800 27.52900
C  44.35300 37.66900 27.11400
C  44.55900 37.74800 25.70700
C  44.15300 39.09700 25.32300
C  44.56600 36.49500 28.05100
C  45.13000 36.80100 24.81500
O  45.42300 37.06900 23.65700
C  45.33700 35.35700 25.27400
N  43.15100 41.88900 24.45000
C  43.59500 40.91900 23.64800
C  43.53900 41.30400 22.18700
C  42.85700 42.63900 22.19900
C  42.66500 42.90600 23.66300
C  44.95900 41.24500 21.49900
C  41.39700 42.54700 21.49200
C  40.32100 41.72900 22.18700
N  41.98900 43.58700 26.51200
C  41.74900 44.45600 25.51400
C  41.35900 45.67500 26.05500
C  41.44200 45.55900 27.52400
C  41.74600 44.22300 27.73600
C  41.08800 46.89100 25.23200
C  41.31700 46.20200 28.80400
O  40.97500 47.33700 28.99400
C  41.50900 45.07800 29.92700
C  42.55100 45.62300 30.89700
O  43.78000 45.73500 30.60000
O  42.03700 46.02700 32.07100
C  43.03300 46.62800 32.98200
H  44.01200 38.65700 29.59700
H  44.49700 39.13600 23.27000
H  41.88300 44.84500 23.37800
H  42.99100 42.88700 31.49000
H  42.58500 39.97100 31.48300
H  44.56400 39.66200 32.03900
H  44.67500 41.27800 32.48900
H  45.36700 40.83400 30.92900
H  40.61200 41.07700 31.38100
H  40.49700 42.89700 31.60700
H  42.14600 41.58600 33.69900
H  40.64500 40.89100 33.61800
H  44.21600 35.57100 27.59200
H  44.08500 36.62000 29.02100
H  45.64600 36.43100 28.18000
H  45.87800 35.39300 26.21900
H  46.00200 34.96500 24.50400
H  44.39200 34.82500 25.17000
H  42.88600 40.49300 21.86500
H  43.53700 43.29800 21.65900
H  45.73300 40.94800 22.20600
H  45.28300 42.19000 21.06200
H  44.84900 40.45700 20.75300
H  41.55200 42.16300 20.48400
H  41.04600 43.55100 21.25400
H  39.50500 42.37900 22.50300
H  40.69900 41.13600 23.02000
H  39.89300 41.02400 21.47400
H  40.29800 47.48000 25.69700
H  40.78200 46.56500 24.23800
H  41.97400 47.52500 25.18300
H  40.59200 44.92300 30.49600
H  42.83300 46.24400 33.98200
H  43.01400 47.71300 33.08100
H  44.04700 46.24800 32.85700

