158

Mg 16.61600 52.94900 25.90400
C  18.09300 51.50500 28.68700
C  14.22200 54.21300 28.10800
C  14.96000 54.03500 23.19600
C  19.10600 51.80300 23.90600
N  16.01500 52.57300 28.13900
C  16.93200 52.13600 29.05100
C  16.44300 52.38400 30.49000
C  15.02000 53.04600 30.19300
C  15.08500 53.33200 28.71700
C  13.80000 52.04100 30.55800
C  17.50100 53.31300 31.26500
C  17.57400 53.08300 32.84900
H  16.52400 52.16500 33.45100
N  14.80200 53.94900 25.73200
C  13.96100 54.38300 26.72600
C  12.87600 55.12600 26.10100
C  13.10300 55.00100 24.72500
C  14.28800 54.28100 24.51200
C  11.85100 55.96700 26.86000
C  12.20600 55.69100 23.56800
O  12.31900 55.51800 22.35000
C  11.05800 56.54800 23.94700
N  16.91600 52.72200 23.76800
C  16.15100 53.42600 22.89900
C  16.84300 53.70000 21.58700
C  18.17600 52.89000 21.74700
C  18.06100 52.36000 23.19100
C  16.03600 53.59900 20.26000
C  19.51000 53.69600 21.57800
C  20.74200 52.92600 20.94200
N  18.23500 51.76000 26.12800
C  19.20700 51.40800 25.26200
C  20.24900 50.73000 25.94400
C  19.87600 50.70300 27.30100
C  18.64200 51.39100 27.39300
C  21.51600 50.22500 25.31200
C  20.28300 50.24400 28.62500
O  21.18400 49.52600 29.01800
C  19.16900 50.81300 29.50900
C  18.49000 49.68300 30.26500
O  17.64500 48.90700 29.82500
O  19.06700 49.50000 31.47500
C  18.54500 48.40500 32.23400
H  13.57700 54.74600 28.81000
H  14.43700 54.32700 22.28300
H  19.99700 51.66900 23.28900
H  16.40100 51.45000 31.05000
H  14.96100 53.91300 30.85200
H  13.34400 51.69200 29.63200
H  13.05500 52.57000 31.15300
H  14.08800 51.14100 31.10100
H  17.28200 54.36300 31.06800
H  18.51300 53.23500 30.86700
H  17.50600 54.11100 33.20400
H  18.54900 52.71800 33.17100
H  11.88700 56.98500 26.47100
H  12.06000 55.87500 27.92600
H  10.81800 55.70200 26.63800
H  11.49100 57.34400 24.55300
H  10.26700 55.98400 24.44100
H  10.70700 56.97200 23.00600
H  17.01900 54.77400 21.65300
H  18.15700 51.98600 21.13900
H  15.16200 52.99800 20.51200
H  16.65200 53.15300 19.47800
H  15.74300 54.58800 19.90900
H  19.87100 54.17600 22.48800
H  19.39700 54.49500 20.84600
H  21.56100 53.04300 21.65100
H  20.84500 53.38200 19.95700
H  20.67300 51.86800 20.68900
H  21.97900 50.99000 24.68800
H  21.26700 49.45200 24.58600
H  22.15100 49.76300 26.06800
H  19.57700 51.49100 30.25800
H  17.46700 48.54200 32.30900
H  19.06200 48.23800 33.17900
H  18.74100 47.55400 31.58100
Mg -1.49300 34.49600 26.47400
C  -3.27800 32.59800 29.00600
C  -0.93500 36.82400 28.93300
C  -0.63300 36.65600 24.06900
C  -3.20900 32.47500 24.06400
N  -2.12200 34.68500 28.72200
C  -2.60200 33.65300 29.58900
C  -2.37200 33.95700 31.06700
C  -1.75200 35.44200 31.02100
C  -1.64200 35.70800 29.47100
C  -2.47400 36.55700 31.79100
C  -1.56200 32.81900 31.83500
C  -2.19500 32.20900 33.09900
H  -1.32100 32.26000 34.36900
N  -0.67000 36.33700 26.52000
C  -0.50400 37.13400 27.61000
C  0.37700 38.14200 27.19700
C  0.50100 38.25500 25.80900
C  -0.30800 37.06900 25.38300
C  1.06900 39.10400 28.23500
C  1.24600 39.20000 24.88400
O  1.17700 39.08400 23.64900
C  2.06700 40.27100 25.51600
N  -1.83700 34.45300 24.37700
C  -1.30900 35.50000 23.60300
C  -1.49000 35.19300 22.07300
C  -2.17000 33.80900 22.06000
C  -2.40300 33.49400 23.58500
C  -2.32800 36.31900 21.25800
C  -1.28400 32.73300 21.39600
C  0.04800 32.33900 22.02000
N  -2.93600 32.84800 26.47100
C  -3.50200 32.15500 25.44500
C  -4.40800 31.08800 25.88100
C  -4.32000 31.24800 27.27200
C  -3.43700 32.35200 27.59500
C  -5.09000 30.20400 24.93900
C  -4.79600 30.69900 28.53900
O  -5.60200 29.81900 28.93800
C  -3.96600 31.51000 29.66300
C  -5.00400 31.99200 30.68300
O  -5.92200 32.84700 30.59700
O  -4.95800 31.24900 31.85000
C  -5.89300 31.61300 32.93400
H  -0.60900 37.54200 29.68800
H  -0.09300 37.24300 23.32400
H  -3.58400 31.80100 23.29100
H  -3.38800 34.06800 31.44600
H  -0.75700 35.38900 31.46200
H  -3.00000 37.18600 31.07300
H  -1.65700 37.06700 32.30200
H  -3.21200 36.14500 32.48000
H  -0.55900 33.17900 32.06500
H  -1.30500 32.01800 31.14100
H  -2.57400 31.21200 32.87600
H  -3.05200 32.85600 33.28800
H  1.11300 40.16100 27.97400
H  2.14800 38.96500 28.15800
H  0.71600 39.06600 29.26600
H  2.82100 39.90800 26.21400
H  1.46800 41.08100 25.93100
H  2.61000 40.65200 24.65100
H  -0.44600 35.20500 21.76000
H  -3.17400 33.89100 21.64300
H  -3.33900 35.98800 21.02000
H  -1.83400 36.67200 20.35300
H  -2.30900 37.16800 21.94100
H  -1.14600 32.91600 20.33000
H  -1.92800 31.85400 21.42200
H  0.15700 33.03700 22.85000
H  0.84200 32.41200 21.27700
H  0.15400 31.34200 22.44900
H  -4.51300 29.92700 24.05700
H  -6.09900 30.49500 24.64500
H  -5.26800 29.31000 25.53600
H  -3.43800 30.74600 30.23400
H  -5.38900 32.27600 33.63700
H  -6.14500 30.67000 33.42100
H  -6.86800 31.91700 32.55300

