158

Mg 7.06600 57.13100 41.37700
C  6.32600 53.80000 41.12600
C  10.23200 56.48200 40.31600
C  7.74900 60.51800 41.09800
C  3.77300 57.83000 42.09800
N  8.06900 55.36900 40.65000
C  7.56900 54.08200 40.60800
C  8.54300 53.11400 39.91300
C  9.89000 53.85100 40.07300
C  9.37700 55.35800 40.39400
C  10.84100 53.24000 41.06400
C  8.11800 52.86100 38.44000
C  8.39600 51.45300 37.78200
H  9.41000 51.14500 36.71800
N  8.78300 58.32100 40.84900
C  10.02000 57.84000 40.55200
C  10.96700 58.96500 40.36200
C  10.23900 60.18900 40.61300
C  8.90100 59.72100 40.85900
C  12.41700 58.83900 40.11000
C  10.80400 61.60600 40.56400
O  12.01200 61.86700 40.36400
C  9.90600 62.89700 40.71700
N  5.90000 58.93700 41.39100
C  6.40900 60.17600 41.38400
C  5.34700 61.24600 41.72000
C  4.07100 60.39300 42.07600
C  4.58600 58.96200 41.81000
C  5.73600 62.28200 42.83000
C  2.85400 60.82600 41.21900
C  1.40100 60.77100 41.85600
N  5.29500 56.04500 41.57700
C  4.02600 56.46200 41.93100
C  3.31100 55.22500 42.33400
C  4.19100 54.16500 42.02100
C  5.28900 54.73800 41.54500
C  1.99900 55.10500 43.11700
C  4.35200 52.72200 41.97100
O  3.73400 51.74200 42.40400
C  5.72800 52.44500 41.24400
C  5.40900 51.76400 39.98800
O  4.69700 52.22000 39.11400
O  6.02400 50.51900 39.87400
C  5.54800 49.73100 38.74500
H  11.26600 56.28800 40.02300
H  7.83400 61.60100 40.98400
H  2.77300 57.99800 42.50100
H  8.50600 52.17200 40.45900
H  10.54300 53.77700 39.20300
H  10.23100 52.78400 41.84400
H  11.43100 53.98700 41.59300
H  11.53700 52.49800 40.67300
H  8.57900 53.65300 37.85100
H  7.03500 52.85100 38.31900
H  7.42900 51.17700 37.36100
H  8.51900 50.63300 38.49100
H  12.58100 59.06400 39.05600
H  12.96100 57.95000 40.43200
H  12.79600 59.63400 40.75300
H  9.44800 62.82900 41.70400
H  9.16100 63.09500 39.94700
H  10.51800 63.79500 40.62900
H  5.29900 61.70400 40.73200
H  3.78800 60.46400 43.12600
H  5.80800 63.31800 42.49900
H  6.70600 61.97400 43.22000
H  4.98500 62.14900 43.60800
H  2.79700 60.21800 40.31600
H  2.89500 61.86100 40.87800
H  0.94100 61.66700 41.44000
H  1.40200 60.77600 42.94600
H  0.83500 59.89600 41.53600
H  1.96000 55.70400 44.02700
H  1.72100 54.08300 43.37800
H  1.20900 55.51300 42.48700
H  6.33100 51.77200 41.85300
H  4.64200 49.19900 39.03600
H  6.22700 48.95600 38.38800
H  5.22400 50.14400 37.79100
Mg -0.15700 43.85300 24.71100
C  2.06400 43.70000 27.43000
C  -2.69600 42.78300 26.82900
C  -2.16900 44.06800 22.18800
C  2.72500 44.27700 22.66700
N  -0.30400 43.29300 26.93500
C  0.69500 43.43600 27.84000
C  0.24900 43.01900 29.26400
C  -1.23600 42.50400 28.95600
C  -1.47600 42.95400 27.46300
C  -1.51400 41.02100 29.24200
C  0.26000 44.15400 30.25100
C  0.14000 43.76900 31.75900
H  0.11800 42.32200 32.14800
N  -2.22400 43.59600 24.54300
C  -3.02300 43.11200 25.52800
C  -4.35000 43.13000 24.94100
C  -4.24200 43.46200 23.57300
C  -2.87300 43.78400 23.35200
C  -5.53300 42.67900 25.66400
C  -5.28700 43.51200 22.44300
O  -5.11400 43.98200 21.34500
C  -6.66700 42.88800 22.69900
N  0.29400 44.09700 22.74900
C  -0.79200 44.19000 21.91800
C  -0.24400 44.13700 20.42200
C  1.20300 44.46700 20.65300
C  1.49800 44.30900 22.08800
C  -0.55800 42.66700 19.74100
C  1.61000 45.90100 20.06800
C  1.44100 47.05300 21.05200
N  1.99200 43.86500 24.88000
C  3.02000 44.08100 24.02700
C  4.21600 44.18200 24.64300
C  3.94500 44.00800 26.02300
C  2.55500 43.80900 26.14000
C  5.59100 44.45000 23.98300
C  4.49000 44.00500 27.36300
O  5.60900 44.14400 27.68900
C  3.30500 43.79400 28.35900
C  3.58700 42.50400 29.16500
O  3.80900 41.37600 28.68300
O  3.85100 42.84300 30.43000
C  4.43200 41.77000 31.20200
H  -3.58900 42.38200 27.31300
H  -2.78700 44.18500 21.29500
H  3.58900 44.53800 22.05300
H  0.84900 42.15800 29.55800
H  -1.98800 43.02700 29.54700
H  -2.08200 40.58800 28.41900
H  -2.20200 41.00700 30.08700
H  -0.62500 40.51200 29.61500
H  -0.52800 44.84900 29.96400
H  1.16500 44.71500 30.01800
H  -0.66200 44.41000 32.12600
H  1.03500 44.13600 32.26200
H  -5.52400 42.87500 26.73600
H  -5.71400 41.63800 25.39800
H  -6.38000 43.19400 25.20900
H  -6.50700 41.98700 23.29100
H  -7.00800 42.70300 21.68000
H  -7.38800 43.47800 23.26400
H  -0.82600 44.79700 19.77800
H  1.69700 43.63200 20.15600
H  -1.19100 42.05600 20.38500
H  0.29500 41.99600 19.64300
H  -1.19200 42.77800 18.86200
H  0.98200 46.00300 19.18300
H  2.64400 45.95200 19.72600
H  1.10100 46.68000 22.01800
H  0.59700 47.60500 20.64000
H  2.37200 47.61700 20.99700
H  5.75900 43.63000 23.28400
H  6.40200 44.43900 24.71100
H  5.65400 45.42200 23.49400
H  3.16400 44.65500 29.01200
H  4.57000 42.20000 32.19300
H  5.43500 41.59600 30.81200
H  3.78200 40.89600 31.17100

