158

Mg 15.71200 -1.50200 28.16500
C  14.55800 0.49100 30.86300
C  17.89600 -3.10600 30.38300
C  16.66300 -3.43200 25.68800
C  13.88500 0.51000 26.00000
N  16.24200 -1.21900 30.33700
C  15.52300 -0.45200 31.23500
C  16.08600 -0.67700 32.70500
C  17.15300 -1.82900 32.50800
C  17.13200 -2.05100 30.93800
C  18.57500 -1.52800 33.04400
C  14.93900 -1.11600 33.72000
C  15.09500 -0.73500 35.18700
H  16.35300 -0.07400 35.76600
N  17.17500 -2.99100 28.01100
C  17.85000 -3.57600 29.07700
C  18.73300 -4.59600 28.48300
C  18.24900 -4.89800 27.15200
C  17.32700 -3.75000 26.89400
C  19.69100 -5.32500 29.36700
C  18.51800 -5.96400 26.12700
O  17.71800 -6.13100 25.19800
C  19.41900 -7.09700 26.54400
N  15.37300 -1.49300 26.14700
C  15.83900 -2.42400 25.33500
C  15.43200 -2.15200 23.85000
C  14.49500 -0.88500 23.96900
C  14.57000 -0.63000 25.50200
C  16.58200 -1.95300 22.81500
C  13.06700 -1.02200 23.38100
C  11.90500 -1.65900 24.15400
N  14.37000 0.09300 28.37500
C  13.74600 0.81500 27.32700
C  12.95900 1.81000 27.97200
C  13.28400 1.79700 29.37000
C  14.11600 0.74300 29.52500
C  12.19600 2.85900 27.22200
C  13.05600 2.44700 30.62900
O  12.37700 3.42700 30.83400
C  13.70500 1.47700 31.70200
C  14.49000 2.38800 32.56400
O  15.58200 2.91500 32.35400
O  13.77800 2.68800 33.66200
C  14.38900 3.59000 34.65500
H  18.59000 -3.52600 31.11400
H  16.85800 -4.00800 24.78100
H  13.29800 1.10300 25.29600
H  16.54500 0.29700 32.87200
H  16.94800 -2.74900 33.05500
H  18.41300 -0.60500 33.60200
H  19.27900 -1.25800 32.25700
H  18.82500 -2.43000 33.60200
H  15.03600 -2.19900 33.65000
H  14.00400 -0.80700 33.25400
H  14.87800 -1.65700 35.72700
H  14.30500 -0.02100 35.42100
H  20.65900 -5.56000 28.92600
H  19.25800 -6.24200 29.76900
H  19.92600 -4.71500 30.23900
H  19.35600 -7.95900 25.88000
H  19.12900 -7.46900 27.52700
H  20.45300 -6.76600 26.45600
H  14.80000 -2.93900 23.43700
H  15.04600 -0.05900 23.51900
H  17.47500 -1.93000 23.44000
H  16.46100 -1.19600 22.04000
H  16.62400 -2.88700 22.25400
H  13.05900 -1.60400 22.45900
H  12.61900 -0.07100 23.09300
H  12.14000 -2.20600 25.06700
H  11.39500 -2.37300 23.50800
H  11.32100 -0.84100 24.57600
H  12.67700 3.14700 26.28700
H  12.02700 3.65700 27.94500
H  11.19600 2.46700 27.03500
H  12.96000 0.96300 32.31000
H  14.36500 4.61600 34.28700
H  15.45400 3.39100 34.77000
H  13.78100 3.64100 35.55800
Mg 6.52500 54.43300 41.16900
C  3.91800 52.22800 41.06000
C  8.59000 52.16200 39.79400
C  8.93400 56.83800 40.91700
C  4.27000 56.94100 42.33600
N  6.13200 52.54300 40.17000
C  5.02400 51.76000 40.30100
C  5.18200 50.39000 39.60900
C  6.74600 50.23800 39.48000
C  7.20600 51.72300 39.79300
C  7.53100 49.33200 40.45500
C  4.52600 50.32800 38.17300
C  3.96400 49.01100 37.83300
H  4.50000 48.20800 36.66500
N  8.50300 54.44300 40.45200
C  9.19000 53.37000 40.01700
C  10.54000 53.72800 39.69300
C  10.55300 55.15900 39.64900
C  9.30100 55.57300 40.31500
C  11.53500 52.77700 39.13200
C  11.67000 55.99800 39.15400
O  12.72800 55.45600 38.77900
C  11.48100 57.49200 39.00700
N  6.58700 56.59700 41.47600
C  7.74600 57.32900 41.46900
C  7.57600 58.71400 42.21200
C  5.99700 58.73100 42.32800
C  5.60400 57.33900 42.10800
C  8.38700 58.92200 43.55800
C  5.31000 59.63100 41.30600
C  4.37900 60.75800 41.84400
N  4.52900 54.61700 41.56000
C  3.67500 55.64500 41.98000
C  2.38100 55.18900 42.28800
C  2.43800 53.84000 42.00900
C  3.76300 53.51500 41.58000
C  1.13900 55.91200 42.73200
C  1.68900 52.65600 41.95200
O  0.47800 52.50600 42.16900
C  2.64400 51.49900 41.61600
C  2.02200 50.63500 40.66400
O  1.50000 51.09700 39.65300
O  1.94800 49.31800 41.20500
C  0.92700 48.53200 40.45000
H  9.20300 51.33800 39.42100
H  9.82000 57.44800 41.10700
H  3.53900 57.56900 42.85000
H  4.77100 49.63400 40.27700
H  6.99400 49.98000 38.45100
H  7.41700 48.27100 40.23400
H  7.28200 49.41400 41.51300
H  8.59900 49.52400 40.35900
H  5.21500 50.70800 37.41800
H  3.70300 51.04200 38.13000
H  2.91100 49.19600 37.61700
H  4.04900 48.47300 38.77700
H  11.42000 52.57600 38.06700
H  11.38900 51.79100 39.57400
H  12.50400 53.08500 39.52600
H  10.42700 57.76300 38.93700
H  11.99300 57.84000 38.11100
H  11.93000 57.83700 39.93900
H  7.75100 59.59300 41.59200
H  5.71800 59.12300 43.30600
H  7.70600 58.82900 44.40400
H  9.07700 59.76600 43.56800
H  8.98000 58.03000 43.76000
H  4.56900 59.04500 40.76300
H  5.95200 60.17400 40.61200
H  4.38700 60.69700 42.93200
H  3.34600 60.59600 41.53800
H  4.83500 61.65500 41.42300
H  0.83500 56.72300 42.06900
H  1.40700 56.39500 43.67200
H  0.37300 55.28000 43.18200
H  2.85100 50.91400 42.51200
H  1.36200 47.56900 40.18000
H  0.65000 48.89800 39.46100
H  0.03300 48.32100 41.03600

