158

Mg 35.86800 2.14100 30.76800
C  33.23500 3.30300 32.85500
C  37.73900 1.84100 33.57100
C  38.44200 1.45600 28.75300
C  33.82400 2.52000 28.07800
N  35.47200 2.64900 32.95400
C  34.39200 3.06900 33.58800
C  34.48800 2.90100 35.08100
C  36.01500 2.82300 35.32400
C  36.44800 2.37600 33.85000
C  36.69000 4.18700 35.83300
C  33.69800 1.70300 35.62000
C  32.73800 2.13800 36.74500
H  33.40600 3.11800 37.68900
N  37.86900 1.83600 31.15200
C  38.37000 1.58700 32.37600
C  39.71600 1.02700 32.23500
C  40.01300 0.97800 30.82200
C  38.75500 1.43800 30.13000
C  40.71000 0.67100 33.32000
C  41.24800 0.61900 30.11900
O  41.42800 0.58400 28.94000
C  42.51000 0.24400 30.95700
N  36.16100 2.20100 28.68200
C  37.33000 1.86900 28.05500
C  37.21300 1.90100 26.45400
C  35.61400 1.98800 26.26500
C  35.16800 2.25700 27.72900
C  37.93200 3.07200 25.75400
C  34.96100 0.67800 25.61700
C  34.05600 0.87800 24.38100
N  33.91800 2.78500 30.44000
C  33.20300 2.80800 29.24300
C  31.87100 3.14700 29.53800
C  31.81200 3.37400 30.95900
C  33.09200 3.10100 31.47700
C  30.75900 3.36200 28.58800
C  30.95800 3.82500 32.09300
O  29.80000 4.24000 32.16400
C  31.91400 3.80700 33.34900
C  31.97400 5.16700 34.01000
O  32.37200 6.19500 33.53000
O  31.53800 5.01100 35.32200
C  31.42500 6.33300 36.11400
H  38.27300 1.48600 34.45500
H  39.36700 1.46200 28.17200
H  33.15600 2.53500 27.21300
H  34.21100 3.85800 35.52200
H  36.29200 1.97400 35.94900
H  37.44200 4.45800 35.09200
H  37.19800 4.10500 36.79400
H  35.90300 4.93700 35.90900
H  34.27600 0.83800 35.94400
H  33.03300 1.31400 34.84800
H  32.48800 1.21700 37.27200
H  31.82500 2.52500 36.29200
H  40.77700 -0.41600 33.28200
H  40.29000 0.96800 34.28100
H  41.60400 1.25200 33.09500
H  42.37900 -0.44400 31.79300
H  42.92500 1.11800 31.45700
H  43.29700 -0.19800 30.34600
H  37.65000 0.94800 26.15300
H  35.28000 2.78700 25.60400
H  38.39100 3.68400 26.53100
H  37.25200 3.72400 25.20600
H  38.71700 2.64100 25.13300
H  34.46900 0.16000 26.44000
H  35.76800 -0.00400 25.34900
H  34.43600 1.79600 23.93200
H  33.02100 0.87400 24.72400
H  34.21500 0.00700 23.74600
H  30.87500 2.82700 27.64600
H  30.64900 4.44400 28.51600
H  29.92700 2.95100 29.16000
H  31.47900 3.15500 34.10500
H  30.71300 6.21300 36.93000
H  31.15900 7.18700 35.49100
H  32.32500 6.58200 36.67700
Mg 35.48600 47.99500 25.99500
C  35.86200 46.05200 28.84600
C  34.26300 50.46200 27.83700
C  34.91600 49.73400 23.10500
C  36.59700 45.35000 24.07300
N  35.01200 48.15000 28.14300
C  35.24300 47.30300 29.10100
C  34.93800 47.91200 30.48800
C  34.18600 49.21600 30.07900
C  34.39500 49.29200 28.60000
C  32.67600 49.24400 30.46900
C  36.18500 48.09600 31.45400
C  36.02500 47.81400 32.89600
H  35.94800 49.03700 33.90000
N  34.70200 49.83600 25.53400
C  34.34400 50.76800 26.44400
C  33.84000 51.99500 25.73300
C  34.10000 51.81300 24.35300
C  34.60600 50.39900 24.28500
C  33.24700 53.17000 26.49600
C  33.83200 52.71400 23.16700
O  34.02900 52.38400 21.96800
C  33.31400 54.08100 23.58700
N  35.35600 47.47400 23.84700
C  35.12500 48.37600 22.86300
C  35.38100 47.78300 21.48000
C  36.09000 46.35500 21.76300
C  36.01600 46.41600 23.30500
C  34.05900 47.60400 20.74100
C  37.56800 46.24000 21.22400
C  37.95700 44.99900 20.47700
N  36.11200 46.06200 26.33300
C  36.56300 45.12100 25.43700
C  37.01100 43.90100 26.24300
C  36.79700 44.30100 27.57400
C  36.20500 45.53600 27.54700
C  37.60500 42.53100 25.78400
C  36.87700 43.86100 28.98200
O  37.26200 42.77400 29.43200
C  36.41800 44.99400 29.77900
C  35.36100 44.60800 30.68800
O  34.36000 44.04000 30.38300
O  35.73300 44.76800 32.00200
C  34.86800 44.31800 33.09500
H  33.85700 51.23800 28.48900
H  34.97300 50.30500 22.17600
H  37.13800 44.59200 23.50300
H  34.27200 47.23400 31.02100
H  34.64100 50.11300 30.49900
H  32.60200 49.34500 31.55200
H  32.15300 48.37000 30.08200
H  32.25400 50.09500 29.93500
H  36.36900 49.17000 31.46500
H  36.95800 47.49800 30.97100
H  36.73100 47.09200 33.30600
H  35.02000 47.39000 32.89100
H  33.80000 54.10400 26.59600
H  33.07500 52.93000 27.54500
H  32.22600 53.37700 26.17400
H  32.39100 54.05000 24.16600
H  33.16400 54.52200 22.60200
H  34.06800 54.59900 24.18000
H  35.97100 48.43700 20.83900
H  35.50200 45.49100 21.45500
H  33.84900 48.38900 20.01500
H  33.13400 47.43800 21.29300
H  34.16400 46.75200 20.07000
H  38.17900 46.44800 22.10200
H  37.78400 47.16800 20.69400
H  37.13100 44.29100 20.53500
H  38.82000 44.53100 20.95100
H  38.21900 45.21400 19.44100
H  38.13500 42.82100 24.87700
H  36.78800 41.84500 25.55600
H  38.29600 42.09900 26.50800
H  37.23700 45.37800 30.38800
H  33.82900 44.50300 32.82100
H  35.05000 44.78200 34.06500
H  35.17700 43.29300 33.30200

