158

Mg 36.51700 0.67800 29.58700
C  34.19700 1.83700 32.04400
C  39.00800 0.79600 31.90600
C  38.73000 -0.35800 27.21800
C  33.96300 0.76500 27.32300
N  36.59700 1.26800 31.69200
C  35.55400 1.75200 32.51800
C  36.06100 1.78300 33.99000
C  37.63800 1.67300 33.78300
C  37.75800 1.24000 32.31900
C  38.35900 2.99200 33.94400
C  35.47300 0.60800 34.85900
C  34.96800 0.95200 36.32900
H  35.54200 2.17000 37.05300
N  38.58900 0.22300 29.56500
C  39.41000 0.28700 30.62500
C  40.77300 -0.06200 30.22300
C  40.80100 -0.37100 28.86000
C  39.34900 -0.17700 28.50800
C  41.92100 -0.01500 31.20600
C  41.90200 -0.71000 27.86200
O  41.59300 -0.88300 26.66900
C  43.36200 -0.99800 28.25900
N  36.39300 0.49600 27.45300
C  37.40500 -0.15400 26.78000
C  36.89900 -0.44600 25.36800
C  35.31400 -0.35700 25.44900
C  35.23500 0.43300 26.83100
C  37.56400 0.50400 24.29200
C  34.50100 -1.71000 25.26900
C  33.67800 -1.84500 23.96400
N  34.47900 1.20500 29.58400
C  33.58900 1.15800 28.57600
C  32.33600 1.58800 29.07000
C  32.49200 1.89300 30.38200
C  33.86800 1.62200 30.68500
C  31.07300 1.55600 28.23200
C  31.87200 2.29100 31.57300
O  30.70300 2.68200 31.84100
C  32.91800 2.31400 32.73100
C  32.96800 3.64000 33.35400
O  33.40100 4.64100 32.88700
O  32.34100 3.49900 34.59800
C  32.47000 4.74700 35.40300
H  39.77300 0.64100 32.67000
H  39.30500 -0.86300 26.43900
H  33.22100 0.72800 26.52300
H  35.73300 2.70400 34.47100
H  38.24200 0.99900 34.39100
H  38.91600 2.86400 34.87300
H  37.64000 3.78900 34.13400
H  39.08000 3.30200 33.18800
H  36.13800 -0.24700 34.98100
H  34.56500 0.30800 34.33500
H  35.05400 0.05600 36.94400
H  33.90800 1.20000 36.39100
H  42.52900 -0.91900 31.21900
H  41.57900 0.06600 32.23800
H  42.59100 0.80600 30.94900
H  43.58800 -0.54000 29.22200
H  44.15300 -0.61600 27.61300
H  43.46400 -2.06000 28.48100
H  37.22100 -1.44200 25.06200
H  34.99100 0.31500 24.65400
H  36.75600 1.15600 23.95900
H  38.04700 -0.05200 23.48800
H  38.30300 1.12400 24.79900
H  33.76900 -1.72100 26.07600
H  35.17300 -2.55100 25.43700
H  34.04500 -1.00300 23.37700
H  32.60800 -1.74900 24.15200
H  33.91800 -2.71100 23.34600
H  30.27100 1.00300 28.72300
H  31.31100 1.10300 27.27000
H  30.73900 2.57200 28.02300
H  32.65400 1.62500 33.53300
H  31.85700 5.50800 34.92000
H  33.48600 5.05400 35.64900
H  31.85100 4.52100 36.27100
Mg 47.53500 15.18800 28.62100
C  45.33000 15.18500 31.33200
C  49.73100 17.03500 30.31200
C  49.26800 15.13500 25.84000
C  45.03400 13.25600 26.81500
N  47.42100 16.17400 30.55200
C  46.55700 15.91200 31.56500
C  46.99400 16.51800 32.87100
C  48.32200 17.22800 32.49700
C  48.50900 16.87800 31.03000
C  48.49200 18.77300 32.73600
C  47.20700 15.50700 33.95300
C  46.86500 16.05600 35.38800
H  46.99600 17.50200 35.69100
N  49.25900 16.00600 28.12600
C  50.05400 16.80400 28.94100
C  51.27700 17.20500 28.19500
C  51.11400 16.66700 26.87700
C  49.86000 15.87400 26.88800
C  52.40400 17.92000 28.90600
C  52.03400 16.94200 25.66700
O  51.80400 16.36300 24.58000
C  53.22400 17.86400 25.81300
N  47.11900 14.40500 26.53600
C  48.09900 14.43800 25.66800
C  47.75500 13.77400 24.33100
C  46.32700 13.17000 24.66800
C  46.11700 13.57800 26.09700
C  47.75400 14.62800 23.03300
C  46.30900 11.66300 24.38500
C  47.11700 10.79300 25.33400
N  45.67200 14.48300 28.91900
C  44.80200 13.81000 28.11500
C  43.61500 13.39400 28.81600
C  43.77200 13.95700 30.07300
C  45.01900 14.59100 30.11400
C  42.39000 12.76200 28.24500
C  43.12300 14.07300 31.35700
O  41.99200 13.68800 31.74000
C  44.16300 14.77200 32.22100
C  43.52600 15.93500 32.76900
O  43.23200 16.94000 32.10700
O  43.13200 15.70000 34.06100
C  42.26600 16.76000 34.61200
H  50.42600 17.68600 30.84700
H  49.89300 15.05000 24.94800
H  44.26100 12.68200 26.30100
H  46.18200 17.18500 33.16100
H  49.15400 16.84700 33.08900
H  48.61900 19.25300 31.76500
H  49.42400 19.10600 33.19200
H  47.64100 19.22600 33.24500
H  48.22800 15.12700 33.99100
H  46.61000 14.66600 33.60200
H  47.63200 15.59200 36.00800
H  45.88500 15.64200 35.62600
H  52.29900 17.82600 29.98700
H  52.40100 18.97700 28.64100
H  53.39500 17.53800 28.66000
H  53.69900 18.17700 24.88300
H  53.89900 17.24600 26.40400
H  52.96500 18.73600 26.41300
H  48.45900 12.94700 24.23900
H  45.55300 13.75300 24.16800
H  48.24800 15.57400 23.25700
H  46.73800 14.88700 22.73600
H  48.20200 13.98900 22.27200
H  46.61200 11.51200 23.34800
H  45.27600 11.33000 24.48900
H  46.32300 10.26100 25.85600
H  47.67200 11.26200 26.14600
H  47.84200 10.24600 24.73100
H  42.33200 13.15500 27.23000
H  41.51600 12.93300 28.87300
H  42.63600 11.70100 28.27900
H  44.48300 14.07000 32.99100
H  41.30900 16.88500 34.10500
H  42.81400 17.69200 34.74500
H  42.04200 16.50500 35.64800

