158

Mg 51.51500 46.28600 42.30200
C  48.40500 47.43500 40.60400
C  51.14800 43.52900 40.51400
C  54.77400 45.67200 43.16300
C  51.90100 49.71500 43.24600
N  49.95400 45.65300 40.66200
C  48.78800 46.16200 40.32200
C  47.92500 45.14100 39.54200
C  48.84300 43.85600 39.48200
C  50.11900 44.38600 40.23500
C  48.12600 42.53900 39.93200
C  47.32800 45.57700 38.12200
C  45.77800 45.33500 38.00100
H  45.48800 44.20600 37.02200
N  52.75300 44.76500 41.95300
C  52.33300 43.62600 41.21200
C  53.37200 42.65500 41.34500
C  54.48800 43.26700 42.08400
C  54.05800 44.61300 42.46400
C  53.28800 41.27900 40.75800
C  55.77000 42.57100 42.44000
O  56.00600 41.47900 41.89600
C  56.72500 43.03800 43.46300
N  53.04900 47.53700 43.11100
C  54.24300 46.96300 43.49500
C  55.09300 48.01500 44.27800
C  54.12500 49.20200 44.36700
C  52.98400 48.89200 43.42500
C  55.59000 47.53500 45.73100
C  54.79700 50.54900 44.09400
C  55.13500 51.39500 45.42100
N  50.40500 48.24100 42.11000
C  50.66800 49.52000 42.65200
C  49.53500 50.33600 42.44500
C  48.69200 49.61700 41.57300
C  49.19600 48.31400 41.44000
C  49.39200 51.76900 43.01300
C  47.35100 49.67100 40.96900
O  46.47100 50.50400 41.04200
C  47.12300 48.26700 40.26400
C  45.92900 47.77400 40.89900
O  45.80600 47.32100 42.01400
O  44.86300 47.89100 40.03900
C  43.48300 47.74600 40.54300
H  50.93900 42.52500 40.14000
H  55.83500 45.56000 43.39700
H  52.10100 50.73300 43.58600
H  47.12200 45.04600 40.27200
H  49.21300 43.75200 38.46200
H  48.17500 41.81100 39.12300
H  47.14100 42.74500 40.34900
H  48.59100 42.15900 40.84200
H  47.86400 45.00700 37.36300
H  47.54400 46.63100 37.94900
H  45.46600 46.33500 37.70100
H  45.20200 45.07500 38.88900
H  53.00200 41.24000 39.70700
H  52.42200 40.82000 41.23500
H  54.07700 40.55500 40.96500
H  56.21400 43.31500 44.38500
H  57.25000 43.85800 42.97400
H  57.42200 42.21000 43.60100
H  55.90600 48.29400 43.60700
H  53.69900 49.18800 45.37000
H  54.89800 47.74500 46.54800
H  56.50400 48.06200 46.00400
H  55.69100 46.46400 45.55800
H  54.24600 51.18200 43.39900
H  55.69100 50.43500 43.48100
H  55.84200 50.87800 46.07000
H  54.26500 51.62600 46.03600
H  55.64600 52.31900 45.15400
H  48.53000 52.20000 42.50400
H  50.30900 52.35800 43.01500
H  49.05700 51.49500 44.01400
H  47.09600 48.55100 39.21200
H  43.31100 46.90000 41.20800
H  42.78800 47.88500 39.71400
H  43.29600 48.61300 41.17600
Mg -11.42600 38.25700 41.18200
C  -9.43800 35.62500 40.36500
C  -9.05800 40.44300 39.60100
C  -13.52500 40.86900 41.48900
C  -13.99100 35.99300 42.12100
N  -9.42400 38.06300 40.15000
C  -8.81700 36.83100 40.03100
C  -7.50500 37.00400 39.27500
C  -7.34400 38.58200 39.15700
C  -8.67000 39.06500 39.74700
C  -6.13300 39.22600 39.99900
C  -7.54700 36.28800 37.91300
C  -6.50600 35.11400 37.70600
H  -5.53000 35.27300 36.52700
N  -11.22700 40.43100 40.82900
C  -10.21400 41.05700 40.10500
C  -10.46500 42.50000 40.18500
C  -11.80800 42.66800 40.70200
C  -12.22500 41.31400 41.10500
C  -9.56600 43.62800 39.68000
C  -12.62400 43.94800 40.74200
O  -12.14600 45.01400 40.30600
C  -14.09400 44.13300 41.21700
N  -13.54000 38.35400 41.63400
C  -14.13200 39.58900 41.70900
C  -15.55600 39.39600 42.16800
C  -15.73500 37.84800 42.52100
C  -14.37400 37.35800 42.06400
C  -15.85100 40.35800 43.37600
C  -16.89700 37.12900 41.81400
C  -17.67100 35.96600 42.57900
N  -11.73900 36.19700 41.27400
C  -12.78400 35.45200 41.71000
C  -12.37600 34.03600 41.55100
C  -11.09000 34.02300 41.05400
C  -10.70800 35.33000 40.97000
C  -13.29800 32.92400 41.92100
C  -9.97400 33.18900 40.60300
O  -9.88000 31.97200 40.57100
C  -8.85100 34.22000 40.12200
C  -7.54300 33.85800 40.83300
O  -6.57100 33.33900 40.36600
O  -7.60200 34.34300 42.09500
C  -6.57500 33.96600 43.05700
H  -8.31700 41.12200 39.17500
H  -14.29000 41.64800 41.50700
H  -14.84400 35.32300 42.24800
H  -6.69900 36.54200 39.84500
H  -7.20800 38.88900 38.12000
H  -6.47200 40.00800 40.67800
H  -5.50400 39.63500 39.20800
H  -5.52700 38.55200 40.60400
H  -7.34000 36.95500 37.07600
H  -8.53200 35.83300 37.81000
H  -7.10600 34.20800 37.62200
H  -5.75900 35.04800 38.49600
H  -9.34300 44.31900 40.49300
H  -9.99500 44.20000 38.85800
H  -8.56300 43.25100 39.48100
H  -14.15900 43.75500 42.23700
H  -14.70900 43.43800 40.64500
H  -14.29400 45.20400 41.17600
H  -16.29100 39.57100 41.38200
H  -15.83300 37.64600 43.58800
H  -16.25300 39.82400 44.23600
H  -16.50300 41.18600 43.09600
H  -14.85000 40.69900 43.64200
H  -16.71600 36.81800 40.78500
H  -17.67400 37.88900 41.73000
H  -17.61000 35.16900 41.83800
H  -18.69700 36.31300 42.70600
H  -17.28900 35.78700 43.58400
H  -13.01000 31.91800 41.61400
H  -14.24700 33.02200 41.39400
H  -13.46100 32.97100 42.99800
H  -8.71800 34.07400 39.05000
H  -6.79000 34.26100 44.08400
H  -5.58200 34.32800 42.79000
H  -6.46300 32.88900 43.17500

