158

Mg 48.29000 16.32100 28.19900
C  46.09700 16.04000 30.94500
C  50.42900 18.18600 30.20900
C  50.23000 16.53100 25.68900
C  45.57800 15.24600 26.12100
N  48.21000 17.03400 30.29900
C  47.29400 16.75300 31.24500
C  47.67300 17.35200 32.63500
C  48.89600 18.23100 32.30100
C  49.21500 17.81200 30.85000
C  48.76000 19.73800 32.47900
C  48.03100 16.17400 33.63100
C  47.58900 16.35500 35.01900
H  47.67300 17.81600 35.61100
N  50.13700 17.10100 28.01400
C  50.94200 17.73700 28.93700
C  52.22500 18.01500 28.34500
C  52.15400 17.52000 27.03800
C  50.80600 17.05700 26.81300
C  53.36800 18.48200 29.23400
C  53.28900 17.49700 25.95800
O  53.10900 16.94000 24.91600
C  54.64700 18.23700 26.05500
N  47.89500 16.11600 26.15800
C  48.97400 16.06400 25.34400
C  48.69100 15.33100 23.96400
C  47.10200 15.10200 24.08100
C  46.81600 15.53000 25.52900
C  49.10100 15.95200 22.55800
C  46.53300 13.67100 23.73300
C  46.79100 12.60500 24.73200
N  46.21800 15.76800 28.42700
C  45.28100 15.28500 27.49500
C  44.09700 14.82700 28.19000
C  44.37600 15.13700 29.52900
C  45.66300 15.73600 29.62600
C  42.80300 14.23800 27.69700
C  43.78200 15.15400 30.85200
O  42.63400 14.86600 31.22100
C  44.85500 15.78700 31.86400
C  44.28700 17.08300 32.32900
O  44.20800 18.10500 31.68700
O  43.94500 16.87900 33.67900
C  43.12700 18.02700 34.18500
H  51.05300 18.90100 30.74900
H  50.77400 16.45300 24.74600
H  44.85900 14.88900 25.38200
H  46.79100 17.86200 33.02200
H  49.77300 17.99600 32.90400
H  48.97500 20.29500 31.56800
H  49.41900 20.07300 33.28000
H  47.72100 19.95600 32.72900
H  49.06800 15.83900 33.60500
H  47.42200 15.33400 33.29700
H  48.20900 15.65000 35.57300
H  46.54600 16.04100 35.02100
H  53.79600 19.41800 28.87500
H  54.26400 17.87400 29.10700
H  53.08200 18.61900 30.27700
H  55.40300 17.75600 25.43400
H  55.15500 18.15600 27.01500
H  54.45900 19.28200 25.80700
H  49.08600 14.31500 23.98600
H  46.57400 15.80700 23.43900
H  48.23700 16.06800 21.90400
H  49.85500 15.32600 22.08100
H  49.55400 16.93300 22.69900
H  46.90000 13.32000 22.76900
H  45.47000 13.79900 23.52900
H  47.37200 11.76200 24.35700
H  45.90700 12.17300 25.20100
H  47.40000 12.95700 25.56500
H  42.27400 13.71000 28.49100
H  43.05400 13.49600 26.93900
H  42.01700 14.85100 27.25600
H  44.98800 15.04900 32.65600
H  42.76700 18.68600 33.39500
H  43.72800 18.57800 34.90900
H  42.21300 17.83000 34.74600
Mg 30.18400 57.96100 41.16400
C  27.49500 56.50300 39.52300
C  32.24000 55.67600 39.75500
C  32.72700 60.08100 41.65400
C  27.92500 60.56000 41.99100
N  29.91100 56.35100 39.79500
C  28.72400 55.85000 39.33200
C  28.93700 54.54300 38.57900
C  30.41300 54.17100 39.02300
C  30.89300 55.46300 39.74600
C  30.69300 52.90600 39.85000
C  28.69300 54.68100 37.00800
C  27.73800 53.61900 36.36400
H  26.83100 54.21500 35.23300
N  32.31800 57.92400 40.77600
C  32.93600 56.81700 40.22700
C  34.32500 57.05400 40.15000
C  34.58100 58.38700 40.73500
C  33.20500 58.84500 41.07400
C  35.12100 56.06000 39.53600
C  35.88100 59.06600 40.91500
O  36.93300 58.60800 40.40600
C  35.99500 60.34900 41.60700
N  30.33200 60.01600 41.79300
C  31.47100 60.62200 42.01100
C  31.32500 62.06000 42.53500
C  29.82800 62.19900 42.82100
C  29.31700 60.83200 42.16700
C  32.28300 62.40000 43.70900
C  29.22100 63.47000 42.14200
C  27.97400 64.05900 42.84500
N  28.09600 58.28600 41.10400
C  27.33100 59.37200 41.51600
C  25.87600 59.23700 41.19800
C  25.92200 58.12800 40.30700
C  27.26400 57.60400 40.29500
C  24.79200 60.12700 41.44300
C  25.12500 57.26900 39.48500
O  23.90800 57.30000 39.19700
C  26.14800 56.15100 38.99100
C  25.76800 54.79100 39.53400
O  26.09000 54.23200 40.57000
O  25.02200 54.27100 38.56200
C  24.26000 53.02700 38.75800
H  32.83400 54.80400 39.47700
H  33.49100 60.84900 41.79000
H  27.20900 61.32300 42.30400
H  28.28800 53.78300 39.01400
H  31.03000 54.01000 38.13900
H  31.53100 52.38300 39.38900
H  29.80500 52.32700 40.10400
H  31.02800 53.24500 40.83000
H  29.64800 54.51000 36.51000
H  28.19700 55.62300 36.77200
H  27.00900 53.22400 37.07100
H  28.27100 52.78000 35.91800
H  34.76000 55.95700 38.51300
H  35.08200 55.12900 40.10200
H  36.19700 56.21700 39.46400
H  35.63500 61.09000 40.89300
H  37.03800 60.49700 41.88600
H  35.39100 60.28100 42.51200
H  31.65700 62.69400 41.71300
H  29.56600 62.20600 43.87900
H  31.88600 63.11400 44.43100
H  33.17300 62.78600 43.21300
H  32.57200 61.53200 44.30200
H  28.93600 63.36200 41.09600
H  29.92700 64.30100 42.14300
H  28.14500 65.06800 43.22200
H  27.58400 63.33800 43.56300
H  27.13400 64.05100 42.14900
H  24.72500 60.92100 40.70000
H  25.08200 60.51400 42.42000
H  23.84400 59.59100 41.39500
H  26.25500 56.11900 37.90600
H  24.83500 52.37200 39.41300
H  24.00100 52.52700 37.82500
H  23.32400 53.18700 39.29400

