158

Mg 40.82900 9.76800 29.02000
C  42.60500 10.72800 31.79700
C  38.43500 8.15800 31.19900
C  39.26100 8.33100 26.38400
C  43.36900 10.95300 27.00900
N  40.68000 9.31500 31.20800
C  41.43700 10.02100 32.10100
C  40.88500 9.95400 33.51300
C  39.60100 8.96100 33.36200
C  39.54100 8.74100 31.84000
C  39.69800 7.68300 34.15500
C  40.37700 11.34700 34.12100
C  40.03900 11.41500 35.67500
H  41.03600 12.06000 36.63200
N  39.15200 8.50200 28.83400
C  38.21500 8.09200 29.80100
C  37.08100 7.43100 29.20400
C  37.37400 7.31700 27.84000
C  38.63700 8.05900 27.61900
C  35.91900 6.95500 30.07100
C  36.63100 6.63800 26.75100
O  37.05800 6.49800 25.64000
C  35.22700 6.17800 27.05900
N  41.27900 9.57100 27.01900
C  40.42200 9.03500 26.06100
C  40.91600 9.37400 24.61900
C  42.36200 10.01500 24.90800
C  42.34100 10.23200 26.40700
C  40.98600 8.20900 23.59700
C  42.57100 11.28100 24.01700
C  41.78600 12.58900 24.39000
N  42.61400 10.82600 29.25200
C  43.58700 11.15200 28.35800
C  44.68500 11.80700 29.05100
C  44.27200 11.80500 30.41900
C  43.08400 11.09200 30.44000
C  45.79200 12.60500 28.43100
C  44.66100 12.05200 31.79500
O  45.68500 12.59400 32.17700
C  43.56300 11.45200 32.77100
C  44.28900 10.46400 33.56400
O  45.20500 9.78800 33.20400
O  43.77100 10.50100 34.87300
C  44.23000 9.42200 35.70300
H  37.67200 7.81200 31.90000
H  38.83700 7.96500 25.44600
H  44.12500 11.33700 26.32100
H  41.65300 9.57900 34.18800
H  38.76800 9.54400 33.75400
H  39.43800 6.82000 33.54300
H  39.12400 7.59500 35.07700
H  40.74100 7.48700 34.40400
H  39.52900 11.64000 33.50100
H  41.09600 12.10700 33.81600
H  39.98400 10.37400 35.99300
H  38.99800 11.73300 35.73900
H  34.95200 7.06300 29.57900
H  35.82900 7.51700 31.00000
H  36.02400 5.93000 30.42600
H  34.81900 5.55600 26.26200
H  34.47200 6.90900 27.35100
H  35.46000 5.44600 27.83200
H  40.12000 10.06700 24.34400
H  43.08900 9.26800 24.58800
H  41.05200 7.28100 24.16600
H  41.85200 8.38400 22.96000
H  40.07500 8.28600 23.00300
H  42.17400 11.11400 23.01600
H  43.63000 11.52000 23.91000
H  41.12900 12.86500 23.56500
H  42.57200 13.28400 24.68700
H  41.17900 12.48200 25.28900
H  46.31500 13.13000 29.23100
H  45.34000 13.39700 27.83400
H  46.47100 12.01000 27.82200
H  43.28100 12.27900 33.42200
H  44.03300 9.76200 36.72000
H  45.26800 9.20300 35.45100
H  43.54500 8.60100 35.49300
Mg 9.91900 48.10300 25.64500
C  7.92400 48.21800 28.56200
C  12.49300 49.47500 27.32100
C  11.73400 47.86100 22.85200
C  7.02700 47.35200 23.82800
N  10.15500 48.68000 27.70700
C  9.23800 48.65100 28.75300
C  9.92400 49.09000 29.99200
C  11.09700 49.93700 29.56400
C  11.24700 49.37300 28.04600
C  10.89500 51.47000 29.53000
C  10.31400 47.83000 30.82900
C  10.31000 47.99500 32.43700
H  10.14900 46.72100 33.25100
N  11.91600 48.51800 25.18700
C  12.84600 49.08900 26.03700
C  14.16400 49.00200 25.39700
C  13.91000 48.56600 24.01500
C  12.47600 48.27300 23.97200
C  15.41300 49.29300 26.11700
C  14.80400 48.32400 22.79900
O  14.40500 47.84300 21.77000
C  16.21400 48.65900 22.95900
N  9.42300 47.72600 23.62500
C  10.36000 47.67100 22.68200
C  9.74000 47.33600 21.31300
C  8.25400 46.90800 21.70600
C  8.24200 47.34700 23.09600
C  9.75400 48.61600 20.38700
C  7.84400 45.38000 21.56400
C  8.70600 44.37000 22.30900
N  7.86300 47.88300 26.02800
C  6.78600 47.64800 25.19000
C  5.58500 47.61800 25.96800
C  6.01600 47.73200 27.31900
C  7.37500 47.98500 27.30100
C  4.24600 47.29400 25.42600
C  5.53600 47.75200 28.65000
O  4.43000 47.54500 29.10000
C  6.79200 48.05700 29.55800
C  7.02700 46.90600 30.55400
O  7.52800 45.82200 30.31500
O  6.41600 47.25200 31.77900
C  6.39400 46.08700 32.67400
H  13.30600 50.00900 27.81600
H  12.15900 47.74800 21.85300
H  6.18700 47.11700 23.17200
H  9.22600 49.70000 30.56600
H  11.92200 49.68300 30.23100
H  9.94700 51.70700 30.01400
H  10.75400 51.83600 28.51300
H  11.72100 51.93900 30.06500
H  11.35000 47.64600 30.54600
H  9.74900 46.98200 30.44200
H  9.54900 48.67800 32.81400
H  11.29000 48.46100 32.53900
H  15.36500 48.99200 27.16300
H  15.64700 50.35600 26.05200
H  16.21000 48.69900 25.66900
H  16.73600 48.54900 22.00800
H  16.58000 47.98000 23.72900
H  16.21200 49.70300 23.27100
H  10.11600 46.47400 20.76000
H  7.53600 47.53300 21.17500
H  10.56400 48.64200 19.65800
H  9.69400 49.52700 20.98300
H  8.80500 48.52200 19.85900
H  7.79500 45.02900 20.53300
H  6.83300 45.33200 21.96700
H  9.42500 44.89000 22.94200
H  9.38800 43.80700 21.67200
H  8.17000 43.63100 22.90600
H  3.82500 46.47500 26.00800
H  4.27200 46.99200 24.37900
H  3.53200 48.08900 25.64200
H  6.64400 48.97600 30.12500
H  5.51600 45.48900 32.43200
H  6.17300 46.33900 33.71100
H  7.25900 45.42600 32.60600

