158

Mg 25.99100 -0.55500 28.74300
C  27.63000 -0.91900 31.79100
C  23.01400 -0.05800 30.61400
C  24.28400 -0.22400 25.98000
C  28.85300 -1.60800 27.14300
N  25.43900 -0.24700 31.04100
C  26.35600 -0.39700 32.02600
C  25.65300 -0.25800 33.37000
C  24.13900 -0.06600 33.02300
C  24.19700 -0.10600 31.47500
C  23.15000 -1.21700 33.54400
C  26.24500 0.84800 34.25600
C  26.74600 0.40100 35.69500
H  26.42300 1.37200 36.77500
N  23.89200 -0.21700 28.35800
C  22.87000 -0.03000 29.25300
C  21.63700 0.22500 28.48600
C  22.02600 0.40600 27.10500
C  23.43200 -0.05100 27.10000
C  20.21400 0.46500 29.08500
C  21.24300 0.89400 25.91500
O  21.73900 0.76900 24.82900
C  19.88000 1.57300 26.11600
N  26.54900 -0.87400 26.79200
C  25.64700 -0.70200 25.78500
C  26.32900 -0.83100 24.38600
C  27.68600 -1.55500 24.76900
C  27.73400 -1.33200 26.33900
C  25.40800 -1.53200 23.34100
C  28.92500 -1.01200 23.97800
C  28.80300 -0.61500 22.50800
N  27.84500 -1.14300 29.33500
C  28.92700 -1.44500 28.57700
C  30.08100 -1.67600 29.37600
C  29.62800 -1.44900 30.68300
C  28.25500 -1.18500 30.60800
C  31.43100 -2.13900 28.83800
C  30.03400 -1.49500 32.04000
O  31.07400 -1.71500 32.52400
C  28.76000 -1.17800 32.80100
C  28.40300 -2.31900 33.74800
O  27.56200 -3.17200 33.48100
O  29.11900 -2.29900 34.93700
C  28.68000 -3.29300 35.92300
H  22.17400 0.22200 31.25300
H  23.90200 -0.01100 24.97900
H  29.76300 -1.97300 26.66300
H  25.52400 -1.14000 33.99800
H  23.70500 0.89100 33.31200
H  23.53500 -2.16000 33.93200
H  22.26700 -1.44200 32.94600
H  22.81200 -0.74500 34.46600
H  25.44900 1.55000 34.50300
H  27.06600 1.26600 33.67300
H  27.80200 0.27800 35.45500
H  26.29100 -0.57500 35.86300
H  19.97900 -0.14300 29.95800
H  19.46900 0.15300 28.35300
H  19.94800 1.51200 29.22900
H  19.92700 2.29500 26.93100
H  19.15500 0.81700 26.42100
H  19.50200 2.12200 25.25400
H  26.57700 0.20800 24.17100
H  27.52300 -2.62700 24.65800
H  25.77100 -2.45900 22.89900
H  25.26000 -0.76700 22.57800
H  24.49400 -1.77000 23.88400
H  29.63800 -1.83400 24.03100
H  29.35500 -0.21200 24.58200
H  27.94100 -1.00500 21.96700
H  29.65000 -0.97500 21.92500
H  28.75900 0.46000 22.33400
H  31.51400 -1.84300 27.79300
H  31.68100 -3.17200 29.08300
H  32.13100 -1.51500 29.39400
H  29.02300 -0.31200 33.40800
H  27.72900 -2.92300 36.30500
H  29.34500 -3.26000 36.78700
H  28.73600 -4.36700 35.74900
Mg -0.72600 34.58700 26.73500
C  -2.58600 32.86900 29.28900
C  0.26100 36.78000 29.24100
C  0.41000 36.62400 24.41600
C  -2.48100 32.64500 24.42800
N  -0.98700 34.62800 28.98500
C  -1.74800 33.83500 29.77100
C  -1.57600 34.06900 31.23100
C  -0.74900 35.41200 31.29700
C  -0.36200 35.59200 29.81100
C  -1.31800 36.61200 31.97000
C  -0.79400 32.87200 31.97100
C  -1.29900 32.49500 33.28200
H  -0.19400 32.25400 34.43000
N  0.32000 36.42700 26.77300
C  0.64700 37.11100 27.90200
C  1.45300 38.30200 27.46300
C  1.46800 38.32400 26.06500
C  0.77600 37.05200 25.71500
C  2.03000 39.19400 28.54000
C  2.05200 39.37500 25.04700
O  2.10800 39.22800 23.88200
C  2.50400 40.60000 25.63300
N  -1.33000 34.83400 24.65800
C  -0.50900 35.66400 23.91600
C  -0.64200 35.35300 22.38400
C  -1.19300 33.88900 22.51600
C  -1.76500 33.75200 23.95600
C  -1.49000 36.31900 21.58600
C  -0.24700 32.69000 22.08600
C  0.73500 32.07600 23.17400
N  -2.23900 33.17600 26.76000
C  -2.76400 32.39800 25.75700
C  -3.56900 31.31100 26.26300
C  -3.55900 31.51900 27.66100
C  -2.72400 32.61300 27.90700
C  -4.43900 30.28400 25.56000
C  -4.13200 31.01200 28.86300
O  -4.93000 30.15500 29.11000
C  -3.43100 31.84600 30.01600
C  -4.55400 32.37200 30.79400
O  -5.18000 33.40200 30.54100
O  -4.85300 31.50000 31.84900
C  -5.77500 32.06100 32.90800
H  0.58600 37.50800 29.98700
H  0.84400 37.15700 23.56800
H  -2.81300 32.02400 23.59300
H  -2.50600 34.23700 31.77400
H  0.18000 35.34400 31.86300
H  -2.04400 36.41000 32.75700
H  -1.79800 37.34100 31.31600
H  -0.48500 37.09000 32.48600
H  0.25600 33.13700 32.09400
H  -0.75600 31.96500 31.36800
H  -1.68500 31.49500 33.08600
H  -2.05300 33.18600 33.65800
H  2.54100 40.08600 28.17700
H  2.74500 38.68000 29.18300
H  1.23600 39.70800 29.08200
H  3.47800 40.39300 26.07700
H  1.87800 41.07700 26.38700
H  2.59300 41.29700 24.80000
H  0.38300 35.48600 22.03600
H  -2.02900 33.78300 21.82500
H  -1.92800 37.06600 22.24900
H  -2.32900 35.77900 21.14800
H  -1.00900 36.83900 20.75700
H  0.28100 33.20500 21.28300
H  -0.78300 31.87700 21.59700
H  0.47800 32.48600 24.15100
H  1.79200 32.26800 22.99000
H  0.63300 30.99400 23.26100
H  -5.45000 30.67100 25.68500
H  -4.36300 29.29200 26.00500
H  -4.20700 30.28800 24.49500
H  -2.98200 31.13000 30.70500
H  -6.64900 32.60400 32.54700
H  -5.09700 32.68000 33.49400
H  -6.06600 31.23900 33.56200

