158

Mg 0.73900 8.16200 25.84300
C  1.56500 10.10300 28.63000
C  0.68400 5.44700 27.93200
C  0.10200 6.18100 23.10600
C  1.01200 10.90700 23.76400
N  1.30900 7.79100 28.05800
C  1.47500 8.71600 29.02000
C  1.40200 8.19500 30.50300
C  1.32400 6.64700 30.18000
C  1.12100 6.60300 28.61700
C  2.43200 5.68000 30.72200
C  0.30000 8.78500 31.40900
C  0.61500 8.84700 32.87700
H  1.61100 7.90100 33.53700
N  0.37200 6.08400 25.57300
C  0.34800 5.16100 26.60600
C  -0.05300 3.88100 26.09100
C  -0.31500 4.10200 24.67100
C  0.10200 5.48400 24.37800
C  -0.25700 2.66300 26.93900
C  -0.81500 3.11400 23.71800
O  -1.11000 3.38400 22.58200
C  -0.95900 1.62000 24.08500
N  0.45000 8.52400 23.68500
C  0.23000 7.52900 22.79100
C  0.32500 8.04400 21.37400
C  0.25800 9.59900 21.63800
C  0.56700 9.72000 23.11000
C  1.57300 7.46900 20.61500
C  -1.14300 10.34100 21.33900
C  -0.99100 11.47900 20.28500
N  1.22300 10.03800 26.04200
C  1.27800 11.12500 25.08500
C  1.60700 12.34300 25.73900
C  1.72300 11.95700 27.10000
C  1.48900 10.57900 27.22800
C  1.62800 13.77100 25.07500
C  1.92500 12.52000 28.45500
O  2.13700 13.69800 28.73100
C  1.85700 11.29000 29.46600
C  3.22300 11.11400 29.89500
O  4.32300 11.13900 29.29400
O  3.06700 10.84100 31.20900
C  4.36500 10.48800 31.92300
H  0.55900 4.53100 28.51300
H  -0.07700 5.50600 22.26600
H  0.90500 11.80100 23.14600
H  2.40200 8.40700 30.88100
H  0.41600 6.22000 30.60500
H  2.98500 6.05600 31.58300
H  3.14600 5.50900 29.91700
H  1.97200 4.69300 30.76000
H  -0.58200 8.18100 31.19400
H  0.11500 9.83100 31.16200
H  -0.33800 8.81400 33.40500
H  1.06000 9.83900 32.96600
H  -1.33900 2.63200 26.81200
H  -0.02000 2.81900 27.99200
H  0.18500 1.74500 26.55200
H  -0.00200 1.27900 24.48000
H  -1.01300 0.96700 23.21400
H  -1.79700 1.37800 24.73900
H  -0.51400 7.65000 20.80100
H  1.05800 10.05100 21.05100
H  2.15400 6.78200 21.22900
H  2.30000 8.22800 20.32300
H  1.17600 7.01400 19.70700
H  -1.58500 10.72200 22.26000
H  -1.81000 9.56400 20.96800
H  0.03300 11.81800 20.13000
H  -1.50400 12.37000 20.64600
H  -1.42300 11.19600 19.32500
H  0.88400 14.45200 25.48900
H  1.16000 13.69000 24.09400
H  2.63100 14.18500 24.97300
H  1.12300 11.51100 30.24100
H  5.15500 11.20900 31.71400
H  4.67300 9.49400 31.59700
H  4.29400 10.46900 33.01000
Mg 16.32000 51.51900 25.62900
C  18.09200 50.12900 28.44200
C  13.92800 52.43500 27.91400
C  14.28100 51.87200 23.06600
C  18.83800 50.35600 23.55100
N  16.16900 51.33200 27.98000
C  17.03300 50.85700 28.90900
C  16.58800 51.16000 30.31800
C  15.12300 51.65600 30.11300
C  15.07800 51.86900 28.59100
C  13.96300 50.73300 30.54600
C  17.55600 52.10100 31.05800
C  18.16800 51.61900 32.41500
H  17.30100 50.81500 33.37900
N  14.42600 52.12200 25.45500
C  13.58000 52.59800 26.51200
C  12.32600 52.99700 25.97600
C  12.34300 52.63700 24.57900
C  13.71600 52.21600 24.30100
C  11.20800 53.58900 26.87600
C  11.19600 52.75900 23.58400
O  11.31100 52.41000 22.42100
C  9.90100 53.44000 23.97000
N  16.64000 51.21900 23.58800
C  15.61600 51.47000 22.71300
C  16.12200 51.28900 21.25300
C  17.65300 51.11500 21.43800
C  17.72200 50.86300 22.97900
C  15.45000 50.15400 20.42400
C  18.61200 52.21100 21.03600
C  18.34900 53.67400 21.59800
N  18.14000 50.46700 25.94800
C  19.04300 50.07000 24.94200
C  20.16900 49.41500 25.58400
C  19.78900 49.43100 26.98400
C  18.54400 50.04500 27.08700
C  21.44800 48.96200 25.02200
C  20.29700 49.02900 28.29600
O  21.37700 48.56800 28.66600
C  19.16300 49.49500 29.29100
C  18.67200 48.28400 30.16800
O  17.62700 47.68200 30.03300
O  19.51100 48.11000 31.27500
C  19.09100 47.00800 32.19500
H  13.21500 52.62500 28.71800
H  13.70200 52.20400 22.20100
H  19.69900 49.93500 23.02700
H  16.47600 50.31200 30.99200
H  15.03800 52.56900 30.70100
H  14.31500 49.85300 31.08400
H  13.23000 50.32400 29.85100
H  13.36000 51.21000 31.31800
H  17.10700 53.08200 31.21200
H  18.42300 52.27500 30.42100
H  18.40300 52.43700 33.09700
H  18.99800 50.97200 32.13300
H  10.47800 52.78800 26.99400
H  10.76200 54.42900 26.34300
H  11.74600 54.02100 27.71900
H  9.09000 53.14100 23.30600
H  10.19700 54.48900 23.93700
H  9.71300 53.00800 24.95300
H  16.00400 52.20400 20.67400
H  18.00500 50.22300 20.92000
H  14.37800 49.96400 20.47600
H  15.83400 49.16300 20.66800
H  15.66000 50.27300 19.36100
H  18.55600 52.32600 19.95400
H  19.65000 51.90700 21.17700
H  18.36100 54.44900 20.83200
H  19.14300 53.91700 22.30400
H  17.34300 53.66500 22.01800
H  21.85700 49.60700 24.24300
H  21.29800 47.97200 24.59200
H  22.24600 48.88300 25.76100
H  19.67700 50.27100 29.85900
H  18.50100 46.19800 31.76600
H  18.43500 47.30700 33.01200
H  20.00100 46.53400 32.56400

