158

Mg -1.25700 16.82700 26.37400
C  -1.92400 14.49400 28.96500
C  -1.79700 19.37500 28.68400
C  -1.25400 19.15600 23.92000
C  -1.58000 14.27600 24.04900
N  -1.81500 16.89400 28.54000
C  -1.86800 15.82900 29.42000
C  -1.83200 16.37900 30.86000
C  -1.97600 17.94200 30.71600
C  -1.78800 18.12200 29.20200
C  -3.50100 18.48600 31.17400
C  -0.47500 15.94900 31.61100
C  -0.28900 16.62600 32.98600
H  -0.37600 15.74200 34.28800
N  -1.34300 18.96000 26.31600
C  -1.63100 19.83200 27.39100
C  -1.65700 21.23500 26.91000
C  -1.53900 21.16900 25.50800
C  -1.32200 19.76500 25.18000
C  -1.87900 22.41800 27.85100
C  -1.67600 22.30000 24.54300
O  -1.74100 22.16300 23.31100
C  -1.87700 23.70500 25.06800
N  -1.45400 16.70500 24.29800
C  -1.30000 17.80800 23.51200
C  -1.24500 17.35400 21.95800
C  -1.02400 15.78200 22.08500
C  -1.42700 15.55800 23.52700
C  -2.48800 17.85500 21.15500
C  0.37100 15.19100 21.57000
C  1.52300 15.69600 22.41200
N  -1.65400 14.79400 26.43300
C  -1.76700 13.86200 25.37000
C  -1.88500 12.54300 25.94700
C  -2.01100 12.73300 27.31000
C  -1.81200 14.12500 27.54200
C  -1.95300 11.23900 25.22700
C  -2.14100 12.07000 28.58900
O  -2.13800 10.86700 28.83000
C  -2.44400 13.14700 29.63900
C  -1.69200 12.71500 30.85900
O  -0.51000 12.51800 30.78900
O  -2.47400 12.53800 31.93800
C  -1.84200 12.30100 33.22700
H  -1.85400 20.16200 29.43900
H  -1.18200 19.76300 23.01500
H  -1.41700 13.37100 23.45900
H  -2.75500 15.96900 31.26800
H  -1.18100 18.42800 31.28200
H  -3.35300 19.35500 31.81400
H  -4.06900 17.70100 31.67300
H  -4.01300 18.88200 30.29700
H  0.33600 16.29000 30.96700
H  -0.47600 14.85900 31.64600
H  -1.09300 17.33300 33.18800
H  0.56600 17.30100 32.93900
H  -2.76800 22.93000 27.48300
H  -0.99500 23.05400 27.89700
H  -1.98100 22.10700 28.89000
H  -2.85900 23.73700 25.53900
H  -1.97400 24.32400 24.17600
H  -1.05800 24.10800 25.66400
H  -0.36200 17.82800 21.53100
H  -1.83700 15.43000 21.44900
H  -3.08800 18.38000 21.89900
H  -3.14000 17.06800 20.77500
H  -2.25400 18.58900 20.38400
H  0.66500 15.62800 20.61600
H  0.41800 14.10300 21.62400
H  1.25700 16.01100 23.42000
H  1.92700 16.63500 22.03500
H  2.33800 14.97200 22.40200
H  -2.20200 11.36400 24.17400
H  -2.80700 10.76100 25.70600
H  -1.08000 10.59900 25.36100
H  -3.49100 13.18000 29.94200
H  -0.76400 12.14600 33.19800
H  -2.29600 11.48900 33.79400
H  -1.99100 13.13500 33.91300
Mg 35.95600 1.10800 29.61400
C  33.87100 2.14800 32.36200
C  38.67800 1.15800 31.62800
C  37.69000 0.49000 26.86700
C  33.10800 1.62400 27.57000
N  36.19100 1.33800 31.77400
C  35.19800 1.84600 32.73000
C  35.80400 1.79500 34.15900
C  37.41900 1.68200 33.83300
C  37.43800 1.29900 32.35700
C  38.37900 2.89000 34.18200
C  35.34200 0.66400 35.09800
C  35.10200 0.89500 36.58700
H  35.57200 2.19800 37.27900
N  37.83300 0.80200 29.28400
C  38.81300 0.92300 30.24300
C  40.11500 0.78800 29.58100
C  39.89000 0.43400 28.24900
C  38.38500 0.48900 28.07600
C  41.44300 0.75700 30.23100
C  40.85200 -0.07200 27.21000
O  40.46500 -0.41600 26.07200
C  42.36500 -0.23800 27.44600
N  35.43900 0.90100 27.52100
C  36.35200 0.74100 26.55900
C  35.74200 0.84100 25.14400
C  34.26500 0.84300 25.48000
C  34.24800 1.03400 26.95800
C  36.35600 2.05400 24.29800
C  33.53300 -0.50100 24.97600
C  32.73100 -0.44100 23.65100
N  33.96200 1.76500 29.89800
C  32.95200 1.95600 28.93100
C  31.76200 2.45800 29.57900
C  32.06300 2.51000 30.95200
C  33.39300 2.14800 31.04400
C  30.44200 2.74800 28.81100
C  31.55300 2.91500 32.29000
O  30.54400 3.35200 32.74900
C  32.74300 2.66300 33.23100
C  32.94200 3.96200 33.96000
O  33.25500 5.02300 33.46600
O  32.58500 3.82400 35.26300
C  32.28200 5.14100 35.98600
H  39.57900 1.21900 32.24300
H  38.35400 0.23500 26.03900
H  32.21300 1.65100 26.94500
H  35.52300 2.77900 34.53300
H  37.82900 0.76300 34.25200
H  38.70400 3.42900 33.29200
H  39.34800 2.64800 34.62000
H  37.69600 3.54600 34.72200
H  35.97800 -0.21700 35.01200
H  34.37000 0.40400 34.67900
H  35.44600 0.04400 37.17400
H  34.02400 0.99300 36.71800
H  41.61900 1.46700 31.03900
H  42.19600 1.05600 29.50100
H  41.73900 -0.24800 30.53200
H  42.84900 0.73800 27.41400
H  42.69100 -0.81500 26.58100
H  42.74000 -0.85900 28.26000
H  35.88500 -0.10200 24.61700
H  33.80100 1.71200 25.01200
H  36.63400 2.90700 24.91900
H  35.50700 2.26100 23.64700
H  37.19600 1.63100 23.74800
H  32.79300 -0.81900 25.71100
H  34.25000 -1.31200 24.85000
H  31.69600 -0.71100 23.86000
H  33.12300 -1.23500 23.01600
H  32.81900 0.53600 23.17600
H  30.24600 2.10700 27.95200
H  30.42900 3.80500 28.54600
H  29.74500 2.61300 29.63800
H  32.50200 1.91300 33.98500
H  31.39000 5.64000 35.60800
H  33.10300 5.83900 36.14900
H  31.99900 4.82600 36.99100

