158

Mg 1.28000 -1.54000 44.39600
C  4.61200 -0.24900 44.00000
C  0.21500 1.27500 42.74300
C  -1.73600 -3.00900 43.94600
C  2.51500 -4.23900 45.90200
N  2.33700 0.15000 43.20800
C  3.68000 0.52300 43.30500
C  3.98900 1.88300 42.75700
C  2.57200 2.54000 42.83700
C  1.62100 1.27500 42.90900
C  2.38900 3.50100 44.02800
C  4.55500 1.80500 41.33100
C  6.01400 2.12900 40.90500
H  6.15800 2.99200 39.60900
N  -0.66800 -0.83400 43.59300
C  -0.85800 0.35400 42.97500
C  -2.19900 0.53600 42.58000
C  -2.77800 -0.78300 42.86600
C  -1.70000 -1.61200 43.47000
C  -2.72000 1.81200 41.91300
C  -4.19300 -1.17600 42.56500
O  -4.91700 -0.42300 41.92300
C  -4.73800 -2.43200 43.06200
N  0.57500 -3.40000 44.78300
C  -0.72100 -3.69500 44.61500
C  -1.00100 -5.00800 45.34500
C  0.30700 -5.49600 45.90500
C  1.17100 -4.30800 45.48800
C  -2.06600 -4.81000 46.40900
C  0.80700 -6.89300 45.32000
C  1.13900 -7.88900 46.43100
N  3.14200 -2.21500 44.78400
C  3.52400 -3.34200 45.45000
C  4.86100 -3.29200 45.83500
C  5.36000 -2.11800 45.27200
C  4.27300 -1.48300 44.60500
C  5.64000 -4.27600 46.70600
C  6.50600 -1.25300 45.24600
O  7.62200 -1.29000 45.76600
C  6.12800 -0.07800 44.27700
C  6.38500 1.12600 45.04900
O  5.61000 1.60200 45.90700
O  7.59000 1.64000 44.65300
C  8.09600 2.71700 45.36900
H  -0.05100 2.29200 42.44800
H  -2.59300 -3.68600 43.97600
H  2.95200 -5.05100 46.48700
H  4.61200 2.44800 43.45000
H  2.35200 3.21200 42.00800
H  3.27000 3.83000 44.57900
H  1.69000 3.03600 44.72300
H  1.95600 4.44700 43.70300
H  3.98900 2.44400 40.65300
H  4.32500 0.90000 40.76800
H  6.35900 1.12300 40.66900
H  6.54400 2.56500 41.75300
H  -2.85500 1.56100 40.86100
H  -2.11900 2.72000 41.86500
H  -3.71500 2.03000 42.30200
H  -5.78900 -2.62300 42.84300
H  -4.53900 -2.31100 44.12700
H  -4.12700 -3.16600 42.53700
H  -1.31500 -5.71900 44.58000
H  0.19400 -5.47000 46.98900
H  -1.46100 -4.39700 47.21600
H  -2.48200 -5.78600 46.66100
H  -2.90300 -4.22400 46.03100
H  1.76000 -6.65100 44.85100
H  0.16100 -7.41500 44.61400
H  2.09000 -7.57900 46.86400
H  1.11700 -8.90800 46.04400
H  0.37000 -7.98100 47.19700
H  5.97500 -5.01300 45.97600
H  4.98600 -4.80100 47.40200
H  6.44600 -3.63900 47.07100
H  6.81900 0.00500 43.43800
H  9.12900 2.91700 45.08600
H  8.10800 2.44800 46.42500
H  7.50400 3.59300 45.10400
Mg 0.39800 43.45300 25.34300
C  2.44900 43.18700 28.18600
C  -2.33700 42.77700 27.44200
C  -1.52600 42.87000 22.63800
C  3.27100 43.40000 23.25100
N  0.10400 43.19600 27.56000
C  1.11500 43.19800 28.54500
C  0.54200 43.21000 29.97900
C  -0.96600 42.99500 29.62400
C  -1.10100 42.91500 28.13300
C  -1.68000 41.75600 30.29600
C  0.91000 44.45000 30.94500
C  1.64700 44.18600 32.23200
H  1.18700 42.94200 33.04100
N  -1.69200 42.95100 25.05000
C  -2.56400 42.70400 26.03400
C  -3.87700 42.43100 25.36600
C  -3.73700 42.67200 24.01000
C  -2.28000 42.83700 23.82600
C  -5.13600 42.11400 26.08400
C  -4.77900 42.60000 22.89100
O  -4.46700 42.56000 21.72000
C  -6.27700 42.48000 23.22000
N  0.87300 43.15000 23.30700
C  -0.11100 43.06400 22.37300
C  0.43100 43.09400 20.96200
C  1.84500 43.58000 21.20100
C  2.03100 43.32400 22.66000
C  0.39600 41.67700 20.21200
C  2.02300 45.12400 20.91700
C  3.16600 45.69700 20.06800
N  2.49600 43.32300 25.59000
C  3.58300 43.34900 24.68100
C  4.84400 43.19700 25.43300
C  4.42200 43.11800 26.80300
C  2.98600 43.20900 26.83000
C  6.18300 43.14300 24.93200
C  4.92000 43.01000 28.14200
O  6.07500 42.78200 28.53900
C  3.66800 43.14400 29.10200
C  3.82600 41.91300 30.03100
O  3.65400 40.69500 29.74400
O  4.37500 42.32200 31.20200
C  4.75600 41.19700 32.06200
H  -3.21100 42.58900 28.07000
H  -2.11400 42.90700 21.71800
H  4.07600 43.45500 22.51500
H  0.83600 42.22500 30.34200
H  -1.57800 43.86500 29.86100
H  -1.97800 41.01300 29.55700
H  -2.50500 42.07200 30.93500
H  -0.93600 41.26000 30.92000
H  0.00800 45.00500 31.20400
H  1.53400 45.15900 30.40100
H  1.66300 45.01100 32.94400
H  2.69600 44.09800 31.94900
H  -4.97400 41.73900 27.09500
H  -5.55000 41.22900 25.60200
H  -5.80700 42.97100 26.12700
H  -6.40100 41.49200 23.66400
H  -6.81900 42.38100 22.27900
H  -6.53400 43.32500 23.85800
H  -0.21300 43.77800 20.40900
H  2.56200 42.88900 20.75700
H  1.39600 41.38300 19.89300
H  -0.15100 41.86800 19.28900
H  -0.07400 40.86200 20.76200
H  2.21200 45.59700 21.88100
H  1.11400 45.59300 20.54100
H  3.85300 44.85200 20.03100
H  3.68300 46.52300 20.55700
H  2.76000 46.02300 19.11100
H  6.45000 42.26800 24.34000
H  6.94900 43.36400 25.67600
H  6.21400 44.07400 24.36600
H  3.60100 44.11300 29.59600
H  5.14200 41.83000 32.86200
H  5.58300 40.65800 31.60100
H  3.95600 40.48800 32.27200

