158

Mg 24.38700 -5.53900 45.77900
C  26.55500 -3.57200 43.87400
C  21.92600 -4.93700 43.40200
C  22.65900 -8.15100 46.92300
C  27.23800 -6.75100 47.52700
N  24.27800 -4.46200 43.80900
C  25.28400 -3.64100 43.31500
C  24.86600 -2.95300 42.06400
C  23.32600 -3.20800 41.96400
C  23.14100 -4.26200 43.10900
C  22.49300 -1.89400 41.91900
C  25.72200 -3.33600 40.77600
C  26.46100 -2.12000 40.24000
H  26.17300 -1.69500 38.85200
N  22.51500 -6.32700 45.33600
C  21.63400 -5.88900 44.36200
C  20.39500 -6.59400 44.42600
C  20.57200 -7.56900 45.50400
C  21.98400 -7.39200 45.97700
C  19.13200 -6.31300 43.63200
C  19.46300 -8.47000 45.97100
O  18.35000 -8.52300 45.47600
C  19.67600 -9.18400 47.31300
N  24.87200 -7.31000 46.91000
C  23.95300 -8.14400 47.36000
C  24.48200 -9.15400 48.35800
C  25.92100 -8.69200 48.63400
C  26.01100 -7.42400 47.63500
C  23.56400 -9.36600 49.57600
C  27.09400 -9.71000 48.23800
C  28.16100 -9.95000 49.40900
N  26.51300 -5.11000 45.85500
C  27.45700 -5.56700 46.70200
C  28.71100 -4.84400 46.41700
C  28.36400 -4.01500 45.29900
C  27.07200 -4.26400 44.96700
C  30.06600 -5.13700 47.07900
C  28.88400 -3.12100 44.39500
O  30.02600 -2.63000 44.27700
C  27.73000 -2.70600 43.45200
C  27.50100 -1.23900 43.67000
O  26.91900 -0.66800 44.60600
O  28.12500 -0.50200 42.64100
C  28.37300 0.96400 42.88400
H  21.08300 -4.69600 42.75100
H  22.04600 -8.95400 47.33700
H  28.03000 -7.16800 48.15300
H  24.82400 -1.88100 42.26000
H  23.05100 -3.81600 41.10200
H  21.65400 -2.05600 42.59600
H  22.12000 -1.85300 40.89500
H  23.03900 -0.96600 42.08300
H  25.05200 -3.78200 40.04200
H  26.42300 -4.13600 41.01300
H  27.52100 -2.34000 40.37200
H  26.25800 -1.21800 40.81700
H  19.44900 -5.85400 42.69600
H  18.43900 -5.62600 44.11900
H  18.52800 -7.20500 43.46900
H  18.72800 -9.56700 47.69300
H  20.14000 -8.47500 47.99900
H  20.36500 -10.02500 47.24400
H  24.52100 -10.15400 47.92400
H  25.95200 -8.25500 49.63200
H  23.25300 -10.40900 49.64900
H  22.78300 -8.60600 49.60200
H  24.19400 -9.30400 50.46300
H  27.54400 -9.48600 47.27100
H  26.50200 -10.62200 48.15300
H  27.84400 -9.45200 50.32500
H  29.09300 -9.50600 49.06000
H  28.22000 -11.02400 49.58700
H  29.92100 -4.93100 48.14000
H  30.87400 -4.49700 46.72600
H  30.36700 -6.18100 46.99100
H  28.00800 -2.97300 42.43300
H  28.70900 1.30900 41.90600
H  29.22100 1.04000 43.56600
H  27.60500 1.63200 43.27500
Mg 35.56400 49.56500 26.71700
C  35.53100 47.05700 29.09900
C  34.69600 51.88600 29.13600
C  35.12000 51.73700 24.25000
C  36.13800 46.94800 24.36300
N  35.13100 49.46300 28.85500
C  35.24200 48.33800 29.59400
C  35.29300 48.69000 31.09300
C  34.58200 50.09100 31.16900
C  34.90300 50.55700 29.65500
C  33.04000 50.06300 31.36800
C  36.75500 48.62200 31.68200
C  36.89900 47.92900 33.07700
H  36.92100 48.91900 34.33900
N  35.15300 51.62600 26.70100
C  34.77200 52.38000 27.78800
C  34.55000 53.70500 27.28600
C  34.64100 53.73300 25.86500
C  34.98400 52.33100 25.51200
C  34.09300 54.79700 28.20700
C  34.51700 54.88100 24.85300
O  34.75500 54.66400 23.62100
C  34.03600 56.21000 25.26100
N  35.52100 49.39200 24.64400
C  35.30600 50.42900 23.83500
C  35.45500 49.99100 22.35900
C  35.79300 48.48000 22.35700
C  35.85700 48.27100 23.88900
C  34.24200 50.42400 21.39900
C  37.00600 47.95600 21.54300
C  36.81000 46.72900 20.68000
N  35.80300 47.46000 26.67300
C  36.06100 46.53100 25.66900
C  36.11900 45.14900 26.20800
C  35.93600 45.36300 27.56500
C  35.69600 46.73400 27.77700
C  36.45000 43.87400 25.42700
C  35.83700 44.66100 28.74400
O  35.93100 43.45300 28.91100
C  35.60600 45.75500 29.86100
C  34.43800 45.40900 30.63100
O  33.26100 45.57000 30.35600
O  34.82300 44.94000 31.82900
C  34.01400 45.00100 33.00400
H  34.35500 52.50000 29.97100
H  34.90600 52.35000 23.37200
H  36.35500 46.25000 23.55100
H  34.59700 48.03000 31.61000
H  35.14600 50.84000 31.72600
H  32.61500 50.90900 30.82900
H  32.69000 50.26400 32.38000
H  32.60500 49.15500 30.94800
H  37.07200 49.64500 31.88500
H  37.44300 48.14900 30.98100
H  37.81300 47.33500 33.11100
H  36.07600 47.23800 33.25800
H  34.60900 55.74200 28.03800
H  34.20300 54.56400 29.26600
H  33.00700 54.81800 28.11700
H  33.84600 56.78600 24.35500
H  34.79200 56.83400 25.73800
H  33.19300 56.12000 25.94600
H  36.22200 50.58900 21.86600
H  34.88900 47.92300 22.11000
H  34.64200 51.08200 20.62700
H  33.50500 51.04400 21.91100
H  33.70100 49.57700 20.97800
H  37.70300 47.70800 22.34400
H  37.31900 48.83100 20.97400
H  37.11000 46.92300 19.65000
H  35.80400 46.31100 20.68600
H  37.47000 46.00900 21.16500
H  37.39500 43.50500 25.82600
H  36.59100 44.21600 24.40200
H  35.61500 43.17300 25.43600
H  36.44000 45.80300 30.56200
H  33.13500 45.61500 32.80600
H  34.49900 45.48100 33.85400
H  33.65000 44.04300 33.37700

