158

Mg 16.19400 51.64400 24.99000
C  18.06000 50.67300 27.81100
C  13.75500 52.78400 27.13500
C  14.49900 52.46000 22.39300
C  18.77600 50.25400 22.88500
N  15.97100 51.66500 27.24500
C  16.87500 51.34700 28.18000
C  16.46300 51.62400 29.63300
C  14.95400 52.14300 29.36900
C  14.81200 52.13900 27.78400
C  13.72500 51.38000 30.12600
C  17.30400 52.52100 30.51300
C  17.25000 52.39700 32.05500
H  16.23100 51.41300 32.61200
N  14.38400 52.53300 24.80700
C  13.57000 53.00100 25.80200
C  12.46300 53.67900 25.20900
C  12.69900 53.72000 23.82100
C  13.91200 52.87700 23.64200
C  11.14600 54.00900 25.91700
C  11.83200 54.24900 22.75000
O  12.10700 54.00200 21.58400
C  10.45400 55.01500 23.03600
N  16.62600 51.34700 22.97300
C  15.61200 51.75800 22.11400
C  16.02000 51.52600 20.63300
C  17.50300 51.12900 20.67000
C  17.65700 50.89100 22.24200
C  15.11800 50.56900 19.84000
C  18.57100 52.09500 20.23500
C  19.22300 51.67800 18.91100
N  18.04900 50.57200 25.23800
C  19.00300 50.09500 24.28300
C  19.96900 49.36600 25.05900
C  19.74600 49.63700 26.42400
C  18.53000 50.33800 26.49600
C  21.06900 48.62500 24.40500
C  20.28900 49.52000 27.75800
O  21.31800 49.04500 28.18700
C  19.22900 50.15800 28.73100
C  18.70500 49.08200 29.65900
O  17.78900 48.28500 29.40600
O  19.40500 49.19600 30.85200
C  19.05000 48.12300 31.76500
H  12.98500 53.19500 27.79100
H  14.16900 52.89400 21.44600
H  19.54700 49.87000 22.21300
H  16.40900 50.60100 30.00600
H  14.93100 53.21200 29.57700
H  13.39300 51.97700 30.97600
H  13.96400 50.44000 30.62300
H  12.93700 51.20700 29.39400
H  16.92200 53.50800 30.24900
H  18.34900 52.42000 30.21700
H  16.97700 53.40400 32.37000
H  18.26500 52.20900 32.40500
H  11.07000 55.09700 25.92700
H  11.18800 53.49100 26.87500
H  10.26700 53.61100 25.41000
H  9.64900 54.31800 23.27000
H  10.27700 55.60900 22.13900
H  10.72900 55.68800 23.84800
H  15.91100 52.47700 20.11300
H  17.77500 50.21700 20.13700
H  14.67000 51.17100 19.04900
H  14.36200 50.23600 20.55100
H  15.54300 49.72000 19.30500
H  19.31800 52.06500 21.02800
H  18.33000 53.15600 20.29700
H  19.36700 52.48600 18.19400
H  18.50500 51.06700 18.36400
H  20.17600 51.20100 19.13800
H  20.62600 48.26600 23.47600
H  21.37200 47.79600 25.04600
H  21.86400 49.28100 24.05100
H  19.66800 50.99700 29.27200
H  18.78000 47.18900 31.27300
H  18.27400 48.46000 32.45200
H  19.93400 47.73700 32.27400
Mg -5.54400 25.47000 26.28400
C  -4.00500 26.73200 29.14000
C  -7.44000 23.42900 28.45700
C  -6.66100 23.90000 23.65100
C  -3.55600 27.50400 24.32300
N  -5.62700 25.12200 28.49900
C  -4.97800 25.84500 29.43000
C  -5.61900 25.71400 30.79100
C  -6.45900 24.33900 30.66800
C  -6.58100 24.27200 29.09800
C  -5.77200 23.09400 31.35600
C  -6.45700 27.05900 31.28500
C  -6.15400 27.43700 32.72400
H  -5.88100 26.23600 33.61300
N  -7.06600 23.98100 26.06300
C  -7.64600 23.27700 27.09000
C  -8.52300 22.25500 26.47200
C  -8.24600 22.35600 25.02000
C  -7.24900 23.42500 24.87900
C  -9.41400 21.30400 27.26300
C  -8.70200 21.42600 23.88700
O  -8.32700 21.55200 22.69600
C  -9.69100 20.32200 24.23100
N  -5.35000 25.84300 24.25800
C  -5.86000 24.98800 23.27500
C  -5.55600 25.48500 21.84700
C  -4.48700 26.65500 22.12100
C  -4.46000 26.70500 23.71600
C  -4.99700 24.52200 20.83800
C  -4.92500 28.09200 21.55500
C  -5.68100 28.16500 20.23100
N  -3.90100 26.62700 26.60800
C  -3.30500 27.49000 25.68200
C  -2.36300 28.34300 26.45400
C  -2.60000 28.04700 27.72900
C  -3.51100 26.98300 27.85500
C  -1.52700 29.50600 25.88000
C  -2.30000 28.56600 29.05900
O  -1.52000 29.40500 29.42600
C  -3.15400 27.74300 30.05400
C  -2.24900 26.94100 30.93000
O  -1.81200 25.82100 30.75000
O  -1.96300 27.63700 32.06800
C  -1.42900 26.86300 33.20100
H  -7.96600 22.80500 29.18300
H  -6.99900 23.35800 22.76600
H  -3.08700 28.22900 23.65400
H  -4.79100 25.51600 31.47200
H  -7.47800 24.36200 31.05400
H  -5.14000 23.34600 32.20700
H  -5.24600 22.51300 30.59900
H  -6.55100 22.44200 31.75000
H  -7.53800 26.95300 31.19000
H  -6.24000 27.86800 30.58700
H  -7.02700 27.93700 33.14300
H  -5.35800 28.18200 32.71800
H  -9.36100 21.59700 28.31200
H  -9.04700 20.31500 26.98800
H  -10.43400 21.30700 26.87900
H  -9.80700 19.74000 23.31600
H  -10.59400 20.65600 24.74200
H  -9.12100 19.65500 24.87800
H  -6.49800 25.90200 21.49000
H  -3.42900 26.45800 21.94700
H  -3.97300 24.66100 20.49100
H  -5.76400 24.44700 20.06800
H  -5.06800 23.56100 21.34700
H  -3.91800 28.48800 21.42100
H  -5.44600 28.69600 22.29800
H  -6.41800 28.94000 20.01900
H  -6.05900 27.23100 19.81600
H  -4.83500 28.33200 19.56400
H  -2.04900 29.81800 24.97500
H  -0.54400 29.15800 25.56500
H  -1.51700 30.29200 26.63500
H  -3.78200 28.42100 30.63200
H  -0.35800 27.00900 33.34700
H  -1.50300 25.77600 33.17300
H  -1.99100 27.19500 34.07400

