158

Mg 50.02900 44.96300 40.86400
C  47.11600 45.72200 39.06000
C  49.89900 41.76300 39.56100
C  53.41800 44.72800 41.50300
C  50.25200 48.29900 41.77500
N  48.61000 43.86100 39.51400
C  47.52500 44.42300 38.85100
C  46.74900 43.34100 38.08800
C  47.55900 42.02800 38.48700
C  48.79400 42.54100 39.18100
C  46.71000 40.99100 39.36300
C  46.76300 43.63500 36.51000
C  45.35200 43.56800 35.86400
H  45.05800 44.41600 34.59900
N  51.38700 43.39100 40.71400
C  51.11200 42.15300 40.08800
C  52.33900 41.35800 40.11400
C  53.33600 42.15200 40.84600
C  52.73600 43.49700 41.01200
C  52.47200 39.95200 39.54600
C  54.79700 41.70600 41.24000
O  55.17800 40.55400 40.91600
C  55.73500 42.51200 41.99700
N  51.52900 46.26100 41.68700
C  52.80700 45.94400 41.78900
C  53.68400 47.05100 42.26200
C  52.64300 48.21900 42.52300
C  51.35200 47.53500 42.00100
C  54.86000 46.76500 43.32800
C  53.02000 49.61000 42.01500
C  53.21000 50.63300 43.22000
N  48.81700 46.67900 40.75500
C  49.04300 47.98400 41.09700
C  48.04200 48.83900 40.62100
C  47.20900 48.03700 39.86800
C  47.70500 46.72800 39.91500
C  47.92300 50.31200 41.01500
C  46.04100 48.04500 38.99500
O  45.22300 48.89800 38.58800
C  45.93000 46.55200 38.49400
C  44.67100 45.99600 39.06000
O  43.66800 45.70600 38.36400
O  44.64100 45.98200 40.40100
C  43.33700 46.19500 41.15300
H  49.83900 40.72000 39.24300
H  54.48400 44.65700 41.73300
H  50.17200 49.35900 42.02500
H  45.73200 43.30800 38.47900
H  48.00300 41.51100 37.63600
H  46.88700 39.95400 39.07800
H  45.64300 41.17200 39.23400
H  47.00200 41.13900 40.40200
H  47.40600 42.86600 36.08300
H  47.23900 44.56800 36.20900
H  44.59600 43.84100 36.60100
H  45.15900 42.51800 35.64500
H  53.16200 39.89100 38.70400
H  51.51100 39.74800 39.07300
H  52.70000 39.16900 40.27000
H  55.22200 42.99500 42.82900
H  56.16900 43.25700 41.33100
H  56.59100 41.99700 42.43200
H  54.12200 47.36300 41.31300
H  52.49800 48.25900 43.60300
H  55.78100 46.70300 42.74900
H  54.58200 45.77400 43.68800
H  54.88000 47.53500 44.09900
H  52.19200 50.02700 41.44100
H  53.87700 49.62200 41.34200
H  52.51000 51.46800 43.18300
H  54.24000 50.98500 43.27700
H  53.10200 50.07300 44.14900
H  48.81100 50.92200 40.84700
H  47.80100 50.25700 42.09700
H  47.08200 50.80400 40.52700
H  45.92800 46.51700 37.40500
H  43.45000 47.11800 41.72100
H  43.08500 45.34300 41.78400
H  42.42900 46.32300 40.56300
Mg 26.18300 50.22800 26.83300
C  24.40100 51.79300 29.33000
C  28.58400 49.17300 29.08000
C  28.15900 49.03500 24.25800
C  24.03500 51.73300 24.53000
N  26.44000 50.45200 28.91900
C  25.44900 50.99400 29.78700
C  25.67600 50.62200 31.22300
C  27.20800 50.12300 31.14300
C  27.44800 49.86500 29.60600
C  28.26300 51.15300 31.73500
C  24.67000 49.49300 31.67300
C  24.41300 49.37200 33.19400
H  25.19700 50.11500 34.28000
N  28.11300 49.19900 26.66800
C  28.84200 48.80000 27.75400
C  30.09200 48.19100 27.31000
C  30.02200 48.14800 25.89700
C  28.76300 48.80300 25.54700
C  31.07300 47.63200 28.29600
C  30.90300 47.53000 24.86800
O  30.77800 47.66800 23.65500
C  32.16000 46.73300 25.37400
N  26.14100 50.45100 24.77300
C  27.01200 49.78100 23.88400
C  26.57400 50.04700 22.43200
C  25.18100 50.61200 22.57600
C  25.18600 50.99300 24.03700
C  27.62400 50.84100 21.64400
C  24.03600 49.65700 22.17600
C  22.87600 50.27100 21.43700
N  24.59300 51.54300 26.88300
C  23.77900 52.08200 25.87800
C  22.67300 52.88700 26.44900
C  22.84000 52.75600 27.82400
C  24.06500 52.07100 28.02500
C  21.52500 53.53800 25.73300
C  22.29000 53.04300 29.16300
O  21.15500 53.45600 29.51300
C  23.35700 52.50200 30.20000
C  23.68600 53.58400 31.22100
O  24.60700 54.36300 31.05400
O  22.89900 53.48400 32.35700
C  23.26200 54.51700 33.34700
H  29.22100 48.87900 29.91600
H  28.64500 48.51400 23.43100
H  23.30800 52.11500 23.81000
H  25.61000 51.48100 31.89100
H  27.42500 49.15300 31.59000
H  28.62700 50.74200 32.67700
H  27.82800 52.10600 32.03600
H  29.15700 51.32700 31.13600
H  25.17200 48.57800 31.35900
H  23.74800 49.59300 31.10000
H  24.40500 48.31700 33.47000
H  23.38100 49.72000 33.14800
H  30.80100 47.65600 29.35100
H  32.00800 48.17600 28.16300
H  31.36400 46.60100 28.09500
H  31.78200 45.87200 25.92500
H  32.90000 47.32500 25.91300
H  32.66500 46.25200 24.53500
H  26.54400 49.05100 21.98900
H  25.16100 51.53500 21.99700
H  27.72100 50.67200 20.57200
H  28.63500 50.78500 22.04800
H  27.39000 51.89100 21.46900
H  23.71000 49.10400 23.05700
H  24.39300 48.92100 21.45600
H  23.07900 51.32600 21.25500
H  21.93000 50.19100 21.97300
H  22.87000 49.81000 20.45000
H  20.77900 52.75200 25.85000
H  21.50000 53.53400 24.64300
H  21.28100 54.49000 26.20500
H  22.86300 51.70100 30.75000
H  23.46400 55.45900 32.83700
H  24.10200 54.20300 33.96700
H  22.30500 54.63400 33.85500

