158

Mg 35.49200 1.17100 29.04100
C  33.44300 2.49300 31.60000
C  38.09000 0.97200 31.45400
C  37.52300 0.44000 26.56000
C  32.84700 1.77700 26.77700
N  35.75500 1.72200 31.30500
C  34.72500 2.17000 32.07800
C  35.14100 2.24800 33.55900
C  36.63600 1.78800 33.53800
C  36.88200 1.50400 32.05100
C  37.67300 2.65400 34.25500
C  34.38000 1.55100 34.67700
C  34.18300 2.15000 36.11200
H  35.07700 3.29500 36.62300
N  37.47600 0.58600 29.00400
C  38.37000 0.56900 30.11100
C  39.66600 0.13200 29.57600
C  39.53100 0.07500 28.13100
C  38.14600 0.39200 27.82400
C  40.89700 -0.10900 30.45900
C  40.67200 -0.17000 27.05900
O  40.39900 -0.34400 25.84900
C  42.06100 -0.44900 27.42800
N  35.29600 1.06300 26.97700
C  36.29000 0.84300 26.15700
C  35.82100 0.71500 24.72400
C  34.30200 0.91700 24.73300
C  34.07100 1.28800 26.24500
C  36.50600 1.71200 23.73000
C  33.44800 -0.30600 24.27900
C  32.51600 -0.17100 23.07100
N  33.55700 1.84900 29.12800
C  32.62200 2.13600 28.10400
C  31.45000 2.78900 28.62300
C  31.76400 2.89700 29.99900
C  33.03200 2.39000 30.26200
C  30.34300 3.27700 27.87900
C  31.19700 3.32700 31.20800
O  30.10400 3.88000 31.44000
C  32.22200 3.00600 32.31800
C  32.55600 4.25300 33.02900
O  33.24300 5.19500 32.60700
O  31.82300 4.33100 34.17000
C  31.91600 5.54600 35.00700
H  38.90900 0.97800 32.17700
H  38.17400 0.06700 25.76600
H  32.00500 1.91500 26.09500
H  35.12200 3.31200 33.79600
H  36.75100 0.83000 34.04500
H  37.21900 3.59300 34.57200
H  38.49000 2.90500 33.57900
H  38.24300 2.23800 35.08600
H  34.71400 0.53300 34.87800
H  33.40500 1.24300 34.29900
H  34.36900 1.25100 36.70100
H  33.16000 2.46600 36.31500
H  41.43800 -0.92500 29.98000
H  40.58400 -0.39200 31.46400
H  41.45300 0.81300 30.63300
H  42.20900 -1.42600 27.88600
H  42.32400 0.34600 28.12500
H  42.65400 -0.33900 26.52000
H  36.14600 -0.26800 24.38400
H  34.01900 1.70200 24.03200
H  37.01900 2.52200 24.25000
H  35.77900 2.31500 23.18500
H  37.00800 1.13500 22.95400
H  32.83800 -0.56100 25.14600
H  34.02600 -1.21400 24.10800
H  31.51200 -0.46700 23.37600
H  32.81200 -0.80900 22.23800
H  32.48000 0.87900 22.78100
H  29.48700 2.62100 28.03300
H  30.53300 3.29300 26.80500
H  30.07100 4.30600 28.11300
H  31.66300 2.34500 32.98000
H  30.91800 5.94400 35.19500
H  32.55100 6.32800 34.59100
H  32.31800 5.04200 35.88600
Mg 46.85200 25.09500 28.75700
C  47.71800 27.27700 31.33700
C  45.87200 22.83200 31.07800
C  46.58500 22.87900 26.33900
C  48.60000 27.26200 26.50400
N  46.83900 25.07600 30.93700
C  47.25200 26.06400 31.77500
C  46.93700 25.66600 33.22600
C  46.61100 24.16000 33.09100
C  46.37500 24.00400 31.62300
C  47.60900 23.09900 33.75500
C  45.89400 26.66900 33.81300
C  46.37700 27.45600 35.07100
H  45.44700 27.28500 36.23800
N  46.20600 23.13000 28.69900
C  45.78400 22.39300 29.73800
C  45.20400 21.15600 29.23800
C  45.53400 21.07700 27.87900
C  46.22500 22.38700 27.56700
C  44.65600 20.05400 30.19000
C  45.17900 19.92000 26.85700
O  45.46500 20.03000 25.66100
C  44.61300 18.69500 27.30100
N  47.45600 25.12700 26.69100
C  47.17700 24.06800 25.93200
C  47.59800 24.32600 24.46600
C  48.07300 25.74700 24.48900
C  48.04500 26.10000 25.96500
C  48.51500 23.25000 23.80500
C  47.24400 26.70800 23.49700
C  45.89500 27.13400 24.18900
N  47.78900 27.01300 28.82500
C  48.56900 27.67500 27.87000
C  49.11100 28.91400 28.50500
C  48.81200 28.78100 29.85400
C  48.01900 27.62800 29.96500
C  49.89500 29.99300 27.81400
C  49.03200 29.42400 31.12400
O  49.74300 30.37400 31.40000
C  48.30300 28.49000 32.18400
C  49.28300 28.04100 33.27800
O  49.88300 26.99100 33.23100
O  49.24300 28.89900 34.35800
C  50.15300 28.60200 35.52000
H  45.62300 22.11500 31.86300
H  46.49400 22.21900 25.47400
H  49.11600 28.00200 25.88900
H  47.80300 25.75500 33.88200
H  45.63800 23.92700 33.52300
H  47.27300 22.52800 34.62100
H  48.48400 23.62200 34.13900
H  47.75300 22.32200 33.00400
H  44.99600 26.16800 34.17500
H  45.65600 27.39400 33.03500
H  46.26300 28.51600 34.84600
H  47.39800 27.20400 35.35700
H  45.34200 19.20700 30.18800
H  43.78400 19.57000 29.74900
H  44.51300 20.27300 31.24800
H  43.64900 18.77600 27.80300
H  45.33000 18.18900 27.94700
H  44.66800 17.96700 26.49100
H  46.61100 24.40200 24.01000
H  49.10900 25.69100 24.15600
H  47.92900 22.75800 23.03000
H  48.91200 22.49500 24.48400
H  49.41500 23.58000 23.28700
H  46.95600 26.17600 22.59000
H  47.83200 27.53600 23.10100
H  45.03800 26.83500 23.58500
H  45.78800 28.21600 24.26000
H  45.68500 26.62000 25.12700
H  50.42700 29.58800 26.95300
H  50.66900 30.25800 28.53400
H  49.12600 30.71600 27.54000
H  47.51000 29.08800 32.63400
H  50.65400 29.56300 35.62900
H  50.96500 27.88800 35.37800
H  49.52100 28.43500 36.39300

