158

Mg 15.89600 -2.02800 27.80000
C  15.00600 0.17400 30.43500
C  18.10100 -3.46300 30.06600
C  17.26500 -3.59400 25.20600
C  14.36700 0.30900 25.56500
N  16.45800 -1.70900 30.01900
C  15.89800 -0.88600 30.91600
C  16.44700 -1.17600 32.38200
C  17.39900 -2.32900 32.13700
C  17.41000 -2.50200 30.64300
C  18.82200 -2.09200 32.77800
C  15.23900 -1.38400 33.36900
C  15.29600 -0.69900 34.70000
H  16.59700 -0.16800 35.24500
N  17.35600 -3.48200 27.64800
C  18.16500 -3.96900 28.62100
C  19.04000 -5.01800 28.06200
C  18.69700 -5.14200 26.71700
C  17.73900 -4.05200 26.46600
C  19.96200 -5.86200 28.83700
C  19.21400 -6.06100 25.67900
O  18.78800 -5.99100 24.51900
C  20.05700 -7.30300 26.05200
N  16.03700 -1.54500 25.70400
C  16.47100 -2.51200 24.85600
C  16.19300 -2.15000 23.34400
C  15.31700 -0.87000 23.46400
C  15.24800 -0.62200 25.02700
C  17.50300 -1.86500 22.63800
C  13.87600 -0.93000 22.76800
C  13.46800 0.33600 22.05200
N  14.80000 -0.20800 27.96300
C  14.22500 0.60500 26.97700
C  13.62000 1.74000 27.52200
C  13.86900 1.58600 28.90700
C  14.56500 0.39900 29.13300
C  12.92300 2.83200 26.78500
C  13.49000 2.15300 30.21900
O  12.95600 3.21000 30.51400
C  14.23300 1.23500 31.25200
C  15.06500 2.23700 32.00400
O  15.92300 2.98500 31.58400
O  14.52600 2.34700 33.31200
C  14.90400 3.50900 34.12300
H  18.71800 -4.05700 30.74400
H  17.70600 -4.00400 24.29600
H  13.96700 0.90000 24.73700
H  17.09400 -0.40800 32.80600
H  17.07300 -3.26900 32.58300
H  18.88300 -1.21600 33.42400
H  19.52200 -2.16300 31.94500
H  19.10100 -2.93800 33.40600
H  15.04000 -2.43700 33.57100
H  14.34400 -1.00400 32.87600
H  14.84700 -1.31200 35.48200
H  14.54000 0.08100 34.79400
H  20.96000 -5.98900 28.41700
H  19.62000 -6.89500 28.89600
H  20.00900 -5.58600 29.89100
H  20.27900 -7.80100 25.10800
H  19.40900 -7.86800 26.72200
H  21.01200 -6.89700 26.38500
H  15.63600 -3.01900 22.99300
H  15.74200 0.04300 23.04700
H  17.49700 -0.95400 22.04000
H  17.83300 -2.64400 21.95100
H  18.29900 -1.86800 23.38200
H  13.13300 -1.12600 23.54100
H  13.74600 -1.76600 22.08000
H  14.37300 0.88800 21.79800
H  12.86400 0.91100 22.75300
H  13.02600 0.08800 21.08700
H  12.26700 2.46200 25.99600
H  13.66400 3.49900 26.34600
H  12.35500 3.38000 27.53600
H  13.44200 0.80700 31.86700
H  15.75100 3.43900 34.80500
H  13.96900 3.71200 34.64600
H  15.10900 4.43200 33.58200
Mg -1.81300 34.16000 27.53400
C  -4.09900 32.40600 29.70200
C  -0.63300 35.86400 30.24200
C  -0.12200 36.03400 25.36700
C  -3.53600 32.59700 24.85900
N  -2.36700 34.22900 29.78400
C  -3.36500 33.37900 30.41100
C  -3.34000 33.65100 31.87000
C  -2.43400 34.97200 31.97500
C  -1.75400 35.06500 30.59100
C  -3.23700 36.27200 32.20100
C  -2.61700 32.53500 32.63800
C  -3.40700 32.11900 33.95000
H  -2.61500 32.29800 35.28000
N  -0.36700 35.67700 27.86900
C  -0.03900 36.27500 29.01500
C  1.05600 37.24000 28.74000
C  1.26000 37.18300 27.33000
C  0.23800 36.24400 26.76300
C  1.82900 38.07000 29.73500
C  2.33000 37.96000 26.46600
O  2.40400 37.72300 25.25700
C  3.24400 38.85000 27.09400
N  -1.76900 34.17500 25.39100
C  -1.04000 35.14400 24.74800
C  -1.25700 35.02200 23.20600
C  -2.24300 33.84400 23.07900
C  -2.61600 33.59300 24.56600
C  -1.77000 36.48200 22.67300
C  -1.81000 32.56100 22.28700
C  -0.78400 31.57500 22.98000
N  -3.40200 32.83800 27.26100
C  -3.88200 32.16500 26.13900
C  -4.71600 31.08600 26.50300
C  -4.80800 31.17100 27.88200
C  -4.04100 32.26400 28.31000
C  -5.43800 30.08600 25.58600
C  -5.55000 30.60500 29.02800
O  -6.29400 29.62200 29.08300
C  -5.00600 31.42400 30.24400
C  -6.05800 31.92800 31.21300
O  -6.88000 32.82200 31.04400
O  -6.06200 31.17800 32.37200
C  -7.19200 31.42500 33.29900
H  -0.21000 36.32500 31.13600
H  0.42700 36.75600 24.75900
H  -4.10100 32.11100 24.06100
H  -4.32700 33.80000 32.30700
H  -1.65900 34.95600 32.74100
H  -3.43600 36.77600 31.25600
H  -2.53800 36.89800 32.75600
H  -4.02700 36.11200 32.93500
H  -1.55500 32.68400 32.83000
H  -2.55400 31.60800 32.06900
H  -3.68200 31.06600 33.88900
H  -4.32700 32.70400 33.95600
H  1.48800 37.89800 30.75600
H  1.79500 39.13400 29.49800
H  2.87300 37.76500 29.65300
H  3.80000 39.53900 26.45800
H  3.89200 38.22800 27.71200
H  2.74600 39.53900 27.77600
H  -0.32900 34.76700 22.69500
H  -3.00700 34.25700 22.42100
H  -1.21300 36.75100 21.77600
H  -1.76700 37.34000 23.34500
H  -2.73400 36.47400 22.16500
H  -1.29500 33.03400 21.45100
H  -2.72700 32.01300 22.06900
H  -0.45200 32.01700 23.91900
H  0.10400 31.32000 22.40200
H  -1.31200 30.64700 23.20000
H  -5.61500 29.17200 26.15400
H  -4.87900 29.81300 24.69200
H  -6.40100 30.49700 25.28100
H  -4.47500 30.59300 30.70700
H  -8.15800 31.23500 32.83200
H  -7.26600 32.46900 33.60400
H  -7.18500 30.73900 34.14600

