158

Mg 47.58200 14.93400 28.44700
C  45.60400 14.84700 31.13000
C  49.86800 16.88800 30.09300
C  49.51800 14.99300 25.61600
C  44.93000 13.66200 26.46300
N  47.69100 15.76800 30.34700
C  46.82300 15.45600 31.37400
C  47.22500 16.13100 32.67900
C  48.45700 16.99400 32.24600
C  48.73400 16.53500 30.84100
C  48.37000 18.53600 32.42400
C  47.45500 15.01300 33.77000
C  47.03900 15.51300 35.14200
H  47.19500 16.92800 35.62200
N  49.39300 15.69400 27.97400
C  50.22100 16.47500 28.84700
C  51.51100 16.69600 28.20900
C  51.48200 16.06200 26.99800
C  50.09100 15.54700 26.81100
C  52.69300 17.34200 28.86500
C  52.63000 15.83600 26.02700
O  52.48000 15.19900 25.02300
C  53.95100 16.50300 26.15200
N  47.25100 14.47000 26.36000
C  48.24700 14.43600 25.42100
C  47.75800 14.04800 24.03900
C  46.38200 13.45200 24.35900
C  46.14500 13.82400 25.85800
C  47.78100 15.22700 23.10700
C  46.40400 11.89700 24.04600
C  46.78800 10.98100 25.20800
N  45.58100 14.49800 28.65600
C  44.64800 13.91700 27.84400
C  43.47400 13.64600 28.50000
C  43.72400 13.96100 29.83400
C  45.05400 14.48800 29.89800
C  42.26500 12.88200 27.92800
C  43.20400 13.89400 31.15200
O  42.13100 13.56000 31.62300
C  44.40400 14.49400 32.03200
C  43.80100 15.66800 32.71500
O  43.63100 16.81200 32.33600
O  43.42800 15.19400 33.93800
C  42.63200 16.11900 34.75300
H  50.56800 17.56100 30.59200
H  50.09900 15.10300 24.69700
H  44.19100 13.19600 25.80600
H  46.36600 16.77700 32.85700
H  49.23500 16.70800 32.95300
H  49.32000 18.95000 32.76400
H  47.61000 18.98400 33.06400
H  48.22200 19.09300 31.49900
H  48.51800 14.77700 33.81000
H  46.80300 14.14700 33.65600
H  47.55600 14.88300 35.86600
H  45.96400 15.33700 35.12900
H  52.78700 18.29400 28.34200
H  53.55700 16.67800 28.85100
H  52.48400 17.62300 29.89700
H  53.95000 17.58800 26.26000
H  54.55200 16.20900 25.29200
H  54.48900 15.99100 26.95000
H  48.36500 13.25700 23.59800
H  45.58800 13.97500 23.82600
H  47.35800 16.12600 23.55400
H  47.20200 14.93500 22.23100
H  48.82500 15.43900 22.87700
H  47.13400 11.59400 23.29500
H  45.40000 11.57600 23.76800
H  46.71200 11.41500 26.20500
H  47.81100 10.62800 25.07800
H  46.11000 10.12700 25.21000
H  41.78200 13.47100 27.14900
H  41.62100 12.76400 28.80000
H  42.48900 11.89300 27.52700
H  44.62000 13.70700 32.75500
H  41.89500 16.61100 34.11800
H  43.30500 16.74800 35.33500
H  42.07600 15.50200 35.45900
Mg 46.95500 43.96800 42.23200
C  43.47800 43.15200 41.71300
C  47.72600 40.53300 41.49500
C  50.17800 44.81800 41.94000
C  45.99100 47.35100 42.20500
N  45.76100 42.07300 41.74300
C  44.37400 42.06900 41.54300
C  43.90800 40.69900 41.11000
C  45.27900 39.83000 41.18900
C  46.33700 40.84300 41.55500
C  45.14300 38.56600 42.11600
C  43.26100 40.61300 39.68500
C  43.91500 41.37700 38.62100
H  43.98300 40.74300 37.31400
N  48.68500 42.82900 41.79500
C  48.75900 41.47000 41.66200
C  50.17400 41.04000 41.64900
C  50.92200 42.26300 41.74800
C  49.89500 43.40600 41.83000
C  50.60600 39.64800 41.48200
C  52.47100 42.31900 41.64300
O  53.07800 41.29300 41.47500
C  53.24500 43.56700 41.47200
N  47.89400 45.78700 42.26600
C  49.32500 45.89100 42.08700
C  49.75100 47.37800 41.99000
C  48.39100 48.21000 42.11900
C  47.34800 47.06500 42.14200
C  50.71800 47.79200 43.14800
C  48.05400 49.26100 40.98500
C  47.77100 50.62800 41.59700
N  45.12000 45.05900 42.16200
C  44.92800 46.41200 42.21600
C  43.47100 46.65700 42.18500
C  42.92200 45.41100 42.02300
C  43.89600 44.43300 42.02700
C  42.79700 48.03100 42.08800
C  41.66000 44.85600 41.84700
O  40.52800 45.32700 41.92300
C  42.00800 43.27500 41.64800
C  41.40400 42.49800 42.79600
O  40.60000 41.55700 42.73000
O  41.86900 42.99700 44.01600
C  41.33900 42.27800 45.13500
H  47.87600 39.45200 41.48400
H  51.25900 44.91700 41.81900
H  45.64600 48.37500 42.36200
H  43.09700 40.49500 41.80800
H  45.67500 39.50200 40.22800
H  45.71700 38.77600 43.01900
H  45.42400 37.68900 41.53300
H  44.10900 38.28100 42.31000
H  42.25000 41.01400 39.61100
H  43.19200 39.54100 39.49800
H  44.90100 41.64000 39.00400
H  43.35600 42.30200 38.48200
H  50.46600 39.27800 40.46700
H  49.91700 39.10300 42.12700
H  51.57900 39.47300 41.94000
H  52.89700 43.97400 40.52300
H  54.31400 43.51600 41.26700
H  53.14000 44.14600 42.39000
H  50.23700 47.44500 41.01700
H  48.25300 48.53900 43.14900
H  50.66600 47.11000 43.99700
H  50.43500 48.74900 43.58800
H  51.78000 47.77300 42.90600
H  47.22300 49.00800 40.32600
H  48.94400 49.20100 40.35800
H  48.29500 51.30500 40.92300
H  48.16800 50.67000 42.61100
H  46.72700 50.92200 41.70800
H  43.46200 48.86000 42.33200
H  41.96600 48.21100 42.76900
H  42.35500 48.18400 41.10300
H  41.68300 42.97500 40.65200
H  41.65200 42.86500 45.99900
H  41.87100 41.32800 45.17300
H  40.27500 42.15000 44.93700

