158

Mg 16.94200 -2.24000 28.32700
C  15.99300 -0.39600 31.01300
C  18.90400 -4.27100 30.50400
C  18.55500 -3.67700 25.68600
C  15.66600 0.06700 26.08700
N  17.35500 -2.34000 30.54900
C  16.87100 -1.43000 31.45000
C  17.36900 -1.73600 32.88700
C  18.39600 -2.91700 32.67100
C  18.23000 -3.22200 31.13600
C  19.92400 -2.55400 33.00800
C  16.13300 -2.19500 33.80400
C  16.35400 -2.18200 35.27700
H  17.62100 -1.52700 35.90800
N  18.30500 -3.85100 28.13100
C  18.97800 -4.52000 29.13100
C  19.61300 -5.68200 28.59800
C  19.58400 -5.53000 27.15400
C  18.84400 -4.30300 26.97000
C  20.30400 -6.86200 29.40300
C  20.11800 -6.42400 26.02500
O  19.96000 -6.25000 24.82800
C  20.65900 -7.75700 26.42800
N  17.15300 -1.81300 26.08700
C  17.78400 -2.56800 25.27000
C  17.52000 -2.25600 23.80600
C  16.38700 -1.17800 23.97400
C  16.36500 -0.96800 25.50400
C  18.78200 -1.72700 23.12000
C  15.05000 -1.62100 23.16800
C  13.71000 -1.76900 23.97100
N  15.87200 -0.64300 28.43600
C  15.45900 0.25000 27.45400
C  14.73000 1.24700 28.12800
C  14.94800 1.06500 29.54300
C  15.65000 -0.15900 29.66800
C  13.94600 2.45400 27.39100
C  14.71100 1.65500 30.81600
O  14.18500 2.70200 31.08800
C  15.35500 0.72300 31.81900
C  16.34200 1.52600 32.55900
O  17.47100 1.77100 32.22000
O  15.79900 1.90900 33.74500
C  16.65400 2.74500 34.51400
H  19.43900 -4.95000 31.17000
H  18.96700 -4.11300 24.77400
H  15.09400 0.61300 25.33300
H  17.79900 -0.78700 33.20700
H  18.01100 -3.75200 33.25600
H  20.36000 -3.17100 33.79400
H  20.03900 -1.56700 33.45600
H  20.50900 -2.55400 32.08800
H  15.84100 -3.16400 33.39900
H  15.29700 -1.51100 33.65500
H  16.27900 -3.18300 35.70300
H  15.43900 -1.69700 35.61500
H  19.75300 -7.74300 29.07500
H  20.10000 -6.79300 30.47200
H  21.35400 -7.06200 29.18700
H  21.51300 -7.51300 27.06100
H  21.03600 -8.43800 25.66500
H  19.93200 -8.39000 26.93600
H  17.19100 -3.10400 23.20500
H  16.70600 -0.28700 23.43200
H  18.60900 -0.91900 22.40900
H  19.23400 -2.57500 22.60600
H  19.54700 -1.39600 23.82200
H  15.33400 -2.52100 22.62300
H  14.82200 -0.82300 22.46200
H  13.92500 -1.72300 25.03800
H  13.25400 -2.74000 23.77900
H  13.14200 -0.91100 23.61200
H  13.49500 3.09100 28.15200
H  13.13300 2.01900 26.80900
H  14.49800 2.94200 26.58800
H  14.58400 0.46600 32.54500
H  16.33100 2.98300 35.52700
H  16.67600 3.70400 33.99600
H  17.65600 2.31800 34.56200
Mg 8.60000 47.84700 27.31900
C  7.03100 47.65600 30.32200
C  11.74600 48.22200 29.09100
C  10.34200 48.58200 24.52300
C  5.57900 48.06300 25.68000
N  9.32200 47.98400 29.52700
C  8.45200 47.86400 30.56800
C  9.19100 47.99000 31.87200
C  10.69200 48.36600 31.44900
C  10.62800 48.15000 29.88800
C  11.24900 49.74000 31.94800
C  9.09300 46.76400 32.81300
C  8.96600 47.03600 34.31200
H  9.53300 45.99100 35.26100
N  10.79200 48.06500 26.83000
C  11.86700 48.18100 27.63100
C  13.06400 48.35700 26.83200
C  12.63500 48.26800 25.49600
C  11.15400 48.32800 25.54600
C  14.43900 48.70700 27.55500
C  13.50500 48.25300 24.30600
O  13.11300 48.27100 23.14300
C  15.08200 48.20700 24.48300
N  8.08200 48.20600 25.42200
C  8.95800 48.64200 24.43100
C  8.16000 48.99400 23.21700
C  6.73000 48.31600 23.47700
C  6.77800 48.07100 24.94400
C  8.02200 50.49500 22.92900
C  6.51900 47.05500 22.60400
C  5.40500 47.21200 21.51000
N  6.65000 47.78500 27.79500
C  5.49400 47.86400 27.02000
C  4.32700 47.74000 27.90800
C  4.88800 47.60300 29.19700
C  6.29200 47.69000 29.07000
C  2.83000 47.67000 27.51400
C  4.57100 47.49600 30.58100
O  3.49700 47.42700 31.13900
C  5.92100 47.56900 31.37800
C  5.91800 46.19800 32.04400
O  5.79900 45.12500 31.42100
O  5.95900 46.31800 33.37500
C  6.33900 45.08500 34.10400
H  12.64800 48.45500 29.66100
H  10.82700 48.81600 23.57300
H  4.69500 48.03900 25.03900
H  8.79000 48.89700 32.32600
H  11.35500 47.59900 31.85000
H  11.10500 50.48500 31.16600
H  12.29500 49.53500 32.17700
H  10.75800 50.07600 32.86200
H  9.95300 46.13100 32.59600
H  8.32500 46.07400 32.46300
H  7.90700 47.22100 34.49000
H  9.51600 47.94800 34.54500
H  14.30400 49.10800 28.56000
H  14.90500 49.40100 26.85500
H  14.91500 47.72900 27.63300
H  15.26900 47.44600 25.24000
H  15.51500 49.13900 24.84600
H  15.51100 47.87700 23.53700
H  8.63900 48.47800 22.38500
H  5.87900 48.97300 23.29500
H  8.73800 50.76000 22.15100
H  8.17600 51.07200 23.84100
H  7.03100 50.70300 22.52700
H  6.13100 46.22500 23.19400
H  7.45900 46.65900 22.21900
H  4.49500 46.83300 21.97500
H  5.67400 46.68800 20.59300
H  5.39700 48.26100 21.21400
H  2.35000 47.11500 28.32000
H  2.70000 47.10500 26.59100
H  2.41900 48.67900 27.46600
H  5.93800 48.40100 32.08300
H  6.49900 45.22000 35.17400
H  7.18800 44.52800 33.70900
H  5.44200 44.46800 34.04200

