158

Mg 54.50700 23.35200 43.60300
C  51.87600 25.54800 42.92200
C  52.39500 20.72500 43.02600
C  57.20600 21.46900 43.42000
C  56.63200 26.22200 43.98400
N  52.45900 23.21700 43.06100
C  51.56400 24.16700 42.89700
C  50.22500 23.55500 42.38300
C  50.26800 22.11400 42.93000
C  51.80500 22.00900 43.04500
C  49.51300 21.88900 44.25800
C  50.03700 23.64900 40.85100
C  48.78900 24.22900 40.29300
H  48.74200 24.81500 38.80600
N  54.79000 21.40100 43.23000
C  53.78900 20.44700 43.08300
C  54.38800 19.14300 42.84800
C  55.78400 19.36400 42.98500
C  56.00900 20.77900 43.23500
C  53.59400 17.83600 42.68100
C  56.71800 18.23600 42.83400
O  56.38300 17.03800 42.64300
C  58.10100 18.50900 42.76600
N  56.60200 23.85500 43.41900
C  57.47300 22.81400 43.45200
C  58.92300 23.34700 43.67700
C  58.84900 24.92100 43.80700
C  57.28000 25.03000 43.76900
C  59.58800 22.63500 44.88900
C  59.60400 25.69800 42.70900
C  60.15900 27.06500 43.07000
N  54.32400 25.50700 43.66300
C  55.23800 26.49000 43.86000
C  54.57400 27.72100 43.87400
C  53.24200 27.43200 43.44200
C  53.15800 26.06100 43.36300
C  55.20100 29.10900 43.93600
C  51.85900 27.92200 43.20800
O  51.41200 29.05300 43.31500
C  50.96000 26.72400 42.65700
C  50.72600 27.08300 41.28300
O  51.49800 27.07800 40.28200
O  49.38500 27.48200 41.05500
C  49.15600 28.03500 39.74100
H  51.65600 19.93100 42.89800
H  58.07900 20.81900 43.51500
H  57.24200 27.12700 44.00800
H  49.43900 24.14300 42.85500
H  49.94600 21.41600 42.15800
H  49.50100 22.73300 44.94700
H  49.90600 21.03600 44.81100
H  48.44400 21.71900 44.12700
H  50.08000 22.66400 40.38700
H  50.91800 24.18500 40.49500
H  48.41500 24.96600 41.00300
H  48.00400 23.47400 40.34400
H  54.04000 17.07000 42.04700
H  52.58500 17.93900 42.28200
H  53.53600 17.40000 43.67900
H  58.20200 19.37800 42.11600
H  58.64900 17.72500 42.24400
H  58.60700 18.85300 43.66800
H  59.44500 23.23400 42.72600
H  59.03000 25.26700 44.82400
H  59.34900 23.24300 45.76200
H  60.64500 22.80400 44.68400
H  59.36300 21.58200 45.05700
H  58.94700 25.69300 41.83900
H  60.42300 25.04700 42.40400
H  61.11200 27.07000 42.54000
H  60.31400 27.14500 44.14600
H  59.47800 27.81500 42.66600
H  55.78200 29.31100 43.03600
H  55.91100 29.13400 44.76200
H  54.35200 29.77200 44.10300
H  50.00600 26.70800 43.18400
H  49.57700 27.35400 39.00000
H  49.75600 28.93700 39.62100
H  48.10900 28.31500 39.62600
Mg 26.93300 51.20700 25.87000
C  25.02300 52.34500 28.55600
C  29.34700 50.30900 28.12100
C  28.73700 50.18800 23.29500
C  24.75800 52.83100 23.74800
N  27.15100 51.33200 28.10700
C  26.20300 51.76600 28.91800
C  26.60300 51.50800 30.41800
C  28.04200 50.92700 30.27500
C  28.22300 50.87500 28.77300
C  29.22200 51.75800 31.01000
C  25.57100 50.57700 31.16500
C  24.91800 51.25800 32.42200
H  24.93700 50.56800 33.83200
N  28.72200 50.25200 25.73700
C  29.62900 50.12900 26.74500
C  30.81400 49.45700 26.21500
C  30.60300 49.23000 24.85100
C  29.32300 49.81300 24.56800
C  31.97000 49.03800 27.18000
C  31.48500 48.60700 23.82300
O  31.13900 48.39000 22.61900
C  32.86300 48.26500 24.12000
N  26.88300 51.59000 23.84200
C  27.64800 50.93600 22.97000
C  27.29600 51.23800 21.49000
C  25.92900 52.00300 21.69100
C  25.87700 52.17100 23.19000
C  28.38500 52.03600 20.75000
C  24.63600 51.26500 21.16900
C  24.10100 51.89000 19.90700
N  25.24100 52.39800 26.06700
C  24.44000 52.97800 25.10000
C  23.31900 53.68700 25.70300
C  23.44100 53.41600 27.11700
C  24.62600 52.67000 27.23100
C  22.22300 54.43000 24.99300
C  22.89600 53.63000 28.44300
O  21.93600 54.22600 28.84700
C  23.97300 52.98100 29.40500
C  24.46700 53.95700 30.34400
O  25.33600 54.75700 30.13000
O  23.71500 53.96600 31.50400
C  23.96400 54.76600 32.69300
H  29.99000 49.93700 28.92200
H  29.35700 49.86700 22.45500
H  23.96400 53.17500 23.08200
H  26.62300 52.49200 30.88700
H  27.99400 49.88900 30.60400
H  29.93800 52.28700 30.38100
H  29.64500 50.93000 31.57900
H  28.80500 52.52500 31.66200
H  26.09000 49.72900 31.61100
H  24.81400 50.17700 30.49100
H  23.85800 51.26900 32.16700
H  25.22100 52.29600 32.55300
H  32.92500 49.44500 26.84600
H  32.19500 47.97300 27.12400
H  31.90300 49.34600 28.22300
H  33.23000 49.23600 24.45300
H  33.43300 47.87200 23.27800
H  33.09600 47.56800 24.92500
H  27.07500 50.33700 20.91800
H  25.94800 52.98500 21.21900
H  28.87000 51.36000 20.04600
H  29.01600 52.52500 21.49200
H  27.92800 52.84000 20.17300
H  23.88700 51.30300 21.96100
H  24.94000 50.23400 20.98400
H  23.02600 51.97600 20.06200
H  24.16500 51.23900 19.03500
H  24.56500 52.82800 19.60100
H  22.31300 54.43500 23.90600
H  22.39000 55.46300 25.29900
H  21.23600 54.08600 25.30300
H  23.58500 52.08200 29.88300
H  24.27500 55.76200 32.37800
H  24.73400 54.38200 33.36300
H  23.02400 54.73400 33.24400

