158

Mg 24.54700 -4.37400 46.36900
C  26.56200 -2.14900 44.52400
C  21.86500 -3.59700 44.20800
C  23.10600 -7.43400 46.94800
C  27.51400 -5.54200 47.95700
N  24.21000 -2.90800 44.69800
C  25.16900 -2.10400 44.17900
C  24.62300 -1.15300 43.02400
C  23.08600 -1.36800 43.25500
C  23.00700 -2.68500 44.13900
C  22.32600 -0.25300 43.88500
C  25.12500 -1.70600 41.66800
C  25.88700 -0.65900 40.71200
H  25.40300 -0.80500 39.26500
N  22.75100 -5.24200 45.92000
C  21.80000 -4.72300 45.00200
C  20.67500 -5.71100 44.86300
C  20.95000 -6.75200 45.86300
C  22.33000 -6.49700 46.26700
C  19.54500 -5.53700 43.90500
C  19.96700 -7.84100 46.26500
O  18.81000 -7.87600 45.76200
C  20.24200 -8.93700 47.31600
N  25.29400 -6.22300 47.19000
C  24.44200 -7.28100 47.35000
C  25.14700 -8.37700 48.12500
C  26.39900 -7.66700 48.62500
C  26.45900 -6.40900 47.84200
C  24.25400 -8.94300 49.28600
C  27.74800 -8.47300 48.61400
C  28.50800 -8.39700 49.95300
N  26.56400 -3.79100 46.48200
C  27.69400 -4.35800 47.19600
C  28.81100 -3.52800 46.91600
C  28.46500 -2.74900 45.80100
C  27.08400 -2.96300 45.59900
C  30.15200 -3.61500 47.60900
C  29.00400 -1.75500 44.90900
O  30.07400 -1.17700 44.75200
C  27.78400 -1.43300 43.95000
C  27.74800 0.05800 43.91700
O  27.33400 0.79800 44.84900
O  28.24000 0.48300 42.73300
C  28.75000 1.86600 42.70600
H  21.08100 -3.48600 43.45500
H  22.71900 -8.43700 47.13900
H  28.44500 -5.90000 48.40000
H  24.99600 -0.13300 43.11700
H  22.60500 -1.57200 42.29800
H  21.56400 -0.72800 44.50300
H  21.83600 0.23600 43.04300
H  23.00500 0.34500 44.49200
H  24.28700 -2.06300 41.07000
H  25.76200 -2.56300 41.88800
H  26.93000 -0.93000 40.87500
H  25.85800 0.38700 41.01900
H  19.09700 -6.52100 43.76600
H  19.80000 -5.09800 42.94000
H  18.88600 -4.76800 44.30700
H  19.29100 -9.33700 47.66700
H  20.74200 -8.36800 48.10000
H  20.83700 -9.66200 46.76100
H  25.23800 -9.12200 47.33400
H  26.24800 -7.29000 49.63700
H  23.40700 -8.32000 49.57100
H  24.82000 -9.24700 50.16700
H  23.71900 -9.85900 49.03300
H  28.39300 -8.25300 47.76300
H  27.48600 -9.50300 48.37400
H  29.51100 -7.97600 49.88600
H  28.56000 -9.42300 50.31800
H  28.00900 -7.85200 50.75400
H  30.13700 -4.19000 48.53500
H  30.48700 -2.59700 47.80600
H  30.75000 -4.24900 46.95500
H  27.85200 -1.71200 42.89900
H  28.10600 2.59200 43.20200
H  28.66800 2.21300 41.67600
H  29.79300 1.95300 43.00900
Mg 26.84100 50.22100 27.02000
C  24.87300 51.29800 29.63700
C  29.20500 49.07000 29.12100
C  28.74000 49.37300 24.24800
C  24.38300 51.51000 24.77600
N  26.97500 50.21800 29.12600
C  25.97200 50.56800 30.07500
C  26.28700 50.07400 31.50200
C  27.79600 49.57400 31.31100
C  28.01700 49.62300 29.75900
C  28.84000 50.42100 32.04500
C  25.22000 49.06900 32.09300
C  24.64300 49.36200 33.52600
H  25.59800 49.96800 34.64100
N  28.75700 49.51400 26.73400
C  29.60800 49.04800 27.70600
C  30.80200 48.45600 27.13800
C  30.75400 48.80100 25.74900
C  29.38100 49.25500 25.50900
C  31.87700 47.74900 27.96200
C  31.81000 48.62300 24.63900
O  31.56100 48.87600 23.45800
C  33.20800 48.17700 24.95100
N  26.58600 50.39200 24.85200
C  27.43000 49.87100 23.99600
C  26.78800 49.82600 22.54600
C  25.54900 50.73700 22.67900
C  25.46100 50.82700 24.18500
C  27.77300 50.36700 21.45600
C  24.28400 50.31300 21.94800
C  23.52200 49.12500 22.53600
N  25.03900 51.22300 27.17500
C  24.17800 51.65700 26.13600
C  23.06000 52.33600 26.76400
C  23.33100 52.26500 28.14200
C  24.51000 51.55200 28.31300
C  21.95900 53.05900 26.12000
C  22.76900 52.57700 29.45200
O  21.74300 53.17400 29.76400
C  23.82900 51.98500 30.55400
C  24.20700 52.93300 31.65000
O  25.08200 53.80900 31.52700
O  23.40600 52.71800 32.76700
C  23.54800 53.84400 33.67200
H  29.95900 48.71200 29.82500
H  29.20900 49.00600 23.33200
H  23.67800 51.91600 24.04800
H  26.34700 50.95200 32.14500
H  28.00300 48.60000 31.75600
H  28.87100 50.21600 33.11500
H  28.61100 51.47300 31.87700
H  29.84600 50.17800 31.70400
H  25.52200 48.02700 31.98800
H  24.33400 49.15200 31.46400
H  24.40200 48.36200 33.88600
H  23.69000 49.87700 33.40900
H  31.49300 47.35700 28.90400
H  32.54900 48.53900 28.29800
H  32.28700 46.87800 27.45200
H  33.26900 47.10900 24.73900
H  33.49500 48.36300 25.98600
H  33.88000 48.56500 24.18500
H  26.60100 48.77300 22.33300
H  25.86800 51.75100 22.44000
H  28.73800 50.61800 21.89500
H  27.49600 51.28300 20.93200
H  28.03300 49.57300 20.75600
H  24.75600 49.96700 21.02800
H  23.61200 51.11100 21.63000
H  23.68800 48.25800 21.89700
H  22.44500 49.29200 22.50000
H  23.86700 48.84600 23.53200
H  20.99800 52.62900 26.40400
H  21.85100 53.06700 25.03500
H  21.96500 54.09400 26.46100
H  23.22500 51.23200 31.06100
H  23.33100 54.68000 33.00800
H  24.54000 54.04300 34.07900
H  22.81800 53.79200 34.48000

