158

Mg 36.59000 49.28800 24.95900
C  36.49000 47.45300 28.05400
C  35.09600 51.94300 26.67000
C  36.45700 50.84400 21.99500
C  37.73200 46.40600 23.28500
N  35.84400 49.61400 27.07300
C  36.01300 48.76400 28.15200
C  35.57600 49.50300 29.41300
C  34.83400 50.81300 28.91400
C  35.33300 50.86100 27.48500
C  33.29100 50.98900 29.01200
C  36.60300 49.69100 30.48100
C  35.97500 49.43300 31.85900
H  34.54000 49.84000 32.16800
N  35.97200 51.10200 24.51200
C  35.38700 52.07400 25.30400
C  35.11900 53.29700 24.44400
C  35.53400 52.90300 23.10300
C  36.02100 51.54500 23.12400
C  34.64800 54.67300 25.04200
C  35.33400 53.78600 21.78300
O  35.77800 53.39900 20.70600
C  34.81400 55.21000 21.85900
N  36.96000 48.68800 22.94000
C  36.81100 49.53000 21.88700
C  37.22000 48.90400 20.51500
C  37.79000 47.53600 21.08000
C  37.53300 47.59100 22.53800
C  36.07300 48.77500 19.45700
C  39.33700 47.22400 20.73200
C  40.43500 47.93100 21.59300
N  36.97800 47.31000 25.44100
C  37.50200 46.23400 24.67600
C  37.64800 45.07500 25.54800
C  37.32600 45.56400 26.81000
C  36.89900 46.87300 26.75000
C  38.04200 43.73000 25.07700
C  37.22300 45.17400 28.21600
O  37.47000 44.10500 28.82100
C  36.64900 46.38100 29.10200
C  35.38700 45.90600 29.78800
O  34.27100 45.84300 29.22400
O  35.61800 45.66600 31.11900
C  34.47700 45.32000 32.00900
H  34.89400 52.89200 27.17000
H  36.60900 51.28500 21.00800
H  38.25400 45.65500 22.68900
H  34.79600 48.86000 29.81800
H  35.17300 51.58600 29.60400
H  32.76700 50.15700 29.48300
H  32.95300 51.03800 27.97700
H  32.90700 51.85700 29.54800
H  36.81300 50.75800 30.55400
H  37.50200 49.07800 30.40600
H  36.60400 49.93900 32.59200
H  36.08700 48.37000 32.07500
H  35.41500 55.42900 25.21300
H  34.19400 54.48200 26.01400
H  33.84900 54.93000 24.34600
H  33.72800 55.12900 21.88900
H  35.21100 55.57000 20.91000
H  35.25700 55.87500 22.60200
H  38.04400 49.51100 20.14300
H  37.26000 46.65000 20.73100
H  35.97700 47.78900 19.00300
H  36.36200 49.38900 18.60400
H  35.11200 49.11400 19.84400
H  39.47600 47.56800 19.70700
H  39.57900 46.16900 20.85500
H  40.04700 48.79500 22.13300
H  41.40900 48.02400 21.11300
H  40.62100 47.16400 22.34400
H  38.75800 43.95700 24.28700
H  37.19300 43.12100 24.76900
H  38.61900 43.21700 25.84700
H  37.43500 46.71200 29.78100
H  34.81700 45.10000 33.02100
H  34.03700 44.37800 31.68100
H  33.90900 46.25000 31.97600
Mg 6.08700 54.40100 40.70500
C  4.77500 51.25900 40.74400
C  8.97000 53.27300 39.32100
C  7.08600 57.65800 40.36200
C  2.96800 55.66500 42.00800
N  6.65000 52.48400 40.02300
C  6.04700 51.30800 40.16400
C  6.82100 50.21900 39.57200
C  8.28500 50.80000 39.57500
C  7.95200 52.30600 39.61900
C  9.15000 50.30500 40.78500
C  6.28100 49.84100 38.11600
C  6.50400 48.40900 37.61600
H  5.77200 48.13800 36.34300
N  7.75300 55.32400 39.89200
C  8.90300 54.65900 39.48300
C  9.87100 55.67700 39.19200
C  9.34700 57.00200 39.49900
C  7.96100 56.69000 39.96700
C  11.29200 55.21200 38.60100
C  10.09200 58.29700 39.42900
O  11.31000 58.31100 39.28500
C  9.49500 59.67900 39.39700
N  4.98300 56.47800 40.92600
C  5.80700 57.61400 40.86500
C  5.02800 58.80800 41.52800
C  3.75200 58.06800 42.08900
C  3.89000 56.64600 41.65200
C  5.83200 59.61900 42.57500
C  2.39700 58.73900 41.68600
C  1.86300 59.85100 42.60100
N  4.29900 53.67900 41.32300
C  3.15800 54.28200 41.84600
C  2.20900 53.20000 42.21600
C  2.88300 52.01300 41.86500
C  4.09000 52.37300 41.28200
C  0.75200 53.35600 42.67400
C  2.76800 50.65300 41.92500
O  1.87400 49.92700 42.38200
C  4.03800 49.96700 41.27100
C  3.60800 48.91600 40.30900
O  2.77100 48.93500 39.49200
O  4.29600 47.80800 40.67900
C  3.77900 46.48900 40.27900
H  9.86000 52.77500 38.93200
H  7.38100 58.70200 40.48600
H  2.03800 55.90600 42.52700
H  6.69100 49.28600 40.11900
H  8.93600 50.59600 38.72500
H  10.16200 50.18600 40.39900
H  8.74300 49.40600 41.24900
H  9.27400 51.01200 41.60500
H  6.88500 50.36300 37.37300
H  5.29100 50.25700 37.92700
H  6.21400 47.62700 38.31800
H  7.53300 48.24600 37.29600
H  11.62700 54.57000 39.41500
H  12.00700 56.02200 38.45400
H  11.20300 54.53600 37.75100
H  8.46400 59.67000 39.04300
H  10.10100 60.29900 38.73500
H  9.49600 60.03400 40.42800
H  4.76200 59.39700 40.65100
H  3.86100 57.98000 43.17000
H  6.72200 59.03600 42.81200
H  5.30800 59.98700 43.45700
H  5.99400 60.50500 41.96100
H  1.62600 57.96900 41.72900
H  2.53000 59.01100 40.63900
H  2.66300 60.10400 43.29800
H  0.91300 59.55400 43.04600
H  1.58700 60.71500 41.99700
H  0.72900 54.28600 43.24300
H  0.48400 52.46000 43.23400
H  0.18000 53.45100 41.75100
H  4.52600 49.53500 42.14500
H  4.55600 45.73400 40.15700
H  3.22600 46.42400 39.34200
H  3.08800 46.26600 41.09300

