158

Mg 7.25200 53.96000 40.88400
C  7.16200 50.46400 40.52200
C  10.52200 54.00800 39.92800
C  7.00500 57.39800 40.51600
C  3.82600 53.97200 41.68000
N  8.66900 52.40700 40.22400
C  8.44200 51.08800 40.16800
C  9.71500 50.35500 39.85100
C  10.80800 51.42100 39.87000
C  10.01200 52.70500 40.07000
C  11.92000 51.29900 40.98600
C  9.62600 49.52200 38.57200
C  9.31900 50.26800 37.24800
H  8.13800 49.83400 36.39300
N  8.60700 55.48800 40.39400
C  9.94600 55.30600 39.99300
C  10.52800 56.53900 39.63600
C  9.48900 57.54300 39.65500
C  8.30200 56.80700 40.19800
C  11.97500 56.61300 39.17400
C  9.58900 59.03100 39.18700
O  10.53600 59.45600 38.67700
C  8.46100 59.96600 39.26500
N  5.46900 55.47300 40.75900
C  5.72600 56.83200 40.80500
C  4.53500 57.63500 41.27900
C  3.47000 56.46700 41.44900
C  4.32200 55.18300 41.34500
C  4.64300 58.68600 42.38400
C  2.27900 56.47500 40.44800
C  1.60500 57.83400 40.12400
N  5.78800 52.57700 41.17000
C  4.47500 52.74500 41.53200
C  3.84400 51.43300 41.67800
C  4.85700 50.50700 41.32200
C  6.04300 51.23000 40.95100
C  2.44100 51.16400 42.00700
C  5.13900 49.10200 41.14900
O  4.51700 48.07800 41.39000
C  6.56800 49.07800 40.44000
C  6.24800 48.51800 39.11300
O  5.76800 49.15500 38.21800
O  6.59900 47.14500 39.14700
C  5.97600 46.32300 38.17800
H  11.56500 53.84300 39.65000
H  7.00200 58.48900 40.57400
H  2.88600 53.98800 42.23400
H  9.86000 49.72100 40.72600
H  11.28900 51.29000 38.90100
H  11.57300 52.02800 41.71800
H  12.89100 51.47300 40.52100
H  11.95700 50.29200 41.40100
H  9.03700 48.61900 38.73100
H  10.62900 49.09900 38.52300
H  10.20900 50.19200 36.62300
H  9.24100 51.32300 37.50800
H  11.99900 56.53400 38.08700
H  12.51900 55.79700 39.65000
H  12.49400 57.54800 39.38300
H  7.51600 59.57500 38.88900
H  8.61100 60.91600 38.75100
H  8.36500 60.13700 40.33700
H  4.23900 58.17100 40.37700
H  3.06500 56.54800 42.45800
H  5.71100 58.74100 42.59200
H  4.10200 58.59400 43.32600
H  4.26600 59.63200 41.99600
H  1.41400 56.04400 40.95400
H  2.48200 55.91800 39.53300
H  2.04100 58.69200 40.63500
H  0.56700 57.71600 40.43600
H  1.56700 58.02700 39.05200
H  2.50600 50.63700 42.95900
H  1.96600 50.51500 41.27100
H  1.81400 52.03400 42.20300
H  7.10100 48.37100 41.07600
H  6.66100 46.22600 37.33600
H  5.06200 46.79200 37.81400
H  5.88300 45.38000 38.71700
Mg -4.41700 24.70100 26.44300
C  -3.25700 26.38400 29.10200
C  -5.88400 22.45600 28.52000
C  -6.02100 23.24400 23.79300
C  -2.79000 26.82400 24.37100
N  -4.55800 24.44900 28.54900
C  -4.13400 25.39000 29.49800
C  -4.64800 25.04400 30.88600
C  -5.25200 23.62000 30.77900
C  -5.23900 23.44200 29.20500
C  -4.57200 22.48400 31.58900
C  -5.50700 26.19300 31.39800
C  -5.18400 26.61800 32.85200
H  -4.92300 25.55600 33.92000
N  -5.65000 23.04900 26.20400
C  -6.13600 22.26700 27.19600
C  -6.90900 21.16100 26.64500
C  -6.86900 21.34400 25.29900
C  -6.13300 22.59500 25.03900
C  -7.36100 20.06600 27.59700
C  -7.53500 20.40600 24.23800
O  -7.47600 20.54100 23.00100
C  -8.18400 19.13200 24.66400
N  -4.25900 24.91600 24.38200
C  -5.08400 24.25100 23.51300
C  -4.98700 24.89800 22.07500
C  -4.03100 26.05500 22.25900
C  -3.53600 25.88000 23.74400
C  -4.56500 23.86300 20.97700
C  -4.76400 27.44300 22.04400
C  -3.82100 28.60600 21.54800
N  -3.24400 26.26800 26.67600
C  -2.59200 27.01900 25.69900
C  -1.91500 28.18100 26.40400
C  -2.07400 27.86500 27.76000
C  -2.87600 26.76600 27.81900
C  -1.16900 29.37700 25.82900
C  -1.73800 28.23500 29.10100
O  -1.05800 29.21600 29.45500
C  -2.47800 27.36500 30.06400
C  -1.50800 26.70000 30.98400
O  -0.87800 25.61900 30.83500
O  -1.47400 27.40900 32.18900
C  -0.97600 26.59700 33.32000
H  -6.49700 21.85300 29.19400
H  -6.60000 22.78400 22.99000
H  -2.38300 27.56000 23.67400
H  -3.82300 24.96700 31.59400
H  -6.26500 23.64700 31.18200
H  -5.31600 22.09200 32.28200
H  -3.77100 22.87100 32.21800
H  -4.20500 21.70300 30.92200
H  -6.58300 26.02700 31.35800
H  -5.41000 27.11500 30.82600
H  -5.93800 27.24400 33.32800
H  -4.27500 27.21900 32.87700
H  -8.22700 19.54700 27.18700
H  -7.76100 20.41400 28.54900
H  -6.55000 19.35400 27.75500
H  -7.53500 18.60000 25.36000
H  -8.27700 18.54400 23.75100
H  -9.19400 19.35800 25.00700
H  -6.02100 25.23600 21.99600
H  -3.12700 26.03800 21.64900
H  -4.53500 22.86800 21.42200
H  -3.72600 24.31000 20.44500
H  -5.33200 23.90900 20.20400
H  -5.15600 27.77800 23.00500
H  -5.62100 27.36300 21.37400
H  -3.91600 28.83000 20.48600
H  -2.80800 28.32900 21.84100
H  -4.05300 29.40800 22.24900
H  -0.10800 29.25400 25.60800
H  -1.27100 30.32400 26.35800
H  -1.53900 29.48900 24.81000
H  -3.24700 27.96300 30.55400
H  0.06000 26.92000 33.42300
H  -1.04700 25.51000 33.27900
H  -1.56700 26.94200 34.16900

