158

Mg 23.34900 -4.91800 45.61600
C  25.42800 -2.31700 44.24700
C  20.94000 -3.74600 43.51000
C  21.67100 -7.75100 46.26700
C  26.29900 -6.25800 47.01900
N  23.27000 -3.22800 43.96900
C  24.17300 -2.34300 43.65400
C  23.62300 -1.31400 42.63900
C  22.05000 -1.61700 42.77000
C  22.05400 -2.95300 43.47800
C  21.31600 -0.52000 43.58200
C  24.26800 -1.58000 41.20800
C  24.88800 -0.44100 40.38900
H  25.66800 -0.88700 39.18700
N  21.47000 -5.60200 45.06000
C  20.67900 -5.03300 44.15100
C  19.43900 -5.69400 44.16200
C  19.53600 -6.79500 45.05200
C  20.97400 -6.77800 45.47500
C  18.33400 -5.31600 43.17000
C  18.44100 -7.79500 45.22200
O  17.32500 -7.64000 44.72100
C  18.60500 -9.00400 46.03800
N  23.91900 -6.74800 46.48700
C  23.03900 -7.78100 46.65600
C  23.69300 -8.90600 47.40000
C  25.17800 -8.49400 47.61000
C  25.17000 -7.01500 47.05000
C  22.98800 -9.38000 48.71300
C  26.16300 -9.46400 46.89300
C  27.25600 -9.98300 47.81300
N  25.30300 -4.30600 45.83800
C  26.43400 -4.92400 46.51600
C  27.55600 -4.11100 46.39000
C  27.18300 -3.03900 45.58400
C  25.86600 -3.27100 45.12900
C  28.84200 -4.35600 47.02600
C  27.68300 -1.83000 45.00100
O  28.76300 -1.25200 45.12400
C  26.63300 -1.35800 44.03400
C  26.47100 0.15400 44.24700
O  25.86000 0.63000 45.18700
O  27.22900 0.91400 43.37400
C  27.32000 2.38300 43.68900
H  20.07500 -3.33500 42.98600
H  21.18400 -8.67600 46.58500
H  27.18700 -6.70600 47.46900
H  23.87000 -0.28900 42.91600
H  21.46200 -1.58300 41.85300
H  22.03700 -0.12300 44.29700
H  20.43000 -0.85800 44.11900
H  21.04100 0.23300 42.84300
H  23.54200 -2.06600 40.55700
H  25.05300 -2.32100 41.35900
H  25.46000 0.15800 41.09700
H  24.07200 0.08500 39.89300
H  18.59900 -4.54000 42.45100
H  17.54900 -4.98300 43.84900
H  17.97600 -6.22400 42.68500
H  19.05200 -8.81500 47.01400
H  19.29800 -9.62000 45.46400
H  17.71100 -9.62300 46.12100
H  23.64900 -9.83900 46.83800
H  25.36200 -8.49200 48.68500
H  22.14100 -8.74500 48.97200
H  23.53100 -9.03800 49.59400
H  22.87700 -10.45900 48.82200
H  26.74600 -8.88400 46.17700
H  25.61500 -10.28000 46.42300
H  27.26600 -11.07300 47.83600
H  27.03800 -9.63400 48.82300
H  28.21900 -9.60400 47.47000
H  29.17200 -5.34900 46.72100
H  28.75200 -4.39600 48.11200
H  29.52400 -3.58100 46.67800
H  26.97700 -1.47200 43.00600
H  26.92800 2.96700 42.85600
H  28.39700 2.55000 43.71300
H  26.92900 2.62100 44.67800
Mg -11.75200 38.54800 41.97900
C  -10.09000 35.72000 40.74800
C  -9.37000 40.55400 40.67500
C  -13.75100 41.07600 42.60900
C  -14.27800 36.35100 43.29300
N  -9.99800 38.17600 40.72000
C  -9.43500 36.95500 40.42500
C  -8.13400 37.19900 39.59700
C  -7.83500 38.69900 39.88000
C  -9.12500 39.18700 40.47400
C  -6.52400 39.10300 40.71200
C  -8.27200 36.70600 38.08800
C  -7.37600 35.60600 37.56000
H  -6.18600 36.04700 36.65400
N  -11.59300 40.58800 41.64000
C  -10.53800 41.17900 41.10100
C  -10.87900 42.61200 40.90300
C  -12.18100 42.74400 41.29800
C  -12.60500 41.40000 41.78500
C  -9.99400 43.65300 40.32300
C  -12.89800 44.05500 41.23900
O  -12.35900 45.12000 40.94600
C  -14.39900 44.01900 41.61500
N  -13.77500 38.70600 42.84900
C  -14.38700 39.90600 42.92900
C  -15.69500 39.80700 43.78600
C  -15.89400 38.26000 43.92800
C  -14.56900 37.71400 43.33600
C  -15.59500 40.56500 45.09800
C  -17.16000 37.64900 43.28100
C  -17.81400 36.53100 44.24100
N  -12.11600 36.45900 42.05200
C  -13.17800 35.69200 42.65700
C  -12.88500 34.30700 42.55300
C  -11.71800 34.24000 41.82700
C  -11.28900 35.56800 41.49900
C  -13.64200 33.06900 43.03400
C  -10.74200 33.36200 41.21500
O  -10.66400 32.16200 41.36000
C  -9.64800 34.30200 40.43500
C  -8.32500 33.99000 40.95900
O  -7.42700 33.45400 40.29400
O  -8.12600 34.46000 42.20400
C  -6.75300 34.39800 42.71800
H  -8.57500 41.21600 40.32500
H  -14.47500 41.84600 42.88300
H  -15.06400 35.82200 43.83500
H  -7.32100 36.62700 40.04400
H  -7.67200 39.16400 38.90800
H  -5.74400 38.39600 40.42900
H  -6.70100 39.05100 41.78600
H  -6.17600 40.08900 40.40500
H  -8.23400 37.60400 37.47200
H  -9.28700 36.33000 37.95800
H  -7.93700 34.77300 37.13600
H  -6.87900 35.22500 38.45200
H  -9.80900 44.42600 41.06900
H  -10.32700 44.22800 39.45800
H  -9.01500 43.27100 40.03400
H  -14.87600 43.28100 40.97000
H  -14.89900 44.93400 41.29700
H  -14.63200 43.79600 42.65600
H  -16.51600 40.21500 43.19600
H  -15.82900 37.89300 44.95200
H  -14.65200 41.09600 45.22500
H  -15.64600 40.02200 46.04200
H  -16.35800 41.34300 45.12700
H  -17.04500 37.19400 42.29800
H  -17.96300 38.38600 43.28100
H  -17.64100 35.55200 43.79400
H  -18.89100 36.64300 44.36400
H  -17.29100 36.46600 45.19500
H  -14.63600 33.12900 42.59000
H  -13.77100 33.10600 44.11600
H  -13.12100 32.12800 42.85800
H  -9.63900 34.02600 39.38100
H  -6.15200 33.56500 42.35200
H  -6.74100 34.24400 43.79700
H  -6.21900 35.30700 42.44000

