158

Mg -2.38000 17.15800 26.24700
C  -2.75400 15.12900 29.15900
C  -2.72500 19.88300 28.15100
C  -2.70500 19.16300 23.39500
C  -2.51600 14.28000 24.24600
N  -2.65700 17.41300 28.37900
C  -2.70400 16.52200 29.42000
C  -2.89400 17.18600 30.80800
C  -2.85800 18.68600 30.35600
C  -2.69100 18.67700 28.87100
C  -4.05600 19.46600 31.02200
C  -1.87700 16.77700 31.89600
C  -1.74800 17.85900 32.97100
H  -1.26200 17.27000 34.31100
N  -2.55900 19.29500 25.90100
C  -2.71700 20.21700 26.84100
C  -2.79900 21.55700 26.27000
C  -2.75800 21.37200 24.88800
C  -2.64700 19.89500 24.67400
C  -2.83300 22.77200 27.09200
C  -2.80500 22.39500 23.74600
O  -2.67800 21.96300 22.55300
C  -2.90100 23.88300 23.96600
N  -2.67700 16.75200 24.14400
C  -2.65300 17.77400 23.17400
C  -2.59200 17.12800 21.70100
C  -2.43700 15.61000 22.05000
C  -2.54000 15.51000 23.58800
C  -3.71800 17.48200 20.73500
C  -1.11200 14.92500 21.45100
C  -1.26000 14.01800 20.22100
N  -2.48100 15.06500 26.57200
C  -2.58600 14.03700 25.67000
C  -2.68200 12.81000 26.43300
C  -2.85600 13.18300 27.76500
C  -2.65800 14.58400 27.82900
C  -2.73400 11.38300 25.83500
C  -3.03700 12.74200 29.17700
O  -3.02800 11.62100 29.64000
C  -2.99300 13.99600 30.08400
C  -1.89800 13.75700 31.03600
O  -0.75700 14.12000 30.83100
O  -2.32000 13.16100 32.17300
C  -1.37500 13.01000 33.26000
H  -2.79600 20.75600 28.80200
H  -2.95600 19.72700 22.49400
H  -2.48200 13.37600 23.63500
H  -3.94900 16.99400 31.00700
H  -1.94800 19.17400 30.70600
H  -4.56800 20.18600 30.38300
H  -3.68200 20.04400 31.86700
H  -4.82600 18.84100 31.47400
H  -0.94900 16.49500 31.39800
H  -2.30200 15.92700 32.42900
H  -2.65100 18.45800 33.08900
H  -0.95400 18.46000 32.52700
H  -2.14900 22.58700 27.92100
H  -3.82400 22.85800 27.53900
H  -2.49400 23.63600 26.52100
H  -3.66700 23.98900 24.73400
H  -3.05600 24.42400 23.03300
H  -1.99900 24.33700 24.37700
H  -1.68600 17.46000 21.19300
H  -3.37400 15.09500 21.83800
H  -4.10200 16.61100 20.20500
H  -3.47300 18.24100 19.99200
H  -4.55900 17.90400 21.28600
H  -0.94100 14.15800 22.20700
H  -0.34100 15.66700 21.24400
H  -1.10000 14.64800 19.34600
H  -2.25600 13.57600 20.19800
H  -0.43700 13.30400 20.20900
H  -1.77300 10.91600 26.04900
H  -2.91900 11.36200 24.76100
H  -3.63100 11.01000 26.32900
H  -3.91800 14.13400 30.64400
H  -1.55300 12.00500 33.64400
H  -1.53100 13.71300 34.07900
H  -0.35800 13.01800 32.87000
Mg -6.01800 25.39100 25.37700
C  -4.11100 26.43800 28.29200
C  -7.66200 23.22900 27.56900
C  -7.12100 23.88900 22.77900
C  -3.79100 27.37200 23.49500
N  -5.86400 24.92700 27.70500
C  -5.15100 25.55800 28.63500
C  -5.75600 25.33000 30.05300
C  -6.72200 24.10200 29.82700
C  -6.76400 24.09400 28.28000
C  -6.27300 22.76900 30.60100
C  -6.42600 26.56900 30.66900
C  -6.07200 26.67300 32.19100
H  -7.22400 26.19500 33.06400
N  -7.35500 23.93400 25.18500
C  -8.04200 23.24700 26.14300
C  -9.05900 22.38400 25.50400
C  -8.87000 22.49700 24.14600
C  -7.76200 23.45300 24.00100
C  -10.09800 21.64500 26.30700
C  -9.49300 21.74500 22.88900
O  -9.09200 21.70700 21.75700
C  -10.63100 20.89200 23.14700
N  -5.66200 25.73400 23.37400
C  -6.14700 24.85900 22.47900
C  -5.52800 25.04500 21.04500
C  -4.62600 26.35400 21.25400
C  -4.71500 26.58500 22.77300
C  -5.07000 23.83700 20.25200
C  -5.09000 27.68800 20.56300
C  -4.44200 28.14800 19.20200
N  -4.31600 26.61400 25.77800
C  -3.58100 27.36000 24.89800
C  -2.46800 28.03300 25.55200
C  -2.70100 27.78200 26.92000
C  -3.76900 26.81900 26.99100
C  -1.46300 28.83100 24.87600
C  -2.23600 28.11800 28.28600
O  -1.37000 28.89500 28.75000
C  -3.17600 27.24500 29.16500
C  -2.36900 26.49200 30.13900
O  -2.04400 25.32200 29.92700
O  -2.00400 27.19200 31.30000
C  -1.42200 26.34200 32.35800
H  -8.22000 22.71200 28.35300
H  -7.46500 23.43000 21.85100
H  -3.06700 27.93900 22.90600
H  -4.96200 24.99800 30.72200
H  -7.72400 24.31300 30.20000
H  -7.12500 22.30700 31.10000
H  -5.35600 22.78300 31.19000
H  -6.14000 22.03900 29.80300
H  -7.48700 26.42400 30.46600
H  -5.99900 27.46000 30.20900
H  -6.02500 27.74100 32.40400
H  -5.17000 26.15400 32.51500
H  -10.36000 20.65600 25.93100
H  -10.98800 22.27400 26.33400
H  -9.83100 21.48500 27.35100
H  -11.15600 20.77700 22.19900
H  -11.35400 21.41100 23.77600
H  -10.21900 19.94500 23.49500
H  -6.36500 25.29900 20.39500
H  -3.58100 26.22500 20.97100
H  -5.94300 23.18500 20.21500
H  -4.31700 23.34200 20.86500
H  -4.68800 24.15100 19.28100
H  -4.94700 28.41100 21.36600
H  -6.15100 27.53600 20.36500
H  -3.84400 29.05100 19.32300
H  -5.15300 28.31700 18.39400
H  -3.76500 27.40900 18.77100
H  -1.14400 28.30900 23.97400
H  -0.63100 28.73200 25.57300
H  -1.77600 29.87100 24.78100
H  -3.84200 27.84100 29.78900
H  -2.18300 26.23200 33.13100
H  -0.55300 26.82400 32.80600
H  -1.11400 25.33500 32.07600

