158

Mg 41.48800 40.79800 27.07900
C  40.71900 43.18400 29.25500
C  42.53100 38.63600 29.61200
C  42.41500 38.36000 24.69000
C  40.99800 42.94000 24.41300
N  41.52900 40.94900 29.19900
C  41.09400 41.99800 29.91100
C  41.08400 41.72400 31.45200
C  41.81000 40.34400 31.50800
C  42.02100 39.98400 30.01600
C  43.12700 40.16300 32.34200
C  39.59700 41.87500 32.01200
C  39.42200 42.79900 33.22700
H  38.83300 42.32900 34.57600
N  42.28800 38.74900 27.19000
C  42.61400 38.02800 28.32100
C  43.17500 36.68000 28.00100
C  42.93800 36.55300 26.58000
C  42.55500 37.92300 26.07000
C  43.80300 35.78800 29.02300
C  43.09000 35.36800 25.63600
O  43.16400 35.48200 24.42700
C  43.27900 33.94600 26.24100
N  41.73600 40.67300 24.87200
C  42.07800 39.58800 24.13800
C  41.97500 39.86700 22.58600
C  41.20400 41.22200 22.54500
C  41.36800 41.66600 24.02700
C  43.35000 39.81500 21.82500
C  39.75200 41.13600 22.02900
C  38.87300 39.95300 22.53800
N  41.00300 42.70300 26.78700
C  40.83300 43.49100 25.72900
C  40.47600 44.84600 26.04600
C  40.42000 44.78500 27.50500
C  40.71300 43.44500 27.86200
C  40.27400 45.94500 25.14900
C  40.09900 45.56100 28.64100
O  39.80400 46.74400 28.63600
C  40.32300 44.58200 29.91200
C  41.39800 45.10800 30.78800
O  42.64000 44.95000 30.50800
O  40.86200 45.76900 31.89200
C  41.89200 46.25500 32.79800
H  42.90100 38.08600 30.48000
H  42.73200 37.68500 23.89300
H  40.62000 43.49500 23.55300
H  41.81000 42.43400 31.84700
H  41.11300 39.59400 31.88100
H  43.12900 39.20400 32.86100
H  43.18200 41.03000 32.99900
H  44.03500 40.07300 31.74600
H  39.35000 40.87100 32.35700
H  38.92900 42.13000 31.18800
H  38.69500 43.51000 32.83600
H  40.18200 43.55400 33.42800
H  42.98900 35.27200 29.53000
H  44.28300 36.47600 29.71900
H  44.51100 35.08200 28.58700
H  42.75300 33.88500 27.19300
H  44.32700 33.69100 26.39500
H  42.93100 33.15200 25.57900
H  41.40800 39.01200 22.21600
H  41.75700 41.90100 21.89600
H  43.43800 39.14500 20.97000
H  44.15100 39.48300 22.48600
H  43.65600 40.80500 21.48800
H  39.77500 41.12500 20.94000
H  39.31200 42.07700 22.35900
H  38.59200 39.18000 21.82200
H  37.92600 40.35100 22.90000
H  39.32400 39.38500 23.35200
H  41.19500 46.14900 24.60300
H  39.99400 46.75400 25.82400
H  39.37400 45.79400 24.55400
H  39.43400 44.56300 30.54200
H  41.42100 47.14200 33.22300
H  42.80100 46.53100 32.26500
H  42.04500 45.54600 33.61100
Mg -10.28100 40.36500 42.35900
C  -9.03700 37.05200 41.43500
C  -7.52900 41.64900 40.87300
C  -11.80600 43.19700 42.43000
C  -13.39500 38.62100 42.93400
N  -8.58200 39.33100 41.15300
C  -8.20500 38.04300 40.96700
C  -6.91000 37.83900 40.26900
C  -6.32700 39.39400 40.29100
C  -7.56900 40.23800 40.76300
C  -5.12600 39.68200 41.26400
C  -7.09100 37.23100 38.82500
C  -6.30600 35.98800 38.44100
H  -5.29500 36.29500 37.26700
N  -9.70500 42.24300 41.82700
C  -8.51700 42.55500 41.25400
C  -8.39600 43.95900 41.22000
C  -9.64600 44.51000 41.61700
C  -10.46400 43.33000 41.94200
C  -7.10500 44.66600 40.80100
C  -10.02200 45.95700 41.75100
O  -9.28200 46.86000 41.30500
C  -11.27200 46.36900 42.47200
N  -12.29400 40.85300 42.58700
C  -12.66400 42.12900 42.68600
C  -14.08000 42.29200 43.01300
C  -14.70700 40.78100 43.05500
C  -13.40000 40.01200 42.76100
C  -14.56700 43.13500 44.29100
C  -15.76100 40.55100 41.98400
C  -16.97000 39.64600 42.43200
N  -11.08100 38.32500 42.45600
C  -12.31000 37.82700 42.79900
C  -12.22600 36.38600 42.90700
C  -10.97900 36.03000 42.38000
C  -10.31500 37.28600 42.11200
C  -13.40300 35.44600 43.29800
C  -10.10800 34.92600 41.96100
O  -10.24600 33.73800 41.96500
C  -8.81800 35.56000 41.37100
C  -7.62000 35.11200 42.18500
O  -7.21300 35.62600 43.19400
O  -7.15900 33.96400 41.62200
C  -5.94200 33.41800 42.18700
H  -6.57700 42.06300 40.53400
H  -12.39800 44.08300 42.67000
H  -14.37300 38.23600 43.23100
H  -6.14000 37.32000 40.83900
H  -5.99400 39.77800 39.32600
H  -4.88400 38.78200 41.83000
H  -5.22400 40.57600 41.88100
H  -4.29500 39.92700 40.60300
H  -6.93500 38.00900 38.07700
H  -8.13100 36.94100 38.67600
H  -6.99200 35.17500 38.20700
H  -5.87400 35.66500 39.38800
H  -7.03600 44.40100 39.74600
H  -6.26100 44.29800 41.38600
H  -7.09600 45.75000 40.91600
H  -11.41300 45.84100 43.41600
H  -11.97000 46.04500 41.70100
H  -11.30900 47.45400 42.37000
H  -14.49600 42.81900 42.15500
H  -15.08900 40.50000 44.03600
H  -14.74300 42.42100 45.09400
H  -15.46600 43.73600 44.15500
H  -13.81400 43.80800 44.70300
H  -15.35700 40.03400 41.11400
H  -16.24700 41.49400 41.73200
H  -17.90200 40.21000 42.39900
H  -16.80700 39.22400 43.42300
H  -17.04200 38.77800 41.77600
H  -14.29600 35.87000 42.83800
H  -13.46900 35.55600 44.38100
H  -13.20300 34.40300 43.05300
H  -8.76700 35.21600 40.33800
H  -5.93900 32.37400 41.87500
H  -5.81000 33.44400 43.26900
H  -5.03600 33.89500 41.81400

