158

Mg 47.25900 24.99700 28.29400
C  48.37700 27.19400 30.85100
C  46.21600 22.88600 30.84100
C  46.42600 22.70900 25.95300
C  48.75700 27.02200 25.88800
N  47.31000 25.07700 30.55900
C  47.73900 26.03400 31.36700
C  47.60900 25.74100 32.87000
C  46.78800 24.36300 32.85500
C  46.72500 24.06800 31.31500
C  47.33600 23.19100 33.74300
C  46.68000 26.87500 33.41700
C  46.99300 27.63300 34.75600
H  45.96900 27.74400 35.82600
N  46.29400 23.11200 28.33200
C  46.02700 22.44400 29.49100
C  45.37500 21.17500 29.08500
C  45.31500 21.11400 27.68000
C  46.02800 22.34800 27.22800
C  44.93500 20.13100 30.08100
C  44.64200 20.12900 26.80000
O  44.69700 20.27100 25.58800
C  43.72600 19.02100 27.35500
N  47.61500 24.86700 26.17300
C  47.20800 23.74200 25.46600
C  47.70000 23.89200 24.01800
C  48.11200 25.43400 23.98800
C  48.23800 25.80700 25.42300
C  48.86100 22.96800 23.68700
C  47.03900 26.36500 23.25900
C  47.32100 26.75000 21.78400
N  48.41100 26.61000 28.30900
C  48.81300 27.39600 27.28200
C  49.56500 28.53000 27.73800
C  49.28300 28.51700 29.12900
C  48.59800 27.34400 29.45100
C  50.47900 29.53000 26.99500
C  49.61300 29.21700 30.34000
O  50.23600 30.24900 30.59800
C  48.94700 28.33200 31.54100
C  50.07200 27.87000 32.34800
O  50.75300 26.92500 32.01200
O  50.26900 28.74600 33.34900
C  51.30100 28.58400 34.47100
H  45.92400 22.23600 31.66800
H  46.27400 21.94700 25.18500
H  49.26100 27.67700 25.17400
H  48.56800 25.77200 33.38800
H  45.72100 24.40800 33.07600
H  48.14200 22.79900 33.12200
H  46.53500 22.46200 33.86300
H  47.52600 23.57200 34.74700
H  45.70000 26.41300 33.53900
H  46.40400 27.59000 32.64200
H  47.43100 28.61600 34.58500
H  47.81200 27.00900 35.11400
H  45.44000 19.18300 29.89800
H  43.88500 19.85000 30.00300
H  45.08900 20.48700 31.10000
H  42.83300 19.46200 27.79700
H  44.21800 18.45400 28.14500
H  43.44200 18.42500 26.48800
H  46.81900 23.75600 23.39100
H  49.09300 25.62200 23.55300
H  48.50800 22.32100 22.88400
H  49.07200 22.43300 24.61300
H  49.82700 23.36000 23.36700
H  46.98400 27.22900 23.92100
H  46.04700 25.91300 23.25600
H  47.13100 27.81400 21.64400
H  46.60700 26.23000 21.14500
H  48.33400 26.47100 21.49300
H  49.88500 30.13300 26.30800
H  51.16800 28.99700 26.33900
H  51.08400 30.16500 27.64300
H  48.18000 28.88800 32.08000
H  52.30700 28.89400 34.18800
H  51.32600 27.56900 34.86600
H  51.06600 29.26900 35.28500
Mg -2.61800 34.14900 26.24200
C  -4.16100 32.75500 29.10000
C  -1.48400 36.66900 28.29200
C  -1.38100 35.67500 23.49800
C  -4.30700 31.83200 24.23700
N  -2.86900 34.69500 28.36300
C  -3.37900 33.89800 29.31800
C  -3.21600 34.41200 30.71600
C  -2.51700 35.75700 30.51400
C  -2.19900 35.68900 28.98100
C  -3.33200 37.02400 30.89700
C  -2.47000 33.24800 31.53300
C  -2.99900 32.81700 32.92700
H  -2.04200 32.66700 34.13900
N  -1.50900 35.86200 25.93200
C  -1.04300 36.71100 26.92500
C  -0.22300 37.70200 26.29500
C  -0.13200 37.31100 24.94700
C  -0.99200 36.20100 24.74800
C  0.27600 38.97500 26.93600
C  0.59100 38.11200 23.81800
O  0.57200 37.88300 22.63600
C  1.45800 39.36000 24.15800
N  -2.84300 33.78700 24.15200
C  -2.31300 34.65400 23.22100
C  -2.63100 34.10800 21.80300
C  -3.52900 32.89400 22.05800
C  -3.55400 32.78600 23.52900
C  -3.29900 35.04400 20.79700
C  -3.09100 31.65600 21.17100
C  -2.08800 30.67400 21.75300
N  -3.86500 32.54000 26.52900
C  -4.46200 31.69500 25.62700
C  -5.22600 30.72800 26.33300
C  -5.21100 31.15300 27.66200
C  -4.34500 32.25400 27.77500
C  -5.92600 29.60300 25.71800
C  -5.78700 30.92500 29.04400
O  -6.60700 30.13300 29.42200
C  -5.01000 31.83300 30.05400
C  -6.04500 32.60800 30.81100
O  -6.89500 33.33000 30.31000
O  -6.17900 32.14900 32.10800
C  -7.30500 32.63300 32.87800
H  -0.97700 37.41200 28.91200
H  -1.06900 36.23600 22.61400
H  -4.86800 31.16000 23.58400
H  -4.20000 34.48300 31.18000
H  -1.57400 35.93800 31.03000
H  -3.50600 37.66400 30.03200
H  -2.87400 37.64200 31.67000
H  -4.29900 36.66500 31.24900
H  -1.42700 33.54500 31.64500
H  -2.51200 32.33400 30.94100
H  -3.59100 31.90700 32.82300
H  -3.71300 33.59800 33.18800
H  -0.12300 39.85200 26.42700
H  1.35600 39.03600 26.80400
H  0.06800 39.22600 27.97600
H  2.00500 39.62100 23.25200
H  2.25400 39.17200 24.87900
H  0.84100 40.21200 24.44600
H  -1.64000 33.81400 21.45600
H  -4.58600 33.08600 21.87500
H  -3.70800 35.96000 21.22400
H  -3.94400 34.51300 20.09700
H  -2.44400 35.39900 20.22200
H  -2.57100 32.03600 20.29200
H  -3.98300 31.14200 20.81000
H  -2.51000 29.69800 21.99200
H  -1.69600 31.06600 22.69100
H  -1.18500 30.64100 21.14400
H  -5.42200 29.35300 24.78500
H  -6.95700 29.89100 25.50900
H  -6.02300 28.72300 26.35400
H  -4.56800 31.03400 30.64800
H  -7.93700 31.78600 33.14500
H  -8.00400 33.35800 32.46100
H  -6.88000 32.98000 33.81900

