158

Mg 36.41800 50.08800 25.24100
C  36.60300 48.37600 28.18600
C  34.61400 52.61100 26.98200
C  36.20400 51.80400 22.30200
C  37.73600 47.31100 23.55400
N  35.69900 50.40300 27.29600
C  36.05800 49.63500 28.38500
C  35.61800 50.23900 29.79800
C  34.80000 51.49000 29.25000
C  35.09300 51.55600 27.79000
C  33.28600 51.44700 29.53700
C  36.78000 50.51800 30.76200
C  36.72100 49.76700 32.10700
H  35.33100 49.55000 32.73900
N  35.55600 52.02300 24.78900
C  34.86000 52.90100 25.59600
C  34.40800 54.01800 24.78700
C  34.78900 53.72700 23.40700
C  35.57500 52.47800 23.44300
C  33.70600 55.26500 25.49700
C  34.29700 54.38800 22.11900
O  34.65900 53.97300 21.03000
C  33.44000 55.59200 22.09600
N  36.94700 49.69800 23.25100
C  36.86700 50.55100 22.24700
C  37.14600 49.82600 20.93400
C  37.84500 48.51800 21.30100
C  37.45600 48.46800 22.80100
C  35.85300 49.56900 19.97300
C  39.37200 48.71300 21.10000
C  40.17100 47.54600 20.47900
N  37.02400 48.22600 25.70200
C  37.57800 47.18500 24.92400
C  37.78000 46.00300 25.75800
C  37.50900 46.45400 27.03500
C  36.92200 47.77500 26.92500
C  38.19800 44.67300 25.20100
C  37.56900 46.12300 28.44300
O  38.01700 45.16100 29.04700
C  36.93000 47.25200 29.25400
C  35.71000 46.78200 30.00700
O  34.63100 47.24300 29.81700
O  36.01400 45.85900 30.94100
C  34.89600 45.28300 31.77500
H  34.03100 53.40400 27.45400
H  36.12900 52.26900 21.31600
H  38.08100 46.43300 23.00500
H  34.94900 49.47800 30.20100
H  35.17400 52.45600 29.58700
H  33.13200 50.60200 30.20700
H  32.71700 51.19000 28.64300
H  32.89600 52.29200 30.10500
H  36.90700 51.57400 30.99900
H  37.74800 50.19500 30.37700
H  37.33700 50.30000 32.83100
H  37.27700 48.84600 31.93400
H  34.44500 55.96900 25.88000
H  33.02200 55.02400 26.31000
H  33.15200 55.79900 24.72500
H  33.02400 55.90200 21.13700
H  34.05900 56.46200 22.31600
H  32.59100 55.41400 22.75600
H  37.87500 50.53100 20.53200
H  37.37100 47.68200 20.78600
H  34.97100 49.78800 20.57400
H  35.86600 48.52400 19.66400
H  36.06800 50.28100 19.17600
H  39.82800 48.93000 22.06600
H  39.62400 49.59700 20.51400
H  40.92300 47.23100 21.20300
H  40.71800 47.93200 19.61900
H  39.56500 46.68800 20.19000
H  37.51600 44.25900 24.45800
H  38.26400 43.99000 26.04800
H  39.21800 44.78300 24.83100
H  37.59200 47.60700 30.04400
H  34.64600 46.05900 32.49900
H  35.35900 44.44400 32.29500
H  34.04800 44.95300 31.17700
Mg -12.41800 15.83200 41.65500
C  -9.51200 14.26500 40.72200
C  -11.51400 18.66400 39.86300
C  -15.60700 16.91900 41.82700
C  -13.62400 12.61200 42.66800
N  -10.71100 16.38100 40.36000
C  -9.54800 15.59800 40.25000
C  -8.43700 16.40400 39.57500
C  -9.11700 17.87000 39.50700
C  -10.53000 17.70800 39.98100
C  -8.39400 18.93500 40.44700
C  -7.87800 15.79800 38.23500
C  -6.34700 15.94400 38.07100
H  -5.99700 16.42000 36.65200
N  -13.33200 17.63700 41.07700
C  -12.87300 18.63600 40.23200
C  -13.84600 19.70000 40.14500
C  -15.07000 19.20000 40.69700
C  -14.70800 17.88700 41.34000
C  -13.78200 21.02200 39.46600
C  -16.44700 19.92100 40.79200
O  -16.66200 20.97600 40.21900
C  -17.48700 19.42400 41.74200
N  -14.37000 14.88800 42.35100
C  -15.51400 15.56800 42.26200
C  -16.75400 14.76500 42.71800
C  -16.08300 13.30100 42.84200
C  -14.57500 13.60800 42.67400
C  -17.51000 15.34600 43.92500
C  -16.58700 12.35900 41.69000
C  -18.01500 11.99000 41.68300
N  -11.66500 13.86700 41.96200
C  -12.27300 12.70900 42.38400
C  -11.33700 11.64600 42.34800
C  -10.18400 12.21000 41.77000
C  -10.51600 13.56800 41.46000
C  -11.51400 10.25900 42.78000
C  -8.85600 11.84500 41.31200
O  -8.16300 10.79800 41.46600
C  -8.32600 13.27400 40.71100
C  -7.07000 13.72900 41.49200
O  -7.05900 14.21500 42.63200
O  -5.95300 13.79800 40.62900
C  -4.78600 14.31000 41.28300
H  -11.29400 19.57800 39.30700
H  -16.67400 17.14700 41.78000
H  -14.00500 11.59900 42.80700
H  -7.57100 16.37400 40.23700
H  -9.12800 18.25700 38.48800
H  -8.05200 18.42200 41.34500
H  -9.14200 19.66200 40.76500
H  -7.61000 19.41100 39.85800
H  -8.36500 16.39500 37.46400
H  -8.22700 14.77200 38.12400
H  -5.83600 15.01200 38.31100
H  -6.08600 16.78800 38.70900
H  -13.60300 21.74700 40.26000
H  -14.67700 21.13300 38.85500
H  -12.88900 21.04800 38.84200
H  -18.12400 20.28200 41.95600
H  -16.97900 19.09400 42.64800
H  -18.10200 18.63200 41.31500
H  -17.44500 14.93200 41.89200
H  -16.23400 12.93400 43.85800
H  -18.48100 15.64500 43.52900
H  -17.08900 16.25100 44.36100
H  -17.53300 14.67100 44.78000
H  -16.00600 11.43700 41.66000
H  -16.36900 12.86500 40.74900
H  -18.50100 12.32700 40.76800
H  -18.39200 12.53500 42.54900
H  -18.19400 10.91900 41.78500
H  -11.25400 9.54300 42.00000
H  -12.54800 10.15900 43.10800
H  -10.80300 10.14000 43.59800
H  -8.04600 13.01500 39.69000
H  -4.87300 15.38600 41.43300
H  -3.96800 14.35900 40.56500
H  -4.41000 13.66800 42.08000

