158

Mg 43.77100 2.81700 46.79000
C  42.59400 6.00700 45.75800
C  40.66500 1.59200 45.91000
C  45.05500 -0.30200 46.84000
C  46.92600 4.18000 46.85400
N  41.86600 3.74700 45.90600
C  41.59800 5.01600 45.62900
C  40.19900 5.19300 45.08400
C  39.45300 3.83500 45.56800
C  40.72900 2.99200 45.86100
C  38.71700 3.95400 46.94100
C  40.08900 5.54500 43.59800
C  39.46000 6.89500 43.26300
H  38.47400 6.76100 42.17000
N  42.98500 0.87800 46.38200
C  41.67100 0.58600 46.12000
C  41.54000 -0.87900 46.04900
C  42.80300 -1.50100 46.24900
C  43.67400 -0.30600 46.45900
C  40.25100 -1.52300 45.75700
C  43.09500 -3.02600 46.25000
O  42.13400 -3.83800 46.15800
C  44.48000 -3.57300 46.51200
N  45.73600 2.03500 46.71800
C  45.94600 0.73100 47.02700
C  47.28700 0.50700 47.68100
C  47.86400 1.95500 47.65900
C  46.80200 2.81800 46.99700
C  47.34400 -0.29500 49.01400
C  49.33000 2.06500 47.02600
C  50.43500 2.40600 47.91000
N  44.60200 4.71500 46.59000
C  45.91700 5.10800 46.54500
C  45.99200 6.55400 46.50600
C  44.67200 6.95100 46.24900
C  43.86000 5.73100 46.16300
C  47.18200 7.41900 46.62800
C  43.86700 8.11500 45.98800
O  44.16400 9.31000 45.88900
C  42.49900 7.46700 45.62000
C  41.47400 8.05100 46.47800
O  41.21800 7.62900 47.58000
O  40.79800 9.09300 45.87600
C  39.83800 9.79400 46.68600
H  39.63600 1.22500 45.89600
H  45.33300 -1.22200 47.35900
H  47.87100 4.60600 47.19700
H  39.70300 5.99200 45.63500
H  38.71900 3.34700 44.92700
H  38.29400 4.95900 46.95100
H  39.47600 3.84800 47.71600
H  38.01100 3.12400 46.96900
H  39.47000 4.87400 43.00300
H  41.08100 5.46500 43.15600
H  40.20300 7.64800 43.00000
H  39.00200 7.34700 44.14300
H  39.77700 -1.01900 44.91400
H  39.53400 -1.49500 46.57800
H  40.38700 -2.54700 45.40900
H  44.64100 -3.39500 47.57600
H  44.99900 -2.85700 45.87400
H  44.51400 -4.61700 46.20200
H  47.91900 -0.11500 47.04700
H  47.86700 2.35100 48.67400
H  46.36600 -0.19500 49.48500
H  48.06800 0.16800 49.68400
H  47.55900 -1.35700 48.89700
H  49.28100 2.89000 46.31600
H  49.56800 1.12100 46.53700
H  51.29700 1.77700 47.69000
H  50.24200 2.56900 48.97000
H  50.80600 3.38800 47.61800
H  47.42700 7.54900 47.68200
H  46.96400 8.43300 46.29100
H  47.98500 6.89900 46.10400
H  42.35600 7.61500 44.54900
H  38.93700 10.07300 46.14000
H  40.32000 10.71900 47.00100
H  39.43500 9.21100 47.51400
Mg 46.92700 46.65800 43.78600
C  43.61300 46.76900 42.75300
C  47.41400 43.67700 42.01600
C  50.13500 46.88800 44.19200
C  46.42300 49.83300 45.14800
N  45.65100 45.60000 42.32200
C  44.33600 45.74500 42.16500
C  43.83600 44.57600 41.22000
C  44.93500 43.50600 41.28400
C  46.09000 44.30100 41.96900
C  44.73800 42.16200 42.13600
C  43.53600 45.11100 39.80000
C  42.26200 44.59500 39.14100
H  42.51600 43.25800 38.32300
N  48.55700 45.32100 43.28600
C  48.61300 44.21900 42.52800
C  49.93200 43.60200 42.60000
C  50.77000 44.57000 43.24200
C  49.84400 45.66600 43.55200
C  50.24600 42.22100 41.92700
C  52.23300 44.33100 43.48000
O  52.79600 43.24700 43.30700
C  53.15400 45.42900 44.11900
N  48.04500 48.12800 44.67600
C  49.42900 48.01600 44.63800
C  50.07400 49.29100 45.16500
C  48.86700 50.24900 45.48200
C  47.68600 49.37100 45.08500
C  51.22800 49.16100 46.18600
C  48.97000 51.58700 44.74800
C  49.36000 52.81700 45.55700
N  45.35000 48.11200 43.92200
C  45.24500 49.25100 44.60100
C  43.89700 49.76700 44.68100
C  43.24000 48.78100 44.02000
C  44.14100 47.83300 43.53600
C  43.41700 50.96700 45.35800
C  41.91700 48.35500 43.61200
O  40.82000 48.86600 43.77000
C  42.16900 47.00200 42.78900
C  41.48000 45.92600 43.55200
O  40.69200 45.06400 43.13000
O  41.89300 45.99100 44.82300
C  41.73300 44.78600 45.71500
H  47.45000 42.64900 41.65000
H  51.21200 47.06300 44.23700
H  46.32600 50.81300 45.62100
H  42.90200 44.13700 41.57100
H  45.37600 43.30000 40.30800
H  43.71000 41.80900 42.05600
H  44.90500 42.48200 43.16500
H  45.41600 41.38600 41.78100
H  44.37800 44.76100 39.20400
H  43.49200 46.19400 39.91700
H  41.96500 45.34500 38.40700
H  41.46900 44.34500 39.84500
H  51.23800 42.20100 41.47600
H  49.52500 42.05000 41.12800
H  50.17700 41.38400 42.62300
H  53.40300 46.16400 43.35300
H  54.10600 44.96700 44.38300
H  52.65500 45.83900 44.99600
H  50.59900 49.68400 44.29400
H  48.87300 50.40400 46.56100
H  51.09100 49.89900 46.97600
H  52.14400 49.49000 45.69400
H  51.13800 48.17100 46.63200
H  48.02400 51.75900 44.23500
H  49.72700 51.43100 43.97800
H  50.39200 53.10600 45.35800
H  49.04400 52.84300 46.59900
H  48.83000 53.67900 45.15100
H  44.15700 51.53700 45.92000
H  42.77800 50.57200 46.14800
H  42.80500 51.49500 44.62700
H  41.69700 47.07200 41.80900
H  42.04400 45.00200 46.73800
H  42.31600 43.91300 45.41900
H  40.65700 44.66200 45.83300

