158

Mg 34.85200 48.84900 26.22600
C  35.42100 46.73100 29.02000
C  34.05800 51.39700 28.29300
C  34.34900 50.82900 23.54100
C  35.94100 46.24600 24.21700
N  34.62300 49.06700 28.39400
C  34.96400 48.08500 29.34800
C  34.83200 48.62400 30.74500
C  34.10100 50.00600 30.48700
C  34.29700 50.24900 28.97900
C  32.61900 50.07800 30.94800
C  36.20900 48.65400 31.45600
C  36.25400 48.10600 32.92300
H  36.21600 49.18100 34.13900
N  34.28400 50.88300 25.96700
C  34.01000 51.77300 26.93900
C  33.67700 53.07400 26.43300
C  33.69400 52.88700 24.96900
C  34.12400 51.51300 24.73800
C  33.25800 54.34100 27.23400
C  33.42300 53.84500 23.83600
O  33.69400 53.62900 22.68900
C  32.99800 55.20900 24.17100
N  35.16000 48.55000 24.19300
C  34.76400 49.49500 23.28200
C  34.94300 48.96000 21.83400
C  35.77300 47.65500 22.02000
C  35.67200 47.46200 23.52100
C  33.67600 48.77700 21.03900
C  37.23000 47.80700 21.54500
C  37.68700 46.77300 20.51200
N  35.28800 46.81800 26.50200
C  35.74600 45.88600 25.59800
C  36.01400 44.49500 26.24500
C  36.04100 44.89600 27.62400
C  35.51800 46.27200 27.72000
C  36.45600 43.26100 25.58400
C  36.29500 44.47300 28.99100
O  36.66900 43.42300 29.37900
C  35.96400 45.69200 29.92200
C  34.84700 45.30100 30.89900
O  33.69800 44.96500 30.61900
O  35.42800 45.13000 32.17100
C  34.50700 44.86600 33.29800
H  33.81000 52.17400 29.02000
H  34.20200 51.31000 22.57200
H  36.52000 45.48900 23.68300
H  34.15100 48.09800 31.41500
H  34.67200 50.77100 31.01300
H  31.86300 50.34100 30.20800
H  32.68300 50.88200 31.68100
H  32.31700 49.20000 31.51900
H  36.54000 49.68500 31.58100
H  37.00700 48.20100 30.86700
H  37.12200 47.44600 32.91500
H  35.35000 47.50700 33.03200
H  34.14600 54.97000 27.29600
H  32.95200 54.18000 28.26700
H  32.40900 54.80500 26.73100
H  32.01800 55.30700 24.63900
H  32.82100 55.81400 23.28100
H  33.72300 55.77600 24.75500
H  35.47300 49.70900 21.24600
H  35.32100 46.77500 21.56300
H  33.83100 49.37700 20.14300
H  32.91300 49.14400 21.72500
H  33.45300 47.72400 20.86300
H  37.98200 47.86900 22.33200
H  37.33500 48.70700 20.94000
H  38.03500 47.20100 19.57100
H  36.92800 45.99600 20.42900
H  38.57700 46.25400 20.86900
H  36.98300 43.45100 24.64900
H  35.59100 42.61900 25.41500
H  37.16400 42.76900 26.25000
H  36.84500 45.90100 30.52900
H  34.25700 43.80800 33.37000
H  33.59300 45.44200 33.15600
H  35.05000 45.07400 34.22000
Mg -9.63200 40.99900 39.58600
C  -9.02100 37.61500 38.54100
C  -6.29400 41.65800 39.07600
C  -10.57500 44.07500 39.49200
C  -13.22200 39.97600 39.36500
N  -7.86000 39.76400 38.90800
C  -7.88100 38.46000 38.50800
C  -6.51900 38.14700 37.91200
C  -5.53700 39.18500 38.64400
C  -6.61100 40.26800 38.90200
C  -4.83400 38.78600 39.96200
C  -6.42300 38.31100 36.31400
C  -5.95800 37.08200 35.54500
H  -6.89500 36.53400 34.47100
N  -8.54500 42.67200 39.42200
C  -7.19200 42.72200 39.24600
C  -6.93700 44.15400 39.09900
C  -8.06700 44.87000 39.24500
C  -9.17000 43.89000 39.37600
C  -5.54400 44.60000 38.91600
C  -8.10000 46.41200 39.27700
O  -7.08500 47.12900 39.17800
C  -9.36500 47.24200 39.52700
N  -11.66200 41.84100 39.61300
C  -11.67900 43.22600 39.66500
C  -13.12300 43.77000 39.75500
C  -13.88600 42.45000 39.45200
C  -12.87200 41.30600 39.52100
C  -13.48200 44.41600 41.09600
C  -14.65300 42.51200 38.07100
C  -16.07700 42.02100 38.10200
N  -10.93000 39.14500 39.33000
C  -12.22900 38.96100 39.23200
C  -12.49100 37.53300 39.05900
C  -11.24300 36.95700 38.70800
C  -10.31000 38.00900 38.90400
C  -13.88600 36.93600 39.38000
C  -10.52200 35.74700 38.33200
O  -10.89300 34.59700 38.20800
C  -9.06400 36.16100 38.22500
C  -8.24300 35.26800 39.15100
O  -8.41100 35.12100 40.35700
O  -7.35300 34.50700 38.43700
C  -6.65700 33.53000 39.22600
H  -5.23700 41.92900 39.02500
H  -10.84500 45.13300 39.51700
H  -14.27100 39.76600 39.14700
H  -6.21000 37.14700 38.21800
H  -4.82500 39.68800 37.99000
H  -5.44600 39.30100 40.70300
H  -3.78700 39.04000 40.12900
H  -5.01600 37.73100 40.16800
H  -5.75600 39.15300 36.12900
H  -7.42800 38.55000 35.96500
H  -5.75100 36.21200 36.16800
H  -5.03900 37.34300 35.02000
H  -5.26400 45.65100 38.99900
H  -5.20300 44.51100 37.88400
H  -4.85100 44.02500 39.52900
H  -9.17200 48.30500 39.67200
H  -9.87300 46.78200 40.37500
H  -9.95000 47.23200 38.60700
H  -13.18500 44.47800 38.92900
H  -14.60400 42.34700 40.26600
H  -12.58000 44.77900 41.58800
H  -13.96800 43.69300 41.75200
H  -14.19000 45.22800 40.92900
H  -14.14500 41.94200 37.29300
H  -14.69100 43.58100 37.86000
H  -16.37500 41.32000 38.88100
H  -16.26000 41.64800 37.09400
H  -16.64700 42.92000 38.33700
H  -13.85000 36.04000 40.00000
H  -14.48500 36.64300 38.51800
H  -14.50700 37.67600 39.88500
H  -8.80700 35.97500 37.18300
H  -6.12300 34.06100 40.01400
H  -5.85100 33.03200 38.68700
H  -7.31100 32.80800 39.71600

