158

Mg 26.04600 -0.57600 28.66500
C  27.87900 -0.78500 31.70100
C  23.23000 -0.71900 30.56000
C  24.31900 -0.46400 25.85100
C  29.07800 -1.00300 27.04800
N  25.65200 -0.85300 30.91500
C  26.52500 -0.69600 31.91700
C  25.76800 -0.36200 33.20400
C  24.27600 -0.58900 32.84400
C  24.36400 -0.76300 31.31500
C  23.47100 -1.61000 33.63600
C  26.14600 0.96900 33.93100
C  26.81000 0.76000 35.26300
H  26.44200 1.74300 36.37600
N  24.08700 -0.61800 28.22100
C  23.00700 -0.60100 29.14700
C  21.70000 -0.38800 28.46600
C  22.03000 -0.28400 27.10700
C  23.56700 -0.39200 27.00900
C  20.40300 -0.19200 29.18300
C  21.14300 0.05600 25.99600
O  21.50400 0.09200 24.82900
C  19.65900 0.41500 26.22000
N  26.63600 -0.96100 26.78500
C  25.74200 -0.70800 25.78800
C  26.38400 -0.79000 24.42800
C  27.90800 -0.71300 24.76400
C  27.89400 -0.88400 26.29200
C  25.94900 -1.97000 23.60400
C  28.74800 0.50600 24.28300
C  28.25500 1.87200 24.78500
N  28.10600 -0.94800 29.20900
C  29.16800 -1.13300 28.46800
C  30.31700 -1.20500 29.25600
C  29.88700 -1.08400 30.55400
C  28.53000 -0.93000 30.48700
C  31.68300 -1.47200 28.78900
C  30.29300 -1.08900 31.96500
O  31.37400 -1.39700 32.39300
C  28.96500 -0.78400 32.76300
C  28.76700 -1.78300 33.78200
O  28.08300 -2.83100 33.63500
O  29.42500 -1.45100 34.95100
C  29.21900 -2.47200 35.95900
H  22.28000 -0.66600 31.09600
H  23.76300 -0.41800 24.91300
H  30.03700 -1.13700 26.54300
H  26.02000 -1.12800 33.93700
H  23.72000 0.34000 32.97200
H  22.64500 -0.97300 33.95400
H  23.97400 -2.12900 34.45200
H  23.09600 -2.39700 32.98100
H  25.26400 1.60900 33.96800
H  26.86100 1.44700 33.26200
H  27.89200 0.80000 35.14400
H  26.54300 -0.25600 35.55500
H  19.91900 0.70400 28.79500
H  20.61200 -0.08100 30.24700
H  19.90000 -1.13900 28.98500
H  19.23400 0.62700 25.23900
H  19.55400 1.27600 26.88100
H  19.20200 -0.51700 26.55200
H  26.05200 0.15900 24.00800
H  28.34100 -1.57400 24.25500
H  25.09700 -1.67400 22.99200
H  25.74900 -2.84600 24.22100
H  26.75000 -2.32100 22.95400
H  28.89200 0.38100 23.21000
H  29.76100 0.32700 24.64400
H  27.93000 1.79800 25.82300
H  27.51800 2.35800 24.14500
H  29.03900 2.62900 24.81300
H  31.53900 -2.18900 27.98100
H  32.34900 -1.92700 29.52200
H  32.18100 -0.61600 28.33200
H  29.07200 0.21400 33.18800
H  29.70000 -3.37400 35.58000
H  28.15500 -2.62400 36.14100
H  29.71200 -2.19700 36.89100
Mg 8.86600 48.45100 27.14100
C  7.18900 48.16200 30.26800
C  11.82100 49.01700 29.04300
C  10.44900 49.28400 24.30700
C  5.76500 48.55300 25.49200
N  9.38400 48.63000 29.49700
C  8.54200 48.37700 30.55200
C  9.24000 48.50000 31.90700
C  10.73200 49.01700 31.44300
C  10.63400 48.94900 29.93900
C  11.19100 50.38000 31.99600
C  9.35700 47.15800 32.65900
C  10.16100 47.18800 33.97700
H  9.83700 46.26900 35.14400
N  10.83900 48.84900 26.69000
C  11.90000 49.07700 27.57500
C  13.14500 49.38900 26.81100
C  12.78100 49.32100 25.45600
C  11.29600 49.14200 25.40600
C  14.48600 49.63400 27.52600
C  13.68500 49.43000 24.26000
O  13.21800 49.22800 23.11000
C  15.16300 49.56600 24.38400
N  8.23100 48.76300 25.16700
C  9.05800 49.16900 24.19000
C  8.42100 49.47100 22.85200
C  6.89700 49.03600 23.24400
C  6.91900 48.70500 24.74400
C  8.59700 50.89700 22.38200
C  6.31800 47.89600 22.26600
C  5.80400 48.45600 20.89500
N  6.86800 48.29300 27.69300
C  5.71100 48.27900 26.87900
C  4.57400 47.94800 27.74500
C  5.13800 47.90200 29.02900
C  6.50200 48.18000 28.98100
C  3.14200 47.67800 27.25900
C  4.81200 47.64700 30.46400
O  3.71400 47.55100 30.99000
C  6.08400 47.73800 31.30000
C  6.29400 46.40200 31.85500
O  6.85000 45.39500 31.30200
O  5.74000 46.39200 33.13700
C  5.86500 45.16500 33.84300
H  12.79700 49.05900 29.53000
H  10.95600 49.60600 23.39500
H  4.82200 48.26000 25.02500
H  8.65600 49.22700 32.47100
H  11.48900 48.28600 31.72400
H  11.11500 50.25000 33.07500
H  10.51100 51.19100 31.73400
H  12.11600 50.74000 31.54600
H  9.71500 46.44000 31.92200
H  8.37100 46.87900 33.03000
H  10.26500 48.23300 34.26800
H  11.12600 46.77400 33.68500
H  15.18200 48.85400 27.21500
H  14.55500 49.78200 28.60300
H  14.88700 50.58700 27.18000
H  15.66900 48.87000 25.05400
H  15.50400 50.59200 24.52200
H  15.54600 49.25400 23.41300
H  8.87900 48.89300 22.04900
H  6.19600 49.86900 23.18700
H  9.19000 50.86100 21.46800
H  9.15500 51.42400 23.15600
H  7.67800 51.44500 22.17900
H  5.57400 47.31500 22.81000
H  7.10800 47.21100 21.95700
H  5.54100 49.51100 20.81200
H  4.86300 47.91900 20.78000
H  6.35900 48.10400 20.02600
H  2.46100 47.44400 28.07700
H  3.08900 46.93700 26.46000
H  2.65600 48.50600 26.74200
H  6.19600 48.36700 32.18400
H  5.13200 44.40900 33.56000
H  5.69700 45.19200 34.91900
H  6.87500 44.78300 33.69000

