158

Mg 0.70400 8.49000 26.18000
C  1.51300 10.23000 29.15600
C  1.18100 5.55700 27.96200
C  0.70300 6.78900 23.23400
C  1.15800 11.38000 24.39100
N  1.21400 8.00000 28.31400
C  1.40700 8.87700 29.36100
C  1.43300 8.11000 30.67200
C  1.51900 6.65600 30.29400
C  1.25900 6.72600 28.77100
C  2.87300 5.83200 30.65300
C  0.23600 8.51600 31.62300
C  0.36600 8.50800 33.26800
H  1.69100 7.95300 33.78400
N  0.83500 6.43600 25.68300
C  0.98700 5.40300 26.58600
C  0.93700 4.14500 25.87800
C  0.84100 4.52800 24.46400
C  0.74300 5.97600 24.37800
C  0.99400 2.80200 26.52700
C  0.88800 3.65500 23.20100
O  0.66300 4.14200 22.10900
C  1.39200 2.26300 23.31100
N  0.70000 8.95400 24.19800
C  0.76200 8.16100 23.17300
C  1.14300 8.89800 21.96700
C  0.49100 10.22400 22.28100
C  0.75300 10.20000 23.71800
C  2.68700 8.96700 21.71700
C  -1.04100 10.39500 22.04800
C  -1.49900 11.67800 21.46600
N  1.15800 10.46300 26.63800
C  1.41800 11.52700 25.78800
C  1.80200 12.72200 26.58200
C  1.76900 12.21300 27.93500
C  1.36700 10.86500 27.91200
C  2.09600 14.13900 26.08300
C  2.05900 12.61200 29.31700
O  2.50200 13.65300 29.75700
C  1.80500 11.27600 30.14400
C  2.88900 11.09100 31.13800
O  4.03200 10.71600 30.89600
O  2.50900 11.57200 32.35400
C  3.52800 11.41300 33.46000
H  1.28500 4.65500 28.56800
H  0.74200 6.39600 22.21600
H  1.45200 12.13200 23.65600
H  2.34800 8.24800 31.24700
H  0.64800 6.08300 30.61000
H  2.50500 4.80800 30.72100
H  3.33800 6.18800 31.57300
H  3.61300 5.97700 29.86600
H  -0.58400 7.84100 31.37600
H  -0.05800 9.53600 31.37500
H  -0.39800 7.88600 33.73500
H  0.23700 9.48000 33.74500
H  0.66800 2.71400 27.56400
H  1.95300 2.31000 26.36700
H  0.21700 2.27100 25.97700
H  1.69700 1.99800 22.29800
H  0.73600 1.53200 23.78300
H  2.24000 2.18200 23.99100
H  0.65900 8.41500 21.11800
H  0.94100 10.95000 21.60400
H  3.08900 9.97800 21.65600
H  3.04300 8.49700 20.80000
H  3.19400 8.46000 22.53800
H  -1.62600 10.23700 22.95400
H  -1.39200 9.74200 21.24900
H  -0.75000 12.45800 21.33800
H  -2.15000 12.20100 22.16700
H  -2.11800 11.58100 20.57300
H  1.21000 14.57700 25.62300
H  3.03800 14.25600 25.54600
H  2.34000 14.76000 26.94500
H  0.94600 11.44700 30.79200
H  3.68800 12.39100 33.91300
H  4.41400 10.80400 33.28200
H  2.96800 10.99500 34.29700
Mg 47.34700 16.25800 28.86800
C  45.32600 16.06400 31.86600
C  49.56500 18.07700 30.51900
C  48.77800 16.66300 26.01300
C  44.41900 14.76300 27.26600
N  47.32600 16.99700 30.84000
C  46.52700 16.71200 31.95600
C  47.12400 17.24700 33.29000
C  48.25700 18.17500 32.78900
C  48.41200 17.70600 31.28100
C  47.87800 19.68300 32.88300
C  47.58700 16.05900 34.20700
C  47.02700 16.18900 35.64000
H  46.79500 17.58300 36.35700
N  48.99000 17.15900 28.33900
C  49.86600 17.81700 29.11500
C  51.04100 18.18400 28.41900
C  50.92300 17.62300 27.08900
C  49.53300 17.11900 27.10200
C  52.11900 19.03700 29.04300
C  51.89400 17.59900 25.94800
O  51.66400 17.12700 24.85400
C  53.24000 18.17100 26.20400
N  46.68400 15.67300 26.86400
C  47.51900 16.04900 25.83500
C  46.82200 15.68400 24.48400
C  45.43900 15.04700 24.96700
C  45.47800 15.14200 26.42100
C  46.66200 16.95700 23.51900
C  45.31000 13.62900 24.53500
C  45.03300 13.49400 23.06900
N  45.34700 15.52800 29.38500
C  44.32000 14.95900 28.63100
C  43.25100 14.53900 29.51600
C  43.61300 14.99000 30.76400
C  44.84000 15.54100 30.65500
C  41.94700 13.82500 28.97500
C  43.11900 15.14600 32.10600
O  42.05800 14.84300 32.59600
C  44.25500 15.67800 32.90300
C  43.68700 16.86500 33.66200
O  43.56400 18.03100 33.23200
O  43.18300 16.41700 34.84500
C  42.55600 17.49000 35.69100
H  50.26700 18.67200 31.10600
H  49.19800 16.68300 25.00500
H  43.60500 14.17200 26.84100
H  46.31500 17.79700 33.77100
H  49.17200 18.08800 33.37400
H  47.89000 20.15900 31.90200
H  48.62500 20.24200 33.44700
H  47.00100 19.76000 33.52500
H  48.66700 15.92100 34.25500
H  47.16900 15.13600 33.80500
H  47.52500 15.49400 36.31600
H  46.05900 15.68900 35.64200
H  52.36500 19.86500 28.37900
H  53.05600 18.47900 29.04900
H  51.81900 19.40000 30.02600
H  53.90600 18.04400 25.35100
H  53.66400 17.77100 27.12600
H  53.07500 19.23500 26.37200
H  47.40600 14.94700 23.93400
H  44.56100 15.62700 24.68200
H  46.79400 16.61700 22.49200
H  47.38600 17.73600 23.75700
H  45.64800 17.34900 23.59100
H  44.50100 13.21200 25.13400
H  46.28300 13.15900 24.68400
H  45.84100 12.92500 22.60800
H  45.16600 14.43100 22.52800
H  44.13000 12.91300 22.88300
H  42.23500 12.81300 28.69100
H  41.53600 14.31000 28.08900
H  41.29100 13.74900 29.84200
H  44.51900 14.90700 33.62800
H  41.75700 17.92200 35.08900
H  43.21800 18.33400 35.88800
H  42.14600 17.07700 36.61300

