158

Mg 8.55900 3.28300 28.09800
C  9.83900 2.05300 30.92000
C  6.64400 5.50400 29.99000
C  6.87100 4.25900 25.33300
C  10.41100 1.02200 26.18400
N  8.20100 3.62900 30.19900
C  8.90300 3.01500 31.18500
C  8.51700 3.49700 32.54300
C  7.25600 4.37800 32.18300
C  7.31700 4.48800 30.69100
C  5.88300 3.79500 32.54000
C  9.68600 4.33800 33.17900
C  10.00100 3.95300 34.67000
H  9.01100 3.14700 35.56600
N  6.96000 4.68400 27.73500
C  6.40600 5.56200 28.54700
C  5.59500 6.53500 27.81500
C  5.60000 6.16400 26.52200
C  6.45700 4.93800 26.50900
C  4.85500 7.68300 28.56400
C  4.86800 6.69900 25.26900
O  4.97400 6.25400 24.14900
C  4.01400 7.90600 25.37700
N  8.53900 2.66700 26.03300
C  7.74500 3.23600 25.13700
C  7.91000 2.54600 23.77300
C  9.31600 1.73900 23.87300
C  9.47400 1.78500 25.38200
C  6.77100 1.63700 23.36700
C  10.39800 2.39500 23.12600
C  10.57400 2.01200 21.64600
N  9.85600 1.79700 28.39500
C  10.65300 1.00800 27.55600
C  11.49300 0.18300 28.32700
C  11.23500 0.58600 29.63500
C  10.24300 1.58600 29.62700
C  12.40800 -0.91100 27.83900
C  11.55400 0.32700 31.04400
O  12.33500 -0.44400 31.51100
C  10.65600 1.25200 31.88500
C  9.88500 0.42400 32.87300
O  8.81800 -0.08900 32.66700
O  10.56100 0.37500 34.03100
C  9.95300 -0.45700 35.08300
H  6.04000 6.16800 30.61300
H  6.38300 4.58700 24.41200
H  11.05900 0.34400 25.62500
H  8.36900 2.62300 33.17600
H  7.31800 5.38100 32.60600
H  5.48400 4.35900 33.38400
H  5.87100 2.81300 33.01300
H  5.03600 3.89700 31.86100
H  9.47500 5.40700 33.20800
H  10.67400 4.21900 32.73400
H  10.26700 4.87700 35.18500
H  10.92400 3.37900 34.74400
H  5.26800 8.66400 28.32800
H  4.91000 7.57600 29.64700
H  3.80100 7.69900 28.28600
H  3.32900 8.01300 24.53500
H  4.59400 8.82500 25.29900
H  3.40200 7.90800 26.27900
H  7.87800 3.34100 23.02800
H  9.23600 0.75700 23.40700
H  6.35800 1.09500 24.21800
H  7.11900 0.89300 22.64900
H  6.02300 2.24500 22.85800
H  11.35500 2.23800 23.62300
H  10.22500 3.47200 23.13100
H  10.36100 0.99000 21.33400
H  11.61500 2.13600 21.34600
H  9.88000 2.68500 21.14200
H  12.82200 -0.76200 26.84200
H  11.98500 -1.91400 27.89700
H  13.18500 -0.93800 28.60300
H  11.33700 1.98500 32.31700
H  10.51100 -1.39200 35.02500
H  8.90400 -0.75100 35.06400
H  10.14900 -0.11000 36.09800
Mg 44.29000 4.27000 47.15000
C  42.21900 7.13400 47.10900
C  41.31300 2.45400 46.79800
C  46.09700 1.52000 46.66300
C  47.01200 6.31200 46.40100
N  42.06500 4.76000 46.91100
C  41.52500 5.94600 47.11200
C  39.97500 5.93400 47.22200
C  39.76400 4.42900 47.26100
C  41.09300 3.84900 46.93700
C  39.20400 3.84000 48.57600
C  39.13900 6.61700 46.00600
C  39.84900 7.05200 44.71800
H  39.57400 6.13700 43.62900
N  43.77500 2.20400 46.76400
C  42.50300 1.74300 46.71300
C  42.60200 0.26400 46.63200
C  43.96800 -0.05100 46.56300
C  44.69700 1.25800 46.71700
C  41.36900 -0.73100 46.66600
C  44.49300 -1.46900 46.49400
O  43.72800 -2.37100 46.23100
C  45.96400 -1.74600 46.65200
N  46.18700 4.03800 46.51500
C  46.73300 2.79600 46.64500
C  48.33600 2.90900 46.82200
C  48.55800 4.30200 46.25400
C  47.13300 4.95000 46.38100
C  48.71900 2.71300 48.27300
C  49.12400 4.34700 44.81300
C  50.60500 4.37700 44.73200
N  44.62700 6.29800 46.94300
C  45.77800 7.01300 46.60100
C  45.51700 8.45300 46.70200
C  44.08700 8.50100 46.94100
C  43.62200 7.20100 47.05300
C  46.50700 9.62900 46.48200
C  42.93600 9.41400 47.06100
O  42.91800 10.63800 47.09600
C  41.77900 8.52600 47.30300
C  41.30600 8.73200 48.66700
O  41.84900 8.56800 49.73800
O  40.10200 9.30800 48.57600
C  39.35100 9.69400 49.77600
H  40.44300 1.79500 46.80500
H  46.83700 0.71700 46.68300
H  47.86100 6.97800 46.23500
H  39.59600 6.32500 48.16700
H  39.09800 4.11800 46.45600
H  38.82700 4.59000 49.27100
H  39.78300 3.02900 49.01600
H  38.25400 3.37100 48.31800
H  38.47000 7.37200 46.42000
H  38.38900 5.92400 45.62500
H  40.93000 6.92600 44.78900
H  39.74100 8.07700 44.36600
H  41.42200 -1.40300 45.81000
H  40.38800 -0.25500 46.63700
H  41.47800 -1.27700 47.60300
H  46.20500 -1.18300 47.55300
H  46.61600 -1.32700 45.88600
H  46.10400 -2.81800 46.79100
H  48.87300 2.32600 46.07300
H  49.26600 4.77800 46.93200
H  48.86600 1.64600 48.44000
H  47.97700 3.22500 48.88500
H  49.63100 3.23200 48.56900
H  48.69100 5.26100 44.40600
H  48.89300 3.46900 44.20800
H  51.11900 4.44200 45.69200
H  50.94500 5.19900 44.10200
H  50.94600 3.38400 44.44200
H  46.04000 10.50400 46.02900
H  47.40300 9.32900 45.93900
H  46.88300 10.01100 47.43100
H  40.91700 8.68400 46.65500
H  39.69500 10.67400 50.10900
H  39.37400 8.93900 50.56100
H  38.29400 9.72300 49.51300

