158

Mg 48.03000 34.17000 26.87800
C  45.98600 32.84300 29.43300
C  48.53000 36.96600 28.98600
C  49.37300 35.79300 24.31000
C  47.13800 31.52800 24.88500
N  47.44000 34.74300 29.05000
C  46.60300 34.02100 29.89700
C  46.76900 34.56300 31.32200
C  47.32300 36.00600 31.04100
C  47.88000 35.89000 29.63900
C  46.21700 37.07200 31.11900
C  47.87700 33.78400 32.05000
C  47.94200 33.94700 33.60200
H  47.01000 34.92700 34.32000
N  48.81200 36.05300 26.66500
C  48.99300 37.02400 27.61600
C  49.56500 38.19500 27.06400
C  49.87800 37.93800 25.66500
C  49.28000 36.58300 25.46600
C  49.80600 39.40600 27.91200
C  50.59200 38.78600 24.60500
O  50.81300 38.39600 23.47900
C  51.16700 40.13100 24.89700
N  48.30400 33.75500 24.95800
C  48.88000 34.51200 24.04700
C  49.07800 33.92500 22.71300
C  48.54200 32.52100 23.01000
C  47.89000 32.54000 24.40300
C  48.39900 34.68900 21.59300
C  49.53700 31.23900 22.85600
C  50.83700 31.35600 23.77400
N  46.79900 32.53900 27.03500
C  46.54200 31.50800 26.16800
C  45.68100 30.54900 26.76300
C  45.39600 31.08200 28.02500
C  46.18300 32.21100 28.16600
C  45.06100 29.30200 26.03200
C  44.53000 30.86400 29.13700
O  43.71000 29.99300 29.44400
C  44.79700 32.17100 30.05100
C  44.98500 31.67800 31.37900
O  45.87600 30.85500 31.75500
O  44.12300 32.22600 32.18900
C  44.19000 32.06700 33.59900
H  48.59200 37.85000 29.62400
H  49.67300 36.32500 23.40500
H  47.08000 30.60400 24.30400
H  45.80800 34.54200 31.83600
H  48.08700 36.21100 31.79100
H  45.19000 36.77300 31.32900
H  46.19600 37.53600 30.13300
H  46.50500 37.90100 31.76600
H  48.88200 34.05800 31.73100
H  47.70200 32.72100 31.88400
H  48.95100 34.29800 33.82100
H  47.84200 32.97700 34.08800
H  50.71300 39.94200 27.63300
H  49.79300 39.10600 28.96000
H  48.98500 40.10400 27.75000
H  51.92100 39.88800 25.64500
H  50.43300 40.80900 25.33400
H  51.67700 40.55500 24.03200
H  50.13700 33.78300 22.49600
H  47.68800 32.30800 22.36800
H  49.23400 35.21100 21.12500
H  47.69400 35.43500 21.95900
H  47.89400 34.03900 20.87800
H  49.97300 31.28200 21.85800
H  48.97900 30.30600 22.92600
H  51.73700 31.07900 23.22500
H  50.88300 30.56300 24.52000
H  50.96500 32.27700 24.34100
H  43.97700 29.30800 26.15100
H  45.39000 28.43200 26.60000
H  45.38600 29.13000 25.00600
H  43.93500 32.83900 30.06300
H  43.56700 32.86600 34.00100
H  45.20700 32.16300 33.98100
H  44.01900 31.04000 33.92200
Mg 6.70500 53.93000 40.99900
C  5.91600 50.49900 40.89900
C  9.79400 53.05800 39.77700
C  7.06400 57.12400 40.04100
C  3.46000 54.53200 42.01000
N  7.70500 51.94400 40.38100
C  7.23400 50.72800 40.42700
C  8.28100 49.65800 40.00200
C  9.60400 50.47000 40.11200
C  9.03100 51.89800 40.03600
C  10.42800 50.23100 41.39200
C  8.03600 49.03100 38.54300
C  7.68000 49.96400 37.40300
H  6.45600 49.63000 36.50300
N  8.23300 54.95200 40.00500
C  9.43500 54.37600 39.67900
C  10.25800 55.51000 38.95100
C  9.46900 56.69600 38.99200
C  8.19000 56.28800 39.69700
C  11.61400 55.29200 38.32900
C  9.84800 58.03700 38.34600
O  10.96000 58.10400 37.76800
C  9.05700 59.22400 38.47800
N  5.31300 55.61500 40.83200
C  5.87600 56.85500 40.63300
C  4.91500 57.94100 41.21800
C  3.60200 57.11800 41.52700
C  4.13300 55.66700 41.52000
C  5.52100 58.62700 42.39700
C  2.63700 57.33100 40.30200
C  1.25500 56.66700 40.26900
N  5.03100 52.81800 41.52600
C  3.87000 53.22100 42.06200
C  3.15200 52.04000 42.57100
C  3.87700 50.99000 42.13400
C  5.00600 51.49400 41.38400
C  1.84200 52.06600 43.24600
C  3.93600 49.57200 42.14800
O  3.18200 48.88700 42.72900
C  5.24700 49.15900 41.32900
C  4.67500 48.34700 40.23200
O  3.86700 48.82300 39.41000
O  5.22900 47.08800 40.26300
C  4.48800 46.17700 39.42200
H  10.79300 52.87500 39.37600
H  7.36800 58.16300 39.89300
H  2.42300 54.75200 42.27100
H  8.31800 48.81200 40.68900
H  10.26600 50.21700 39.28400
H  10.50500 51.14700 41.97800
H  11.44300 49.97600 41.08800
H  10.09200 49.45100 42.07500
H  7.15500 48.39300 38.60600
H  8.99000 48.57100 38.28500
H  8.54600 50.00900 36.74200
H  7.47600 50.97300 37.76000
H  11.78100 55.55500 37.28400
H  11.76100 54.21400 38.25800
H  12.41600 55.78600 38.87700
H  8.09800 59.06600 37.98600
H  9.50500 60.08500 37.98100
H  8.84000 59.36000 39.53800
H  4.77900 58.58500 40.35000
H  3.11100 57.28600 42.48500
H  6.61000 58.59900 42.42700
H  5.15100 58.21400 43.33600
H  5.34000 59.69500 42.27400
H  3.19900 57.01900 39.42100
H  2.40600 58.39500 40.34300
H  0.47100 57.40200 40.08900
H  0.89500 56.32000 41.23800
H  1.28300 55.86900 39.52700
H  1.28300 52.99100 43.10700
H  1.85500 52.05400 44.33600
H  1.21300 51.24300 42.90500
H  5.89300 48.48500 41.89200
H  3.41400 46.18600 39.61100
H  4.93000 45.18400 39.50500
H  4.61500 46.53400 38.40000

