158

Mg 24.38200 -5.43200 45.50400
C  26.56200 -3.33900 43.96800
C  21.86700 -4.29300 43.37300
C  22.34500 -7.97800 46.50700
C  27.00900 -7.00800 47.16700
N  24.30200 -4.15300 43.70300
C  25.27700 -3.25600 43.40800
C  24.87400 -2.32600 42.27500
C  23.29800 -2.40600 42.28600
C  23.13700 -3.74600 43.14000
C  22.52700 -1.23400 42.95800
C  25.45500 -2.74400 40.85300
C  26.00200 -1.48100 40.17100
H  25.83500 -1.45300 38.66200
N  22.33100 -6.08700 44.98700
C  21.43500 -5.38100 44.15200
C  20.23900 -6.09700 44.23000
C  20.32500 -7.15900 45.14200
C  21.70200 -7.14300 45.56900
C  19.15700 -5.67500 43.19000
C  19.22300 -8.08600 45.53600
O  18.06700 -7.83900 45.10100
C  19.33500 -9.17300 46.58300
N  24.65000 -7.23500 46.66400
C  23.67000 -8.10400 46.90400
C  24.11600 -9.24900 47.76100
C  25.63800 -8.88700 48.05900
C  25.81000 -7.69300 47.20800
C  23.34100 -9.67400 49.02200
C  26.59500 -10.04500 47.75300
C  27.56400 -10.49000 48.81400
N  26.34600 -5.27200 45.62300
C  27.32700 -5.87500 46.41200
C  28.62300 -5.16500 46.23800
C  28.30100 -4.08700 45.32800
C  26.94900 -4.26100 44.98900
C  29.99200 -5.52600 46.91700
C  28.82400 -2.93200 44.68600
O  29.98000 -2.48200 44.82600
C  27.70100 -2.42300 43.65300
C  27.57000 -0.96500 43.91400
O  27.05200 -0.44200 44.91100
O  28.26400 -0.18800 42.96400
C  28.46800 1.28600 43.21300
H  21.03900 -3.89800 42.78000
H  21.84600 -8.91100 46.78000
H  27.93900 -7.17600 47.71500
H  25.08000 -1.33100 42.67100
H  22.70400 -2.51000 41.37800
H  23.17500 -0.52600 43.47500
H  21.84700 -1.69200 43.67600
H  21.96000 -0.68600 42.20600
H  24.66800 -3.30500 40.34900
H  26.23700 -3.47800 41.04800
H  27.07900 -1.57300 40.31000
H  25.64300 -0.54600 40.60000
H  19.54900 -5.72500 42.17400
H  18.74200 -4.71300 43.48800
H  18.42100 -6.47900 43.21600
H  19.87300 -9.97100 46.07000
H  18.39600 -9.49300 47.03300
H  19.99100 -8.85700 47.39500
H  24.16100 -10.13100 47.12100
H  25.75800 -8.63900 49.11400
H  22.39000 -9.14100 49.02500
H  23.80700 -9.33500 49.94700
H  23.09600 -10.73400 49.07700
H  27.30600 -9.74800 46.98100
H  25.97900 -10.82200 47.30000
H  27.42900 -11.57000 48.87600
H  27.25800 -10.11300 49.79000
H  28.56500 -10.13000 48.57800
H  30.39700 -6.52200 46.74100
H  29.82900 -5.31600 47.97400
H  30.55400 -4.80600 46.32200
H  28.14900 -2.67400 42.69100
H  28.21800 1.86600 42.32400
H  29.50800 1.43000 43.50600
H  27.88400 1.72500 44.02200
Mg 26.63800 49.91400 26.62300
C  24.66100 50.90900 29.33400
C  28.97900 48.83900 28.66400
C  28.41100 48.80000 23.90500
C  24.16800 51.32400 24.43300
N  26.75900 49.92900 28.75600
C  25.83700 50.33200 29.73700
C  26.45000 50.16400 31.12300
C  27.82600 49.52500 30.90200
C  27.87300 49.45300 29.32800
C  29.09400 50.26000 31.49600
C  25.50300 49.24900 31.98600
C  24.90700 49.83500 33.29900
H  25.88400 50.02000 34.51100
N  28.52500 48.92500 26.36100
C  29.34300 48.59300 27.37200
C  30.57600 48.05300 26.81100
C  30.40400 48.17700 25.40100
C  29.04700 48.62500 25.13000
C  31.73500 47.62900 27.68900
C  31.47900 47.96100 24.35400
O  31.32600 48.23900 23.15100
C  32.81600 47.68000 24.80800
N  26.40300 50.14200 24.42800
C  27.21400 49.51000 23.57000
C  26.80600 49.75600 22.10500
C  25.50900 50.60300 22.26000
C  25.34700 50.72100 23.82000
C  27.81400 50.63600 21.30200
C  24.20900 50.01300 21.58000
C  23.24200 51.15200 21.18800
N  24.86300 50.89400 26.77600
C  23.96800 51.40900 25.80600
C  22.87500 52.07600 26.44600
C  23.04500 51.80300 27.80500
C  24.23800 51.09700 27.99900
C  21.81200 52.97900 25.80900
C  22.44300 52.13600 29.05400
O  21.44000 52.76300 29.29800
C  23.53500 51.52300 30.13800
C  23.91600 52.64000 31.04900
O  24.86000 53.35300 30.93500
O  22.97100 52.81000 32.00700
C  23.32700 53.64700 33.14700
H  29.68500 48.42400 29.38700
H  28.85600 48.42400 22.98100
H  23.41400 51.88200 23.87500
H  26.43400 51.16100 31.56300
H  27.71600 48.48500 31.21100
H  28.82800 51.30200 31.67300
H  29.93000 50.24200 30.79700
H  29.47300 49.84200 32.42800
H  26.07000 48.35600 32.24700
H  24.71200 48.93100 31.30600
H  24.09200 49.20400 33.65300
H  24.55000 50.82200 33.00300
H  32.63200 48.22100 27.50400
H  31.98200 46.63000 27.33000
H  31.52200 47.55800 28.75500
H  33.07000 48.45700 25.52900
H  33.51900 47.72200 23.97600
H  32.85000 46.63600 25.12100
H  26.73400 48.80300 21.58100
H  25.68200 51.65300 22.02400
H  28.51400 51.22000 21.89900
H  27.34500 51.39700 20.67800
H  28.25700 49.95600 20.57500
H  23.70000 49.42800 22.34600
H  24.41000 49.44400 20.67300
H  22.34800 51.22400 21.80900
H  23.04900 51.06200 20.11900
H  23.85000 52.05500 21.23700
H  21.19900 52.34900 25.16400
H  22.21700 53.82800 25.25900
H  21.25000 53.48100 26.59600
H  23.09600 50.75500 30.77600
H  24.16100 53.12900 33.62000
H  22.47300 53.67500 33.82300
H  23.56700 54.65600 32.81100

