158

Mg 16.29300 -1.48100 27.88200
C  15.13400 0.47500 30.50300
C  18.42300 -3.10800 30.03300
C  17.90400 -3.00800 25.29600
C  14.58700 0.43600 25.58800
N  16.69000 -1.22200 30.05400
C  16.15200 -0.41300 30.97000
C  16.79200 -0.58900 32.39000
C  17.86300 -1.62100 32.08600
C  17.63700 -1.97300 30.58500
C  19.36900 -1.32200 32.31300
C  15.73200 -0.96800 33.39500
C  15.73100 -0.13300 34.75100
H  16.94200 0.66600 35.14700
N  17.75700 -3.14200 27.67900
C  18.43700 -3.67600 28.76700
C  19.22400 -4.80900 28.26600
C  19.23400 -4.66600 26.85000
C  18.22200 -3.64500 26.55200
C  20.09300 -5.66600 29.15300
C  20.04300 -5.35000 25.66100
O  19.68500 -5.35200 24.48300
C  21.08100 -6.29400 26.08200
N  16.39600 -1.20800 25.78300
C  17.06200 -2.00500 24.94300
C  16.79300 -1.63500 23.47000
C  15.60900 -0.69000 23.50400
C  15.49800 -0.50300 25.06500
C  18.08000 -1.13400 22.75900
C  14.28100 -1.15300 22.71600
C  13.49500 -0.07000 21.96800
N  14.96900 -0.06700 27.96300
C  14.35600 0.68800 26.94100
C  13.50600 1.67000 27.54100
C  13.75100 1.63600 28.90700
C  14.74900 0.61500 29.14500
C  12.65700 2.68600 26.87900
C  13.48900 2.31000 30.18700
O  12.70600 3.23300 30.45100
C  14.37000 1.55400 31.26300
C  15.21900 2.57900 31.86400
O  16.15500 3.13500 31.29300
O  14.59700 3.02700 32.99600
C  15.16000 4.20400 33.60200
H  19.17900 -3.44400 30.74500
H  18.54100 -3.39900 24.50000
H  14.05900 0.96400 24.79200
H  17.31000 0.34300 32.61500
H  17.66300 -2.57200 32.58000
H  19.45600 -0.61500 33.13800
H  19.81000 -0.94200 31.39100
H  19.90000 -2.19500 32.69300
H  15.86400 -2.01500 33.66600
H  14.74600 -0.79700 32.96300
H  15.44300 -0.75900 35.59600
H  14.96500 0.60200 34.50500
H  20.13700 -6.65600 28.69900
H  19.67100 -5.74500 30.15400
H  21.07400 -5.19100 29.19200
H  20.67800 -7.19000 26.55400
H  21.82100 -5.75300 26.67200
H  21.64600 -6.55800 25.18900
H  16.51000 -2.59300 23.03400
H  15.93300 0.28700 23.14400
H  18.55800 -0.36100 23.35900
H  17.98100 -0.63700 21.79400
H  18.86700 -1.85500 22.53700
H  13.68700 -1.58900 23.52000
H  14.57000 -1.94800 22.02800
H  13.70000 -0.21000 20.90700
H  13.91000 0.84800 22.38500
H  12.41600 -0.21500 22.03100
H  12.83800 2.62600 25.80500
H  12.92400 3.68400 27.22600
H  11.59800 2.44300 26.95500
H  13.78000 1.08000 32.04600
H  14.75200 4.23900 34.61200
H  14.81500 5.05100 33.00900
H  16.24800 4.20300 33.66700
Mg 47.77700 16.48200 28.06200
C  45.62700 16.96600 30.98700
C  50.22800 18.22300 30.00400
C  49.44800 16.81900 25.39100
C  44.97100 15.36900 26.37000
N  47.94600 17.33200 30.37900
C  46.90300 17.47000 31.26300
C  47.51100 17.93200 32.67000
C  48.82000 18.62500 32.18400
C  49.07300 18.03100 30.78800
C  48.79300 20.19400 32.24700
C  47.83000 16.68900 33.52100
C  47.86200 16.90200 35.10700
H  47.80900 18.26800 35.63400
N  49.72000 17.19900 27.75900
C  50.51900 17.87700 28.63900
C  51.77600 17.92000 27.92600
C  51.56500 17.69500 26.53200
C  50.17800 17.18100 26.49000
C  53.06700 18.28500 28.61600
C  52.48400 17.76100 25.32600
O  52.12500 17.60500 24.15300
C  53.95900 18.02400 25.49100
N  47.21900 16.22600 26.11800
C  48.13500 16.35300 25.14300
C  47.57700 15.90700 23.75300
C  46.23000 15.25200 24.12600
C  46.08200 15.61500 25.62400
C  47.40900 16.97700 22.70800
C  46.28800 13.71500 23.85400
C  45.37500 13.30000 22.71500
N  45.68900 16.25600 28.47800
C  44.72500 15.73000 27.68000
C  43.53000 15.66100 28.38600
C  43.81600 16.09600 29.64400
C  45.17800 16.44900 29.71200
C  42.20600 15.08000 27.92700
C  43.27300 16.26600 31.04500
O  42.14600 16.03100 31.50500
C  44.47900 16.73500 31.96100
C  44.03100 17.94000 32.67800
O  43.96600 19.04400 32.29400
O  43.47700 17.59500 33.83000
C  42.87200 18.56300 34.74500
H  51.04600 18.81800 30.41700
H  50.01700 16.72200 24.46400
H  44.18500 14.83500 25.83300
H  46.81700 18.63800 33.12600
H  49.69800 18.31400 32.75100
H  49.15800 20.72600 31.36800
H  49.45000 20.49800 33.06200
H  47.81000 20.66400 32.29100
H  48.78000 16.25900 33.20300
H  47.01700 16.00500 33.27800
H  48.77300 16.38500 35.40900
H  47.01400 16.42300 35.59600
H  53.01800 17.88000 29.62700
H  53.25600 19.35900 28.64000
H  53.95100 17.88400 28.12000
H  54.51700 17.33900 26.12900
H  54.24100 19.04800 25.73600
H  54.28200 17.70000 24.50200
H  48.26900 15.17300 23.33900
H  45.39700 15.67100 23.56200
H  46.47500 17.48100 22.46200
H  47.85300 16.66700 21.76100
H  47.89100 17.87300 23.09900
H  45.98300 13.08100 24.68700
H  47.28000 13.29300 23.69200
H  45.17300 14.15900 22.07500
H  44.46100 12.92100 23.17300
H  45.85200 12.54500 22.09000
H  42.37900 14.02800 27.69900
H  41.99000 15.54200 26.96400
H  41.37200 15.19900 28.61800
H  44.79800 16.01500 32.71500
H  43.60100 18.75000 35.53400
H  42.04200 18.07000 35.25100
H  42.49600 19.43300 34.20600

