158

Mg 0.00100 8.05500 26.51900
C  0.62500 9.55800 29.63200
C  0.00500 4.97800 27.85900
C  0.39100 6.67200 23.36600
C  0.53500 11.16600 24.97400
N  0.19400 7.45500 28.56900
C  0.41000 8.15000 29.72500
C  0.02900 7.35300 30.96500
C  0.10500 5.91000 30.39300
C  0.06500 6.09400 28.78400
C  1.46300 5.19200 30.79600
C  -1.28100 7.79800 31.58100
C  -1.32300 7.79400 33.13400
H  -0.26700 6.96700 33.88400
N  -0.13100 6.15000 25.75100
C  -0.11500 5.01100 26.45000
C  -0.32200 3.84100 25.62200
C  -0.23900 4.39300 24.26900
C  0.02900 5.79900 24.40000
C  -0.44700 2.48700 26.11200
C  -0.38700 3.66700 22.91400
O  -0.47600 4.29800 21.82500
C  -0.54700 2.20100 22.90300
N  0.24900 8.82300 24.43100
C  0.55400 8.04600 23.38100
C  0.93700 8.81200 22.18400
C  0.52800 10.25300 22.59300
C  0.43200 10.12600 24.08400
C  2.48400 8.82500 21.75600
C  -0.69600 10.87700 21.84700
C  -2.05300 10.63100 22.53600
N  0.46700 9.96000 27.09300
C  0.58100 11.12200 26.36300
C  0.77700 12.23100 27.27800
C  0.85800 11.63000 28.55800
C  0.64900 10.29100 28.39400
C  1.10400 13.64100 26.81900
C  0.96600 11.95500 29.97200
O  1.21300 13.01100 30.55700
C  0.66800 10.61500 30.72700
C  1.63600 10.41300 31.78800
O  2.75800 10.00200 31.60000
O  1.23400 11.05000 32.89700
C  2.26600 11.33700 33.99000
H  -0.11500 4.02100 28.37100
H  0.71300 6.25600 22.40900
H  0.56500 12.21100 24.65700
H  0.84200 7.45700 31.68400
H  -0.67700 5.21800 30.70700
H  1.16000 4.43200 31.51700
H  2.16800 5.76400 31.40000
H  2.04800 4.70200 30.01800
H  -2.13700 7.26700 31.16300
H  -1.49800 8.78000 31.16100
H  -2.29800 7.37400 33.37900
H  -1.21700 8.79700 33.54700
H  0.04500 1.70700 25.53100
H  -1.50700 2.26400 26.23300
H  0.01900 2.47900 27.09700
H  0.25200 1.71900 23.46600
H  -0.44300 1.93300 21.85200
H  -1.52400 1.97000 23.32700
H  0.33500 8.48500 21.33700
H  1.32800 10.98700 22.49800
H  3.17700 9.10600 22.54900
H  2.59800 9.58300 20.98100
H  2.62900 7.80700 21.39300
H  -0.60400 10.43000 20.85800
H  -0.54400 11.95700 21.83700
H  -2.02000 9.77500 23.21000
H  -2.89600 10.49300 21.85900
H  -2.28100 11.52000 23.12500
H  1.86200 13.64400 26.03600
H  1.45700 14.27800 27.63000
H  0.24100 14.19400 26.44900
H  -0.27100 10.61600 31.28200
H  2.32400 12.41700 34.12900
H  3.30300 11.06900 33.78500
H  1.85700 10.99200 34.93900
Mg 25.43400 1.22600 30.09900
C  27.73200 1.04400 32.76800
C  22.96100 1.45600 32.33800
C  23.47900 1.32400 27.47300
C  28.24100 0.59300 27.87800
N  25.41000 1.16100 32.32300
C  26.43300 1.23900 33.20600
C  25.88300 1.49500 34.64600
C  24.35200 1.29800 34.50500
C  24.20100 1.29300 32.96500
C  23.67200 0.06000 35.17800
C  26.29800 2.86200 35.09900
C  27.10500 2.95100 36.40800
H  26.45000 3.74800 37.55400
N  23.44900 1.44100 29.91900
C  22.53900 1.45400 30.92800
C  21.20300 1.60700 30.38100
C  21.35400 1.60800 28.98200
C  22.84000 1.48000 28.71300
C  19.94300 1.77800 31.20700
C  20.27600 1.65200 27.85700
O  20.52600 1.74800 26.68900
C  18.80100 1.59500 28.20200
N  25.83100 0.79400 27.93800
C  24.77900 1.02600 27.06300
C  25.25300 1.14600 25.61900
C  26.81500 1.04300 25.80200
C  26.97400 0.81200 27.30900
C  24.61200 0.09900 24.59900
C  27.63300 2.26900 25.28300
C  29.07000 2.09500 24.61600
N  27.48400 0.87700 30.21200
C  28.48400 0.51900 29.23400
C  29.71200 0.34500 29.87700
C  29.41700 0.58100 31.24000
C  28.07600 0.87700 31.39700
C  31.12900 0.16200 29.28600
C  30.04500 0.66500 32.60800
O  31.16700 0.46200 32.92200
C  29.02000 1.13000 33.60900
C  28.93200 0.12100 34.68800
O  28.33900 -0.95000 34.64300
O  29.55100 0.54800 35.84200
C  29.34800 -0.18400 37.09900
H  22.06400 1.53600 32.95500
H  22.91700 1.45300 26.54500
H  29.11800 0.58000 27.22800
H  26.33400 0.72700 35.27500
H  23.82800 2.24400 34.64000
H  22.86700 0.45600 35.79700
H  24.38500 -0.52800 35.75500
H  23.11000 -0.63000 34.54700
H  25.38500 3.44800 35.20800
H  26.92500 3.24400 34.29400
H  27.93500 3.59300 36.11300
H  27.54300 2.00000 36.71000
H  19.32500 2.61400 30.88000
H  20.16700 1.84000 32.27100
H  19.42700 0.82000 31.25700
H  18.34000 2.51600 28.55800
H  18.61700 0.77600 28.89700
H  18.22700 1.23000 27.35000
H  25.00800 2.12900 25.21800
H  27.26700 0.20600 25.26900
H  23.98200 -0.61800 25.12500
H  25.40000 -0.50300 24.14700
H  23.98100 0.57600 23.84900
H  27.78700 2.98800 26.08800
H  26.99500 2.78700 24.56600
H  29.47800 1.10200 24.80000
H  29.75300 2.77700 25.12200
H  28.94300 2.32000 23.55700
H  31.33600 0.95900 28.57300
H  31.17100 -0.71100 28.63500
H  31.76000 0.14400 30.17400
H  29.13800 2.14100 33.99900
H  30.34900 -0.20200 37.52900
H  28.98000 -1.20000 36.95300
H  28.77600 0.37100 37.84200

