158

Mg 16.76400 -1.99500 27.67200
C  15.55600 0.16100 30.19900
C  18.43900 -3.78300 29.87400
C  17.73000 -3.90900 25.12600
C  15.05200 0.17000 25.45500
N  16.88700 -1.84800 29.71500
C  16.38800 -0.87000 30.56300
C  16.84900 -1.19500 31.99700
C  17.89100 -2.29700 31.87000
C  17.85600 -2.67100 30.39700
C  19.33900 -1.84800 32.22500
C  15.64800 -1.58400 32.92900
C  15.64100 -1.15000 34.36700
H  16.91200 -0.82800 35.18500
N  18.00900 -3.63900 27.46200
C  18.52000 -4.33200 28.52800
C  19.24900 -5.47100 28.09100
C  19.05700 -5.57600 26.70000
C  18.20200 -4.36700 26.33200
C  20.00700 -6.38700 29.07000
C  19.55400 -6.54900 25.69300
O  19.26500 -6.54700 24.50300
C  20.45500 -7.67900 26.15800
N  16.43800 -1.86400 25.64600
C  16.96700 -2.74000 24.78800
C  16.90900 -2.17600 23.36200
C  15.63600 -1.19700 23.48300
C  15.74600 -0.90500 24.96100
C  18.19600 -1.47800 22.91400
C  14.32900 -1.85700 22.94500
C  13.34500 -2.59600 23.86700
N  15.53900 -0.10600 27.76200
C  14.89600 0.62800 26.72900
C  13.99600 1.66700 27.32600
C  14.33400 1.50400 28.68500
C  15.24400 0.46600 28.86400
C  12.96900 2.54400 26.62400
C  14.04700 2.11100 29.97300
O  13.36100 3.04900 30.21800
C  14.78600 1.17300 31.01900
C  15.58400 2.11900 31.84400
O  16.51500 2.79600 31.39700
O  15.19300 2.14300 33.14100
C  15.95000 2.91000 34.07900
H  19.06800 -4.35000 30.56200
H  18.18300 -4.34200 24.23100
H  14.58900 0.78300 24.67900
H  17.23300 -0.27400 32.43600
H  17.64000 -3.18900 32.44400
H  19.34700 -0.95800 32.85400
H  19.93400 -1.60700 31.34400
H  19.78700 -2.61100 32.86200
H  15.49600 -2.66200 32.87500
H  14.76400 -1.10200 32.51100
H  15.23600 -2.00000 34.91600
H  14.86800 -0.43900 34.65900
H  19.97500 -6.04800 30.10600
H  21.01500 -6.59000 28.70800
H  19.52000 -7.36100 29.02000
H  20.02400 -8.30400 26.94000
H  21.29400 -7.26200 26.71400
H  20.77000 -8.31000 25.32700
H  16.83700 -3.03700 22.69700
H  15.90300 -0.29800 22.92700
H  19.05600 -1.56000 23.57900
H  18.10900 -0.45600 22.54400
H  18.55100 -2.02200 22.03900
H  14.68500 -2.53600 22.17000
H  13.71300 -1.01600 22.62800
H  12.68600 -1.86800 24.34000
H  13.90100 -3.10400 24.65500
H  12.87900 -3.28500 23.16200
H  12.09800 2.07000 27.07600
H  12.92300 2.44600 25.54000
H  12.99200 3.57900 26.96600
H  13.98900 0.76800 31.64200
H  15.24000 3.44800 34.70800
H  16.58900 3.75000 33.80800
H  16.39600 2.12800 34.69400
Mg 1.95500 41.35900 26.42900
C  3.80100 41.98900 29.20200
C  -0.84200 40.53900 28.20200
C  0.50500 40.30000 23.54500
C  4.84700 42.20500 24.48500
N  1.50400 41.29100 28.49000
C  2.40300 41.64100 29.51500
C  1.71500 41.62700 30.87200
C  0.24700 41.19800 30.51800
C  0.26900 41.04700 28.98800
C  -0.20400 39.81000 31.12300
C  1.77600 43.03000 31.60100
C  2.24300 43.19600 33.07300
H  1.91000 41.97200 33.94800
N  0.13200 40.41700 26.01500
C  -0.92400 40.21200 26.86600
C  -2.02000 39.54900 26.20400
C  -1.56700 39.45500 24.79400
C  -0.24500 39.99800 24.73000
C  -3.35000 39.00900 26.86300
C  -2.30100 38.86600 23.54600
O  -1.84200 38.83000 22.41400
C  -3.73400 38.35200 23.79600
N  2.59200 41.31700 24.24200
C  1.74100 40.88300 23.29300
C  2.39500 40.95400 21.88900
C  3.80600 41.66700 22.15500
C  3.73300 41.75600 23.73600
C  2.58000 39.54800 21.14800
C  3.97300 43.00700 21.35000
C  4.11500 44.43500 22.12600
N  3.87900 42.02100 26.68200
C  4.91500 42.31400 25.84300
C  6.04400 42.77100 26.60500
C  5.66400 42.63200 27.96300
C  4.35700 42.13200 27.93200
C  7.37900 43.34000 26.09700
C  6.00900 42.79100 29.31000
O  7.04500 43.18500 29.85700
C  4.91500 42.23000 30.17400
C  5.45500 40.89500 30.78000
O  6.02000 39.99200 30.13800
O  5.15200 40.74700 32.06600
C  5.40800 39.51000 32.73200
H  -1.81900 40.32200 28.64000
H  0.06000 39.92500 22.62100
H  5.64900 42.56000 23.83400
H  2.27100 40.85000 31.39700
H  -0.52400 41.88200 30.87200
H  0.54300 39.49600 31.85100
H  -0.27400 39.01100 30.38600
H  -1.15400 39.88400 31.65300
H  0.75100 43.39500 31.65500
H  2.48200 43.72300 31.14400
H  1.94600 44.16900 33.46300
H  3.33200 43.18000 33.04100
H  -4.17400 39.70800 26.71900
H  -3.08300 38.87800 27.91100
H  -3.67700 38.05000 26.46100
H  -4.42100 39.05300 24.27000
H  -3.70300 37.44300 24.39700
H  -4.05800 38.11900 22.78200
H  1.78600 41.52300 21.18700
H  4.53300 40.99100 21.70500
H  1.99400 38.76500 21.63000
H  3.55000 39.19900 20.79600
H  1.88600 39.66500 20.31600
H  3.09800 43.10200 20.70800
H  4.82600 42.88900 20.68200
H  3.33600 45.13100 21.81600
H  5.04200 44.90600 21.79900
H  3.84300 44.46900 23.18100
H  8.13000 42.63500 25.74200
H  7.86600 44.03400 26.78200
H  7.12200 44.04500 25.30600
H  4.64000 42.91200 30.97800
H  4.93000 39.64100 33.70300
H  6.44800 39.24300 32.92400
H  4.89600 38.67600 32.25300

