158

Mg 47.52100 45.09800 42.40000
C  44.17400 44.33300 42.63600
C  48.13800 41.68600 41.76100
C  50.75800 45.84500 41.83000
C  46.69100 48.45500 42.29800
N  46.26100 43.29200 41.99900
C  44.97400 43.18900 42.29000
C  44.45900 41.78400 42.31000
C  45.74900 40.92000 42.16100
C  46.77300 42.00700 41.98100
C  46.01900 39.89600 43.25500
C  43.32000 41.49100 41.32500
C  43.17100 42.14200 39.98700
H  43.74100 41.56400 38.66800
N  49.26900 43.94000 42.00000
C  49.27800 42.57500 41.77600
C  50.67800 42.19500 41.53000
C  51.48800 43.36000 41.59100
C  50.50800 44.49200 41.77300
C  51.03700 40.77200 41.33400
C  52.96500 43.37900 41.47900
O  53.53400 42.36500 41.07900
C  53.79000 44.57300 41.93900
N  48.53700 46.87800 41.89100
C  49.91600 46.93200 41.91800
C  50.54800 48.38000 41.84200
C  49.14800 49.23300 41.89600
C  48.06400 48.12000 42.02400
C  51.56100 48.71900 42.86500
C  49.03900 50.13700 40.64100
C  48.31900 51.47800 40.77800
N  45.81600 46.22200 42.46500
C  45.60800 47.59100 42.45000
C  44.17800 47.85500 42.55400
C  43.58400 46.61900 42.78100
C  44.58300 45.63300 42.60500
C  43.61300 49.18300 42.52300
C  42.32000 45.91400 42.90200
O  41.14500 46.40700 42.89700
C  42.67700 44.41900 42.94600
C  42.26400 43.75800 44.19500
O  41.61700 42.72400 44.20800
O  42.66100 44.46900 45.30100
C  42.16600 43.93300 46.56500
H  48.32300 40.61200 41.83400
H  51.82500 46.07300 41.78400
H  46.54500 49.53400 42.37000
H  43.98200 41.69500 43.28600
H  45.77800 40.38500 41.21200
H  45.99700 38.92000 42.77100
H  45.35100 39.88400 44.11700
H  47.01800 39.94100 43.68700
H  42.34100 41.62000 41.78700
H  43.41300 40.42300 41.12800
H  43.83300 43.00000 40.09800
H  42.18900 42.59000 39.83300
H  51.84300 40.63800 40.61100
H  50.17000 40.29700 40.87500
H  51.30300 40.20400 42.22500
H  53.57700 45.38800 41.24700
H  54.82900 44.24600 41.90100
H  53.36900 44.92400 42.88100
H  51.00600 48.39500 40.85200
H  49.10000 49.76400 42.84600
H  52.35800 49.20600 42.30100
H  52.06500 47.86400 43.31500
H  51.15600 49.37800 43.63300
H  48.47100 49.59100 39.88700
H  50.05800 50.31000 40.29700
H  47.39700 51.37200 40.20600
H  48.86400 52.35900 40.43900
H  47.94000 51.70300 41.77500
H  44.04100 49.76400 41.70600
H  43.88100 49.81600 43.37000
H  42.53200 49.15900 42.38300
H  42.11600 44.03400 42.09400
H  43.01100 43.95000 47.25400
H  41.79100 42.92000 46.41400
H  41.45000 44.59400 47.05200
Mg 35.72900 49.53600 24.99000
C  35.60600 47.87400 28.08200
C  34.45600 52.38500 26.60300
C  35.09800 50.82600 22.00300
C  37.01500 46.58900 23.60600
N  35.15900 50.03900 27.17100
C  35.25800 49.20900 28.26600
C  34.85900 49.89300 29.54500
C  34.62600 51.40200 29.06100
C  34.85000 51.34900 27.51500
C  33.38500 52.19400 29.56300
C  35.89200 49.76200 30.68300
C  35.43900 49.32400 32.14900
H  34.01000 49.54400 32.63900
N  34.77800 51.34900 24.40400
C  34.34900 52.36200 25.22500
C  33.69400 53.34600 24.46600
C  33.96500 53.05400 23.06900
C  34.65200 51.72200 23.07500
C  33.18600 54.63600 25.07400
C  33.69000 53.79700 21.78600
O  34.13700 53.45300 20.71900
C  32.85100 55.07700 21.88700
N  35.92300 48.76900 23.07100
C  35.60000 49.51500 21.96800
C  36.05300 48.75300 20.74100
C  36.93400 47.56300 21.28700
C  36.59200 47.60700 22.77200
C  34.97600 48.39400 19.69300
C  38.48500 47.61900 21.04300
C  39.17100 46.27600 20.80300
N  36.28700 47.61200 25.60300
C  36.74000 46.47600 24.94000
C  36.73100 45.32700 25.77500
C  36.29500 45.88000 27.03800
C  35.99300 47.21700 26.87200
C  36.98200 43.90900 25.45900
C  36.02300 45.48800 28.46600
O  36.07900 44.43200 29.01700
C  35.66600 46.78600 29.14100
C  34.46600 46.42900 29.90300
O  33.31400 46.41000 29.51800
O  34.86600 46.03600 31.17700
C  33.85800 45.33100 31.94800
H  34.02100 53.29200 27.02600
H  35.10800 51.35600 21.04900
H  37.46700 45.68800 23.18600
H  33.89100 49.54800 29.91000
H  35.49900 51.97400 29.37600
H  33.68300 52.94900 30.29100
H  32.73700 51.46000 30.04100
H  32.84500 52.69000 28.75700
H  36.31600 50.74100 30.90400
H  36.75500 49.11800 30.51300
H  36.13400 49.73300 32.88300
H  35.66500 48.25900 32.09900
H  33.06900 54.68100 26.15700
H  32.20200 54.74200 24.61600
H  33.69400 55.58600 24.91000
H  32.93100 55.67600 20.98000
H  33.42500 55.63400 22.62800
H  31.80700 54.88400 22.13200
H  36.81700 49.40500 20.31700
H  36.47100 46.61100 21.02900
H  34.34600 49.27300 19.55400
H  34.26000 47.66500 20.07200
H  35.44300 48.02200 18.78200
H  38.88200 48.17000 21.89600
H  38.51400 48.16800 20.10200
H  39.54200 46.18800 19.78200
H  38.53700 45.39900 20.93300
H  40.06600 46.21200 21.42200
H  36.34900 43.63800 24.61400
H  36.56800 43.40300 26.33100
H  38.02600 43.74300 25.19500
H  36.39100 47.03800 29.91500
H  32.98300 45.91600 32.23200
H  34.24500 45.09400 32.93900
H  33.54100 44.42000 31.44100

