158

Mg -2.46500 17.08100 27.19900
C  -2.75400 14.90600 29.92900
C  -2.97000 19.74300 29.25800
C  -2.28100 19.09300 24.41200
C  -2.14200 14.44400 25.11500
N  -2.88100 17.31400 29.37000
C  -2.97400 16.26300 30.30800
C  -3.03600 16.85600 31.72200
C  -3.31400 18.39400 31.38000
C  -3.14900 18.52600 29.86300
C  -4.69400 18.95200 31.97500
C  -1.74800 16.60900 32.55200
C  -1.50200 17.41800 33.87100
H  -1.25800 16.66100 35.26200
N  -2.51800 19.16800 26.85600
C  -2.71900 20.11700 27.89300
C  -2.72600 21.45500 27.30800
C  -2.48500 21.26100 25.86500
C  -2.37700 19.78500 25.64500
C  -3.04200 22.74300 27.97700
C  -2.19600 22.30500 24.78500
O  -2.02500 21.99800 23.60400
C  -2.24900 23.79200 25.12100
N  -2.34200 16.73900 25.09900
C  -2.26000 17.74400 24.18000
C  -2.23300 17.15700 22.70700
C  -1.91800 15.72100 22.97000
C  -2.18400 15.59500 24.47800
C  -3.60000 17.36100 21.96000
C  -0.47200 15.33200 22.65600
C  0.65700 15.92000 23.52500
N  -2.52800 15.12800 27.40700
C  -2.33700 14.14000 26.47200
C  -2.44700 12.82600 27.07300
C  -2.59800 13.07000 28.44700
C  -2.61100 14.51800 28.61000
C  -2.47500 11.45300 26.36500
C  -2.70800 12.43600 29.72100
O  -2.84200 11.28200 30.06900
C  -2.83300 13.58200 30.71800
C  -1.64300 13.36000 31.57400
O  -0.48500 13.58600 31.22100
O  -1.97100 12.87500 32.84900
C  -0.86700 12.58700 33.72300
H  -2.93100 20.61900 29.90900
H  -2.24600 19.63100 23.46300
H  -1.91400 13.58100 24.48600
H  -3.79700 16.23800 32.19900
H  -2.50500 19.04000 31.71900
H  -5.09000 18.08400 32.50200
H  -5.47800 19.34200 31.32600
H  -4.48200 19.70300 32.73600
H  -0.84000 16.48300 31.96200
H  -1.64100 15.60500 32.96500
H  -2.31000 18.14000 33.97900
H  -0.55100 17.94900 33.82900
H  -2.09000 23.25400 27.83200
H  -3.23900 22.67000 29.04600
H  -3.80500 23.28800 27.42200
H  -3.17400 24.23400 25.49300
H  -1.97700 24.28400 24.18800
H  -1.49000 24.05600 25.85800
H  -1.37500 17.53900 22.15500
H  -2.65400 15.07000 22.49700
H  -4.30000 17.99000 22.51100
H  -4.13100 16.42800 21.77200
H  -3.45800 17.77900 20.96400
H  -0.14200 15.59600 21.65200
H  -0.44600 14.24300 22.61600
H  1.07700 16.64500 22.82700
H  1.35500 15.15000 23.85500
H  0.41000 16.49400 24.41800
H  -1.75000 11.50700 25.55300
H  -3.48500 11.33500 25.97400
H  -2.18700 10.67500 27.07200
H  -3.78800 13.41100 31.21400
H  -1.17700 11.74400 34.33900
H  -0.57000 13.44600 34.32500
H  -0.01000 12.24700 33.14100
Mg 0.08500 7.22200 26.96700
C  0.85700 9.43100 29.45400
C  -0.05400 4.61500 29.32500
C  -0.50200 5.03700 24.50200
C  0.20200 9.87400 24.70400
N  0.65400 7.07000 29.07500
C  0.81800 8.12300 29.96600
C  0.86400 7.67500 31.44200
C  0.79800 6.10100 31.29400
C  0.36000 5.92500 29.79100
C  2.15300 5.34800 31.41500
C  -0.31000 8.12200 32.32500
C  -0.02700 8.30700 33.84200
H  -0.71100 7.49300 35.02000
N  -0.21200 5.08100 26.86300
C  -0.24300 4.19300 27.93700
C  -0.52500 2.90300 27.48700
C  -0.60500 2.94700 26.01000
C  -0.42100 4.40200 25.72600
C  -0.73800 1.79300 28.43400
C  -0.84700 1.85000 25.00300
O  -0.76200 2.00500 23.82700
C  -0.89700 0.50500 25.55800
N  0.11100 7.40500 24.88800
C  -0.29100 6.34700 24.07500
C  -0.59400 6.81800 22.61900
C  -0.55900 8.32500 22.75600
C  -0.04200 8.58400 24.16500
C  0.45500 6.30000 21.66600
C  -1.89600 9.11000 22.49000
C  -1.73200 10.11400 21.39200
N  0.57600 9.20300 27.02300
C  0.65500 10.18600 25.98700
C  0.96300 11.40400 26.53100
C  1.10000 11.15300 27.87400
C  0.86300 9.83100 28.10400
C  1.15700 12.67500 25.74000
C  1.38600 11.74900 29.18800
O  1.67700 12.92600 29.48800
C  1.04500 10.73900 30.22400
C  2.22400 10.60100 31.08800
O  3.37500 10.28600 30.72900
O  1.93900 11.01800 32.34100
C  2.95300 11.28200 33.37100
H  -0.05800 3.92400 30.17000
H  -0.76500 4.40200 23.65400
H  -0.06000 10.66100 23.99300
H  1.81700 7.76700 31.96400
H  0.10400 5.57100 31.94700
H  2.09700 4.98300 32.44000
H  2.96000 6.01600 31.11300
H  2.17400 4.54800 30.67500
H  -1.07900 7.34900 32.30100
H  -0.80800 8.99300 31.90000
H  -0.03700 9.38900 33.97600
H  1.01300 8.07900 34.07500
H  -1.78100 1.53800 28.62000
H  -0.12000 1.93700 29.32100
H  -0.19900 0.98000 27.94600
H  -1.87000 0.22200 25.96100
H  0.01500 0.41700 26.14900
H  -0.72700 -0.13200 24.69000
H  -1.56900 6.54300 22.21800
H  0.27300 8.55200 22.09000
H  0.75100 7.05600 20.94000
H  0.03100 5.43200 21.16100
H  1.28000 6.12900 22.35800
H  -2.29600 9.57600 23.39000
H  -2.74100 8.48800 22.19700
H  -2.66000 10.10000 20.82100
H  -0.90400 9.83200 20.74100
H  -1.46200 11.10600 21.75300
H  1.94800 12.49000 25.01300
H  1.52700 13.42600 26.43800
H  0.24700 12.88500 25.17700
H  0.17900 11.04600 30.81200
H  3.76200 12.00100 33.24100
H  3.29200 10.28000 33.63400
H  2.50100 11.74500 34.24800

