158

Mg 36.92600 49.36100 25.64700
C  36.77100 47.62400 28.77100
C  35.33000 51.92600 27.20500
C  36.53200 50.79000 22.60000
C  38.00500 46.47000 24.12600
N  36.03700 49.67200 27.70300
C  36.24400 48.91100 28.86400
C  35.98500 49.70200 30.14900
C  35.23700 50.94900 29.57800
C  35.67100 50.91200 28.11300
C  33.71000 50.95800 29.84800
C  37.31700 49.96000 30.99800
C  37.34500 49.40200 32.40200
H  36.05900 49.19500 33.15000
N  36.04500 51.11500 24.99900
C  35.45800 51.99800 25.78600
C  34.92500 53.05500 24.96900
C  35.26700 52.78100 23.59700
C  36.03300 51.52800 23.68600
C  34.21100 54.22500 25.50200
C  34.95400 53.60400 22.37800
O  35.37900 53.32200 21.26300
C  34.22000 54.90000 22.44600
N  37.52600 48.91500 23.71500
C  37.18500 49.61700 22.62200
C  37.31200 48.73500 21.28900
C  38.21400 47.62100 21.81600
C  37.83600 47.64100 23.29100
C  36.00200 48.29100 20.56100
C  39.70100 47.73000 21.45900
C  40.42000 48.97700 21.96900
N  37.37200 47.46100 26.26900
C  37.82100 46.39700 25.49100
C  38.02800 45.28400 26.38700
C  37.74600 45.72300 27.63200
C  37.27400 47.05400 27.56200
C  38.54200 43.92100 26.00300
C  37.68100 45.32700 28.97600
O  37.95500 44.26200 29.49100
C  37.25900 46.55600 29.74900
C  36.04700 46.14800 30.62900
O  34.89400 46.49400 30.39000
O  36.37300 45.33700 31.68500
C  35.30800 44.85400 32.52800
H  34.96100 52.82200 27.70700
H  36.20900 51.16500 21.62700
H  38.23800 45.46700 23.76300
H  35.27600 49.04000 30.64600
H  35.61700 51.79900 30.14400
H  33.53100 51.93600 30.29600
H  33.38200 50.10300 30.43900
H  33.11500 50.87000 28.93900
H  37.69100 50.96400 30.79800
H  38.04200 49.41700 30.39200
H  38.05800 50.02300 32.94500
H  37.84800 48.43500 32.38600
H  34.90900 55.06100 25.51600
H  33.85400 54.04500 26.51600
H  33.27400 54.42500 24.98300
H  34.17700 55.39800 21.47700
H  34.70800 55.56200 23.16100
H  33.18800 54.81000 22.78800
H  37.91000 49.31800 20.58900
H  37.84100 46.63100 21.55400
H  35.72400 47.27100 20.29500
H  35.96000 48.76800 19.58200
H  35.17100 48.77200 21.07600
H  39.85200 47.57900 20.39000
H  40.21100 46.88000 21.91100
H  39.68800 49.78500 22.00900
H  41.18300 49.18400 21.21900
H  40.85300 48.69100 22.92800
H  39.35900 43.70500 26.69100
H  38.97500 43.96500 25.00300
H  37.69200 43.23900 25.98700
H  38.07100 46.72100 30.45700
H  34.47900 45.55400 32.42300
H  35.72100 45.17800 33.48300
H  34.91200 43.84200 32.43600
Mg 6.23600 53.43700 40.79100
C  5.45100 49.90300 40.62500
C  9.46400 52.63500 40.04600
C  6.81800 56.70000 40.63300
C  2.82000 53.91700 41.39500
N  7.25700 51.42700 40.09600
C  6.77700 50.13900 40.28100
C  7.91800 49.16300 40.34900
C  9.25700 50.05900 40.47600
C  8.63900 51.44500 40.15700
C  10.04300 49.94900 41.80600
C  8.14500 48.20900 39.16400
C  8.06800 48.91400 37.80000
H  6.93600 48.38900 36.91000
N  7.97200 54.57900 40.43900
C  9.20200 54.03500 40.16800
C  10.11900 55.12900 39.93600
C  9.34600 56.31000 40.01200
C  7.99800 55.92800 40.38800
C  11.56200 54.80000 39.81600
C  9.96000 57.66200 39.83900
O  11.20000 57.73000 39.70300
C  9.14900 59.01900 39.90300
N  4.98700 55.00600 40.85600
C  5.46900 56.29500 40.89800
C  4.36600 57.32800 41.25800
C  3.04000 56.47400 41.13500
C  3.59800 55.02000 41.05200
C  4.58700 57.97900 42.66900
C  2.11900 56.87800 39.98700
C  1.87900 56.07600 38.68100
N  4.43900 52.19200 41.02900
C  3.15100 52.57800 41.31200
C  2.31900 51.42500 41.43800
C  3.18900 50.29200 41.24700
C  4.42500 50.89400 40.93600
C  0.87600 51.45900 41.90600
C  3.28100 48.82700 41.18400
O  2.47600 47.93800 41.27800
C  4.73600 48.64300 40.73900
C  4.74200 47.71600 39.50500
O  4.31800 48.04200 38.36500
O  5.01200 46.45000 39.92500
C  4.59400 45.36500 39.03500
H  10.53600 52.45800 39.94400
H  6.92900 57.78200 40.53500
H  1.74800 54.09900 41.49700
H  7.82000 48.53300 41.23300
H  9.93900 49.99800 39.62800
H  11.08000 49.77100 41.51900
H  9.70200 49.11200 42.41600
H  9.99300 50.95000 42.23500
H  7.42200 47.41100 39.33200
H  9.09700 47.68000 39.12100
H  9.03600 48.71100 37.34200
H  7.91500 49.98400 37.94000
H  12.25900 55.61600 39.62700
H  11.73500 54.28300 38.87200
H  11.99300 54.22000 40.63200
H  9.82100 59.82800 39.61500
H  8.79900 59.09000 40.93300
H  8.20800 58.99400 39.35400
H  4.35500 58.06000 40.45000
H  2.43800 56.54200 42.04100
H  4.93800 58.99000 42.46200
H  5.35000 57.45300 43.24300
H  3.76700 57.92400 43.38500
H  2.46500 57.83100 39.58400
H  1.09900 57.06700 40.32100
H  0.88700 55.63600 38.78400
H  2.61900 55.28700 38.54300
H  2.11900 56.73600 37.84700
H  0.27000 50.55800 41.80700
H  0.33200 52.28000 41.44000
H  0.78100 51.49400 42.99100
H  5.34000 48.13100 41.48700
H  5.35600 44.58700 39.07700
H  4.41200 45.63400 37.99400
H  3.59900 45.06300 39.36000

