158

Mg 35.54300 3.17700 30.23300
C  32.90900 4.38200 32.33500
C  37.60800 3.46800 32.93800
C  38.07300 2.30900 28.22000
C  33.30900 3.01000 27.52300
N  35.27400 3.90400 32.40400
C  34.13900 4.27000 33.08300
C  34.36900 4.29500 34.60600
C  35.92900 4.40700 34.70200
C  36.30300 3.88500 33.28300
C  36.50600 5.83400 34.90200
C  33.73400 3.12400 35.35400
C  33.22700 3.45000 36.77900
H  33.82700 4.58700 37.55500
N  37.60300 2.89500 30.55200
C  38.25800 2.96200 31.75500
C  39.64600 2.49900 31.60400
C  39.86500 2.16800 30.22900
C  38.50500 2.49400 29.59000
C  40.73300 2.56200 32.69800
C  41.11600 1.62000 29.55800
O  41.22100 1.42600 28.35700
C  42.35000 1.33100 30.37500
N  35.74900 3.09300 28.09300
C  36.84300 2.54200 27.57100
C  36.58000 2.04800 26.11600
C  35.05800 2.05700 26.07500
C  34.68100 2.80600 27.25700
C  37.35300 3.04900 25.14300
C  34.41400 0.66200 25.90800
C  33.98300 0.31600 24.47200
N  33.59600 3.61100 29.92400
C  32.75200 3.46100 28.76800
C  31.50100 4.00800 29.01700
C  31.46600 4.27400 30.40100
C  32.74900 4.06200 30.94500
C  30.34800 3.96100 28.03100
C  30.61400 4.74100 31.56600
O  29.43900 5.07000 31.62000
C  31.52100 4.61600 32.81600
C  31.42700 5.77800 33.73800
O  32.09400 6.79400 33.70500
O  30.42700 5.53100 34.65800
C  30.38000 6.46300 35.83700
H  38.27500 3.47100 33.80300
H  38.74700 1.68300 27.63100
H  32.50200 2.91700 26.79300
H  33.80400 5.14100 34.99800
H  36.24200 3.81900 35.56500
H  37.08100 6.09800 34.01500
H  37.15800 5.89300 35.77400
H  35.72300 6.58300 35.01900
H  34.39100 2.27400 35.53300
H  32.90500 2.91800 34.67700
H  33.37700 2.63000 37.48100
H  32.14100 3.54600 36.74200
H  41.12800 1.57900 32.95200
H  40.35800 2.95100 33.64500
H  41.53800 3.27600 32.51800
H  43.14500 0.95800 29.73000
H  42.04900 0.52300 31.04200
H  42.78200 2.13800 30.96700
H  36.99200 1.04600 25.99200
H  34.80400 2.75100 25.27400
H  38.12900 3.56300 25.71000
H  36.78200 3.89000 24.75100
H  37.93700 2.48000 24.42000
H  33.54700 0.47900 26.54300
H  35.11200 -0.15000 26.11100
H  34.07400 1.19600 23.83500
H  32.92400 0.06000 24.44300
H  34.56100 -0.49900 24.03700
H  30.18200 2.96700 27.61500
H  30.64700 4.69400 27.28100
H  29.46100 4.21700 28.61000
H  31.17700 3.74400 33.37300
H  29.74600 7.32100 35.61300
H  31.38500 6.71800 36.17200
H  29.93700 5.96400 36.69900
Mg 47.98900 16.45900 28.69200
C  45.74600 15.90600 31.34400
C  50.26900 17.77000 30.85300
C  49.95000 16.99800 26.06400
C  45.48400 15.16500 26.44100
N  47.92400 16.88500 30.78400
C  47.02000 16.40800 31.74400
C  47.41500 16.86700 33.14900
C  48.74700 17.75200 32.94100
C  49.05600 17.42300 31.46300
C  48.64900 19.30200 33.16200
C  47.61800 15.68600 34.18400
C  47.30500 15.74500 35.61200
H  47.24200 17.08000 36.31300
N  49.83200 17.37300 28.49000
C  50.69500 17.76600 29.53000
C  51.98100 18.08400 28.91000
C  51.88800 17.87600 27.49400
C  50.50900 17.48000 27.27000
C  53.09500 18.54700 29.75600
C  52.94600 18.16700 26.34900
O  52.65900 18.12400 25.17300
C  54.25000 18.50700 26.72400
N  47.75900 16.16300 26.56300
C  48.73900 16.46700 25.65600
C  48.33600 16.27800 24.24900
C  46.97500 15.46300 24.37800
C  46.70400 15.62400 25.87700
C  48.22800 17.55800 23.40000
C  47.13300 13.89100 24.01700
C  45.97800 13.43900 23.07900
N  45.99600 15.81000 28.78800
C  45.11300 15.31900 27.83800
C  43.83900 14.93700 28.44800
C  44.03300 15.11700 29.82700
C  45.36400 15.65300 29.98800
C  42.71800 14.25500 27.78200
C  43.46200 14.95200 31.17300
O  42.33200 14.58300 31.55700
C  44.53400 15.52000 32.16600
C  43.95900 16.73900 32.82100
O  43.63700 17.75800 32.22900
O  43.83900 16.53100 34.18300
C  43.33100 17.69900 34.93900
H  51.00400 17.95100 31.64000
H  50.70900 16.98300 25.27900
H  44.83500 14.59000 25.77800
H  46.67200 17.53000 33.59200
H  49.51900 17.41000 33.63200
H  47.59500 19.51400 33.34200
H  49.01200 19.76800 32.24600
H  49.29800 19.69100 33.94600
H  48.66500 15.49100 33.95200
H  47.19500 14.79100 33.72600
H  48.02400 15.08000 36.09000
H  46.33300 15.28500 35.78500
H  53.65600 19.28100 29.17800
H  53.73100 17.81200 30.25000
H  52.71800 19.20700 30.53700
H  54.61400 17.76800 27.43800
H  54.34600 19.53800 27.06400
H  54.93900 18.33200 25.89700
H  49.17200 15.66300 23.91700
H  46.20500 15.92800 23.76300
H  47.66100 17.34500 22.49300
H  49.23500 17.81000 23.06900
H  47.75400 18.35800 23.96900
H  46.95800 13.31400 24.92500
H  48.13300 13.64500 23.66100
H  46.39800 13.46000 22.07300
H  45.13300 14.12400 23.02100
H  45.70800 12.39400 23.23200
H  43.07800 13.35800 27.27900
H  42.10000 14.87300 27.13000
H  42.04100 13.83500 28.52600
H  44.73400 14.77600 32.93700
H  43.86300 17.67800 35.89000
H  42.25800 17.56200 35.07200
H  43.43900 18.60700 34.34600

