158

Mg 41.85800 41.52500 26.04800
C  41.58800 43.85100 28.67000
C  42.67900 39.14800 28.26700
C  43.09500 39.72800 23.41400
C  41.33800 44.26600 23.86600
N  42.12300 41.52100 28.27300
C  41.76600 42.53600 29.14800
C  41.71900 41.99600 30.55600
C  42.04100 40.43500 30.38900
C  42.28900 40.37500 28.86100
C  43.26500 39.94400 31.28500
C  40.29500 42.26100 31.21000
C  40.09500 41.73200 32.60800
H  39.73800 42.91600 33.56700
N  42.61300 39.54900 25.82400
C  42.88700 38.73700 26.86200
C  43.42300 37.50900 26.36700
C  43.53200 37.65900 24.94900
C  43.09300 39.03800 24.61600
C  43.80500 36.34000 27.27900
C  44.15100 36.73900 23.90400
O  44.14500 37.02400 22.73900
C  44.80100 35.46500 24.42900
N  42.17600 41.95300 23.89900
C  42.55900 40.99200 23.07300
C  42.18400 41.46500 21.55500
C  41.34300 42.78900 21.79000
C  41.57800 42.99600 23.28200
C  43.47600 41.67200 20.71400
C  39.85500 42.49500 21.43200
C  39.02000 41.42500 22.25600
N  41.41700 43.53400 26.19300
C  41.21100 44.55300 25.24100
C  40.80600 45.75000 25.81100
C  41.01500 45.56000 27.15200
C  41.44300 44.22200 27.32300
C  40.34400 47.02600 25.08600
C  40.83600 46.19200 28.42900
O  40.39800 47.27100 28.79400
C  41.17400 45.09800 29.48300
C  42.16300 45.59000 30.59500
O  43.36700 45.78100 30.41400
O  41.54700 45.75500 31.81600
C  42.39200 45.96200 32.96200
H  42.86200 38.30000 28.93100
H  43.49600 39.19800 22.54800
H  41.03700 44.97100 23.08800
H  42.41800 42.56500 31.17000
H  41.18400 39.84900 30.72000
H  43.14900 38.93000 31.66500
H  43.41800 40.65600 32.09600
H  44.09700 40.01800 30.58400
H  39.51800 41.95800 30.50700
H  40.12800 43.33300 31.31500
H  41.06500 41.40800 32.98700
H  39.31400 40.99400 32.79200
H  43.41900 36.43400 28.29400
H  44.89300 36.29100 27.31400
H  43.45600 35.34000 27.02300
H  44.01000 34.80500 24.78400
H  45.36300 35.64800 25.34500
H  45.43000 35.07700 23.62800
H  41.47700 40.78800 21.07600
H  41.62900 43.65100 21.18800
H  43.35200 41.39300 19.66800
H  44.31400 41.11600 21.13500
H  43.80500 42.70000 20.86600
H  39.77900 42.16800 20.39500
H  39.50900 43.52600 21.50700
H  38.13000 41.93700 22.62100
H  39.61800 40.99100 23.05700
H  38.67000 40.62800 21.60000
H  41.12200 47.71400 24.75700
H  39.74500 47.58200 25.80800
H  39.81500 46.71300 24.18600
H  40.15900 44.97700 29.86100
H  42.34500 45.02700 33.51900
H  42.00900 46.73500 33.62900
H  43.38100 46.29600 32.64900
Mg -11.61800 17.24300 42.23400
C  -8.12800 17.25300 42.58200
C  -11.57600 20.56800 41.56600
C  -14.90300 16.92800 41.48000
C  -11.42800 13.62500 42.29500
N  -10.04600 18.70100 42.17000
C  -8.69000 18.51200 42.26700
C  -7.92500 19.82900 42.02700
C  -9.11000 20.87000 42.24800
C  -10.32100 20.01600 41.94500
C  -9.08900 21.56300 43.65100
C  -7.35000 19.93200 40.62400
C  -5.81800 20.09100 40.60700
H  -5.01900 19.10500 39.85100
N  -13.09100 18.60100 41.67000
C  -12.84700 19.94800 41.47200
C  -14.08700 20.54300 41.17400
C  -15.13400 19.57000 41.14600
C  -14.41500 18.27200 41.39300
C  -14.19800 21.97500 40.86600
C  -16.61400 19.87100 40.95600
O  -16.99300 21.03800 40.83000
C  -17.65300 18.68000 40.83100
N  -12.93700 15.40200 41.55800
C  -14.23700 15.68600 41.61800
C  -15.09200 14.41900 41.88600
C  -13.96900 13.27900 41.98500
C  -12.72700 14.14100 42.05200
C  -16.05900 14.44700 43.09400
C  -13.91300 12.24800 40.80600
C  -14.13900 10.77000 41.24100
N  -10.10800 15.73000 42.38800
C  -10.20200 14.29500 42.43400
C  -8.84200 13.79100 42.63000
C  -8.05300 14.93200 42.78400
C  -8.84900 16.04200 42.60400
C  -8.34900 12.38300 42.64100
C  -6.66900 15.37800 43.14400
O  -5.68900 14.72300 43.38500
C  -6.69000 16.90900 43.06700
C  -6.39500 17.50100 44.38200
O  -6.89600 17.20000 45.46100
O  -5.44000 18.48600 44.21600
C  -5.30900 19.54900 45.20100
H  -11.51100 21.65700 41.51500
H  -15.96400 16.77200 41.27100
H  -11.31100 12.54200 42.37300
H  -7.11800 19.91700 42.75300
H  -9.15300 21.65500 41.49300
H  -8.24900 21.33900 44.30800
H  -9.92800 21.02000 44.08700
H  -9.19200 22.64700 43.69800
H  -7.80300 20.70500 40.00400
H  -7.55800 18.99500 40.10700
H  -5.39600 20.17800 41.60800
H  -5.65100 21.09800 40.22500
H  -14.31700 22.10900 39.79100
H  -13.32300 22.54600 41.17500
H  -15.03500 22.37000 41.44200
H  -18.59900 19.06900 40.45300
H  -17.90700 18.40600 41.85500
H  -17.34400 17.84900 40.19700
H  -15.72600 14.22300 41.02100
H  -13.96200 12.82800 42.97700
H  -16.32900 15.49200 43.24200
H  -15.63800 14.03200 44.00900
H  -16.98600 13.90800 42.89700
H  -12.93100 12.39000 40.35500
H  -14.58300 12.53800 39.99600
H  -13.35500 10.13700 40.82800
H  -15.06900 10.51700 40.73300
H  -14.35500 10.66900 42.30500
H  -8.76800 11.86400 41.78000
H  -8.91100 12.02200 43.50300
H  -7.26500 12.37100 42.75300
H  -5.93300 17.18900 42.33300
H  -5.03600 20.46800 44.68100
H  -4.63400 19.37100 46.03700
H  -6.25600 19.69200 45.72100

