158

Mg 27.13100 50.68500 26.69800
C  24.99500 51.47000 29.51800
C  29.39800 49.76000 29.01500
C  28.97900 49.97500 24.13500
C  24.60300 51.93300 24.60300
N  27.17600 50.52800 29.03600
C  26.18400 50.91900 29.94700
C  26.72400 50.82700 31.39200
C  28.21600 50.34100 31.17300
C  28.27800 50.15100 29.67900
C  29.36900 51.35600 31.60200
C  25.94600 49.80800 32.36300
C  25.64400 50.27700 33.79000
H  25.67000 49.20700 34.89400
N  28.97400 50.02500 26.55900
C  29.73400 49.58800 27.65400
C  31.02600 49.09000 27.15200
C  30.94700 49.14500 25.71500
C  29.61100 49.69300 25.36900
C  32.18000 48.61700 28.06900
C  32.06100 48.87600 24.73900
O  31.85200 49.08300 23.55600
C  33.40100 48.29400 25.18500
N  26.85200 51.00000 24.72300
C  27.81100 50.56900 23.77600
C  27.24800 50.66300 22.31000
C  25.75400 51.23700 22.45700
C  25.67100 51.37600 24.04500
C  28.04500 51.54700 21.42500
C  24.60400 50.38700 21.94600
C  23.89000 50.81700 20.58600
N  25.21400 51.57700 26.98700
C  24.34200 52.06200 25.99900
C  23.16100 52.52400 26.70400
C  23.40900 52.39800 28.05100
C  24.61800 51.77200 28.17400
C  22.00500 53.22700 26.18400
C  22.91000 52.72300 29.42900
O  21.90500 53.22900 29.84700
C  23.94300 52.03900 30.35700
C  24.38900 53.20100 31.03400
O  25.22700 53.96400 30.63500
O  23.89500 53.26500 32.28800
C  24.53400 54.11200 33.27200
H  30.08900 49.28200 29.71300
H  29.48100 49.74200 23.19400
H  23.80400 52.27000 23.93900
H  26.71000 51.83600 31.80500
H  28.38600 49.36200 31.61900
H  28.92400 52.35000 31.55800
H  30.17700 51.50500 30.88600
H  29.70800 51.09300 32.60300
H  26.49800 48.88600 32.54700
H  24.97900 49.54100 31.93700
H  24.63400 50.68600 33.78000
H  26.38800 51.01800 34.08300
H  31.85200 48.51800 29.10400
H  32.96600 49.36000 27.92800
H  32.50100 47.63900 27.71100
H  33.21600 47.27200 25.51700
H  33.73500 48.91900 26.01300
H  34.08700 48.36400 24.34100
H  27.18500 49.66100 21.88500
H  25.71300 52.25300 22.06500
H  28.44300 52.41000 21.96000
H  27.48400 51.85000 20.54100
H  28.84500 50.89900 21.06600
H  23.81900 50.33600 22.70100
H  24.92200 49.34900 21.85600
H  24.15500 50.06900 19.83900
H  24.06600 51.84200 20.25700
H  22.80500 50.83200 20.68700
H  21.58400 52.62600 25.37800
H  22.21800 54.14100 25.63000
H  21.28200 53.40300 26.98100
H  23.39100 51.23900 30.85000
H  24.50800 55.10300 32.81900
H  25.56500 53.76700 33.34500
H  24.10200 54.02000 34.26900
Mg -10.60200 16.00200 42.13500
C  -7.27000 14.92400 41.52200
C  -9.88900 18.77900 40.23400
C  -14.01000 16.53400 41.93600
C  -11.29900 12.83300 43.59500
N  -8.77900 16.64900 40.83100
C  -7.54900 16.13800 40.84700
C  -6.59000 16.98900 40.07100
C  -7.41000 18.28200 39.74900
C  -8.82300 17.87800 40.29300
C  -6.78500 19.56100 40.32000
C  -5.80700 16.36600 38.87700
C  -4.59500 17.19100 38.49200
H  -4.80000 18.00200 37.21800
N  -11.71900 17.53500 41.31200
C  -11.24600 18.69100 40.70600
C  -12.37300 19.59500 40.45500
C  -13.58900 18.94400 40.86700
C  -13.16900 17.62000 41.38300
C  -12.18000 21.04200 39.87400
C  -14.92800 19.55400 40.84000
O  -15.02400 20.69600 40.40800
C  -16.14800 18.68300 41.20500
N  -12.43200 14.79100 42.60000
C  -13.66300 15.33100 42.57000
C  -14.73900 14.46500 43.31200
C  -13.84800 13.25300 43.86700
C  -12.41300 13.67100 43.32800
C  -15.28400 15.29900 44.46700
C  -14.30700 11.85300 43.31400
C  -13.71800 10.61000 43.96300
N  -9.54600 14.26100 42.50000
C  -9.95700 13.08300 43.18100
C  -8.88400 12.10400 43.16000
C  -7.81800 12.78800 42.52200
C  -8.30300 14.09500 42.15800
C  -8.87300 10.70300 43.70700
C  -6.43200 12.69500 42.16000
O  -5.70100 11.71200 42.31300
C  -5.96500 14.07000 41.55300
C  -4.88800 14.72400 42.32900
O  -5.00400 15.08900 43.50600
O  -3.81500 14.87800 41.48100
C  -2.67600 15.66800 41.99000
H  -9.61600 19.70400 39.72200
H  -15.06700 16.76800 42.07500
H  -11.62000 11.95100 44.15300
H  -5.87300 17.39900 40.78200
H  -7.60200 18.43600 38.68700
H  -6.97000 20.24900 39.49500
H  -5.71900 19.55600 40.54500
H  -7.34800 19.99100 41.14800
H  -6.48200 16.16700 38.04500
H  -5.44600 15.34900 39.02900
H  -3.72800 16.53100 38.47000
H  -4.39700 18.00000 39.19500
H  -12.70800 21.70600 40.55800
H  -12.61600 21.23500 38.89300
H  -11.15400 21.37500 39.71800
H  -17.06100 19.25400 41.03700
H  -16.25800 18.35700 42.23900
H  -16.06000 17.81100 40.55700
H  -15.51000 14.05000 42.66300
H  -13.84800 13.21100 44.95600
H  -16.20800 14.80400 44.76400
H  -15.58200 16.31300 44.19900
H  -14.66700 15.38100 45.36100
H  -14.22600 11.78800 42.22900
H  -15.38700 11.76800 43.44000
H  -13.11800 9.99300 43.29500
H  -14.58900 10.03900 44.28500
H  -13.17900 10.91500 44.86000
H  -8.93100 9.94800 42.92300
H  -9.68400 10.41300 44.37500
H  -7.94400 10.54300 44.25600
H  -5.48900 13.79900 40.61000
H  -2.56300 15.78600 43.06800
H  -2.85300 16.61300 41.47700
H  -1.75800 15.29500 41.53500

