158

Mg -0.01500 7.84800 26.46900
C  0.84000 9.84400 29.39900
C  -0.28900 5.15800 28.59200
C  -0.42100 6.11900 23.78900
C  0.42400 10.74800 24.63100
N  0.48900 7.51400 28.72900
C  0.59200 8.49000 29.75900
C  0.44500 7.83900 31.11300
C  0.20600 6.32600 30.73100
C  0.13500 6.32400 29.24700
C  1.33500 5.39100 31.33300
C  -0.71300 8.39200 31.94300
C  -0.39800 8.74000 33.40300
H  0.83500 8.11900 33.99200
N  -0.28000 5.91400 26.22800
C  -0.41800 4.93500 27.18800
C  -0.83600 3.67300 26.58400
C  -0.81000 3.92600 25.18400
C  -0.55400 5.39000 25.01400
C  -1.23600 2.45600 27.38600
C  -1.04500 3.00100 24.01100
O  -1.02600 3.30600 22.82200
C  -1.29400 1.50300 24.21200
N  0.02500 8.26800 24.51300
C  -0.14700 7.37100 23.49800
C  0.05100 8.05300 22.14000
C  -0.26600 9.56800 22.44600
C  0.00500 9.53500 23.99700
C  1.36300 7.91300 21.36100
C  -1.71500 9.95500 22.30400
C  -2.10600 10.60600 20.99800
N  0.55100 9.90700 26.79400
C  0.76400 10.93200 25.97300
C  1.21700 12.15800 26.67700
C  1.13700 11.73900 28.02300
C  0.81600 10.36700 28.02000
C  1.54400 13.46800 26.02400
C  1.34900 12.19400 29.30400
O  1.68300 13.31700 29.64900
C  1.16000 10.97700 30.28600
C  2.33500 10.95000 31.13800
O  3.31500 10.28100 30.81100
O  2.20300 11.73900 32.24700
C  3.28000 11.82200 33.29800
H  -0.63300 4.27500 29.13400
H  -0.41400 5.56000 22.85000
H  0.61300 11.53500 23.89900
H  1.43300 7.85700 31.57300
H  -0.73100 5.91500 31.10600
H  0.99200 5.11000 32.32900
H  2.30500 5.87300 31.21200
H  1.48700 4.48300 30.74900
H  -1.58600 7.74500 32.03200
H  -1.01400 9.28600 31.39800
H  -1.27600 8.41100 33.95900
H  -0.28600 9.81300 33.55400
H  -0.90000 1.56400 26.85600
H  -2.31700 2.50200 27.25200
H  -0.87800 2.39200 28.41400
H  -0.53500 0.93800 24.75300
H  -1.54600 1.11300 23.22600
H  -2.20900 1.44700 24.80300
H  -0.72100 7.66800 21.47400
H  0.40700 10.25900 21.94000
H  2.05200 8.74100 21.53000
H  1.19300 7.71400 20.30300
H  1.94200 7.11100 21.81700
H  -1.97200 10.74000 23.01600
H  -2.33800 9.07900 22.48900
H  -1.55200 10.41700 20.07800
H  -2.01600 11.69100 21.06600
H  -3.10300 10.31000 20.67100
H  0.60600 14.02000 25.96000
H  2.06200 13.28900 25.08200
H  2.11800 14.07200 26.72600
H  0.27100 11.21900 30.86900
H  4.16900 11.41700 32.81500
H  3.18800 11.22000 34.20300
H  3.44600 12.86100 33.58100
Mg 30.00500 58.18800 40.42900
C  27.38100 56.17500 39.54200
C  32.24100 55.68300 39.28800
C  32.53000 60.26700 40.59500
C  27.79600 60.83400 40.97900
N  29.86800 56.25800 39.38900
C  28.63500 55.62700 39.26400
C  28.77400 54.27300 38.56300
C  30.31200 53.96300 38.94000
C  30.86700 55.40600 39.15800
C  30.43000 53.12900 40.20500
C  28.49000 54.54700 37.04200
C  27.78300 53.44500 36.18600
H  27.26100 53.97000 34.84900
N  32.11600 58.00500 40.21200
C  32.81900 56.92500 39.73800
C  34.22600 57.16700 39.68800
C  34.29800 58.57900 40.01200
C  32.96200 58.99900 40.29100
C  35.31300 56.16400 39.24300
C  35.53400 59.42600 39.93700
O  36.56200 58.91800 39.52000
C  35.70600 60.94100 40.34800
N  30.11100 60.26400 40.52300
C  31.30900 60.86100 40.83100
C  31.22300 62.28100 41.25300
C  29.59800 62.51400 41.18300
C  29.07600 61.11100 40.81500
C  31.82600 62.63300 42.61700
C  29.15500 63.61800 40.23300
C  27.77700 64.23400 40.49700
N  27.95700 58.53500 40.33400
C  27.18900 59.59800 40.68100
C  25.82900 59.24000 40.53500
C  25.88200 57.85300 40.07600
C  27.23000 57.50500 40.03300
C  24.62700 60.17000 40.62500
C  25.05200 56.73000 39.75600
O  23.82900 56.61600 39.68900
C  26.03100 55.67200 39.31300
C  25.69900 54.38000 40.05500
O  26.18200 54.01200 41.15400
O  24.72700 53.70100 39.35800
C  24.35200 52.40400 39.91000
H  32.94700 54.92200 38.95100
H  33.27200 61.05900 40.72000
H  27.13500 61.68700 41.14800
H  28.19900 53.45900 39.00400
H  30.83900 53.45900 38.12900
H  31.06400 53.49900 41.01200
H  30.82100 52.15400 39.91400
H  29.48300 53.07600 40.74200
H  29.42900 54.79200 36.54500
H  27.99800 55.51900 37.01100
H  27.00800 52.94900 36.77000
H  28.57900 52.75000 35.91900
H  35.21300 55.27400 39.86400
H  36.31100 56.46600 39.56000
H  35.23800 56.00700 38.16700
H  35.34900 61.01700 41.37500
H  35.03900 61.57900 39.76800
H  36.77000 61.17200 40.29400
H  31.76600 62.88400 40.52400
H  29.25600 62.69900 42.20200
H  31.04600 63.02000 43.27300
H  32.56300 63.43100 42.52700
H  32.20000 61.70900 43.05600
H  29.29400 63.33600 39.18900
H  29.80000 64.45600 40.49900
H  27.92400 65.31400 40.49500
H  27.37700 63.88800 41.45000
H  27.11400 63.98600 39.66800
H  24.94200 61.06500 40.08800
H  24.23400 60.33400 41.62800
H  23.84900 59.71100 40.01500
H  25.75900 55.47400 38.27600
H  24.05500 52.37100 40.95900
H  25.05600 51.61500 39.64600
H  23.42800 52.17800 39.37800

