158

Mg 25.19100 1.18700 29.87600
C  27.31000 1.05100 32.64400
C  22.41100 1.04300 31.89600
C  23.08200 0.99200 27.17300
C  27.82800 0.45600 27.83400
N  24.96400 1.21800 32.05900
C  25.93700 1.15600 33.00200
C  25.26000 1.25600 34.36200
C  23.71000 1.00200 34.09000
C  23.68100 1.07400 32.57200
C  23.15600 -0.25900 34.68200
C  25.67400 2.51000 35.15800
C  26.11400 2.22700 36.60500
H  25.49500 3.17000 37.68600
N  23.03700 1.18900 29.55100
C  22.09400 1.12100 30.53600
C  20.75200 1.09300 29.97000
C  20.93300 1.09100 28.56200
C  22.40400 1.05500 28.35900
C  19.46800 1.09400 30.83300
C  19.86600 1.03000 27.54900
O  20.07800 0.87100 26.35300
C  18.38900 0.74600 27.94400
N  25.38400 0.68700 27.86500
C  24.41100 0.85900 26.92600
C  24.95600 1.01000 25.49300
C  26.54300 0.94800 25.79300
C  26.60200 0.71000 27.24800
C  24.40200 -0.04500 24.58600
C  27.27400 2.24400 25.39400
C  26.93400 3.50100 26.15200
N  27.10400 0.72100 30.14500
C  28.03000 0.42400 29.20800
C  29.30800 0.24100 29.81100
C  29.09600 0.50900 31.23800
C  27.74700 0.84100 31.36400
C  30.60500 -0.24800 28.98600
C  29.71600 0.61400 32.53100
O  30.90900 0.38900 32.80800
C  28.62800 1.05500 33.49500
C  28.65000 0.03300 34.49100
O  28.30400 -1.12700 34.37600
O  29.09900 0.51700 35.72000
C  29.04300 -0.41800 36.86100
H  21.65700 0.89200 32.67200
H  22.43600 1.05700 26.29500
H  28.72500 0.55900 27.22000
H  25.74800 0.38300 34.79400
H  23.04500 1.80000 34.42400
H  22.99800 -1.00000 33.89800
H  22.29700 0.01100 35.29700
H  23.81000 -0.81100 35.35700
H  24.90700 3.28300 35.10400
H  26.47700 3.03100 34.63500
H  27.20000 2.31000 36.62900
H  26.03900 1.15100 36.75700
H  19.77900 0.81000 31.83800
H  18.67900 0.41800 30.50200
H  18.99200 2.07200 30.75600
H  18.53000 -0.08700 28.63200
H  17.87400 0.38900 27.05200
H  17.93700 1.64200 28.37100
H  24.68000 2.03200 25.23400
H  26.91500 0.03400 25.32900
H  23.31900 -0.12200 24.67600
H  24.74600 -1.04400 24.85400
H  24.64800 0.09800 23.53300
H  26.91800 2.43700 24.38200
H  28.36000 2.18200 25.32800
H  25.93300 3.43600 26.57900
H  26.88500 4.36500 25.49000
H  27.65400 3.53100 26.97000
H  31.25900 0.61300 28.84300
H  30.34300 -0.65200 28.00800
H  31.15600 -0.99200 29.56200
H  28.82100 1.98300 34.03400
H  29.91500 -0.17800 37.47000
H  28.94300 -1.48500 36.66300
H  28.17200 -0.19200 37.47600
Mg 39.73500 10.23200 30.62300
C  42.25400 11.77700 32.53100
C  38.10200 9.58800 33.48600
C  37.48900 8.78200 28.56200
C  41.95500 10.65300 27.83400
N  40.26600 10.39600 32.77800
C  41.22800 11.25900 33.25400
C  40.93000 11.46400 34.75000
C  39.73200 10.56100 35.09000
C  39.30700 10.23500 33.69200
C  39.84200 9.36100 36.07100
C  40.79000 12.94300 35.20200
C  41.44500 13.36300 36.53000
H  40.56300 14.02000 37.50000
N  38.07000 9.21300 30.99700
C  37.45300 9.14000 32.22100
C  36.30000 8.30500 32.07300
C  36.02400 8.13900 30.65900
C  37.24400 8.71300 30.01100
C  35.42900 7.90500 33.22200
C  34.80200 7.56600 29.91200
O  34.70600 7.62000 28.71300
C  33.80500 6.87400 30.68900
N  39.76100 9.74900 28.49400
C  38.62800 9.20200 27.94700
C  38.73900 9.35700 26.40700
C  40.21200 9.91000 26.14000
C  40.63100 10.22500 27.51200
C  38.44300 8.03100 25.56900
C  40.41800 11.04800 25.06300
C  41.75500 10.98500 24.21500
N  41.64000 11.09600 30.18200
C  42.36700 11.17600 29.03600
C  43.58500 11.83900 29.28800
C  43.61500 12.11600 30.63400
C  42.40100 11.61200 31.12700
C  44.66800 12.29000 28.26000
C  44.37000 12.71100 31.68400
O  45.48100 13.28100 31.61100
C  43.49800 12.53700 32.94400
C  44.20800 11.88300 34.04600
O  44.35600 10.72800 34.39000
O  44.63000 12.98500 34.85600
C  45.17200 12.54400 36.12500
H  37.49800 9.42000 34.38000
H  36.72800 8.38800 27.88400
H  42.62700 10.74300 26.97800
H  41.77800 10.99900 35.25300
H  38.96600 11.19400 35.53800
H  39.35400 9.50400 37.03500
H  40.91400 9.16800 36.07300
H  39.43300 8.48000 35.57600
H  39.77000 13.28500 35.37800
H  41.04800 13.51600 34.31200
H  42.40600 13.87400 36.46200
H  41.72000 12.39100 36.94000
H  35.80800 8.16600 34.21000
H  35.19700 6.84200 33.28800
H  34.52600 8.50700 33.11600
H  33.20700 7.63300 31.19200
H  34.27600 6.16100 31.36600
H  33.13400 6.45600 29.94000
H  38.06100 10.15300 26.09900
H  40.83200 9.08100 25.80000
H  39.34600 7.75700 25.02400
H  37.69600 8.23900 24.80300
H  38.19600 7.23200 26.26800
H  40.19700 11.93000 25.66400
H  39.60400 10.89400 24.35500
H  42.42900 11.77300 24.55100
H  41.51900 10.97100 23.15100
H  42.43500 10.13400 24.27500
H  45.36700 13.02400 28.66000
H  44.09200 12.75100 27.45800
H  45.24300 11.42200 27.93500
H  43.14800 13.49300 33.33200
H  46.04700 11.89400 36.11900
H  44.38300 11.95700 36.59400
H  45.46600 13.36400 36.78100

