158

Mg 8.59600 3.73800 26.84700
C  10.09300 2.03800 29.63100
C  6.69800 5.42700 29.09400
C  6.93500 4.93500 24.31100
C  10.38400 1.63400 24.78400
N  8.40300 3.63800 29.14500
C  9.15300 3.01800 30.05500
C  8.81400 3.57500 31.50600
C  7.58700 4.45700 31.28400
C  7.54800 4.47000 29.70600
C  6.25500 3.97700 31.97800
C  9.89800 4.37400 32.15900
C  9.66400 4.46200 33.68600
H  10.79600 4.58400 34.64700
N  7.21000 5.27300 26.70700
C  6.50200 5.78900 27.74900
C  5.40900 6.60500 27.20100
C  5.59100 6.53000 25.79200
C  6.61800 5.55100 25.51800
C  4.48100 7.39400 28.07000
C  4.88200 7.37700 24.72100
O  5.23100 7.35200 23.54300
C  3.72200 8.27700 25.05500
N  8.68800 3.30100 24.80700
C  7.90400 3.93700 23.92900
C  8.13400 3.46000 22.47700
C  9.31300 2.50800 22.69600
C  9.53600 2.52300 24.16500
C  6.83200 2.90800 21.85600
C  10.53200 2.67700 21.70400
C  11.32500 1.45100 21.20900
N  9.91400 2.13500 27.07600
C  10.65800 1.42900 26.13100
C  11.48400 0.42600 26.78000
C  11.24100 0.64400 28.15700
C  10.29800 1.68300 28.32200
C  12.32200 -0.60900 26.12300
C  11.71800 0.23800 29.40200
O  12.47700 -0.64900 29.80100
C  11.14100 1.26800 30.43800
C  10.58900 0.47100 31.60000
O  9.59200 -0.12900 31.43500
O  11.18100 0.78200 32.82700
C  10.57900 0.19700 34.07600
H  5.98900 5.80200 29.83500
H  6.31300 5.20800 23.45500
H  10.89900 0.99800 24.06100
H  8.53800 2.67700 32.05800
H  7.74900 5.49700 31.56700
H  5.84000 4.61300 32.76000
H  6.44500 3.01100 32.44800
H  5.49800 3.86100 31.20300
H  10.02000 5.26300 31.54000
H  10.87500 3.90800 32.02700
H  8.97800 3.67900 34.00800
H  9.09700 5.38300 33.82500
H  4.45000 8.42700 27.72500
H  4.76800 7.36500 29.12100
H  3.51900 6.95100 27.81400
H  2.98000 7.88400 25.75000
H  3.25300 8.59200 24.12300
H  4.08100 9.24200 25.41200
H  8.42900 4.31600 21.87000
H  8.87300 1.53700 22.46800
H  6.16500 2.62600 22.67100
H  7.02400 1.99700 21.28900
H  6.26700 3.60400 21.23600
H  11.16500 3.37800 22.24700
H  10.30200 3.14100 20.74500
H  11.30900 1.50800 20.12100
H  11.07000 0.48100 21.63500
H  12.37400 1.51400 21.50100
H  13.17600 -0.74300 26.78800
H  12.60900 -0.25000 25.13500
H  11.74500 -1.53300 26.16500
H  11.95100 1.92900 30.74700
H  10.25700 1.05700 34.66200
H  11.22400 -0.29800 34.80200
H  9.70000 -0.41500 33.87400
Mg 17.46100 -1.45700 26.76400
C  16.47200 0.69500 29.48400
C  19.42300 -3.09300 28.96700
C  18.58700 -3.01900 24.25300
C  15.91900 1.01900 24.74100
N  17.87100 -1.19800 28.89800
C  17.38700 -0.29600 29.84700
C  17.93700 -0.48100 31.23700
C  19.01900 -1.49500 30.93400
C  18.80000 -2.01700 29.53200
C  20.49400 -0.97800 31.18800
C  16.73400 -0.96300 32.13800
C  16.79700 -0.69200 33.62900
H  18.18900 -0.35100 34.15600
N  18.62500 -3.01900 26.64000
C  19.33500 -3.62200 27.62900
C  20.08400 -4.74500 27.07000
C  19.72200 -4.83700 25.67100
C  18.88600 -3.62000 25.44200
C  20.93800 -5.76300 27.85400
C  20.11000 -5.88800 24.56300
O  19.84800 -5.90000 23.37600
C  20.94000 -7.05800 25.16600
N  17.29400 -0.99700 24.81600
C  17.92700 -1.82500 23.93600
C  17.82600 -1.25700 22.48700
C  16.90300 -0.05500 22.66500
C  16.68600 0.03900 24.14800
C  19.17100 -0.88900 21.79600
C  15.61900 0.03600 21.78900
C  14.52000 -0.92500 22.27700
N  16.23200 0.31000 27.02900
C  15.69000 1.21100 26.11800
C  14.86900 2.18900 26.73100
C  15.10500 1.96400 28.07000
C  15.99800 0.87900 28.19800
C  13.81400 3.12700 26.10300
C  14.67100 2.41500 29.32300
O  13.82700 3.19100 29.70800
C  15.65400 1.69900 30.38700
C  16.38200 2.72400 31.10900
O  17.43900 3.21900 30.81600
O  15.67200 3.03100 32.16800
C  16.07800 4.26800 32.92000
H  20.06600 -3.54400 29.72600
H  18.71300 -3.59400 23.33300
H  15.64500 1.82600 24.05900
H  18.28500 0.48800 31.59500
H  18.84200 -2.34900 31.58700
H  20.56300 0.06300 31.50300
H  20.98100 -0.88000 30.21700
H  21.15300 -1.61600 31.77700
H  16.47000 -1.99100 31.88700
H  15.79400 -0.44300 31.95100
H  16.65200 -1.63000 34.16300
H  16.07600 0.06200 33.94400
H  21.98000 -5.69500 27.54100
H  20.70000 -6.82700 27.86800
H  20.83900 -5.50200 28.90800
H  20.35100 -7.48500 25.97800
H  21.90700 -6.67500 25.49300
H  21.16000 -7.80600 24.40500
H  17.42700 -2.07100 21.88200
H  17.42400 0.85600 22.37400
H  19.20000 0.17000 21.54100
H  19.23300 -1.34100 20.80600
H  20.08200 -1.12600 22.34600
H  15.90400 -0.32000 20.80000
H  15.19200 1.03900 21.80300
H  13.75700 -0.33100 22.78000
H  14.95700 -1.61700 22.99600
H  14.18900 -1.35100 21.33000
H  14.04800 3.19500 25.04000
H  13.94900 4.14500 26.46900
H  12.78400 2.78000 26.18600
H  14.98200 1.14400 31.04300
H  16.57500 4.98900 32.27100
H  16.63000 3.88700 33.77900
H  15.20400 4.83400 33.24100

