158

Mg 35.94100 48.99600 24.81900
C  36.23300 47.31400 27.95200
C  34.98700 51.81000 26.58900
C  35.33100 50.54600 21.96300
C  37.18600 46.20600 23.31000
N  35.50900 49.40100 27.03000
C  35.73400 48.60700 28.12900
C  35.42000 49.34200 29.41100
C  35.29100 50.75000 28.92700
C  35.23000 50.68900 27.39400
C  34.01000 51.53500 29.52400
C  36.46600 49.03700 30.49400
C  36.54800 49.94000 31.72200
H  35.25900 50.13800 32.56200
N  35.15200 50.91600 24.35300
C  34.86700 51.90800 25.15500
C  34.56300 53.12800 24.44200
C  34.52500 52.74000 23.08400
C  35.01500 51.35600 23.04800
C  34.39200 54.52100 25.06600
C  34.07400 53.55800 21.85100
O  34.03900 53.08100 20.72400
C  33.67700 54.99600 21.86100
N  36.14800 48.42600 22.89400
C  35.78600 49.24700 21.81400
C  36.24300 48.59400 20.49200
C  36.86100 47.23400 20.94600
C  36.74800 47.26300 22.44000
C  35.27000 48.49400 19.35200
C  38.27700 47.00600 20.23400
C  39.47900 47.41300 21.14900
N  36.66200 47.16000 25.44600
C  37.05800 46.12100 24.69800
C  37.47500 44.98600 25.51000
C  37.07100 45.40100 26.77500
C  36.65600 46.74500 26.70800
C  37.88500 43.66300 25.07700
C  36.97300 44.98900 28.15800
O  37.21400 43.93800 28.65800
C  36.45400 46.19200 28.96400
C  35.17400 45.83900 29.63500
O  34.08400 45.66200 29.10400
O  35.35300 45.62000 31.00300
C  34.18100 45.41200 31.86400
H  35.05500 52.77500 27.09600
H  35.42200 51.10300 21.02800
H  37.52100 45.31800 22.77000
H  34.49500 49.00200 29.87700
H  36.11200 51.38700 29.25700
H  34.20400 52.58900 29.72700
H  33.61200 51.01600 30.39600
H  33.18400 51.65400 28.82300
H  37.45100 48.74500 30.13000
H  36.16100 48.12300 31.00300
H  36.92200 50.92200 31.43300
H  37.29900 49.42300 32.31900
H  34.94000 55.32000 24.56700
H  34.65600 54.45300 26.12100
H  33.35200 54.84100 25.01100
H  33.15300 55.25400 22.78100
H  33.19200 55.22800 20.91300
H  34.68200 55.40400 21.75400
H  36.97900 49.29900 20.10700
H  36.16500 46.45800 20.62700
H  34.31500 48.90300 19.68200
H  35.10500 47.45200 19.07900
H  35.64200 48.94300 18.43200
H  38.41200 47.53200 19.28900
H  38.40700 45.94100 20.04000
H  40.26300 48.04600 20.73400
H  39.97600 46.50800 21.49700
H  39.08500 47.96500 22.00200
H  36.97200 43.08300 24.94400
H  38.51300 43.27900 25.88100
H  38.44000 43.73700 24.14200
H  37.13000 46.44900 29.77900
H  34.37900 44.49800 32.42200
H  33.23500 45.19900 31.36600
H  34.04200 46.28600 32.50100
Mg -12.20800 16.22100 42.20000
C  -9.01500 14.93800 41.29200
C  -11.29400 19.13600 40.77800
C  -15.46200 17.19000 42.41000
C  -13.12400 12.92000 42.83100
N  -10.43400 16.82500 40.99100
C  -9.20500 16.20200 40.76100
C  -8.16400 17.10300 40.14000
C  -8.86000 18.49000 40.09600
C  -10.31200 18.13200 40.57600
C  -8.18000 19.57900 41.00700
C  -7.64200 16.49800 38.81200
C  -6.13300 16.56300 38.62900
H  -5.54300 17.44500 37.43900
N  -13.27100 17.90200 41.72300
C  -12.67100 18.98900 41.26900
C  -13.63800 20.07200 41.13100
C  -14.88500 19.50700 41.49400
C  -14.60500 18.16100 41.92800
C  -13.30700 21.42300 40.55600
C  -16.31000 20.16700 41.34400
O  -16.45700 21.36400 41.03700
C  -17.55600 19.38000 41.68200
N  -14.05600 15.25500 42.47200
C  -15.25100 15.81100 42.62800
C  -16.34900 14.85200 43.24800
C  -15.62600 13.44300 43.06400
C  -14.11100 13.90800 42.84000
C  -16.57800 15.16600 44.82400
C  -16.06300 12.78200 41.74300
C  -17.03300 11.59000 41.76200
N  -11.22100 14.34200 42.35600
C  -11.74500 13.09900 42.61000
C  -10.73000 12.06300 42.60900
C  -9.61500 12.78500 42.15700
C  -9.97000 14.13500 42.00100
C  -10.95200 10.61600 42.84200
C  -8.23500 12.65400 41.77100
O  -7.49700 11.69200 41.78900
C  -7.74100 14.05400 41.24500
C  -6.58900 14.55000 42.01400
O  -6.64200 15.03000 43.15300
O  -5.41400 14.47900 41.31800
C  -4.23400 14.99000 42.03900
H  -10.93300 20.04600 40.29300
H  -16.48300 17.44900 42.70000
H  -13.38700 11.89300 43.09400
H  -7.37000 17.06400 40.88600
H  -9.08900 18.90300 39.11400
H  -7.16700 19.36400 41.34700
H  -8.90600 19.64400 41.81800
H  -8.03900 20.45000 40.36700
H  -8.00500 17.07400 37.96100
H  -7.95800 15.45500 38.77300
H  -5.92400 15.56200 38.25200
H  -5.63900 16.76700 39.57800
H  -13.22200 21.33700 39.47300
H  -12.34300 21.86100 40.81400
H  -14.10800 22.11300 40.81900
H  -18.36900 20.09200 41.54200
H  -17.42600 19.24400 42.75600
H  -17.65700 18.42200 41.17100
H  -17.26000 14.94200 42.65800
H  -15.79500 12.88800 43.98700
H  -15.78200 15.73200 45.30700
H  -16.87500 14.25800 45.35100
H  -17.48100 15.77700 44.81600
H  -15.21100 12.41100 41.17300
H  -16.56400 13.54100 41.14300
H  -17.84800 11.81700 41.07500
H  -17.44700 11.45800 42.76200
H  -16.43900 10.75900 41.38100
H  -11.59600 10.46600 43.70900
H  -10.07700 9.99600 43.03800
H  -11.47500 10.21600 41.97400
H  -7.43700 13.86300 40.21600
H  -3.37500 14.71200 41.42800
H  -4.14800 14.47900 42.99800
H  -4.13600 16.07300 42.10300

