158

Mg 47.77400 25.76300 28.06700
C  48.53800 28.07200 30.65600
C  46.29800 23.69800 30.54600
C  47.20400 23.50300 25.63200
C  49.33500 27.87000 25.77200
N  47.52500 25.94000 30.33300
C  47.79600 26.97400 31.11500
C  47.37100 26.69900 32.49200
C  46.66300 25.27800 32.52300
C  46.82300 24.94100 31.04300
C  47.30300 24.23600 33.48300
C  46.42400 27.81800 33.02100
C  45.71200 27.45400 34.34200
H  45.53300 28.46000 35.45500
N  46.84400 23.92700 28.07800
C  46.29900 23.24800 29.16600
C  45.84500 21.89800 28.71000
C  46.09500 21.89400 27.31200
C  46.78100 23.18300 26.93900
C  45.26200 20.84200 29.62100
C  45.84700 20.71900 26.24700
O  46.22800 20.78900 25.06800
C  44.96000 19.58800 26.59000
N  48.16900 25.70200 25.95100
C  47.80100 24.63100 25.22400
C  48.10800 24.92800 23.71400
C  48.67600 26.41100 23.74100
C  48.84400 26.68300 25.24900
C  49.18200 23.85800 23.20800
C  47.65800 27.41300 23.08300
C  48.03900 27.56900 21.52900
N  48.72600 27.51100 28.16900
C  49.32100 28.27300 27.13000
C  49.88900 29.53000 27.69900
C  49.59800 29.45900 29.09200
C  48.95600 28.21200 29.27500
C  50.71400 30.49000 26.93900
C  49.81300 30.13400 30.31900
O  50.49200 31.11100 30.57700
C  49.05800 29.27600 31.41900
C  49.87300 28.96000 32.63200
O  50.75500 28.10200 32.67400
O  49.42900 29.73200 33.74500
C  50.13500 29.41000 34.93000
H  45.84300 22.98600 31.23700
H  47.03700 22.79600 24.81700
H  49.67600 28.65200 25.09000
H  48.30000 26.80700 33.05200
H  45.59000 25.41300 32.66400
H  48.13300 24.58700 34.09700
H  47.64400 23.46000 32.79800
H  46.50500 23.76700 34.05800
H  45.72900 28.18900 32.26800
H  47.04100 28.66900 33.30900
H  46.19800 26.53900 34.67900
H  44.70300 27.16300 34.05100
H  45.27600 19.81300 29.26200
H  44.17800 20.93300 29.70200
H  45.65300 20.84400 30.63900
H  45.56900 18.84100 27.09900
H  44.62700 19.10400 25.67200
H  44.19700 20.02900 27.23300
H  47.20900 24.75700 23.12300
H  49.72900 26.47500 23.46700
H  50.16800 24.24000 22.94500
H  48.75600 23.34200 22.34800
H  49.36000 23.13700 24.00600
H  47.73900 28.35400 23.62700
H  46.64500 27.03300 23.21800
H  47.40300 26.94300 20.90300
H  49.03600 27.20000 21.28900
H  48.03700 28.58600 21.13500
H  51.61900 29.92400 26.71400
H  50.94100 31.22000 27.71600
H  50.40700 30.78600 25.93600
H  48.15800 29.77300 31.77900
H  51.12200 29.82700 34.72600
H  50.34400 28.38500 35.23400
H  49.79000 30.00000 35.77900
Mg 27.51000 50.77200 25.74400
C  25.34200 51.72100 28.44400
C  29.84700 49.83300 28.15200
C  29.60600 50.05700 23.34400
C  25.32700 52.32700 23.55800
N  27.55100 50.70000 28.03400
C  26.56400 51.13700 28.88200
C  26.85100 50.81400 30.35500
C  28.38700 50.32200 30.28200
C  28.67600 50.36400 28.74500
C  29.49800 51.17800 31.03600
C  25.82000 49.78400 30.85400
C  24.90300 50.10900 32.00400
H  24.72200 49.18800 33.25100
N  29.48200 49.98200 25.80100
C  30.26100 49.65200 26.84500
C  31.46600 48.93700 26.36600
C  31.44900 49.08300 24.94300
C  30.13600 49.71600 24.62300
C  32.39500 48.13400 27.19200
C  32.54200 48.78900 23.93500
O  32.39900 49.06200 22.70500
C  33.87100 48.27300 24.37000
N  27.50900 51.28100 23.76100
C  28.44100 50.74100 22.89300
C  28.03600 50.87200 21.40800
C  26.58000 51.33100 21.52900
C  26.45300 51.67500 23.05500
C  28.93200 51.96000 20.80800
C  25.55300 50.33400 21.04400
C  24.23000 50.83600 20.42100
N  25.84000 52.02000 25.97400
C  25.05700 52.51300 24.99400
C  23.98900 53.20500 25.49600
C  23.90300 52.91200 26.85800
C  25.11300 52.16300 27.10600
C  23.03600 53.98200 24.75200
C  23.25700 53.05500 28.17700
O  22.22300 53.60700 28.51500
C  24.15900 52.32300 29.24600
C  24.66900 53.25100 30.26900
O  25.70200 53.95400 30.24700
O  23.68000 53.25300 31.25700
C  23.83900 54.12400 32.43000
H  30.46100 49.29000 28.87400
H  30.13000 49.61100 22.49600
H  24.51500 52.61600 22.88700
H  26.81100 51.75100 30.91000
H  28.51700 49.27400 30.55300
H  30.27400 51.56700 30.37800
H  29.93600 50.54400 31.80700
H  29.01200 51.97200 31.60300
H  26.39900 48.91100 31.15400
H  25.25800 49.45000 29.98200
H  23.89800 50.31200 31.63400
H  25.24000 51.09300 32.33100
H  32.28800 47.05900 27.04600
H  32.25900 48.26500 28.26600
H  33.44000 48.41300 27.05800
H  34.63500 48.95800 24.73800
H  34.26100 47.80500 23.46600
H  33.64400 47.37700 24.94700
H  28.14600 49.89300 20.94200
H  26.37600 52.27500 21.02500
H  28.27600 52.76800 20.48400
H  29.38500 51.58900 19.88900
H  29.76200 52.21800 21.46500
H  25.30600 49.65600 21.86000
H  26.04700 49.75800 20.26000
H  24.19500 50.66300 19.34500
H  24.00000 51.82700 20.81100
H  23.42900 50.19400 20.78800
H  22.36900 53.32200 24.19700
H  23.59500 54.54400 24.00400
H  22.47000 54.56800 25.47600
H  23.45600 51.63000 29.70900
H  23.08800 53.78900 33.14600
H  23.87600 55.20900 32.33600
H  24.76300 53.75000 32.87100

