158

Mg 25.84900 0.86500 30.45200
C  28.08900 0.66600 33.04300
C  23.36300 1.24100 32.76200
C  23.67400 0.73100 27.87700
C  28.39800 -0.38800 28.33500
N  25.78000 0.90700 32.72500
C  26.83100 1.02900 33.51500
C  26.43100 1.31900 34.90500
C  24.84400 1.36000 34.84600
C  24.60800 1.17700 33.37600
C  24.03600 0.25300 35.79000
C  27.10000 2.60100 35.40100
C  27.90000 2.65000 36.70100
H  27.42400 3.65100 37.78000
N  23.75400 1.13700 30.35600
C  22.94100 1.23000 31.41000
C  21.57700 1.19300 30.91600
C  21.62000 1.17200 29.47900
C  23.06000 0.95800 29.20200
C  20.40400 1.39100 31.80300
C  20.56900 1.19600 28.43200
O  20.82300 1.31700 27.20300
C  19.19300 1.28800 28.84100
N  26.04400 0.21500 28.44700
C  24.99100 0.42300 27.56100
C  25.49900 0.33100 26.09500
C  26.97700 -0.00800 26.24600
C  27.15000 -0.09200 27.75600
C  24.72500 -0.53400 25.02700
C  28.01200 0.95500 25.58300
C  29.26200 0.37900 24.98000
N  27.78900 0.21300 30.57700
C  28.72700 -0.19000 29.67500
C  30.00400 -0.43800 30.31400
C  29.81300 -0.11700 31.65400
C  28.47500 0.29200 31.73200
C  31.22800 -0.97000 29.65100
C  30.44200 0.00400 32.95100
O  31.55600 -0.19900 33.33300
C  29.33300 0.51800 33.91300
C  29.24100 -0.51700 35.02900
O  28.66000 -1.60600 34.95100
O  29.89500 -0.02400 36.13800
C  29.89100 -0.84900 37.34300
H  22.58000 1.44100 33.49600
H  23.05300 0.93800 27.00300
H  29.15600 -0.71600 27.62100
H  26.73600 0.45700 35.49800
H  24.45900 2.36000 35.04700
H  23.22000 -0.27300 35.29500
H  23.51700 0.71200 36.63200
H  24.79900 -0.47600 36.06100
H  26.33400 3.36000 35.55900
H  27.63200 2.99400 34.53400
H  28.96500 2.84200 36.56900
H  27.75700 1.69500 37.20700
H  20.64000 1.48400 32.86300
H  19.73200 0.55500 31.60800
H  19.96000 2.33400 31.48200
H  19.04300 2.12600 29.52100
H  19.08900 0.34400 29.37600
H  18.56900 1.29900 27.94700
H  25.50800 1.31400 25.62300
H  27.14900 -0.99600 25.82000
H  23.67600 -0.61300 25.31500
H  25.17000 -1.52700 24.96600
H  24.63400 -0.10400 24.02900
H  28.25300 1.68700 26.35400
H  27.58800 1.55500 24.77800
H  29.34600 -0.68500 25.20000
H  30.08700 0.96300 25.38600
H  29.20400 0.50700 23.89900
H  31.00000 -2.03600 29.67700
H  32.22100 -0.85000 30.08600
H  31.23400 -0.62000 28.61900
H  29.78200 1.42700 34.31300
H  28.85600 -0.90800 37.68000
H  30.49000 -0.32700 38.09000
H  30.14000 -1.89100 37.14100
Mg -11.83900 16.73100 41.68000
C  -8.15900 16.33000 41.39700
C  -11.23500 20.02700 40.91400
C  -14.99200 16.89000 41.01300
C  -12.01800 13.14900 41.67700
N  -9.88100 17.95800 41.12900
C  -8.55900 17.64900 41.23900
C  -7.70200 18.91100 41.08800
C  -8.69600 20.07100 41.35100
C  -10.04100 19.30500 41.22000
C  -8.38100 20.74200 42.67800
C  -7.07100 19.02900 39.61800
C  -5.52100 18.82000 39.49400
H  -5.13800 17.92600 38.34200
N  -12.93100 18.35800 41.12800
C  -12.51000 19.59900 40.78900
C  -13.70500 20.37500 40.45100
C  -14.87600 19.54800 40.53100
C  -14.34700 18.20700 40.88700
C  -13.68100 21.87900 40.19100
C  -16.29400 19.94500 40.35500
O  -16.58600 21.10700 40.08500
C  -17.40000 18.95700 40.54500
N  -13.31800 15.21500 41.42900
C  -14.52200 15.59300 41.32900
C  -15.52900 14.38600 41.57800
C  -14.54700 13.16800 41.64500
C  -13.21600 13.87500 41.48000
C  -16.43800 14.60600 42.78900
C  -14.86600 12.11300 40.59400
C  -14.53800 10.66200 40.99100
N  -10.44600 15.15700 41.75200
C  -10.73100 13.77400 41.84800
C  -9.42900 13.11900 42.13600
C  -8.45800 14.06100 42.04500
C  -9.08300 15.29600 41.74800
C  -9.31000 11.69100 42.46000
C  -7.01400 14.22800 42.01400
O  -6.12500 13.43700 42.16900
C  -6.73800 15.77400 41.59700
C  -6.17100 16.41300 42.77800
O  -6.78100 16.73200 43.81800
O  -4.78900 16.51100 42.62500
C  -3.97000 17.15800 43.68300
H  -11.09100 21.08200 40.67300
H  -16.07600 17.01800 40.96800
H  -12.01300 12.06400 41.55400
H  -6.88500 18.82900 41.80400
H  -8.61800 20.86600 40.60800
H  -7.62200 21.51700 42.57600
H  -8.12600 19.94200 43.37200
H  -9.25700 21.26100 43.06800
H  -7.28100 20.07200 39.38500
H  -7.51400 18.34800 38.89100
H  -5.12400 18.36400 40.40100
H  -5.04000 19.77700 39.29300
H  -14.46900 22.21500 39.51600
H  -12.67800 22.01100 39.78500
H  -13.77100 22.45500 41.11300
H  -18.38300 19.41500 40.43900
H  -17.35200 18.56100 41.55900
H  -17.33400 18.11100 39.86100
H  -16.17500 14.55600 40.71700
H  -14.49900 12.69200 42.62500
H  -16.20700 15.58000 43.21900
H  -16.30500 13.89100 43.60100
H  -17.46300 14.61600 42.42000
H  -14.32100 12.39000 39.69200
H  -15.91000 12.23000 40.30500
H  -13.77600 10.58800 41.76600
H  -14.20100 10.09400 40.12400
H  -15.44500 10.29800 41.47400
H  -8.69800 11.25500 41.67000
H  -10.31900 11.27900 42.43800
H  -8.83300 11.48600 43.41900
H  -6.05200 15.86300 40.75500
H  -3.82000 16.35700 44.40700
H  -4.51800 17.95900 44.17800
H  -2.96100 17.43500 43.37900

