158

Mg 2.13500 -2.19100 44.99100
C  5.47300 -1.24300 44.62600
C  1.32500 0.67500 43.07800
C  -1.08700 -3.14800 45.17800
C  3.21300 -5.26400 46.25500
N  3.22100 -0.44500 44.02700
C  4.64200 -0.29500 43.96400
C  5.11200 0.93700 43.18300
C  3.76500 1.51400 42.75800
C  2.72000 0.53100 43.34600
C  3.56800 2.99400 43.32500
C  6.15800 0.62700 41.97300
C  7.30600 1.64300 41.72500
H  7.35500 2.38700 40.37000
N  0.38700 -1.40100 44.19600
C  0.22600 -0.17700 43.56700
C  -1.18700 0.03300 43.36300
C  -1.89200 -1.08100 43.90200
C  -0.87200 -1.93700 44.50400
C  -1.76500 1.27600 42.81900
C  -3.38700 -1.18300 43.94000
O  -4.10200 -0.25100 43.58600
C  -4.24000 -2.34700 44.52500
N  1.22300 -3.98600 45.47800
C  -0.14100 -4.08700 45.65800
C  -0.54500 -5.45800 46.17400
C  0.81200 -6.16600 46.50800
C  1.81400 -5.03700 46.11100
C  -1.47700 -5.42900 47.36800
C  1.01600 -7.50900 45.76600
C  1.02300 -8.75100 46.59300
N  3.91800 -3.05300 45.46300
C  4.21100 -4.33900 45.93900
C  5.65200 -4.52600 46.06800
C  6.19900 -3.30400 45.62600
C  5.07700 -2.47800 45.20100
C  6.44700 -5.73200 46.58600
C  7.44700 -2.50700 45.54400
O  8.64300 -2.76800 45.82200
C  7.02100 -1.17400 44.82000
C  7.30900 0.05600 45.52500
O  6.68100 0.49400 46.48500
O  8.30100 0.76600 44.88000
C  8.61600 2.07700 45.47100
H  1.02500 1.50400 42.43400
H  -2.13100 -3.40000 45.37500
H  3.38100 -6.26700 46.65400
H  5.49000 1.64600 43.92000
H  3.69400 1.46800 41.67100
H  4.45500 3.62700 43.29800
H  3.08800 2.86800 44.29600
H  2.76000 3.30000 42.66000
H  5.64000 0.54900 41.01700
H  6.60800 -0.36200 42.05500
H  8.26400 1.26900 42.08500
H  7.13600 2.45700 42.42900
H  -2.26600 2.01600 43.44300
H  -2.50000 1.03600 42.05100
H  -0.88600 1.81100 42.46000
H  -4.38500 -2.39100 45.60500
H  -3.89700 -3.26900 44.05600
H  -5.22400 -2.26000 44.06400
H  -1.01200 -5.95000 45.32100
H  0.99900 -6.35100 47.56600
H  -1.10300 -6.10700 48.13500
H  -2.52500 -5.68500 47.21400
H  -1.40200 -4.40000 47.72200
H  1.97500 -7.40200 45.25900
H  0.38100 -7.74200 44.91200
H  1.75600 -9.39800 46.11000
H  0.06500 -9.25800 46.48100
H  1.27200 -8.50400 47.62500
H  7.33100 -5.26300 47.01900
H  6.72300 -6.41400 45.78100
H  5.90500 -6.25100 47.37600
H  7.53200 -1.18700 43.85700
H  7.87500 2.71100 44.98400
H  9.66000 2.30200 45.25000
H  8.36300 2.26100 46.51600
Mg 47.95800 44.75900 43.37700
C  44.59300 45.07800 42.26100
C  47.86700 41.40900 42.39900
C  51.44900 44.60600 43.75800
C  48.09900 48.27100 43.59800
N  46.45500 43.48300 42.44300
C  45.16000 43.74000 42.14600
C  44.53900 42.48000 41.50000
C  45.43300 41.35900 41.95600
C  46.67800 42.13500 42.28500
C  44.76600 40.54500 43.13300
C  44.35300 42.69200 39.98000
C  43.04500 42.20100 39.38700
H  43.11900 41.58300 37.97100
N  49.45100 43.20500 43.19100
C  49.16800 41.86600 42.88100
C  50.46500 41.05500 42.92900
C  51.50500 41.99400 43.28600
C  50.83500 43.34500 43.46200
C  50.55000 39.62600 42.57300
C  52.98800 41.65000 43.37400
O  53.38700 40.52300 43.00800
C  54.03700 42.71100 43.78000
N  49.56600 46.21500 43.40700
C  50.85200 45.93600 43.75600
C  51.67100 47.16900 44.03100
C  50.64600 48.28600 43.97300
C  49.35800 47.56900 43.65400
C  52.40700 47.05100 45.45500
C  51.06400 49.31500 42.92400
C  51.83400 50.61900 43.16100
N  46.57700 46.37300 43.15100
C  46.85900 47.73800 43.16800
C  45.62900 48.40400 42.88000
C  44.69200 47.42300 42.55200
C  45.34900 46.22600 42.67600
C  45.50000 49.93400 42.80100
C  43.32800 47.25300 42.00500
O  42.50700 48.02500 41.59100
C  43.26500 45.67300 41.90000
C  42.07700 45.02500 42.51400
O  41.46800 44.07000 41.96800
O  41.82800 45.55500 43.75000
C  40.85000 44.89500 44.64200
H  47.87000 40.34600 42.14900
H  52.52300 44.70500 43.93200
H  48.24000 49.34600 43.73600
H  43.52900 42.53200 41.90700
H  45.62800 40.69500 41.11400
H  44.84400 39.47800 42.92400
H  43.73200 40.85500 43.28300
H  45.40100 40.73500 43.99800
H  45.27700 42.24600 39.61200
H  44.37700 43.76800 39.81200
H  42.28600 42.97700 39.28900
H  42.69200 41.36600 39.99200
H  50.82100 39.47600 41.52800
H  49.55200 39.19600 42.66600
H  51.18000 39.11100 43.29900
H  54.93600 42.10400 43.88500
H  53.82000 43.08200 44.78200
H  54.22000 43.50700 43.05900
H  52.46600 47.37700 43.31500
H  50.67600 48.63700 45.00500
H  52.37000 47.98800 46.01000
H  53.48400 46.88000 45.44800
H  51.96900 46.22800 46.01900
H  50.10200 49.69100 42.57600
H  51.56900 48.89900 42.05200
H  51.29500 51.44700 42.70200
H  52.79800 50.50300 42.66600
H  52.04200 50.69400 44.22900
H  44.46500 50.25100 42.92500
H  45.90200 50.40500 41.90300
H  46.14300 50.26500 43.61600
H  43.11800 45.54900 40.82800
H  39.87900 45.37200 44.50800
H  41.20800 44.99400 45.66600
H  40.81500 43.82400 44.43700

