158

Mg 24.83200 2.06200 30.00700
C  26.81200 1.63300 32.82100
C  22.09000 2.35700 31.96000
C  22.92000 2.05400 27.14200
C  27.74500 1.62600 28.03500
N  24.57300 2.22200 32.11400
C  25.46000 1.84600 33.06000
C  24.92400 2.20100 34.39200
C  23.40300 2.04700 34.15200
C  23.32800 2.22900 32.64400
C  22.76400 0.66600 34.56800
C  25.31500 3.66000 34.92300
C  26.05300 3.69600 36.21800
H  25.37200 4.48600 37.36800
N  22.83000 2.20700 29.67000
C  21.86100 2.28200 30.62800
C  20.51700 2.22700 29.97300
C  20.72700 2.26900 28.59400
C  22.23200 2.29000 28.40700
C  19.24800 2.22600 30.78400
C  19.67500 1.92200 27.53400
O  20.01600 1.92200 26.34900
C  18.21200 1.57100 27.79400
N  25.23800 1.68600 27.92500
C  24.27500 1.85000 26.92900
C  24.88700 1.84800 25.52000
C  26.47900 1.86700 25.76800
C  26.53200 1.77200 27.32800
C  24.34100 0.75100 24.58300
C  27.16400 3.05800 25.09400
C  27.02500 4.47700 25.74700
N  26.89900 1.61000 30.30900
C  27.91100 1.51300 29.41700
C  29.11400 1.21600 30.08300
C  28.75900 1.35000 31.51100
C  27.37700 1.56400 31.56000
C  30.44400 0.91400 29.51500
C  29.21500 1.34200 32.80900
O  30.33500 1.26100 33.25800
C  27.98400 1.50100 33.75200
C  27.86900 0.31400 34.66200
O  27.32500 -0.77900 34.42900
O  28.46400 0.70200 35.75700
C  28.31000 -0.13400 36.96800
H  21.25000 2.36300 32.65700
H  22.24800 2.15200 26.28700
H  28.70700 1.72000 27.52600
H  25.26300 1.44600 35.10200
H  22.83300 2.92300 34.46200
H  23.44600 0.09300 35.19600
H  22.46100 0.11600 33.67700
H  21.90900 0.80400 35.23100
H  24.49700 4.37500 35.00800
H  25.99000 4.06500 34.16900
H  26.99100 4.21500 36.02100
H  26.34400 2.70900 36.57800
H  19.49500 2.48700 31.81200
H  18.82800 1.22600 30.89000
H  18.57900 2.98400 30.37600
H  18.06900 0.93900 28.67100
H  17.81100 1.02500 26.94000
H  17.64200 2.50000 27.76900
H  24.51900 2.79700 25.13000
H  26.85100 0.90800 25.41000
H  23.84400 1.19500 23.72100
H  23.55600 0.13000 25.01600
H  25.13800 0.11500 24.19900
H  26.59200 3.22200 24.18100
H  28.15500 2.74500 24.76400
H  26.26400 4.94500 25.12200
H  28.01800 4.92500 25.75600
H  26.64500 4.47100 26.76800
H  30.42100 -0.17500 29.49400
H  31.24100 1.31900 30.13900
H  30.53200 1.40200 28.54400
H  28.10900 2.42400 34.31900
H  27.78800 0.36800 37.78200
H  29.31600 -0.39700 37.29600
H  27.76100 -1.06800 36.84300
Mg 48.79900 35.65900 28.00500
C  46.81500 33.93900 30.41600
C  48.49100 38.49900 30.04200
C  50.36700 37.35800 25.65900
C  48.12400 33.06000 25.83200
N  47.85000 36.16900 30.00900
C  47.22900 35.22300 30.86000
C  47.12400 35.78700 32.26700
C  47.27800 37.28300 32.06400
C  47.95800 37.35400 30.62100
C  46.07200 38.18300 32.17100
C  48.10700 35.09500 33.25300
C  47.60600 34.82400 34.68400
H  48.00800 35.90200 35.65900
N  49.55300 37.69000 27.97500
C  49.17400 38.64700 28.80400
C  49.92600 39.80600 28.41300
C  50.44900 39.59000 27.06200
C  50.18700 38.15000 26.86100
C  49.96200 41.06700 29.20700
C  51.17100 40.53400 26.01700
O  51.57000 40.05400 24.96400
C  51.34500 41.94400 26.34000
N  49.13100 35.35900 26.06100
C  49.91200 36.11900 25.32400
C  50.24500 35.59000 23.89600
C  49.54600 34.16900 24.09000
C  48.96000 34.11800 25.45100
C  49.70800 36.40500 22.72200
C  50.35400 32.89800 23.78800
C  49.71500 31.96100 22.76900
N  47.72600 33.82100 28.05800
C  47.53700 32.86300 27.07200
C  46.72200 31.74600 27.55300
C  46.43500 32.15700 28.87200
C  47.01800 33.39100 29.13600
C  46.33500 30.46900 26.80000
C  45.68200 31.69000 30.06800
O  45.02100 30.72400 30.37000
C  45.94300 32.82500 31.12400
C  46.59800 32.21700 32.31500
O  47.74800 31.87800 32.25400
O  45.71600 32.07800 33.32600
C  46.30300 31.64000 34.61900
H  48.52400 39.42000 30.62700
H  50.93100 37.78900 24.82900
H  48.00100 32.35200 25.01000
H  46.10300 35.61500 32.60800
H  47.97600 37.64600 32.81900
H  46.15800 38.78100 33.07700
H  45.18500 37.58100 32.36700
H  45.85800 38.79800 31.29700
H  49.01000 35.70600 33.25100
H  48.41300 34.12200 32.86800
H  48.07700 33.86900 34.91500
H  46.52600 34.67500 34.68200
H  50.92400 41.25400 29.68500
H  49.25100 41.28100 30.00500
H  49.75000 41.83600 28.46400
H  50.35200 42.37700 26.21800
H  51.90700 42.24800 25.45700
H  51.84200 42.01000 27.30800
H  51.29200 35.47700 23.61200
H  48.69200 34.07700 23.41900
H  50.49800 36.39800 21.97100
H  49.51800 37.43500 23.02400
H  48.79300 36.01900 22.27400
H  50.43500 32.28300 24.68500
H  51.37900 33.20200 23.57600
H  49.71700 32.43600 21.78800
H  48.75900 31.56300 23.11100
H  50.26900 31.07200 22.46900
H  46.23900 29.61400 27.46900
H  47.04000 30.16100 26.02700
H  45.47000 30.68100 26.17200
H  44.98200 33.16600 31.51000
H  45.53200 30.89600 34.82000
H  46.18800 32.42700 35.36500
H  47.31800 31.24700 34.55600

