158

Mg -1.98900 18.15900 27.44800
C  -2.55900 16.02400 30.22000
C  -2.71500 20.88800 29.44300
C  -2.36900 20.02000 24.68100
C  -1.98100 15.32300 25.50300
N  -2.56900 18.40700 29.55600
C  -2.61400 17.37000 30.57100
C  -2.71900 17.91200 31.97800
C  -3.11200 19.43700 31.63700
C  -2.75900 19.62100 30.12200
C  -4.57500 19.79700 32.00200
C  -1.43000 17.87800 32.88600
C  -1.57300 17.10400 34.26000
H  -0.43200 17.15800 35.19000
N  -2.22200 20.22500 27.09900
C  -2.55600 21.16800 28.08100
C  -2.66300 22.49000 27.40800
C  -2.37800 22.23000 26.03600
C  -2.29100 20.76300 25.83000
C  -2.98600 23.74600 28.20300
C  -2.29000 23.27800 24.88900
O  -1.98000 22.94500 23.79500
C  -2.30200 24.74300 25.15900
N  -2.10100 17.69600 25.37200
C  -2.31200 18.68700 24.44700
C  -2.32600 18.08600 22.99000
C  -2.29400 16.59000 23.32600
C  -1.97600 16.49800 24.80800
C  -3.51100 18.46100 22.09600
C  -1.31400 15.71400 22.45000
C  0.15200 15.55200 22.88500
N  -2.11300 16.11800 27.72700
C  -2.06900 15.10400 26.87700
C  -2.06800 13.78800 27.50900
C  -2.30000 14.13700 28.83100
C  -2.27700 15.55700 28.92700
C  -1.92900 12.39400 26.99900
C  -2.53700 13.58000 30.09100
O  -2.65100 12.43900 30.35800
C  -2.70200 14.77700 31.16500
C  -1.73300 14.59000 32.23800
O  -0.62500 15.02600 32.27600
O  -2.26500 13.74000 33.14500
C  -1.28300 13.08000 34.08000
H  -2.90800 21.62900 30.22200
H  -2.54500 20.58500 23.76300
H  -2.19600 14.39000 24.97700
H  -3.55800 17.44100 32.49100
H  -2.48300 20.09500 32.23600
H  -4.63700 20.60300 32.73300
H  -5.11500 18.92000 32.35800
H  -5.01500 20.26700 31.12200
H  -1.11500 18.85300 33.25900
H  -0.59300 17.45900 32.32700
H  -1.99200 16.09900 34.21000
H  -2.29100 17.63600 34.88400
H  -4.00700 23.88600 27.84700
H  -2.33400 24.57400 27.92500
H  -2.97100 23.56900 29.27800
H  -2.48600 25.43600 24.33700
H  -1.35000 24.96500 25.64100
H  -3.11600 25.04200 25.82000
H  -1.33000 18.32400 22.61800
H  -3.26900 16.10800 23.25200
H  -4.27800 17.69100 22.01700
H  -3.20200 18.77000 21.09700
H  -4.11300 19.30600 22.43200
H  -1.24200 16.12200 21.44100
H  -1.79600 14.73800 22.39000
H  0.31100 14.48900 23.06700
H  0.23800 15.92400 23.90700
H  0.90200 15.99000 22.22600
H  -1.02600 12.15600 26.43700
H  -2.85100 12.19400 26.45200
H  -1.96900 11.73400 27.86600
H  -3.71100 14.94700 31.54200
H  -0.77000 12.30300 33.51400
H  -1.83600 12.65000 34.91500
H  -0.50800 13.66500 34.57600
Mg 26.68300 49.32500 25.98600
C  24.65200 50.36300 28.47600
C  28.99500 48.25600 28.35900
C  28.93900 48.68400 23.47000
C  24.71800 51.13900 23.62600
N  26.75700 49.35200 28.15300
C  25.74300 49.64400 28.98500
C  26.14200 49.44300 30.43600
C  27.60600 48.99200 30.33400
C  27.86000 48.91400 28.84500
C  28.57900 49.88400 31.23000
C  25.36400 48.47200 31.20700
C  24.85000 48.91100 32.64800
H  25.68600 49.62300 33.75500
N  28.51700 48.40800 25.90400
C  29.29000 47.94900 26.97600
C  30.45300 47.28400 26.49200
C  30.40800 47.30000 25.08100
C  29.24600 48.15300 24.71000
C  31.47500 46.61900 27.41500
C  31.47900 46.64700 24.15100
O  31.33900 46.68700 22.94500
C  32.63500 46.02300 24.65800
N  26.84400 49.94200 23.80500
C  27.82500 49.46000 23.01000
C  27.60500 49.72800 21.53000
C  26.29900 50.54400 21.57400
C  25.90700 50.55200 23.08800
C  28.74800 50.53100 20.82200
C  25.04700 50.08000 20.80200
C  24.40100 48.85400 21.28700
N  25.05200 50.57500 26.00400
C  24.38300 51.10300 24.96400
C  23.19300 51.69700 25.55600
C  23.18800 51.46400 26.92400
C  24.40800 50.75200 27.15600
C  22.16600 52.36800 24.74800
C  22.49200 51.58000 28.18400
O  21.41300 52.06600 28.40800
C  23.40600 50.84600 29.22500
C  23.62600 51.81500 30.43000
O  24.47500 52.68500 30.53600
O  22.59800 51.59500 31.29200
C  22.61300 52.36300 32.57500
H  29.72900 48.08700 29.15100
H  29.62900 48.23000 22.75500
H  24.16500 51.66100 22.84200
H  26.13000 50.40300 30.95400
H  27.74900 47.96400 30.66600
H  29.56700 49.43100 31.13900
H  28.35000 50.04200 32.28300
H  28.62200 50.86000 30.74600
H  25.84800 47.54700 31.52200
H  24.54100 48.17700 30.55600
H  24.63600 47.93300 33.07900
H  23.94500 49.49500 32.48000
H  32.51000 46.84700 27.16000
H  31.30400 45.54300 27.38100
H  31.23300 47.00100 28.40600
H  33.24000 45.69100 23.81400
H  32.29400 45.16500 25.23800
H  33.30600 46.63300 25.26200
H  27.41500 48.79700 20.99500
H  26.52400 51.51300 21.12800
H  29.54200 50.48100 21.56700
H  28.48300 51.58400 20.73000
H  28.87400 50.01000 19.87200
H  25.31200 49.81400 19.77900
H  24.46800 51.00300 20.78600
H  25.06200 48.34300 21.98700
H  24.13700 48.25400 20.41700
H  23.60900 49.06100 22.00700
H  21.76900 53.20100 25.32900
H  21.24800 51.81100 24.93800
H  22.32300 52.57200 23.68900
H  22.94400 50.02300 29.77100
H  22.66300 53.44200 32.42500
H  23.48900 52.06600 33.15200
H  21.67000 52.19500 33.09500

