158

Mg -1.63000 16.55200 26.55900
C  -2.31400 14.21400 29.18600
C  -2.06100 19.06700 28.72500
C  -1.55500 18.63800 23.98200
C  -1.87800 13.80200 24.27100
N  -2.24800 16.59200 28.74900
C  -2.23300 15.55500 29.62400
C  -2.22800 16.14900 31.12800
C  -2.13600 17.66500 30.88300
C  -2.13600 17.83900 29.37300
C  -3.31100 18.54200 31.49700
C  -1.05100 15.55800 32.00600
C  -0.54700 16.42700 33.15100
H  -0.58700 15.76000 34.59500
N  -1.63500 18.61000 26.37600
C  -1.80600 19.51100 27.39500
C  -1.72400 20.85800 26.91100
C  -1.34700 20.75000 25.56000
C  -1.55800 19.29200 25.23800
C  -1.84300 21.97700 27.90000
C  -0.89100 21.85800 24.64700
O  -0.47000 21.63000 23.53000
C  -0.72900 23.22900 25.12300
N  -1.86500 16.25200 24.39100
C  -1.76600 17.29400 23.55500
C  -1.66000 16.84500 22.05700
C  -1.75900 15.26300 22.18200
C  -1.74800 15.05600 23.69300
C  -2.63700 17.46000 21.01000
C  -0.58500 14.44300 21.56300
C  0.80500 14.87500 22.18100
N  -2.01800 14.48200 26.68600
C  -2.05200 13.51600 25.67100
C  -2.30900 12.21800 26.26600
C  -2.45500 12.41500 27.63900
C  -2.17200 13.83200 27.85100
C  -2.48500 10.87600 25.59300
C  -2.61200 11.69800 28.89900
O  -2.76000 10.50600 29.24300
C  -2.49800 12.89300 29.93500
C  -1.41800 12.52500 30.83900
O  -0.19300 12.77300 30.75400
O  -1.93200 11.75100 31.80200
C  -1.03200 11.26000 32.88400
H  -2.15700 19.96300 29.34200
H  -1.52200 19.30200 23.11600
H  -2.03800 12.93800 23.62400
H  -3.10500 15.83700 31.69500
H  -1.17500 18.09200 31.17000
H  -3.95500 19.01600 30.75600
H  -2.93900 19.35200 32.12500
H  -4.00600 17.98100 32.12200
H  -0.17500 15.49900 31.36100
H  -1.28900 14.55900 32.37300
H  -1.17300 17.31400 33.25600
H  0.41100 16.87700 32.89000
H  -2.48700 21.84400 28.76800
H  -2.24100 22.77400 27.27200
H  -0.86400 22.30500 28.24900
H  -1.67200 23.73100 25.33600
H  -0.20100 23.87200 24.41900
H  -0.09700 23.24300 26.01100
H  -0.67400 16.97500 21.61000
H  -2.63200 14.82100 21.70300
H  -3.22600 18.10500 21.66200
H  -3.25400 16.68200 20.56200
H  -2.08200 18.05400 20.28400
H  -0.62300 14.57000 20.48100
H  -0.75900 13.37600 21.70600
H  1.33000 15.45200 21.42000
H  1.24300 13.88100 22.27400
H  0.70900 15.46800 23.09000
H  -3.36900 10.76000 24.96600
H  -2.60400 10.17600 26.42000
H  -1.64200 10.35600 25.13900
H  -3.40500 12.84800 30.53900
H  -0.40200 12.06100 33.27100
H  -0.29200 10.62800 32.39400
H  -1.69600 10.88100 33.66000
Mg 34.97600 2.28900 29.89400
C  32.68100 3.22600 32.34800
C  37.52200 2.81700 32.28600
C  37.09100 1.38900 27.52900
C  32.31900 2.40600 27.56000
N  35.05300 2.90800 32.08900
C  34.00800 3.11000 32.86300
C  34.34700 3.23400 34.32700
C  35.91000 3.45300 34.26300
C  36.23400 3.02100 32.80000
C  36.34200 4.88000 34.65900
C  33.81300 1.94900 35.10100
C  33.44800 2.17500 36.63500
H  34.33400 3.22400 37.25100
N  36.97800 2.07100 29.84700
C  37.81900 2.28300 30.92500
C  39.19800 1.87700 30.47300
C  39.04800 1.32100 29.16600
C  37.66200 1.55000 28.84000
C  40.40400 2.06200 31.41600
C  40.12200 0.63200 28.31500
O  39.84500 0.15000 27.24900
C  41.58300 0.42200 28.86200
N  34.79300 2.17300 27.77600
C  35.79300 1.60000 27.06300
C  35.49100 1.52400 25.57900
C  33.86500 1.55800 25.64400
C  33.60900 2.12600 27.04600
C  36.06400 2.67900 24.70000
C  33.14700 0.21900 25.31500
C  31.73100 0.23900 24.68900
N  32.88800 2.68500 29.89800
C  31.93800 2.70700 28.88700
C  30.65900 2.90200 29.42800
C  30.89900 3.16000 30.83700
C  32.27000 3.03800 31.00900
C  29.33100 3.18700 28.60600
C  30.21800 3.50600 32.12600
O  29.05100 3.61500 32.41900
C  31.43500 3.54400 33.17400
C  31.35100 4.82000 33.87000
O  31.58500 5.94200 33.44700
O  31.12200 4.62500 35.14900
C  30.90900 5.81900 36.05200
H  38.30400 2.97500 33.03200
H  37.81000 1.05200 26.77900
H  31.55800 2.24200 26.79500
H  33.91700 4.19200 34.62200
H  36.50700 2.81200 34.91200
H  36.87500 5.25300 33.78500
H  37.02300 4.88200 35.51100
H  35.55000 5.58100 34.92400
H  34.45700 1.07700 34.98100
H  32.91100 1.52800 34.65800
H  33.57300 1.28200 37.24800
H  32.45500 2.62400 36.67000
H  40.07300 2.85400 32.08800
H  41.36600 2.36600 31.00400
H  40.53600 1.13200 31.97100
H  41.59800 0.34000 29.94900
H  42.12500 1.35900 28.74000
H  42.07600 -0.44200 28.41600
H  35.99900 0.63900 25.19500
H  33.50200 2.36300 25.00400
H  36.94300 3.10400 25.18300
H  35.29900 3.44000 24.54700
H  36.31500 2.24600 23.73200
H  33.07300 -0.26600 26.28800
H  33.78100 -0.46200 24.74600
H  31.81300 -0.28900 23.73900
H  31.40200 1.26500 24.52700
H  30.98200 -0.25300 25.31000
H  29.40500 2.76100 27.60600
H  29.20000 4.26900 28.58900
H  28.47800 2.89400 29.21800
H  31.13200 2.82000 33.93000
H  29.83500 5.86900 36.23000
H  31.13700 6.81000 35.65800
H  31.33600 5.55500 37.01900

