158

Mg 40.41900 8.06700 29.06500
C  41.98200 9.28400 32.04800
C  38.18700 6.57000 31.02800
C  39.07200 6.80800 26.23000
C  43.09200 9.21500 27.26200
N  40.09300 8.13800 31.30700
C  40.73900 8.82500 32.28900
C  39.96200 8.61900 33.62400
C  39.08000 7.35900 33.30100
C  39.07400 7.34400 31.76600
C  39.54800 6.07100 33.91000
C  39.11300 9.89600 33.96700
C  38.81700 10.04300 35.48000
H  39.47700 11.19600 36.19600
N  38.77700 6.89200 28.67000
C  37.96400 6.31800 29.63300
C  36.86300 5.62500 28.95500
C  37.12400 5.72300 27.53200
C  38.33300 6.52100 27.40700
C  35.70000 5.05600 29.70100
C  36.34300 5.05500 26.37900
O  36.69000 5.36600 25.24100
C  35.14300 4.19000 26.66400
N  41.12300 7.82800 27.00500
C  40.29100 7.47000 26.01400
C  40.83300 7.79000 24.52800
C  41.84200 8.87400 25.04300
C  42.14400 8.48200 26.50700
C  41.36600 6.51500 23.79300
C  41.40000 10.38800 24.69300
C  39.96400 10.86700 25.10000
N  42.18000 8.97400 29.45300
C  43.20400 9.37500 28.64300
C  44.29100 9.93800 29.42400
C  43.86100 9.91300 30.75800
C  42.55600 9.34700 30.77200
C  45.63300 10.28700 29.02500
C  44.25900 10.13600 32.10700
O  45.33000 10.55300 32.54800
C  43.00500 9.92200 33.02400
C  43.28700 8.98000 34.16200
O  43.42100 7.75300 34.08000
O  43.43000 9.73100 35.29100
C  43.84700 8.91800 36.54000
H  37.49100 6.02500 31.66900
H  38.57900 6.52800 25.29600
H  43.86400 9.75400 26.70900
H  40.68400 8.40300 34.41100
H  38.12300 7.71700 33.68000
H  40.58300 6.25100 34.20100
H  39.51400 5.23800 33.20900
H  38.97300 5.90700 34.82200
H  38.15800 9.86300 33.44200
H  39.67500 10.73200 33.55100
H  39.02600 9.10200 35.98900
H  37.76300 10.14900 35.73800
H  34.75900 5.46400 29.33400
H  35.91500 5.28400 30.74500
H  35.78100 3.97000 29.75400
H  35.22500 3.48300 27.49000
H  34.99400 3.78700 25.66300
H  34.28100 4.83300 26.83900
H  40.07600 8.22400 23.87500
H  42.60600 8.71800 24.28200
H  40.73000 6.28800 22.93800
H  41.39300 5.63700 24.43800
H  42.37000 6.69900 23.40900
H  41.46800 10.67300 23.64300
H  42.12300 11.02900 25.19800
H  39.39900 10.07100 25.58500
H  39.44900 11.19300 24.19700
H  39.99800 11.74900 25.73900
H  45.83700 9.67600 28.14600
H  46.34200 9.97400 29.79200
H  45.71900 11.35300 28.81200
H  42.66300 10.87900 33.41700
H  42.96600 8.44800 36.97800
H  44.45000 9.46600 37.26300
H  44.51100 8.11000 36.23300
Mg 30.91900 59.80200 39.44900
C  27.98900 58.32200 38.20200
C  32.71700 56.88600 38.48900
C  33.83400 61.46700 39.90000
C  29.19900 62.81700 39.71600
N  30.37200 57.90700 38.33700
C  29.10600 57.46800 38.04000
C  29.14200 56.17300 37.28500
C  30.62700 55.65100 37.56700
C  31.29300 56.84200 38.29100
C  30.75100 54.36800 38.49700
C  28.79700 56.08900 35.74900
C  27.50500 55.32600 35.40100
H  26.64400 55.83800 34.33500
N  33.05900 59.27000 39.15800
C  33.49400 58.00500 38.83600
C  34.87700 58.06800 38.80500
C  35.30400 59.43300 39.06600
C  34.08800 60.19200 39.41000
C  35.77400 56.85600 38.53400
C  36.77700 59.85500 39.13100
O  37.69700 59.12300 38.81500
C  37.09700 61.23500 39.57100
N  31.40800 61.65300 39.72200
C  32.65500 62.14200 39.99200
C  32.76600 63.68800 40.09400
C  31.24600 64.04800 39.99100
C  30.57100 62.74600 39.82000
C  33.44300 64.15800 41.44200
C  30.95200 65.13900 38.94800
C  30.22700 66.43200 39.46300
N  28.90900 60.52200 39.12400
C  28.38100 61.76500 39.19400
C  27.00300 61.68100 39.05200
C  26.74800 60.36200 38.57700
C  28.01100 59.67800 38.64700
C  26.07100 62.77300 39.46700
C  25.71900 59.35600 38.19000
O  24.51900 59.45500 38.17800
C  26.52600 58.06700 37.84900
C  25.95700 57.00200 38.68000
O  26.20100 56.83000 39.84200
O  25.23300 56.14600 37.87000
C  24.64000 55.03400 38.57000
H  33.23200 55.97800 38.16700
H  34.77000 62.00400 40.07100
H  28.70600 63.78000 39.86600
H  28.48200 55.50900 37.84200
H  31.09900 55.50500 36.59500
H  31.07300 53.46900 37.97300
H  29.81900 54.09900 38.99500
H  31.41500 54.63600 39.31800
H  29.58100 55.59800 35.17400
H  28.64900 57.12900 35.45500
H  27.00900 55.02100 36.32200
H  27.95500 54.42400 34.98800
H  36.48200 56.66400 39.34100
H  36.38500 57.23300 37.71400
H  35.28300 55.92400 38.25200
H  38.15200 61.50600 39.53400
H  36.61600 61.48600 40.51600
H  36.72200 61.89900 38.79200
H  33.30900 64.14400 39.26600
H  31.01300 64.34200 41.01500
H  33.81100 63.34700 42.07000
H  32.77000 64.78100 42.03200
H  34.27400 64.81800 41.19100
H  30.53400 64.54400 38.13500
H  31.91700 65.48200 38.57500
H  29.27100 66.21800 38.98500
H  30.70700 67.33200 39.07700
H  30.03600 66.33100 40.53200
H  26.54500 63.73200 39.67600
H  25.53600 62.46600 40.36500
H  25.26100 62.92800 38.75400
H  26.42300 57.76600 36.80600
H  23.88500 55.35000 39.28900
H  25.42000 54.40600 39.00000
H  24.24400 54.31900 37.84800

