158

Mg 35.85000 1.42900 30.19200
C  33.54400 2.53600 32.63400
C  38.04700 0.83300 32.66700
C  37.95600 0.86400 27.81100
C  33.28600 2.05700 27.79700
N  35.75500 1.77300 32.40400
C  34.70600 2.11300 33.20700
C  35.14400 2.05400 34.70700
C  36.71900 1.78800 34.61700
C  36.83300 1.34500 33.13000
C  37.62000 3.07300 34.90300
C  34.26400 1.07300 35.53000
C  33.86200 1.51600 36.93200
H  34.60800 2.72700 37.50100
N  37.77600 0.87700 30.21500
C  38.55700 0.62600 31.33800
C  39.86200 0.26300 30.91200
C  39.98100 0.39700 29.48300
C  38.53900 0.72400 29.12600
C  40.95200 -0.09900 32.04200
C  41.12700 0.07200 28.53800
O  40.93200 0.25000 27.32200
C  42.48400 -0.25600 29.11600
N  35.56900 1.25900 28.10800
C  36.68000 1.21000 27.35100
C  36.38200 1.27500 25.78900
C  34.80600 1.50200 25.78600
C  34.50500 1.60200 27.31900
C  37.20200 2.32900 24.95800
C  33.89000 0.35900 25.20800
C  32.91200 0.66300 24.08300
N  33.75600 2.12400 30.14800
C  32.85700 2.22300 29.11300
C  31.51600 2.65800 29.61500
C  31.78200 2.85800 31.00900
C  33.16900 2.56800 31.28300
C  30.22500 2.77700 28.88800
C  31.16800 3.24900 32.26200
O  30.01900 3.65000 32.47800
C  32.23200 2.98800 33.32600
C  32.49400 4.26800 34.12100
O  33.27400 5.15600 33.81800
O  31.67100 4.20400 35.21800
C  31.82500 5.38700 36.02900
H  38.74300 0.47200 33.42700
H  38.67000 0.78000 26.98900
H  32.59200 2.44900 27.05100
H  34.94100 3.08300 35.00500
H  37.09300 0.89100 35.11000
H  38.32700 3.27900 34.09900
H  38.21600 2.80100 35.77400
H  37.06200 3.98500 35.11300
H  34.82400 0.15600 35.71400
H  33.39500 0.76700 34.94700
H  34.08000 0.65900 37.57000
H  32.78000 1.61200 36.83800
H  41.78800 0.60000 32.07300
H  41.48100 -0.97000 31.65600
H  40.53800 -0.32600 33.02400
H  43.24200 -0.31100 28.33500
H  42.43000 -1.25300 29.55400
H  42.70000 0.46600 29.90400
H  36.59500 0.27400 25.41500
H  34.65000 2.45400 25.27800
H  37.52500 1.85800 24.03000
H  38.07400 2.52600 25.58200
H  36.66200 3.23800 24.69100
H  33.42300 -0.18300 26.03000
H  34.63100 -0.33300 24.80800
H  31.93000 0.24600 24.30800
H  33.10200 0.17400 23.12800
H  32.88600 1.73300 23.87900
H  29.48900 2.31900 29.54900
H  30.27400 2.11900 28.02100
H  29.90200 3.76000 28.54400
H  31.78200 2.28900 34.03100
H  31.25000 6.27300 35.75700
H  32.80900 5.85400 36.07800
H  31.56600 5.06600 37.03800
Mg 9.46900 47.08200 27.28100
C  7.38800 46.74500 29.92400
C  12.09900 47.71800 29.50400
C  11.46600 47.93400 24.71900
C  6.77000 47.27600 25.20200
N  9.62900 47.49100 29.44900
C  8.72400 46.98800 30.31600
C  9.18900 47.10300 31.83900
C  10.58000 47.70000 31.65800
C  10.78300 47.67500 30.11700
C  10.65900 49.22800 32.10300
C  9.28000 45.72600 32.67200
C  10.24500 45.55200 33.84800
H  9.58300 44.78200 35.03600
N  11.53900 47.50200 27.10500
C  12.49500 47.65300 28.11900
C  13.83700 47.84300 27.65400
C  13.64900 47.91700 26.22700
C  12.17900 47.80300 25.97800
C  15.15600 47.92100 28.47400
C  14.67300 48.08700 25.15400
O  14.45300 48.09500 23.95200
C  16.17000 48.26500 25.60100
N  9.10200 47.80000 25.31400
C  10.13400 47.99000 24.39100
C  9.63300 48.32000 23.04600
C  8.08100 47.94300 23.19200
C  7.94300 47.56900 24.60100
C  9.86400 49.83200 22.61300
C  7.63400 46.70100 22.22800
C  6.74800 47.13800 21.05800
N  7.47900 47.04700 27.45500
C  6.46500 47.02200 26.57600
C  5.10800 46.73800 27.19200
C  5.52100 46.64500 28.47200
C  6.89600 46.82000 28.61600
C  3.75500 46.63300 26.51600
C  4.97100 46.47500 29.77800
O  3.76200 46.26400 29.99500
C  6.11200 46.61000 30.82600
C  6.14200 45.47900 31.69400
O  6.84900 44.45700 31.52400
O  5.13900 45.62800 32.63100
C  5.05500 44.51400 33.65200
H  13.00400 47.84000 30.10300
H  11.95900 48.15000 23.76800
H  5.90300 47.23500 24.54000
H  8.52800 47.77300 32.38900
H  11.39100 47.09400 32.06300
H  11.59100 49.46000 32.61800
H  9.83600 49.64200 32.68500
H  10.68500 49.78300 31.16500
H  9.36800 44.86700 32.00700
H  8.32500 45.66900 33.19400
H  10.61700 46.46700 34.30700
H  11.05100 44.85000 33.63700
H  15.05000 47.70300 29.53600
H  15.73500 48.84500 28.45500
H  15.79000 47.10700 28.12100
H  16.75600 48.51500 24.71600
H  16.59200 47.33400 25.97900
H  16.18300 48.98600 26.41800
H  9.97800 47.79100 22.15700
H  7.62000 48.88500 22.89700
H  9.09000 50.59700 22.56000
H  10.35600 49.80100 21.64100
H  10.56800 50.23400 23.34200
H  7.08100 45.96700 22.81400
H  8.53400 46.22800 21.83600
H  6.82000 48.19200 20.79100
H  5.75100 46.95700 21.46000
H  6.96900 46.42400 20.26400
H  3.96600 46.23500 25.52400
H  3.30700 47.61100 26.34000
H  3.01600 46.06900 27.08500
H  5.83100 47.42100 31.49900
H  4.59600 43.67700 33.12500
H  4.25100 44.80000 34.33000
H  6.02800 44.39600 34.13000

