158

Mg 35.58400 1.87000 29.97500
C  33.18400 2.91400 32.39900
C  37.96100 1.69500 32.57400
C  37.90900 1.24100 27.68200
C  33.17200 2.28100 27.43200
N  35.63400 2.35100 32.18400
C  34.50900 2.65900 32.94800
C  34.90600 2.75200 34.44400
C  36.47200 2.52300 34.44300
C  36.69100 2.10200 32.95300
C  37.38400 3.67600 34.86400
C  34.09500 1.69900 35.27800
C  33.18600 2.23600 36.50300
H  33.97900 3.33700 37.38300
N  37.75900 1.64300 30.05500
C  38.48100 1.49000 31.21000
C  39.86200 1.08400 30.82800
C  39.79800 0.89800 29.39400
C  38.44200 1.19200 28.96100
C  40.97900 0.88400 31.95900
C  40.89000 0.37100 28.47500
O  40.64700 0.07200 27.31700
C  42.33500 0.14200 28.95900
N  35.60400 2.01600 27.92000
C  36.67400 1.68800 27.17400
C  36.38800 1.77900 25.65400
C  34.89300 1.85800 25.56700
C  34.54900 2.08500 27.04100
C  37.15600 2.95800 24.96000
C  34.15100 0.60000 25.09500
C  32.96500 0.79500 24.16300
N  33.50800 2.28800 29.92900
C  32.68900 2.47100 28.78100
C  31.33600 2.75800 29.35200
C  31.54000 3.08200 30.75900
C  32.80500 2.63300 31.06500
C  30.16700 2.99000 28.46400
C  31.02900 3.56400 31.93100
O  29.93100 4.02300 32.18100
C  32.01500 3.39100 33.07500
C  32.14200 4.68000 33.77200
O  32.68000 5.66700 33.41100
O  31.40400 4.55600 34.86500
C  31.28700 5.72900 35.77300
H  38.60900 1.49000 33.42800
H  38.49800 0.94800 26.81000
H  32.39900 2.48500 26.68800
H  34.65000 3.73700 34.83300
H  36.68400 1.67900 35.09900
H  36.79300 4.50800 35.24800
H  37.89000 4.11000 34.00000
H  38.02300 3.43100 35.71200
H  34.70100 0.86200 35.62300
H  33.39700 1.22600 34.58700
H  32.71600 1.47300 37.12300
H  32.34600 2.73500 36.02000
H  40.66500 0.99900 32.99700
H  41.73300 1.64700 31.76800
H  41.45300 -0.09800 31.96700
H  42.65600 0.99200 29.56100
H  42.93000 -0.13400 28.08800
H  42.22800 -0.73200 29.60100
H  36.85500 0.86200 25.29300
H  34.52400 2.67800 24.95000
H  37.97900 2.69900 24.29400
H  37.42100 3.74300 25.66800
H  36.45700 3.38000 24.23900
H  33.91300 0.05000 26.00500
H  34.78300 -0.07900 24.52200
H  32.95400 1.80500 23.75400
H  32.13400 0.68400 24.86000
H  32.83700 0.17600 23.27400
H  29.33600 3.62500 28.77200
H  29.60600 2.09100 28.21100
H  30.51200 3.54200 27.59000
H  31.70600 2.59000 33.74600
H  30.42100 6.23200 35.34100
H  32.20200 6.32100 35.80300
H  31.01800 5.23300 36.70500
Mg 6.34900 53.82700 41.06900
C  5.94900 50.25100 40.80800
C  9.47200 53.35900 39.70200
C  6.42800 57.10500 40.41900
C  3.05600 53.91300 41.82900
N  7.45400 51.96800 40.17100
C  7.16100 50.66900 40.19200
C  8.36600 49.70500 39.83800
C  9.53400 50.70600 39.84700
C  8.77800 52.10600 39.86900
C  10.50200 50.55900 41.08800
C  8.21300 48.94300 38.46800
C  7.90900 49.73200 37.27900
H  6.87600 49.29900 36.26500
N  7.84100 55.16800 40.35600
C  9.09400 54.75700 39.86900
C  9.90100 55.94900 39.82000
C  9.02200 57.06800 39.93300
C  7.69700 56.54300 40.27300
C  11.42800 55.95300 39.52300
C  9.38000 58.51100 39.90500
O  10.52900 58.82600 39.62600
C  8.35100 59.68200 40.06500
N  4.87100 55.26800 40.81100
C  5.11400 56.62200 40.59600
C  3.86100 57.50700 40.91600
C  2.87900 56.37300 41.17300
C  3.69200 55.11300 41.44000
C  4.02400 58.52900 42.05700
C  1.83400 56.09400 40.07600
C  0.45600 56.74000 40.19400
N  4.81800 52.39900 41.45300
C  3.54500 52.60900 41.76500
C  2.84100 51.40400 42.13000
C  3.83300 50.38000 41.80200
C  4.93500 51.08900 41.29600
C  1.47700 51.19900 42.75600
C  4.11000 49.00200 41.79700
O  3.45900 48.02200 42.19500
C  5.49100 48.83600 41.04800
C  5.16600 48.02000 39.91600
O  4.78900 48.38000 38.78200
O  5.39600 46.71900 40.27300
C  4.89800 45.77900 39.31200
H  10.46000 53.23300 39.25500
H  6.31200 58.19100 40.44000
H  2.05800 54.17700 42.18600
H  8.48200 49.02100 40.67900
H  10.19200 50.57900 38.98700
H  10.40100 51.44400 41.71500
H  11.52300 50.51800 40.70700
H  10.20700 49.74200 41.74600
H  7.52000 48.10300 38.51400
H  9.21600 48.52200 38.38300
H  8.82500 49.90100 36.71200
H  7.61100 50.71100 37.65600
H  11.76500 55.00500 39.10400
H  11.97300 56.23000 40.42500
H  11.68100 56.67800 38.74900
H  8.95800 60.56800 39.87700
H  7.87200 59.74600 41.04200
H  7.73100 59.59200 39.17200
H  3.54800 57.94900 39.97000
H  2.35900 56.63700 42.09400
H  3.34600 58.47100 42.90800
H  3.78800 59.46500 41.55100
H  5.05700 58.55600 42.40200
H  1.70700 55.04400 39.81500
H  2.19800 56.51400 39.13900
H  0.44200 57.82400 40.08400
H  0.09400 56.44600 41.18000
H  -0.16500 56.21500 39.46900
H  0.68400 51.80700 42.31900
H  1.47000 51.25100 43.84500
H  1.23300 50.19400 42.41300
H  6.03500 48.23100 41.77400
H  3.88700 46.07100 39.02500
H  4.84600 44.75000 39.66700
H  5.55000 45.75600 38.44000

