158

Mg 2.05700 -0.64600 44.58300
C  5.45200 0.14400 44.05900
C  1.21500 2.27800 42.89600
C  -1.08600 -1.86100 44.27100
C  3.06300 -3.45500 46.23800
N  3.23400 0.89800 43.47800
C  4.58900 1.09300 43.46800
C  4.97200 2.22800 42.55800
C  3.63600 3.09100 42.59400
C  2.62800 1.97900 42.99700
C  3.63700 4.19700 43.64400
C  5.37900 1.70900 41.14500
C  6.68500 2.46700 40.57000
H  6.94200 2.31700 39.03000
N  0.26600 0.00700 43.67700
C  0.15100 1.28500 43.08100
C  -1.22000 1.39400 42.56600
C  -1.91100 0.17000 42.88200
C  -0.97700 -0.63300 43.64100
C  -1.66100 2.50400 41.67400
C  -3.36600 -0.14500 42.41700
O  -4.06900 0.79500 42.02100
C  -3.93500 -1.47000 42.58300
N  1.15300 -2.55500 44.98100
C  -0.15600 -2.66300 44.96700
C  -0.56700 -3.96900 45.64900
C  0.63600 -4.34400 46.47200
C  1.71400 -3.45500 45.87400
C  -1.94600 -3.90300 46.42000
C  1.09400 -5.87100 46.24800
C  1.66500 -6.67700 47.51500
N  3.87800 -1.55400 45.10400
C  4.16800 -2.68700 45.83700
C  5.54500 -2.94700 45.87700
C  6.17400 -1.81800 45.25000
C  5.05500 -1.06800 44.71500
C  6.15600 -4.06500 46.63300
C  7.48300 -1.10800 44.98100
O  8.57700 -1.31000 45.43000
C  6.96900 0.16800 44.13800
C  7.48000 1.34300 44.75400
O  7.45300 1.58500 45.95100
O  8.06400 2.15200 43.72200
C  8.46300 3.46400 44.15900
H  0.86400 3.28800 42.67500
H  -2.06400 -2.34700 44.25100
H  3.37100 -4.32600 46.82000
H  5.76300 2.82500 43.01100
H  3.37800 3.51800 41.62500
H  4.45100 4.29500 44.36200
H  2.69800 4.32000 44.18200
H  3.71300 5.08600 43.01800
H  4.59400 1.64600 40.39200
H  5.68000 0.66800 41.26400
H  7.55800 1.98000 41.00500
H  6.47800 3.51000 40.81100
H  -1.31300 2.24300 40.67500
H  -1.33700 3.53200 41.83700
H  -2.74900 2.53200 41.61400
H  -4.80600 -1.60000 41.94000
H  -4.04300 -1.80300 43.61500
H  -3.25800 -2.19900 42.13900
H  -0.67600 -4.67800 44.82800
H  0.49400 -4.07700 47.51900
H  -2.02700 -4.64200 47.21700
H  -2.77200 -4.21800 45.78200
H  -2.14400 -2.89200 46.77600
H  1.88700 -5.98700 45.51000
H  0.22800 -6.35700 45.79900
H  1.31300 -6.25300 48.45600
H  2.73900 -6.49300 47.48100
H  1.58500 -7.75300 47.36700
H  7.24600 -4.08100 46.60800
H  5.77200 -4.87800 46.01700
H  5.83600 -4.19400 47.66700
H  7.50100 0.09600 43.18900
H  9.08100 3.97300 43.42000
H  9.09100 3.45600 45.05100
H  7.65700 4.18500 44.29500
Mg 34.85200 48.84900 26.22600
C  35.42100 46.73100 29.02000
C  34.05800 51.39700 28.29300
C  34.34900 50.82900 23.54100
C  35.94100 46.24600 24.21700
N  34.62300 49.06700 28.39400
C  34.96400 48.08500 29.34800
C  34.83200 48.62400 30.74500
C  34.10100 50.00600 30.48700
C  34.29700 50.24900 28.97900
C  32.61900 50.07800 30.94800
C  36.20900 48.65400 31.45600
C  36.25400 48.10600 32.92300
H  36.21600 49.18100 34.13900
N  34.28400 50.88300 25.96700
C  34.01000 51.77300 26.93900
C  33.67700 53.07400 26.43300
C  33.69400 52.88700 24.96900
C  34.12400 51.51300 24.73800
C  33.25800 54.34100 27.23400
C  33.42300 53.84500 23.83600
O  33.69400 53.62900 22.68900
C  32.99800 55.20900 24.17100
N  35.16000 48.55000 24.19300
C  34.76400 49.49500 23.28200
C  34.94300 48.96000 21.83400
C  35.77300 47.65500 22.02000
C  35.67200 47.46200 23.52100
C  33.67600 48.77700 21.03900
C  37.23000 47.80700 21.54500
C  37.68700 46.77300 20.51200
N  35.28800 46.81800 26.50200
C  35.74600 45.88600 25.59800
C  36.01400 44.49500 26.24500
C  36.04100 44.89600 27.62400
C  35.51800 46.27200 27.72000
C  36.45600 43.26100 25.58400
C  36.29500 44.47300 28.99100
O  36.66900 43.42300 29.37900
C  35.96400 45.69200 29.92200
C  34.84700 45.30100 30.89900
O  33.69800 44.96500 30.61900
O  35.42800 45.13000 32.17100
C  34.50700 44.86600 33.29800
H  33.81000 52.17400 29.02000
H  34.20200 51.31000 22.57200
H  36.52000 45.48900 23.68300
H  34.15100 48.09800 31.41500
H  34.67200 50.77100 31.01300
H  31.86300 50.34100 30.20800
H  32.68300 50.88200 31.68100
H  32.31700 49.20000 31.51900
H  36.54000 49.68500 31.58100
H  37.00700 48.20100 30.86700
H  37.12200 47.44600 32.91500
H  35.35000 47.50700 33.03200
H  34.14600 54.97000 27.29600
H  32.95200 54.18000 28.26700
H  32.40900 54.80500 26.73100
H  32.01800 55.30700 24.63900
H  32.82100 55.81400 23.28100
H  33.72300 55.77600 24.75500
H  35.47300 49.70900 21.24600
H  35.32100 46.77500 21.56300
H  33.83100 49.37700 20.14300
H  32.91300 49.14400 21.72500
H  33.45300 47.72400 20.86300
H  37.98200 47.86900 22.33200
H  37.33500 48.70700 20.94000
H  38.03500 47.20100 19.57100
H  36.92800 45.99600 20.42900
H  38.57700 46.25400 20.86900
H  36.98300 43.45100 24.64900
H  35.59100 42.61900 25.41500
H  37.16400 42.76900 26.25000
H  36.84500 45.90100 30.52900
H  34.25700 43.80800 33.37000
H  33.59300 45.44200 33.15600
H  35.05000 45.07400 34.22000

