158

Mg 25.04900 -7.23000 47.49000
C  27.24900 -4.74200 46.64700
C  22.97400 -6.22300 44.98900
C  23.19200 -10.08400 47.80900
C  27.74900 -8.74000 49.14500
N  25.19100 -5.76400 45.89300
C  26.16000 -4.75200 45.79800
C  25.81300 -3.72100 44.75200
C  24.35000 -4.14400 44.44400
C  24.13000 -5.48100 45.10100
C  23.26100 -3.21100 44.90600
C  26.81200 -3.77100 43.61100
C  27.36800 -2.38100 43.13100
H  27.09900 -2.02000 41.74100
N  23.16600 -7.87600 46.74900
C  22.53600 -7.37400 45.63600
C  21.37800 -8.12600 45.35600
C  21.30000 -9.21100 46.30300
C  22.59900 -9.14600 46.98800
C  20.39900 -7.85500 44.24500
C  20.18800 -10.20500 46.53100
O  19.16300 -10.14000 45.87900
C  20.28300 -11.31500 47.47400
N  25.45100 -9.12300 48.39900
C  24.47300 -10.07200 48.45400
C  24.95900 -11.29500 49.35300
C  26.40900 -10.91800 49.60700
C  26.59800 -9.57400 48.98000
C  24.23200 -11.42100 50.64300
C  27.38700 -11.97300 48.95100
C  28.36900 -12.70400 49.91400
N  27.06300 -6.78400 47.93500
C  28.00700 -7.47800 48.61600
C  29.19500 -6.68200 48.82200
C  28.88400 -5.53400 48.04400
C  27.64100 -5.68900 47.54900
C  30.35000 -7.05500 49.64800
C  29.36000 -4.25900 47.55100
O  30.44200 -3.69600 47.84600
C  28.23000 -3.66800 46.71500
C  27.61000 -2.46400 47.43000
O  27.09800 -2.51900 48.48700
O  27.80600 -1.26400 46.70600
C  27.02000 -0.13400 47.16500
H  22.32800 -5.83800 44.19800
H  22.70800 -10.99300 48.17300
H  28.57200 -9.19500 49.69900
H  25.99100 -2.78300 45.27900
H  24.31600 -4.29100 43.36500
H  22.63400 -3.68900 45.65800
H  22.66900 -2.72400 44.13000
H  23.74200 -2.43800 45.50600
H  26.35900 -4.37300 42.82400
H  27.65500 -4.40900 43.87400
H  28.44500 -2.52500 43.22400
H  27.08000 -1.52900 43.74700
H  20.05400 -8.84800 43.95700
H  20.86100 -7.33000 43.40900
H  19.52900 -7.30500 44.60500
H  21.06500 -12.07400 47.49300
H  19.31900 -11.79900 47.62800
H  20.54200 -10.76700 48.37900
H  24.81200 -12.17200 48.72200
H  26.73600 -10.70000 50.62400
H  23.56900 -10.57800 50.84000
H  24.88300 -11.57700 51.50300
H  23.70300 -12.36600 50.51600
H  27.92500 -11.62900 48.06800
H  26.78400 -12.81700 48.61600
H  28.22100 -12.29200 50.91200
H  29.42100 -12.56500 49.66300
H  28.12800 -13.76700 49.91300
H  30.99200 -7.62200 48.97400
H  30.09200 -7.54900 50.58500
H  30.85500 -6.09700 49.76700
H  28.57000 -3.54800 45.68700
H  26.54400 0.33000 46.30100
H  27.73500 0.60500 47.52700
H  26.22500 -0.35500 47.87800
Mg -6.10100 24.99800 25.56400
C  -4.16700 26.43700 28.24700
C  -7.80100 23.17300 27.85700
C  -7.74700 23.74300 23.04300
C  -4.10100 26.89000 23.43600
N  -5.93600 24.77400 27.77200
C  -5.17200 25.53200 28.67700
C  -5.62200 25.14500 30.08300
C  -6.47100 23.85700 29.95500
C  -6.77000 23.95000 28.45600
C  -5.84500 22.45700 30.33200
C  -6.21700 26.34300 30.79700
C  -6.05200 26.46600 32.38000
H  -5.58700 25.17000 33.07600
N  -7.56900 23.61800 25.50800
C  -8.16700 23.00000 26.50500
C  -9.20200 22.15000 26.04400
C  -9.20300 22.29300 24.60000
C  -8.18100 23.27300 24.31600
C  -10.06200 21.31700 27.01500
C  -10.20700 21.63200 23.55300
O  -10.36200 21.99400 22.35600
C  -11.34200 20.66300 24.02500
N  -5.84100 25.18200 23.44900
C  -6.64900 24.50700 22.63700
C  -6.18800 24.73800 21.16500
C  -5.26200 26.03900 21.29200
C  -5.05300 26.12700 22.81700
C  -5.56500 23.52300 20.45900
C  -5.94500 27.21300 20.56400
C  -5.12000 28.04900 19.62700
N  -4.41000 26.35000 25.72100
C  -3.74300 27.03800 24.79100
C  -2.72600 27.85400 25.38500
C  -2.83600 27.62600 26.76800
C  -3.89700 26.73200 26.87800
C  -1.80700 28.77700 24.68700
C  -2.36700 27.95600 28.05900
O  -1.44200 28.70400 28.34200
C  -3.21300 27.25000 29.09800
C  -2.28300 26.47900 29.98800
O  -1.46200 25.66400 29.69200
O  -2.55400 26.89900 31.27800
C  -1.81400 26.37900 32.38600
H  -8.34500 22.70100 28.67800
H  -8.10200 23.15500 22.19400
H  -3.45700 27.58400 22.89200
H  -4.66000 24.80900 30.47000
H  -7.29400 24.05000 30.64300
H  -5.75700 21.85800 29.42600
H  -6.57400 22.05400 31.03400
H  -4.85700 22.45400 30.79400
H  -7.27000 26.40600 30.52500
H  -5.74200 27.25700 30.43900
H  -7.08500 26.70800 32.63000
H  -5.47400 27.35700 32.62600
H  -11.09300 21.45500 26.69000
H  -9.93800 21.66500 28.04100
H  -9.64300 20.31300 27.08000
H  -11.95600 20.36100 23.17700
H  -11.88000 20.97800 24.91900
H  -10.68700 19.86900 24.38300
H  -7.11000 24.99300 20.64100
H  -4.28500 25.77700 20.88500
H  -6.20800 23.23800 19.62600
H  -5.27100 22.72400 21.13900
H  -4.58800 23.77300 20.04500
H  -6.19000 27.93300 21.34500
H  -6.82800 26.82500 20.05700
H  -5.70900 28.24800 18.73100
H  -4.26300 27.50600 19.22800
H  -4.90500 29.04700 20.00800
H  -1.02900 28.29600 24.09400
H  -1.21100 29.28400 25.44600
H  -2.29200 29.51500 24.04800
H  -3.70800 28.01800 29.69300
H  -0.79900 26.71200 32.16600
H  -1.76900 25.29000 32.38900
H  -2.17800 26.79300 33.32600

