158

Mg -1.82600 17.71100 26.99600
C  -2.88300 15.53200 29.49800
C  -2.83600 20.30400 28.81900
C  -1.15700 19.59900 24.32800
C  -1.93500 14.82600 24.67900
N  -2.71500 17.83900 28.99900
C  -2.88500 16.86400 29.92200
C  -3.19200 17.48000 31.34100
C  -3.47500 18.97600 30.99100
C  -2.96600 19.07600 29.50300
C  -4.90300 19.51600 31.32400
C  -2.06900 17.37800 32.31000
C  -2.41000 16.71100 33.61500
H  -1.46500 16.78200 34.79100
N  -2.00100 19.72800 26.66300
C  -2.32900 20.64100 27.57300
C  -2.02500 21.93500 27.01400
C  -1.39900 21.74500 25.79000
C  -1.49000 20.32700 25.48600
C  -2.32000 23.28000 27.77200
C  -0.79400 22.78400 24.96000
O  -0.25600 22.52800 23.84200
C  -0.59300 24.13500 25.41400
N  -1.73700 17.23400 24.77600
C  -1.25800 18.26800 23.92900
C  -1.03700 17.72100 22.57900
C  -1.10200 16.18400 22.68500
C  -1.73500 16.08500 24.12900
C  -1.88500 18.28500 21.35200
C  0.22700 15.58800 22.46400
C  1.35000 15.91900 23.46100
N  -2.29100 15.59400 27.05500
C  -2.22700 14.63000 26.07900
C  -2.54700 13.32600 26.72700
C  -2.79700 13.62100 28.07100
C  -2.70300 15.07300 28.19900
C  -2.26500 12.00800 26.21300
C  -3.04400 12.98400 29.36500
O  -3.24000 11.77300 29.66700
C  -2.93700 14.27600 30.38800
C  -1.71100 14.17500 31.33100
O  -0.53000 14.50100 31.16800
O  -2.18100 13.39200 32.36900
C  -1.13700 13.17200 33.45100
H  -3.00000 21.18800 29.43900
H  -0.75800 20.31600 23.60800
H  -1.95000 13.96000 24.01400
H  -4.11400 17.00600 31.67700
H  -2.79200 19.68200 31.46400
H  -4.88000 20.34200 32.03500
H  -5.63500 18.79300 31.68200
H  -5.29500 19.90700 30.38500
H  -1.61000 18.32300 32.60100
H  -1.27300 16.80700 31.83200
H  -2.64100 15.66600 33.40800
H  -3.33500 17.20000 33.92100
H  -3.04300 23.21900 28.58600
H  -2.70400 23.87300 26.94200
H  -1.37900 23.74100 28.07300
H  -0.04800 24.12400 26.35700
H  -1.54800 24.64600 25.53600
H  0.00900 24.72600 24.72400
H  -0.01000 17.88000 22.25200
H  -1.85800 15.72100 22.05100
H  -1.14900 18.37100 20.55300
H  -2.39000 19.21800 21.60400
H  -2.62900 17.60300 20.94100
H  0.58900 16.02800 21.53500
H  0.17400 14.51100 22.30900
H  0.92900 16.23700 24.41500
H  2.11200 16.61400 23.10900
H  1.92900 15.00600 23.59800
H  -1.26300 11.92500 25.79300
H  -2.85600 11.69000 25.35500
H  -2.34600 11.31400 27.05000
H  -3.82900 14.47200 30.98300
H  -1.06700 12.11600 33.19400
H  -1.58700 13.32700 34.43200
H  -0.22200 13.72500 33.24200
Mg 47.17800 24.67600 28.21000
C  48.39500 26.86700 30.60000
C  46.66100 22.38000 30.83100
C  46.04900 22.40400 25.91600
C  48.11800 26.76200 25.77600
N  47.48900 24.60000 30.48500
C  47.89200 25.69500 31.18900
C  47.64900 25.44700 32.66100
C  47.39400 23.92900 32.80900
C  47.23400 23.56600 31.28700
C  48.54200 23.14700 33.46800
C  46.57100 26.43900 33.13600
C  46.90500 27.19800 34.51300
H  45.87900 27.14900 35.59200
N  46.31100 22.75900 28.37800
C  46.30600 21.97100 29.54300
C  45.88300 20.69000 29.19300
C  45.58900 20.67000 27.75800
C  45.95200 22.00100 27.28100
C  45.65400 19.56300 30.19400
C  45.08800 19.56400 26.95300
O  44.79300 19.68100 25.80900
C  44.78100 18.18800 27.59700
N  47.31500 24.44900 26.10700
C  46.75800 23.48000 25.35000
C  46.98400 23.83900 23.84000
C  47.41100 25.32700 23.89300
C  47.63400 25.52400 25.37000
C  47.91500 22.93300 22.90000
C  46.45000 26.33700 23.17900
C  46.81100 26.90300 21.69800
N  48.01700 26.44000 28.20000
C  48.33800 27.22600 27.08900
C  48.95700 28.45200 27.51300
C  48.99600 28.31900 28.89900
C  48.42200 27.11700 29.22500
C  49.45500 29.56300 26.65200
C  49.39400 29.02100 30.12300
O  49.97600 30.03400 30.30300
C  48.77800 28.16000 31.26900
C  49.73900 28.07500 32.37900
O  50.77200 27.44000 32.36400
O  49.22400 28.80700 33.45800
C  49.97800 28.82500 34.70600
H  46.42800 21.66300 31.62200
H  45.53400 21.81800 25.15200
H  48.35800 27.45700 24.96800
H  48.65200 25.67200 33.02200
H  46.50000 23.68500 33.38400
H  49.47200 23.71100 33.54100
H  48.86800 22.36500 32.78300
H  48.20500 22.58700 34.34100
H  45.59600 26.00500 33.35900
H  46.27200 27.14200 32.35900
H  46.96800 28.24800 34.22900
H  47.87700 26.77600 34.77000
H  44.59700 19.29700 30.19100
H  46.02400 19.70700 31.20900
H  46.08900 18.69200 29.70400
H  45.76400 17.86900 27.94400
H  44.54400 17.51200 26.77600
H  43.92300 18.18700 28.26900
H  45.98200 23.80500 23.41100
H  48.35000 25.67900 23.46600
H  48.79400 23.45100 22.51700
H  47.32900 22.63700 22.02900
H  48.27800 22.14700 23.56100
H  46.31500 27.21900 23.80500
H  45.44200 25.92500 23.13100
H  47.67900 26.38900 21.28500
H  47.02400 27.96400 21.82700
H  45.99100 27.00600 20.98700
H  49.63900 29.18400 25.64600
H  50.30600 30.05400 27.12300
H  48.62700 30.26800 26.58500
H  47.84600 28.61700 31.60100
H  51.04900 28.66100 34.59000
H  49.62200 28.06000 35.39600
H  49.93900 29.86700 35.02400

