158

Mg 30.92000 58.23400 40.06000
C  28.15800 56.52400 38.87400
C  32.90700 55.59700 39.13500
C  33.52300 60.24200 40.47300
C  28.86100 61.19600 40.24800
N  30.59500 56.28900 38.97400
C  29.38100 55.74800 38.78200
C  29.48600 54.18300 38.45600
C  31.05700 53.87200 38.74500
C  31.61500 55.36400 38.96800
C  31.15300 52.92200 39.91500
C  29.00600 53.75300 37.01100
C  29.73100 54.53500 35.82700
H  28.75600 55.36300 34.96000
N  32.92400 57.93200 39.89900
C  33.53100 56.81900 39.52200
C  34.96200 57.03800 39.51200
C  35.20700 58.35900 39.87300
C  33.89300 58.90100 40.16600
C  36.05000 56.01800 39.29800
C  36.60300 59.01100 39.97900
O  37.58500 58.34000 39.67100
C  36.82900 60.35700 40.52400
N  31.14300 60.48600 40.37600
C  32.38000 60.99500 40.56500
C  32.31600 62.49900 40.95500
C  30.75900 62.80400 40.75200
C  30.19800 61.40600 40.53200
C  32.93500 62.89900 42.34500
C  30.39500 63.75000 39.58700
C  30.32600 65.26500 39.79300
N  28.88600 58.75300 39.83400
C  28.28700 59.95500 39.88000
C  26.92700 59.75200 39.66600
C  26.77700 58.42500 39.34500
C  28.04700 57.86400 39.28500
C  25.79300 60.78600 39.68400
C  25.86100 57.32500 38.94800
O  24.61600 57.28200 38.78900
C  26.74200 56.05800 38.77100
C  26.51800 54.94700 39.76000
O  27.17500 54.71200 40.79600
O  25.56100 54.06400 39.27200
C  25.21400 52.98500 40.20700
H  33.47300 54.66700 39.04100
H  34.40200 60.86000 40.66600
H  28.18600 62.05200 40.30800
H  28.89900 53.66700 39.21500
H  31.61000 53.41400 37.92600
H  30.19300 52.69200 40.37700
H  31.62600 53.49900 40.71000
H  31.67500 52.00100 39.65300
H  27.94100 53.77700 36.78000
H  29.34300 52.72400 36.88700
H  30.22700 53.83700 35.15300
H  30.37100 55.28600 36.29000
H  36.73600 56.35600 38.52100
H  35.72300 54.97900 39.25600
H  36.66700 56.04100 40.19600
H  36.31600 60.55000 41.46600
H  36.60000 61.04600 39.71100
H  37.89900 60.42300 40.72000
H  32.79500 63.16300 40.23600
H  30.38200 63.25200 41.67200
H  32.21400 62.98600 43.15800
H  33.62800 63.73400 42.24800
H  33.59100 62.07000 42.61000
H  29.48100 63.43500 39.08400
H  31.09300 63.53300 38.77900
H  29.50400 65.71200 39.23400
H  31.23600 65.73900 39.42400
H  30.06800 65.44900 40.83600
H  26.20700 61.75300 39.39800
H  25.38300 60.86300 40.69100
H  25.08500 60.45400 38.92500
H  26.55000 55.69300 37.76200
H  24.40600 53.36100 40.83500
H  26.05900 52.63900 40.80300
H  24.94500 52.17500 39.52900
Mg -1.76500 35.24500 26.47600
C  -3.76100 33.84900 29.13300
C  -1.01200 37.80700 28.72400
C  -0.12500 36.69900 24.03300
C  -3.00200 32.86100 24.34200
N  -2.49900 35.79600 28.63800
C  -3.11100 35.01400 29.55500
C  -2.98100 35.49600 31.00500
C  -2.24200 36.90700 30.79200
C  -1.87400 36.84400 29.30500
C  -2.98300 38.22100 31.23600
C  -2.19700 34.51900 31.85500
C  -1.61700 35.06300 33.18700
H  -1.83100 34.26600 34.47000
N  -0.68400 36.92000 26.45100
C  -0.51300 37.89000 27.38400
C  0.47800 38.86200 26.93400
C  0.87300 38.45900 25.62100
C  -0.07600 37.35800 25.30300
C  1.08900 39.94900 27.77800
C  1.92100 38.95200 24.68500
O  2.20000 38.63300 23.53400
C  2.67500 40.11800 25.19300
N  -1.70800 34.89500 24.43500
C  -0.86400 35.60300 23.61200
C  -0.76700 35.03200 22.26100
C  -1.53500 33.65400 22.39500
C  -2.13000 33.83500 23.78000
C  -1.32800 35.98500 21.16200
C  -0.54500 32.44900 22.34900
C  0.23300 31.98900 23.64200
N  -3.03500 33.57500 26.68100
C  -3.54500 32.80700 25.64600
C  -4.60500 31.93400 26.09500
C  -4.60500 32.22900 27.50000
C  -3.72200 33.33500 27.79000
C  -5.50900 31.02300 25.37200
C  -5.12300 31.90200 28.78300
O  -5.97500 31.01900 28.99700
C  -4.60700 32.86700 29.93700
C  -5.76200 33.44900 30.72100
O  -6.62200 34.24100 30.40400
O  -5.66600 32.90800 31.95800
C  -6.86100 33.06700 32.84800
H  -0.65300 38.55700 29.43200
H  0.40100 37.13700 23.18200
H  -3.42700 32.18100 23.60000
H  -4.01800 35.60300 31.32600
H  -1.27000 36.92500 31.28500
H  -3.92300 38.12900 31.77900
H  -3.00800 38.87100 30.36100
H  -2.33500 38.68500 31.98000
H  -1.42900 34.18500 31.15700
H  -2.91600 33.70900 31.98000
H  -2.01100 36.07400 33.28200
H  -0.52800 35.03400 33.14700
H  0.73500 39.90500 28.80800
H  0.84400 40.89800 27.30200
H  2.16300 39.76300 27.80100
H  2.06200 40.96700 25.49500
H  3.48800 40.42800 24.53600
H  3.26800 39.78000 26.04400
H  0.28800 34.81900 22.08700
H  -2.29200 33.52600 21.62200
H  -2.27200 35.70400 20.69500
H  -0.57700 36.05100 20.37500
H  -1.43200 36.97800 21.60000
H  0.19400 32.66700 21.57900
H  -1.14000 31.58300 22.05800
H  1.31000 32.14100 23.57700
H  0.11500 30.92700 23.86000
H  -0.09600 32.54200 24.52200
H  -5.13800 30.94400 24.35000
H  -6.55100 31.32300 25.26900
H  -5.52800 29.99300 25.72900
H  -3.99000 32.19100 30.53000
H  -6.52500 33.66900 33.69200
H  -7.16100 32.14400 33.34500
H  -7.73500 33.58000 32.44800

