158

Mg 1.07500 7.52200 25.79700
C  1.72500 9.49000 28.66300
C  1.30700 4.71800 27.71600
C  0.87100 5.75300 22.87300
C  1.21300 10.38500 23.81900
N  1.43000 7.20800 27.94600
C  1.49800 8.14600 28.99000
C  1.22800 7.44400 30.33400
C  1.52500 5.90800 30.02400
C  1.49200 5.91800 28.47900
C  2.87400 5.18500 30.56400
C  -0.28600 7.81200 30.84700
C  -0.33700 8.13800 32.35100
H  0.67000 7.49400 33.24900
N  0.87900 5.58800 25.41400
C  1.07400 4.59500 26.32100
C  0.87200 3.32400 25.68000
C  0.85600 3.53900 24.19200
C  0.85400 5.02800 24.13800
C  0.80700 1.99100 26.45800
C  0.67100 2.53200 23.16200
O  0.74500 2.75600 21.95500
C  0.39700 1.04300 23.53000
N  1.09000 7.93800 23.67200
C  0.93500 7.07700 22.66000
C  1.00800 7.77400 21.27600
C  0.67700 9.22100 21.64500
C  1.00600 9.18800 23.14700
C  2.29700 7.63200 20.41200
C  -0.79800 9.76800 21.21800
C  -0.84200 11.07100 20.35700
N  1.60900 9.51200 26.05600
C  1.51900 10.52600 25.19100
C  1.67200 11.78900 25.86400
C  1.80600 11.46000 27.19500
C  1.69200 10.06900 27.30700
C  1.69600 13.23400 25.33300
C  2.03700 11.99700 28.60000
O  2.21500 13.14800 29.00000
C  1.76300 10.69900 29.64200
C  2.89200 10.66700 30.63400
O  3.98900 10.12400 30.55800
O  2.38500 11.11100 31.80800
C  3.24800 11.15700 32.92300
H  1.35400 3.89600 28.43300
H  0.83600 5.16600 21.95300
H  1.05000 11.29500 23.23700
H  1.99800 7.79900 31.01900
H  0.67600 5.37100 30.44700
H  3.30500 4.61100 29.74400
H  2.76800 4.61900 31.48900
H  3.59600 5.98600 30.72600
H  -0.96000 6.97600 30.66000
H  -0.63300 8.68800 30.29900
H  -1.26300 7.80500 32.81900
H  -0.27700 9.20600 32.56400
H  1.66000 1.33300 26.29200
H  -0.15300 1.56800 26.16200
H  0.84300 2.20000 27.52700
H  1.29300 0.64900 24.01100
H  0.15400 0.40300 22.68200
H  -0.44300 0.99100 24.22200
H  0.21100 7.31600 20.69100
H  1.41700 9.88200 21.19400
H  3.11000 7.61400 21.13900
H  2.41400 8.50200 19.76700
H  2.22900 6.74700 19.77900
H  -1.38900 9.88200 22.12600
H  -1.41300 8.98900 20.76700
H  -1.43600 10.99600 19.44700
H  0.17900 11.30900 20.05800
H  -1.25400 11.82800 21.02400
H  0.78200 13.72800 25.66100
H  1.46700 13.33600 24.27200
H  2.57900 13.84500 25.52300
H  0.80000 10.75500 30.15000
H  2.77800 11.48400 33.85000
H  4.10300 11.79200 32.69000
H  3.53600 10.13400 33.16700
Mg -5.54400 25.47000 26.28400
C  -4.00500 26.73200 29.14000
C  -7.44000 23.42900 28.45700
C  -6.66100 23.90000 23.65100
C  -3.55600 27.50400 24.32300
N  -5.62700 25.12200 28.49900
C  -4.97800 25.84500 29.43000
C  -5.61900 25.71400 30.79100
C  -6.45900 24.33900 30.66800
C  -6.58100 24.27200 29.09800
C  -5.77200 23.09400 31.35600
C  -6.45700 27.05900 31.28500
C  -6.15400 27.43700 32.72400
H  -5.88100 26.23600 33.61300
N  -7.06600 23.98100 26.06300
C  -7.64600 23.27700 27.09000
C  -8.52300 22.25500 26.47200
C  -8.24600 22.35600 25.02000
C  -7.24900 23.42500 24.87900
C  -9.41400 21.30400 27.26300
C  -8.70200 21.42600 23.88700
O  -8.32700 21.55200 22.69600
C  -9.69100 20.32200 24.23100
N  -5.35000 25.84300 24.25800
C  -5.86000 24.98800 23.27500
C  -5.55600 25.48500 21.84700
C  -4.48700 26.65500 22.12100
C  -4.46000 26.70500 23.71600
C  -4.99700 24.52200 20.83800
C  -4.92500 28.09200 21.55500
C  -5.68100 28.16500 20.23100
N  -3.90100 26.62700 26.60800
C  -3.30500 27.49000 25.68200
C  -2.36300 28.34300 26.45400
C  -2.60000 28.04700 27.72900
C  -3.51100 26.98300 27.85500
C  -1.52700 29.50600 25.88000
C  -2.30000 28.56600 29.05900
O  -1.52000 29.40500 29.42600
C  -3.15400 27.74300 30.05400
C  -2.24900 26.94100 30.93000
O  -1.81200 25.82100 30.75000
O  -1.96300 27.63700 32.06800
C  -1.42900 26.86300 33.20100
H  -7.96600 22.80500 29.18300
H  -6.99900 23.35800 22.76600
H  -3.08700 28.22900 23.65400
H  -4.79100 25.51600 31.47200
H  -7.47800 24.36200 31.05400
H  -5.14000 23.34600 32.20700
H  -5.24600 22.51300 30.59900
H  -6.55100 22.44200 31.75000
H  -7.53800 26.95300 31.19000
H  -6.24000 27.86800 30.58700
H  -7.02700 27.93700 33.14300
H  -5.35800 28.18200 32.71800
H  -9.36100 21.59700 28.31200
H  -9.04700 20.31500 26.98800
H  -10.43400 21.30700 26.87900
H  -9.80700 19.74000 23.31600
H  -10.59400 20.65600 24.74200
H  -9.12100 19.65500 24.87800
H  -6.49800 25.90200 21.49000
H  -3.42900 26.45800 21.94700
H  -3.97300 24.66100 20.49100
H  -5.76400 24.44700 20.06800
H  -5.06800 23.56100 21.34700
H  -3.91800 28.48800 21.42100
H  -5.44600 28.69600 22.29800
H  -6.41800 28.94000 20.01900
H  -6.05900 27.23100 19.81600
H  -4.83500 28.33200 19.56400
H  -2.04900 29.81800 24.97500
H  -0.54400 29.15800 25.56500
H  -1.51700 30.29200 26.63500
H  -3.78200 28.42100 30.63200
H  -0.35800 27.00900 33.34700
H  -1.50300 25.77600 33.17300
H  -1.99100 27.19500 34.07400

