158

Mg 1.39600 42.11900 25.72100
C  2.92900 42.38900 28.91800
C  -1.30800 40.64700 27.24000
C  0.10800 41.88200 22.80300
C  4.48000 43.23800 24.41300
N  0.86900 41.46700 27.93300
C  1.55800 41.96100 28.99200
C  0.69800 41.67600 30.27400
C  -0.59100 40.99000 29.77700
C  -0.35100 40.99800 28.24800
C  -0.98600 39.70600 30.51100
C  0.51000 42.97000 31.07800
C  0.82300 42.88800 32.60400
H  0.69100 41.53800 33.29100
N  -0.18200 41.15400 25.08200
C  -1.20300 40.66800 25.81400
C  -2.29700 40.26000 24.97000
C  -1.98700 40.76600 23.68200
C  -0.64000 41.29700 23.79900
C  -3.57200 39.59500 25.39600
C  -2.89600 40.83000 22.44900
O  -2.47600 41.32100 21.38100
C  -4.29000 40.49300 22.45000
N  2.25500 42.48000 23.92200
C  1.47600 42.28200 22.78500
C  2.13900 42.84300 21.54500
C  3.43100 43.47700 22.09400
C  3.40200 43.08300 23.54300
C  2.35000 41.87000 20.36400
C  3.48400 45.06500 22.02900
C  4.15600 45.54500 20.76100
N  3.31100 42.70900 26.45800
C  4.45100 43.11100 25.80300
C  5.48800 43.32800 26.76300
C  4.96000 43.00400 27.94200
C  3.63500 42.62700 27.74500
C  7.02400 43.78400 26.55500
C  5.30300 43.01600 29.32600
O  6.28000 43.32500 29.92300
C  3.92900 42.63600 30.13600
C  4.29800 41.41900 30.93000
O  4.37800 40.31600 30.44900
O  4.33500 41.73700 32.24900
C  4.44000 40.60100 33.17400
H  -2.20300 40.31200 27.76700
H  -0.31200 42.04800 21.80900
H  5.41400 43.62800 24.00300
H  1.33000 40.95000 30.78600
H  -1.44900 41.64100 29.94600
H  -1.04600 38.89300 29.78700
H  -1.96600 39.76900 30.98300
H  -0.29600 39.53500 31.33800
H  -0.54400 43.24800 31.06700
H  1.17900 43.74700 30.70800
H  0.01600 43.56100 32.89500
H  1.74500 43.40800 32.86400
H  -4.40900 40.29200 25.35400
H  -3.40700 39.20300 26.40000
H  -3.70200 38.73800 24.73500
H  -4.52100 39.52700 22.90000
H  -4.62800 40.44100 21.41500
H  -4.90300 41.18100 23.03200
H  1.50700 43.67900 21.24600
H  4.33600 43.14600 21.58500
H  1.37700 41.75000 19.88800
H  2.62700 40.87200 20.70400
H  2.96100 42.24700 19.54400
H  3.85300 45.38100 23.00500
H  2.42700 45.33100 22.00400
H  4.42000 44.68400 20.14800
H  5.08500 46.09800 20.90300
H  3.44600 46.20100 20.25700
H  7.58100 42.90000 26.86600
H  7.22700 44.49500 27.35600
H  7.27200 44.14100 25.55500
H  3.64100 43.40200 30.85600
H  5.49800 40.40700 33.34900
H  4.06600 39.70100 32.68600
H  3.85400 40.76000 34.07900
Mg -5.62800 25.27100 25.61500
C  -4.16200 26.25100 28.70100
C  -7.54800 22.83900 27.44800
C  -6.76400 23.95000 22.74300
C  -3.48500 27.26200 24.01800
N  -5.70600 24.50200 27.84000
C  -5.03700 25.13000 28.90700
C  -5.54700 24.64100 30.24000
C  -6.49500 23.43300 29.76200
C  -6.57900 23.54100 28.23500
C  -5.89500 22.10200 30.25100
C  -6.35800 25.71200 31.07100
C  -6.13700 25.82600 32.59300
H  -5.23300 24.76500 33.24000
N  -7.13400 23.70900 25.18600
C  -7.85300 22.90800 26.05700
C  -8.90600 22.25900 25.34300
C  -8.68200 22.57600 23.91900
C  -7.40600 23.39700 23.91500
C  -10.00200 21.57600 26.13000
C  -9.46100 22.18400 22.68700
O  -9.18800 22.50200 21.55400
C  -10.57900 21.28700 22.82100
N  -5.08500 25.46300 23.72800
C  -5.67100 24.80200 22.63700
C  -5.06300 25.21500 21.31700
C  -4.19100 26.49100 21.70400
C  -4.24300 26.41500 23.25100
C  -4.20900 23.90700 20.77900
C  -4.63300 27.84100 21.07500
C  -3.45900 28.54500 20.40400
N  -4.19000 26.53200 26.13000
C  -3.46900 27.43200 25.35600
C  -2.62100 28.22600 26.17300
C  -2.85700 27.79900 27.46700
C  -3.84500 26.73200 27.41400
C  -1.64700 29.26500 25.83600
C  -2.45700 28.10300 28.80400
O  -1.72600 28.90500 29.26800
C  -3.34300 27.01700 29.64000
C  -2.46900 26.29400 30.66900
O  -1.80500 25.27500 30.43500
O  -2.46800 27.00300 31.83500
C  -1.39500 26.46200 32.75100
H  -8.16500 22.12300 27.99500
H  -6.96100 23.52300 21.75700
H  -2.83400 27.91400 23.43300
H  -4.63800 24.30500 30.74000
H  -7.51300 23.52900 30.14000
H  -6.64100 21.44600 30.69900
H  -5.10100 22.22800 30.98600
H  -5.59300 21.62600 29.31800
H  -7.43700 25.56600 31.01800
H  -6.23600 26.73800 30.72500
H  -7.01800 25.84000 33.23400
H  -5.68300 26.81000 32.70600
H  -9.75400 20.51400 26.11300
H  -10.96000 21.66000 25.61700
H  -10.14100 21.99400 27.12700
H  -11.12000 21.20000 21.87900
H  -11.30600 21.64100 23.55300
H  -10.20500 20.29000 23.05300
H  -5.80800 25.52000 20.58200
H  -3.20200 26.24000 21.32200
H  -4.75000 23.36400 20.00400
H  -3.97400 23.22100 21.59400
H  -3.25300 24.28000 20.41200
H  -4.94500 28.48000 21.90100
H  -5.49400 27.86400 20.40800
H  -3.72000 29.17500 19.55400
H  -2.63500 27.84400 20.26800
H  -2.99700 29.18700 21.15300
H  -1.75300 29.63200 24.81500
H  -0.66100 28.80600 25.90500
H  -1.82000 30.18900 26.38600
H  -4.11400 27.52000 30.22400
H  -1.32000 27.01000 33.69000
H  -0.41100 26.62100 32.31000
H  -1.53100 25.38100 32.78700

