158

Mg -1.77900 17.55400 27.07200
C  -2.34200 15.24100 29.83200
C  -2.63000 20.04100 29.35800
C  -1.76800 19.65400 24.56000
C  -1.62700 14.76700 25.03800
N  -2.33100 17.70400 29.35500
C  -2.36200 16.62200 30.27600
C  -2.62700 17.12500 31.71000
C  -3.02700 18.56400 31.49300
C  -2.66700 18.83100 30.04000
C  -4.62600 18.70000 31.67600
C  -1.42800 16.77300 32.67900
C  -0.99700 17.70700 33.90400
H  -0.87000 16.91800 35.23200
N  -1.96000 19.54400 27.03600
C  -2.32600 20.35800 28.03300
C  -2.48200 21.69100 27.45300
C  -2.09300 21.63300 26.14700
C  -1.94400 20.22500 25.82800
C  -2.92400 23.00700 28.22400
C  -1.89200 22.70700 25.09900
O  -1.40900 22.57400 23.97500
C  -2.00700 24.16900 25.53400
N  -1.55400 17.23800 25.09300
C  -1.59700 18.27100 24.22300
C  -1.41200 17.79100 22.78900
C  -1.17800 16.26100 22.96800
C  -1.49800 16.03200 24.44200
C  -2.66700 18.10900 21.88200
C  0.30800 15.78900 22.70300
C  1.35200 16.58600 23.48500
N  -1.87700 15.46500 27.33700
C  -1.78000 14.41900 26.39700
C  -2.05300 13.16400 27.03200
C  -2.20600 13.48300 28.39800
C  -2.16400 14.85600 28.49700
C  -2.05800 11.91100 26.22900
C  -2.47500 12.76200 29.70700
O  -2.69600 11.63100 30.07400
C  -2.60500 13.98500 30.72700
C  -1.47400 13.66200 31.68500
O  -0.20600 13.85200 31.53800
O  -2.03000 13.09100 32.77500
C  -1.17100 12.62200 33.78500
H  -2.80900 20.88500 30.02700
H  -1.88800 20.40000 23.77100
H  -1.63200 13.95500 24.30800
H  -3.43500 16.49000 32.07200
H  -2.54500 19.31300 32.12200
H  -5.04300 17.70600 31.84200
H  -4.99600 18.88300 30.66700
H  -4.91000 19.41900 32.44400
H  -0.56800 16.76500 32.00800
H  -1.54500 15.79800 33.15100
H  -1.56100 18.61200 34.12900
H  0.08100 17.84600 33.81600
H  -2.12700 23.74400 28.31800
H  -3.22400 22.66600 29.21500
H  -3.81200 23.40500 27.73200
H  -2.99200 24.39500 25.94200
H  -1.95600 24.73300 24.60300
H  -1.13900 24.31600 26.17600
H  -0.60400 18.31900 22.28200
H  -1.96300 15.63600 22.54200
H  -2.32100 18.43200 20.90000
H  -3.29000 18.95500 22.17200
H  -3.36200 17.27300 21.79800
H  0.50800 15.87200 21.63400
H  0.50600 14.72500 22.83200
H  0.83700 17.32100 24.10300
H  2.01300 16.93000 22.69000
H  1.89200 15.83900 24.06700
H  -1.38300 12.09500 25.39300
H  -3.06700 11.70200 25.87200
H  -1.83200 11.11500 26.93900
H  -3.54900 14.09500 31.26100
H  -1.74800 11.90300 34.36700
H  -0.97900 13.53200 34.35300
H  -0.20300 12.30500 33.39500
Mg 49.36400 47.29400 42.28900
C  46.03600 47.32900 41.46800
C  49.84100 44.32400 40.63800
C  52.61800 47.79500 42.59600
C  48.99300 50.84000 43.25300
N  48.00900 46.05200 41.07400
C  46.65600 46.22100 40.99100
C  46.12300 45.03100 40.11200
C  47.31200 43.95100 40.09100
C  48.46100 44.81700 40.64800
C  47.02000 42.57600 40.92600
C  45.71900 45.58400 38.68900
C  44.48800 44.91900 38.04300
H  44.98100 43.91700 36.92500
N  50.94500 46.16500 41.82100
C  50.94100 44.94800 41.16600
C  52.27000 44.44200 41.14000
C  53.10600 45.46000 41.70000
C  52.20600 46.53600 42.12300
C  52.72300 43.17700 40.58300
C  54.63000 45.30200 41.87400
O  55.29200 44.30300 41.47800
C  55.42600 46.26600 42.87100
N  50.67400 49.05200 42.91400
C  51.98200 48.92200 42.95800
C  52.66600 50.24800 43.22900
C  51.50700 51.27700 43.28100
C  50.29400 50.37400 43.15900
C  53.70900 50.36200 44.37700
C  51.46000 52.48300 42.38200
C  51.30600 53.79900 43.22100
N  47.83500 48.78200 42.51800
C  47.79500 50.14900 42.87500
C  46.45600 50.64200 42.68200
C  45.72100 49.56600 42.21000
C  46.61300 48.43100 42.09300
C  45.97000 51.96300 43.05100
C  44.40600 49.17500 41.84200
O  43.37200 49.88000 41.84200
C  44.58000 47.65000 41.51400
C  43.81800 46.87000 42.58000
O  44.03900 47.08400 43.77300
O  43.11500 45.87400 41.98300
C  42.44900 44.81700 42.78700
H  49.93200 43.30200 40.26400
H  53.69800 47.93900 42.52500
H  48.77000 51.88600 43.47200
H  45.23000 44.72700 40.65800
H  47.43300 43.69200 39.03900
H  46.80000 41.71400 40.29700
H  46.08600 42.70500 41.47400
H  47.88600 42.30700 41.53000
H  46.62100 45.48200 38.08500
H  45.60900 46.65800 38.83800
H  43.88100 45.74400 37.66900
H  43.79100 44.32500 38.63400
H  51.95500 42.61800 40.04800
H  53.10300 42.52600 41.37000
H  53.48000 43.39000 39.82800
H  55.73800 47.17600 42.35900
H  56.31800 45.73100 43.19800
H  54.86500 46.49200 43.77800
H  53.15900 50.28300 42.25800
H  51.41800 51.61200 44.31400
H  54.62600 50.88700 44.10900
H  54.02800 49.36600 44.68300
H  53.25700 50.83500 45.24800
H  50.58300 52.37100 41.74400
H  52.35200 52.28800 41.78600
H  51.34800 53.69100 44.30400
H  50.26100 54.07600 43.08200
H  51.97300 54.53800 42.77800
H  46.39500 52.25500 44.01200
H  44.89900 51.92900 43.25200
H  46.39500 52.77000 42.45400
H  44.02000 47.29700 40.64800
H  43.23500 44.22300 43.25400
H  42.01600 44.09700 42.09300
H  41.77700 45.19800 43.55600

