158

Mg -1.91000 16.89300 25.11600
C  -2.16100 14.85500 27.90600
C  -2.92300 19.48900 26.96400
C  -1.78300 18.78600 22.27600
C  -1.20400 13.98500 23.21900
N  -2.59000 17.16800 27.25800
C  -2.59800 16.22000 28.18200
C  -2.96300 16.86800 29.60100
C  -3.52300 18.26300 29.13400
C  -3.05900 18.27700 27.67400
C  -5.07300 18.52200 29.21300
C  -1.80600 16.94600 30.59900
C  -1.78000 16.04600 31.84200
H  -2.47600 16.61200 33.00900
N  -2.20700 18.92100 24.71500
C  -2.56200 19.81500 25.64600
C  -2.56200 21.15200 25.05800
C  -2.26800 21.00000 23.68300
C  -2.13900 19.48300 23.47200
C  -2.70900 22.41400 25.86700
C  -2.21400 21.93200 22.57200
O  -1.94100 21.57400 21.47700
C  -2.43300 23.35500 22.87400
N  -1.63700 16.39300 22.96300
C  -1.42100 17.40000 22.10600
C  -1.04500 16.88100 20.72300
C  -0.68400 15.39300 21.15000
C  -1.20400 15.22300 22.54300
C  -2.05900 17.06300 19.47500
C  0.79400 15.07300 21.07600
C  1.64400 16.01300 21.90700
N  -1.82600 14.78400 25.43200
C  -1.55800 13.75500 24.54800
C  -1.69700 12.50300 25.24300
C  -1.86800 12.89800 26.61800
C  -1.97900 14.30800 26.63400
C  -1.56300 11.07000 24.67200
C  -1.95700 12.49700 27.97800
O  -1.91700 11.35200 28.46300
C  -1.95900 13.78100 28.84200
C  -0.74600 14.01900 29.54900
O  0.20200 14.68500 29.22000
O  -0.69100 13.28900 30.67500
C  0.61800 13.23300 31.29500
H  -3.23100 20.36500 27.54000
H  -1.63200 19.29000 21.31900
H  -1.01100 13.08800 22.62600
H  -3.76800 16.33100 30.10100
H  -3.09400 19.09800 29.68700
H  -5.64000 17.74600 29.72600
H  -5.52900 18.87800 28.28900
H  -5.10300 19.40200 29.85500
H  -1.55400 17.96000 30.90700
H  -0.93300 16.83800 29.95600
H  -0.77200 15.77000 32.15200
H  -2.14000 15.06900 31.52000
H  -1.87700 23.11800 25.84400
H  -2.81200 22.13300 26.91500
H  -3.59500 23.00900 25.64500
H  -2.84500 23.78400 21.96000
H  -1.48400 23.85600 23.06600
H  -3.21500 23.50600 23.61800
H  -0.13100 17.38900 20.41600
H  -1.21600 14.68000 20.52100
H  -1.62000 17.51600 18.58600
H  -2.92600 17.64600 19.78400
H  -2.33500 16.03800 19.22600
H  1.00400 15.08800 20.00600
H  0.87600 14.02100 21.34900
H  2.14700 15.42600 22.67600
H  1.26700 16.99000 22.21100
H  2.43900 16.40800 21.27500
H  -1.70700 11.01800 23.59200
H  -2.39300 10.67300 25.25700
H  -0.60200 10.61600 24.91200
H  -2.83700 13.81500 29.48700
H  1.50600 13.48100 30.71200
H  0.74800 12.23600 31.71500
H  0.64800 14.00000 32.06900
Mg 9.50200 47.31900 25.85600
C  7.38700 47.02400 28.48900
C  12.05100 48.12300 27.95600
C  11.48500 47.71600 23.14900
C  6.76700 46.99400 23.54300
N  9.75700 47.56900 27.94600
C  8.72900 47.28400 28.88700
C  9.23100 47.57700 30.35100
C  10.75000 47.83400 30.15800
C  10.87900 47.82300 28.58000
C  11.21700 49.20700 30.81600
C  8.80900 46.46200 31.29300
C  9.80300 46.06500 32.38200
H  9.23600 45.43900 33.68500
N  11.50800 47.89500 25.55300
C  12.41100 48.18300 26.56700
C  13.71100 48.42500 25.99800
C  13.57700 48.21200 24.52300
C  12.14500 47.91900 24.34500
C  14.97700 48.62700 26.84000
C  14.68600 48.23400 23.31800
O  14.40100 48.09000 22.10000
C  16.15700 48.46600 23.72000
N  9.15600 47.48700 23.58800
C  10.17100 47.61300 22.74200
C  9.77700 47.47600 21.27900
C  8.15000 47.37800 21.41100
C  8.03400 47.25400 22.94000
C  10.19100 48.72500 20.33300
C  7.49900 46.18300 20.65700
C  6.84500 46.65100 19.37200
N  7.48200 47.05700 25.91000
C  6.47000 46.94000 24.96900
C  5.20100 46.84400 25.58500
C  5.51200 46.83300 26.96600
C  6.91000 46.93000 27.13800
C  3.83400 46.77300 24.87100
C  4.91600 46.71700 28.30000
O  3.75800 46.47200 28.54700
C  6.12400 46.96400 29.31600
C  6.01900 45.82500 30.32800
O  6.22600 44.68500 30.08500
O  5.54100 46.36400 31.48300
C  5.18400 45.35700 32.51000
H  12.89200 48.19700 28.64800
H  12.11400 47.66600 22.25900
H  5.85800 47.03500 22.93800
H  8.77000 48.52100 30.64200
H  11.36200 47.06500 30.62900
H  10.49400 49.69800 31.46700
H  11.49600 49.83000 29.96600
H  11.98500 49.17000 31.58800
H  8.66300 45.60000 30.64200
H  7.91000 46.73300 31.84600
H  10.42000 46.92200 32.65100
H  10.47600 45.25300 32.10800
H  14.78800 48.47600 27.90300
H  15.31300 49.62200 26.54700
H  15.78400 47.97300 26.51100
H  16.24600 49.35600 24.34200
H  16.62000 48.59000 22.74100
H  16.59000 47.49500 23.96000
H  10.25900 46.54300 20.98500
H  7.69500 48.34400 21.19300
H  10.44600 49.55500 20.99300
H  9.39600 49.07200 19.67300
H  11.04500 48.56500 19.67500
H  6.77500 45.69700 21.31100
H  8.21800 45.44500 20.29900
H  7.22200 46.05300 18.54200
H  7.06300 47.70400 19.19300
H  5.75800 46.58100 19.34800
H  3.21000 46.16800 25.52900
H  4.02400 46.23200 23.94400
H  3.48000 47.78300 24.66900
H  5.90600 47.95300 29.71800
H  4.73900 44.42400 32.16700
H  4.53600 45.87800 33.21500
H  6.17400 45.18800 32.93400

