158

Mg -1.70800 16.96500 26.28600
C  -2.23200 15.01800 29.08000
C  -1.95700 19.76100 28.16200
C  -1.87400 18.78500 23.31200
C  -1.89700 14.07300 24.23500
N  -2.21000 17.26700 28.35200
C  -2.34900 16.36100 29.33300
C  -2.70800 17.05200 30.74200
C  -2.50400 18.61600 30.36500
C  -2.16000 18.53100 28.85700
C  -3.71600 19.54400 30.69300
C  -1.75300 16.50700 31.87200
C  -1.49400 17.39100 33.11600
H  -1.25500 16.58100 34.42500
N  -1.73500 18.97600 25.80300
C  -1.97800 19.98500 26.70000
C  -2.18600 21.24600 25.99600
C  -2.19000 20.95300 24.60100
C  -1.86300 19.54500 24.51700
C  -2.41900 22.55800 26.66400
C  -2.54600 21.87600 23.47900
O  -2.52800 21.53200 22.30500
C  -3.17900 23.18300 23.75700
N  -1.75000 16.43600 24.02700
C  -1.85100 17.42500 23.05200
C  -1.84300 16.75700 21.64900
C  -1.69900 15.21600 21.90100
C  -1.81600 15.17800 23.44800
C  -3.02300 17.21600 20.74000
C  -0.53500 14.36700 21.28800
C  0.89800 14.74000 21.79700
N  -1.99300 15.00200 26.53600
C  -2.03200 14.00400 25.63600
C  -2.07100 12.74800 26.36600
C  -2.15000 13.06900 27.68600
C  -2.10700 14.49700 27.77100
C  -2.06700 11.34300 25.80000
C  -2.19600 12.52900 28.99900
O  -2.20800 11.36200 29.37600
C  -2.32000 13.76600 30.02900
C  -1.25100 13.56800 31.01300
O  -0.05000 13.70300 30.81100
O  -1.77000 13.02300 32.15600
C  -0.79600 12.73100 33.13300
H  -1.96800 20.62700 28.82700
H  -1.94300 19.34200 22.37600
H  -1.86800 13.17300 23.61800
H  -3.75500 16.86500 30.97900
H  -1.58600 19.02800 30.78500
H  -3.26600 20.38600 31.21900
H  -4.37500 19.08500 31.43100
H  -4.30800 19.88000 29.84200
H  -0.83600 16.23700 31.34700
H  -2.18900 15.61200 32.31600
H  -2.31500 18.08100 33.30900
H  -0.61100 18.00200 32.92300
H  -1.53300 23.17300 26.50600
H  -2.60000 22.37700 27.72400
H  -3.32100 23.06700 26.32400
H  -4.11500 22.99900 24.28500
H  -3.30300 23.65900 22.78500
H  -2.58900 23.86900 24.36500
H  -0.85300 16.92300 21.22500
H  -2.55400 14.69800 21.46800
H  -3.52100 17.84000 21.48200
H  -3.73000 16.45700 20.40400
H  -2.76400 17.89100 19.92500
H  -0.54100 14.81600 20.29400
H  -0.72300 13.29300 21.28500
H  1.52200 15.22600 21.04700
H  1.39000 13.93000 22.33500
H  0.95000 15.51600 22.56100
H  -1.61900 10.74700 26.59500
H  -1.56500 11.31100 24.83300
H  -3.09600 11.03600 25.61600
H  -3.21000 13.82600 30.65500
H  -0.33000 13.68700 33.37400
H  -0.00700 12.06400 32.78400
H  -1.19300 12.28300 34.04400
Mg 25.49500 0.16100 28.76400
C  27.45000 -0.23900 31.80800
C  22.80400 0.61200 30.71900
C  23.72300 0.51200 25.91200
C  28.44300 -0.26400 26.96600
N  25.21400 0.19700 31.04800
C  26.13600 0.13100 32.07900
C  25.47600 0.38500 33.48000
C  23.99800 0.75100 33.10200
C  24.01700 0.51500 31.52500
C  22.86000 0.14200 33.92300
C  26.18100 1.48000 34.29600
C  26.91900 1.11100 35.54800
H  26.60900 1.85600 36.86200
N  23.53900 0.40300 28.39700
C  22.55400 0.53900 29.32700
C  21.24800 0.77800 28.66300
C  21.48600 0.79300 27.23500
C  22.95900 0.51000 27.08500
C  19.93700 1.11000 29.37800
C  20.55700 1.00500 26.07300
O  20.95200 0.80300 24.94800
C  19.22600 1.52800 26.25000
N  25.99800 -0.08600 26.68400
C  25.10700 0.26800 25.74500
C  25.68700 0.24500 24.33400
C  27.24700 0.13900 24.63600
C  27.28800 0.01700 26.23100
C  25.26900 -1.07300 23.67900
C  28.03000 1.43200 24.13500
C  29.21200 1.22100 23.11500
N  27.47000 -0.29600 29.20100
C  28.58000 -0.46600 28.33800
C  29.79300 -0.66900 29.09600
C  29.31200 -0.51300 30.41200
C  27.95700 -0.30700 30.48200
C  31.25500 -0.84800 28.71600
C  29.88300 -0.54900 31.73900
O  31.02700 -0.77500 32.17700
C  28.67900 -0.28400 32.71300
C  28.61200 -1.34100 33.77900
O  27.87900 -2.35600 33.74300
O  29.35800 -1.02300 34.88400
C  29.17200 -1.84300 36.02800
H  21.90600 0.89700 31.27000
H  23.21400 0.66000 24.95700
H  29.40600 -0.27400 26.45100
H  25.56500 -0.52500 34.07400
H  23.83200 1.81900 33.25000
H  22.23500 -0.45100 33.25500
H  22.20200 0.92700 34.29500
H  23.24800 -0.40700 34.78100
H  25.49100 2.19400 34.74600
H  26.82900 1.91400 33.53400
H  27.97000 1.33900 35.37100
H  26.91000 0.03200 35.70600
H  19.81100 2.17200 29.16800
H  20.00500 0.94300 30.45300
H  19.02900 0.64900 28.99000
H  18.81400 1.45700 25.24300
H  19.24200 2.60100 26.44300
H  18.58200 0.96600 26.92700
H  25.34500 1.06200 23.69700
H  27.74800 -0.75200 24.25600
H  26.01600 -1.86500 23.64400
H  25.02400 -0.84200 22.64200
H  24.36400 -1.58400 24.00800
H  28.50800 1.89400 24.99900
H  27.28900 2.12700 23.74100
H  28.83500 1.38500 22.10500
H  29.55900 0.18800 23.07300
H  30.09600 1.84000 23.26700
H  31.44700 -0.13100 27.91800
H  31.39000 -1.88800 28.42000
H  31.84000 -0.59800 29.60000
H  28.86000 0.57200 33.36300
H  30.02000 -1.53600 36.63900
H  29.17000 -2.89200 35.73100
H  28.26300 -1.48200 36.50800

