158

Mg 1.51800 9.10200 26.78300
C  1.74200 11.34000 29.57100
C  1.70700 6.51400 29.00300
C  2.13200 7.02800 24.09400
C  1.78600 11.76000 24.64400
N  1.74800 8.98300 29.00600
C  1.45300 9.98300 29.84100
C  1.23600 9.43700 31.25400
C  1.53500 7.93900 31.16600
C  1.63300 7.77200 29.62700
C  2.79500 7.37000 31.90200
C  -0.26100 9.75500 31.68700
C  -0.47400 9.57500 33.20000
H  0.70700 9.01400 34.10900
N  1.76200 6.96300 26.54900
C  1.83500 6.15100 27.64900
C  1.99500 4.77700 27.12300
C  2.00800 4.84900 25.66500
C  1.96100 6.30000 25.35200
C  1.98900 3.52600 28.11300
C  1.98500 3.85700 24.53600
O  1.86700 4.16400 23.33500
C  2.20500 2.44500 24.87500
N  1.68200 9.32900 24.73700
C  1.98100 8.37500 23.84400
C  2.01500 8.94800 22.44200
C  1.41900 10.35100 22.65800
C  1.66600 10.47700 24.11300
C  3.47900 9.01500 21.86000
C  -0.14600 10.45200 22.32100
C  -0.46200 11.46900 21.18400
N  1.76900 11.18800 26.95700
C  1.89100 12.16000 25.99500
C  2.12000 13.44400 26.69100
C  2.08000 13.13800 28.09800
C  1.91000 11.74800 28.21000
C  2.38900 14.80800 26.03400
C  2.16800 13.67700 29.42400
O  2.51700 14.80000 29.64500
C  1.83100 12.52900 30.46700
C  2.93000 12.48100 31.44700
O  4.08700 12.37800 31.16200
O  2.45000 12.57200 32.69500
C  3.40300 12.44100 33.74000
H  1.73900 5.73700 29.77000
H  2.28400 6.52300 23.13800
H  1.71300 12.61000 23.96200
H  1.97500 9.95300 31.86800
H  0.67000 7.37200 31.51000
H  3.21500 7.89900 32.75800
H  3.63800 7.17600 31.23900
H  2.51600 6.42800 32.37400
H  -0.86000 9.12100 31.03400
H  -0.60400 10.76800 31.47900
H  -1.29200 8.86900 33.33800
H  -0.57200 10.58300 33.60200
H  2.70400 3.73300 28.90900
H  2.24700 2.57600 27.64700
H  1.01200 3.46800 28.59300
H  1.27300 2.10900 25.33000
H  2.90100 2.35000 25.70800
H  2.54200 1.87600 24.00900
H  1.39200 8.35300 21.77400
H  1.92300 11.13800 22.09600
H  3.85400 10.03800 21.85500
H  3.27300 8.64000 20.85700
H  4.17600 8.47500 22.50100
H  -0.71900 10.76100 23.19500
H  -0.38600 9.48800 21.87200
H  0.45500 11.37900 20.60100
H  -0.45200 12.50900 21.51100
H  -1.39300 11.36200 20.62700
H  1.56400 15.50000 26.20600
H  2.58200 14.74800 24.96300
H  3.40500 15.00500 26.37600
H  0.91700 12.81900 30.98600
H  4.16900 11.68300 33.57700
H  2.78300 12.16500 34.59200
H  3.74000 13.46400 33.90100
Mg 30.01400 58.04200 39.99200
C  27.07100 56.39600 39.17000
C  31.86000 55.66800 38.47000
C  32.56700 60.36500 40.05200
C  27.79900 60.94700 40.76600
N  29.46200 56.36700 38.79900
C  28.27000 55.75000 38.78700
C  28.31500 54.38500 38.06500
C  29.84200 54.12700 37.92200
C  30.46600 55.46100 38.45100
C  30.36000 52.81300 38.58600
C  27.56200 54.32200 36.63000
C  28.13600 55.31000 35.57100
H  27.24500 56.07000 34.67700
N  31.88200 57.95900 39.53600
C  32.53800 56.81900 38.93500
C  33.94100 57.08600 38.91000
C  34.20000 58.39600 39.37300
C  32.80400 58.97800 39.67900
C  35.00200 56.02400 38.36800
C  35.54500 58.99100 39.49400
O  36.56100 58.33900 39.29400
C  35.72500 60.45100 39.68000
N  30.16500 60.35200 40.29200
C  31.36100 60.96800 40.39600
C  31.27300 62.46100 40.79100
C  29.73800 62.57700 41.13000
C  29.19800 61.20100 40.73800
C  32.17500 62.88400 41.96200
C  29.01900 63.77900 40.47600
C  28.14500 64.67000 41.34800
N  27.88700 58.56500 40.14000
C  27.17000 59.72900 40.38500
C  25.76200 59.38500 40.51000
C  25.71300 58.11700 39.91300
C  27.00100 57.64200 39.77500
C  24.57700 60.31900 40.90600
C  24.82000 57.10300 39.40200
O  23.58300 57.13200 39.50300
C  25.59600 55.97600 38.90600
C  25.25900 54.70800 39.57700
O  25.59700 54.48600 40.73500
O  24.45900 53.92400 38.76600
C  24.28400 52.55700 39.31600
H  32.42200 54.80900 38.09700
H  33.44200 60.99500 40.22600
H  27.14100 61.78000 41.02200
H  27.85900 53.68500 38.76500
H  30.06400 54.14400 36.85500
H  29.57200 52.14300 38.93000
H  30.79900 53.06500 39.55200
H  31.06800 52.27300 37.95700
H  26.49200 54.45600 36.79100
H  27.60200 53.30900 36.23000
H  28.77000 54.61300 35.02300
H  28.67600 56.09000 36.10700
H  35.54700 56.38700 37.49700
H  34.60900 55.06800 38.02200
H  35.65100 55.95800 39.24100
H  35.11100 61.09700 39.05200
H  36.75800 60.66400 39.40400
H  35.55400 60.64700 40.73800
H  31.72000 63.06200 39.99900
H  29.48600 62.58100 42.19000
H  32.61500 62.12300 42.60700
H  31.71900 63.70800 42.50900
H  33.05800 63.35300 41.53000
H  28.44900 63.31100 39.67400
H  29.71800 64.43200 39.95200
H  27.75100 65.32400 40.57000
H  28.77500 65.29200 41.98300
H  27.30000 64.27800 41.91400
H  24.41800 61.14100 40.20800
H  24.75100 60.62200 41.93800
H  23.71300 59.67100 41.05000
H  25.47400 55.97400 37.82300
H  23.52000 52.50600 40.09200
H  25.25800 52.21400 39.66600
H  24.08900 51.90100 38.46700

