158

Mg 17.56300 -1.15000 28.12200
C  15.88700 0.73200 30.72700
C  19.28600 -2.71200 30.63000
C  19.08000 -2.80900 25.69300
C  15.65600 0.68200 25.86500
N  17.54500 -0.99500 30.43600
C  16.87300 -0.14000 31.26400
C  17.19600 -0.33000 32.75600
C  18.39500 -1.36100 32.66200
C  18.50800 -1.69900 31.15800
C  19.71700 -0.88100 33.37300
C  15.93400 -0.85000 33.57100
C  16.00400 -0.60800 35.05200
H  17.35700 -0.21000 35.76300
N  19.01500 -2.56100 28.16200
C  19.48500 -3.14000 29.26300
C  20.28300 -4.29500 28.85300
C  20.28800 -4.31400 27.43900
C  19.45800 -3.17800 27.01000
C  20.90200 -5.31200 29.85600
C  20.99700 -5.23200 26.48200
O  20.74700 -5.12500 25.28700
C  21.95900 -6.21800 27.04600
N  17.55200 -0.97100 26.11800
C  18.18500 -1.80600 25.25900
C  17.83500 -1.48100 23.78600
C  16.71100 -0.45300 23.95200
C  16.56100 -0.26000 25.47100
C  19.01500 -0.98700 22.95400
C  15.40600 -0.97600 23.17200
C  14.34000 -1.81000 23.96700
N  16.00600 0.42200 28.20400
C  15.29400 1.02100 27.19700
C  14.37400 2.01700 27.65200
C  14.54800 1.96000 29.06300
C  15.52500 0.93600 29.34900
C  13.58800 2.93900 26.71400
C  14.17700 2.48500 30.32700
O  13.37300 3.36300 30.51000
C  15.03200 1.83200 31.46500
C  15.78200 2.94100 32.23300
O  16.82700 3.48500 31.92000
O  15.12700 3.04400 33.50300
C  15.69500 4.07500 34.40400
H  19.80600 -3.27000 31.41100
H  19.43900 -3.27800 24.77400
H  15.09300 1.24000 25.11400
H  17.56700 0.63000 33.11400
H  18.03200 -2.28200 33.11700
H  19.69200 -1.15600 34.42700
H  19.78300 0.20500 33.43700
H  20.62900 -1.25800 32.91000
H  15.76100 -1.92400 33.50200
H  15.07400 -0.27800 33.22200
H  15.64800 -1.45800 35.63400
H  15.35500 0.24600 35.24900
H  20.35400 -5.17600 30.78800
H  21.92100 -4.97200 30.04400
H  20.84600 -6.36200 29.56900
H  22.54000 -6.58200 26.19800
H  21.40100 -7.10200 27.35500
H  22.68600 -5.83700 27.76200
H  17.44500 -2.40800 23.36400
H  16.92300 0.55300 23.59000
H  19.44100 -0.08300 23.38800
H  18.61300 -0.79400 21.95900
H  19.82000 -1.72100 22.91400
H  15.59700 -1.50400 22.23700
H  14.88200 -0.09600 22.79900
H  13.92900 -2.66300 23.42700
H  13.51700 -1.20300 24.34400
H  14.82100 -2.34000 24.78900
H  14.20200 3.67400 26.19400
H  12.83100 3.38600 27.35800
H  13.15800 2.19700 26.04100
H  14.22100 1.33100 31.99400
H  14.87000 4.74900 34.63600
H  16.44000 4.71900 33.93700
H  16.03200 3.59000 35.32000
Mg 17.36800 51.64100 26.63900
C  19.18100 50.20900 29.32200
C  14.82100 52.36200 28.78300
C  15.44300 52.72900 23.92900
C  19.74500 50.45100 24.36700
N  17.08900 51.36100 28.86500
C  18.02300 50.88600 29.74600
C  17.55000 51.07800 31.19700
C  15.99500 51.42200 30.97300
C  15.96800 51.78800 29.46600
C  14.94800 50.33800 31.30300
C  18.43100 52.09000 31.94500
C  18.07600 52.44900 33.42600
H  17.23500 51.42600 34.24600
N  15.39100 52.56400 26.44700
C  14.53100 52.73800 27.43700
C  13.31700 53.44500 26.93800
C  13.44800 53.52000 25.50800
C  14.79400 52.92500 25.22600
C  12.18000 53.73500 27.90700
C  12.54900 54.19500 24.46700
O  12.75200 54.27100 23.25200
C  11.24700 54.73000 24.90600
N  17.52000 51.60000 24.47900
C  16.61100 52.13800 23.60600
C  17.16200 52.01300 22.18000
C  18.52300 51.26500 22.34300
C  18.68500 51.20600 23.84400
C  16.16200 51.37000 21.20500
C  19.70100 51.91400 21.60600
C  20.88300 52.48700 22.40900
N  19.07000 50.51400 26.79700
C  19.95200 50.15700 25.75000
C  21.05400 49.32100 26.31400
C  20.79000 49.33400 27.72700
C  19.60800 50.04000 27.92800
C  22.19100 48.64600 25.66600
C  21.17900 48.74300 28.99600
O  22.03700 47.90400 29.25200
C  20.26900 49.47800 30.09900
C  19.78000 48.58900 31.14100
O  19.16700 47.54900 30.95100
O  20.07800 49.10700 32.42200
C  19.68400 48.15200 33.52300
H  14.02400 52.57100 29.50100
H  15.12400 53.07200 22.94300
H  20.49900 50.11200 23.65400
H  17.68700 50.12000 31.69800
H  15.69700 52.36700 31.42700
H  14.13400 50.82300 31.84300
H  15.48800 49.58600 31.87800
H  14.50000 50.03100 30.35800
H  18.28400 53.04300 31.43700
H  19.45000 51.70300 31.93300
H  17.65000 53.45100 33.39500
H  19.00900 52.58500 33.97300
H  11.26100 54.25700 27.64500
H  12.58700 54.15000 28.82900
H  11.85000 52.76400 28.27800
H  10.59900 54.02600 25.42800
H  10.72300 55.15300 24.04900
H  11.52600 55.53200 25.59000
H  17.31000 53.02100 21.79200
H  18.41600 50.27300 21.90500
H  15.56600 50.57200 21.64700
H  16.77400 50.85500 20.46500
H  15.56000 52.13600 20.71700
H  19.28600 52.58800 20.85700
H  20.06200 51.02000 21.09700
H  21.54600 51.68000 22.72100
H  20.47900 52.98500 23.29100
H  21.45500 53.17700 21.78900
H  21.98600 48.40900 24.62200
H  22.40500 47.67100 26.10500
H  23.14900 49.16500 25.68300
H  20.98500 50.19300 30.50400
H  18.64000 48.00800 33.24600
H  19.58600 48.74600 34.43100
H  20.20900 47.22400 33.75200

