158

Mg 24.85900 1.69600 29.25700
C  26.95700 1.76800 32.18700
C  22.19100 1.65600 31.32000
C  22.95100 1.53600 26.51600
C  27.69000 1.15400 27.29700
N  24.63100 1.79200 31.53700
C  25.58600 1.86300 32.53700
C  24.92200 2.17700 33.97600
C  23.41500 1.99800 33.54900
C  23.36500 1.74800 32.02000
C  22.64500 0.87600 34.33700
C  25.30600 3.53500 34.46600
C  24.76200 4.06200 35.84700
H  25.65200 3.85100 37.15000
N  22.88900 1.57600 29.00700
C  21.93200 1.61100 29.94500
C  20.57900 1.40000 29.39200
C  20.77200 1.30100 27.94200
C  22.24300 1.49000 27.76300
C  19.25800 1.40100 30.18300
C  19.77900 1.12700 26.81000
O  20.12700 1.20700 25.63600
C  18.29300 0.89700 27.13800
N  25.22900 1.47600 27.19600
C  24.34200 1.48400 26.22100
C  24.97600 1.52000 24.87300
C  26.46400 1.54800 25.13000
C  26.49100 1.31500 26.64500
C  24.48300 0.28600 24.00800
C  27.29500 2.81400 24.74900
C  26.79300 4.12100 25.34000
N  26.94200 1.33500 29.64600
C  27.96000 1.16700 28.72500
C  29.15000 1.01700 29.42900
C  28.86500 1.30500 30.81700
C  27.44000 1.50800 30.88300
C  30.39700 0.58600 28.74900
C  29.36800 1.34700 32.17300
O  30.49100 1.11600 32.61600
C  28.25800 1.92600 33.02500
C  28.13200 1.17800 34.30000
O  27.65200 0.06800 34.39900
O  28.79900 1.87400 35.30300
C  29.16800 1.10300 36.52400
H  21.34000 1.71900 32.00200
H  22.34700 1.53400 25.60600
H  28.56500 1.18200 26.64500
H  25.17400 1.37500 34.67100
H  22.89100 2.92200 33.79500
H  22.54800 0.11200 33.56500
H  21.71300 1.29500 34.71400
H  23.19900 0.39400 35.14300
H  25.13200 4.22000 33.63600
H  26.38000 3.39900 34.59800
H  23.81100 3.56400 36.03700
H  24.48400 5.11000 35.73500
H  18.69400 2.19400 29.69100
H  19.26200 1.69100 31.23400
H  18.83200 0.39800 30.17400
H  18.26800 0.03100 27.80000
H  17.73800 0.79000 26.20500
H  17.87400 1.70700 27.73500
H  24.60200 2.43000 24.40300
H  27.01000 0.77900 24.58300
H  23.66500 -0.20700 24.53300
H  25.31800 -0.40200 23.87300
H  24.15800 0.77100 23.08700
H  27.28800 2.96700 23.67000
H  28.36000 2.61800 24.87300
H  26.35300 4.02000 26.33200
H  26.00300 4.44200 24.66000
H  27.60300 4.83400 25.49100
H  30.34500 0.35900 27.68500
H  30.70600 -0.30700 29.29200
H  31.18000 1.33900 28.84000
H  28.43800 2.99100 33.17100
H  29.26000 0.04300 36.28600
H  28.39400 1.16200 37.28900
H  30.11600 1.46700 36.92200
Mg -13.36400 16.02200 42.05300
C  -10.19200 14.59500 41.32800
C  -12.21100 19.07300 40.67200
C  -16.52500 17.13200 41.95000
C  -14.58700 12.75600 42.74200
N  -11.41500 16.71300 40.99100
C  -10.19200 15.98000 40.99800
C  -8.97900 16.86800 40.56500
C  -9.64800 18.25400 40.60800
C  -11.21000 18.05900 40.77400
C  -9.13700 19.30500 41.68300
C  -8.25400 16.50400 39.27500
C  -6.84900 15.98800 39.31100
H  -6.53500 14.69100 38.61900
N  -14.22700 17.83700 41.55500
C  -13.56100 18.98900 40.99600
C  -14.50000 20.03600 40.66000
C  -15.79300 19.55100 41.12100
C  -15.55600 18.12500 41.67700
C  -14.15000 21.34700 40.04600
C  -17.06100 20.34800 41.07400
O  -17.09800 21.44500 40.43600
C  -18.35900 19.82200 41.65700
N  -15.34600 15.15100 42.58700
C  -16.47400 15.80300 42.38800
C  -17.74400 14.88100 42.60300
C  -17.05800 13.49600 42.96200
C  -15.54100 13.80800 42.72500
C  -18.75400 15.41500 43.68700
C  -17.68000 12.26700 42.18900
C  -17.12600 11.93300 40.74300
N  -12.62900 14.06500 42.22900
C  -13.18300 12.85500 42.57600
C  -12.21300 11.84800 42.76300
C  -11.02800 12.43000 42.23300
C  -11.30700 13.80600 41.94100
C  -12.48800 10.57500 43.27500
C  -9.65600 12.25700 41.94800
O  -8.97500 11.21600 42.13000
C  -9.05100 13.59700 41.32500
C  -8.05800 13.98100 42.33100
O  -8.38100 14.54600 43.36700
O  -6.78600 13.63400 41.92700
C  -5.65400 13.63900 42.91200
H  -11.89000 20.10000 40.48600
H  -17.55100 17.48900 41.84000
H  -14.94100 11.74400 42.94600
H  -8.25400 16.68400 41.35800
H  -9.53800 18.75200 39.64400
H  -8.89000 20.26100 41.22100
H  -8.32600 18.82000 42.22700
H  -9.93200 19.36200 42.42600
H  -8.12900 17.49000 38.82700
H  -8.78400 15.88100 38.55500
H  -6.45100 15.81600 40.31100
H  -6.12600 16.72900 38.97000
H  -13.75800 21.99700 40.82900
H  -14.89100 21.93000 39.49900
H  -13.37200 21.21500 39.29500
H  -18.99100 20.70600 41.74400
H  -18.26000 19.46600 42.68200
H  -18.78100 19.05700 41.00600
H  -18.26200 14.73900 41.65500
H  -17.00800 13.31600 44.03600
H  -19.72900 15.48300 43.20400
H  -18.62100 16.45700 43.97500
H  -18.88700 14.72600 44.52100
H  -18.75400 12.42200 42.08900
H  -17.44400 11.41300 42.82400
H  -16.74000 10.92100 40.62200
H  -16.22800 12.50700 40.51200
H  -17.89900 12.04600 39.98300
H  -12.90700 10.72500 44.27000
H  -11.54000 10.03800 43.27200
H  -13.24300 10.04200 42.69700
H  -8.54800 13.41300 40.37600
H  -5.31000 14.67400 42.91400
H  -4.91200 12.87800 42.67400
H  -5.89500 13.42000 43.95200

