158

Mg 8.59300 2.93400 26.90700
C  9.71800 1.04200 29.67800
C  6.72600 4.75200 28.99000
C  7.57700 4.52100 24.08400
C  10.36900 0.67900 24.81200
N  8.25200 2.88000 29.13900
C  8.93900 2.14800 30.07300
C  8.87100 2.88100 31.45800
C  7.67000 3.93500 31.27400
C  7.39100 3.76800 29.70800
C  6.28200 3.80300 32.06500
C  10.28400 3.44500 31.86600
C  10.76700 2.92100 33.19500
H  11.04600 3.98100 34.21600
N  7.28600 4.33100 26.54200
C  6.62800 5.02300 27.57700
C  5.84000 6.06700 26.95200
C  6.13400 6.14600 25.60300
C  7.03200 4.99800 25.32300
C  4.90700 6.93300 27.72000
C  5.72800 7.14100 24.52900
O  6.25100 7.17600 23.45000
C  4.73700 8.20500 24.77800
N  8.85600 2.60900 24.68300
C  8.33600 3.40800 23.77000
C  8.68800 2.93700 22.38000
C  9.63500 1.72600 22.63100
C  9.70300 1.69000 24.12200
C  7.53000 2.61400 21.47800
C  10.94900 1.79000 21.84500
C  11.32900 0.45300 21.29200
N  9.74200 1.12500 27.13400
C  10.42800 0.37000 26.19500
C  11.03500 -0.76800 26.85500
C  10.85700 -0.48200 28.23600
C  10.00000 0.63200 28.36000
C  11.74400 -1.92200 26.16600
C  11.26100 -0.91900 29.58100
O  11.98700 -1.85800 29.96600
C  10.53600 0.09000 30.56700
C  9.76200 -0.65200 31.59400
O  8.86100 -1.44500 31.31900
O  10.36300 -0.46800 32.84200
C  9.58900 -0.98100 33.99000
H  6.23500 5.41900 29.70200
H  7.42600 5.18600 23.23100
H  10.90800 -0.16100 24.36700
H  8.65000 2.08400 32.16800
H  8.00600 4.95800 31.44300
H  5.85300 4.78700 32.25700
H  6.48200 3.23200 32.97200
H  5.58700 3.26300 31.42200
H  10.11100 4.52000 31.91400
H  11.03000 3.20100 31.10900
H  11.74400 2.44700 33.10200
H  10.07100 2.20100 33.62500
H  5.46600 7.73900 28.19500
H  4.46700 6.42600 28.57900
H  3.98000 7.24700 27.24000
H  3.76600 7.72100 24.88400
H  4.57300 8.81600 23.89000
H  5.05000 8.75800 25.66300
H  9.31600 3.74100 21.99500
H  9.12600 0.80700 22.33900
H  7.64300 1.68800 20.91400
H  7.42600 3.44800 20.78300
H  6.58700 2.61500 22.02500
H  11.63900 2.16600 22.60100
H  10.87400 2.49400 21.01700
H  11.95500 -0.11800 21.97700
H  11.94700 0.62200 20.41000
H  10.39000 -0.07700 21.13200
H  12.50300 -1.55200 25.47700
H  10.97600 -2.58000 25.76000
H  12.39100 -2.49900 26.82800
H  11.34300 0.66100 31.02700
H  9.56400 -0.18700 34.73600
H  10.04600 -1.89600 34.36800
H  8.56500 -1.25300 33.73800
Mg 25.04900 -7.23000 47.49000
C  27.24900 -4.74200 46.64700
C  22.97400 -6.22300 44.98900
C  23.19200 -10.08400 47.80900
C  27.74900 -8.74000 49.14500
N  25.19100 -5.76400 45.89300
C  26.16000 -4.75200 45.79800
C  25.81300 -3.72100 44.75200
C  24.35000 -4.14400 44.44400
C  24.13000 -5.48100 45.10100
C  23.26100 -3.21100 44.90600
C  26.81200 -3.77100 43.61100
C  27.36800 -2.38100 43.13100
H  27.09900 -2.02000 41.74100
N  23.16600 -7.87600 46.74900
C  22.53600 -7.37400 45.63600
C  21.37800 -8.12600 45.35600
C  21.30000 -9.21100 46.30300
C  22.59900 -9.14600 46.98800
C  20.39900 -7.85500 44.24500
C  20.18800 -10.20500 46.53100
O  19.16300 -10.14000 45.87900
C  20.28300 -11.31500 47.47400
N  25.45100 -9.12300 48.39900
C  24.47300 -10.07200 48.45400
C  24.95900 -11.29500 49.35300
C  26.40900 -10.91800 49.60700
C  26.59800 -9.57400 48.98000
C  24.23200 -11.42100 50.64300
C  27.38700 -11.97300 48.95100
C  28.36900 -12.70400 49.91400
N  27.06300 -6.78400 47.93500
C  28.00700 -7.47800 48.61600
C  29.19500 -6.68200 48.82200
C  28.88400 -5.53400 48.04400
C  27.64100 -5.68900 47.54900
C  30.35000 -7.05500 49.64800
C  29.36000 -4.25900 47.55100
O  30.44200 -3.69600 47.84600
C  28.23000 -3.66800 46.71500
C  27.61000 -2.46400 47.43000
O  27.09800 -2.51900 48.48700
O  27.80600 -1.26400 46.70600
C  27.02000 -0.13400 47.16500
H  22.32800 -5.83800 44.19800
H  22.70800 -10.99300 48.17300
H  28.57200 -9.19500 49.69900
H  25.99100 -2.78300 45.27900
H  24.31600 -4.29100 43.36500
H  22.63400 -3.68900 45.65800
H  22.66900 -2.72400 44.13000
H  23.74200 -2.43800 45.50600
H  26.35900 -4.37300 42.82400
H  27.65500 -4.40900 43.87400
H  28.44500 -2.52500 43.22400
H  27.08000 -1.52900 43.74700
H  20.05400 -8.84800 43.95700
H  20.86100 -7.33000 43.40900
H  19.52900 -7.30500 44.60500
H  21.06500 -12.07400 47.49300
H  19.31900 -11.79900 47.62800
H  20.54200 -10.76700 48.37900
H  24.81200 -12.17200 48.72200
H  26.73600 -10.70000 50.62400
H  23.56900 -10.57800 50.84000
H  24.88300 -11.57700 51.50300
H  23.70300 -12.36600 50.51600
H  27.92500 -11.62900 48.06800
H  26.78400 -12.81700 48.61600
H  28.22100 -12.29200 50.91200
H  29.42100 -12.56500 49.66300
H  28.12800 -13.76700 49.91300
H  30.99200 -7.62200 48.97400
H  30.09200 -7.54900 50.58500
H  30.85500 -6.09700 49.76700
H  28.57000 -3.54800 45.68700
H  26.54400 0.33000 46.30100
H  27.73500 0.60500 47.52700
H  26.22500 -0.35500 47.87800

