158

Mg 9.55700 3.47000 27.11100
C  10.72900 1.79800 29.92500
C  8.29100 5.92600 29.12800
C  8.02800 4.89200 24.42200
C  10.62200 0.80600 25.13200
N  9.47500 3.75200 29.25300
C  10.05100 3.01300 30.24100
C  9.70200 3.54400 31.66900
C  8.79000 4.78200 31.31600
C  8.94800 4.89500 29.78600
C  7.35900 4.62800 31.79800
C  10.96100 3.84200 32.48100
C  10.88500 4.67500 33.74000
H  11.86400 4.44000 34.82600
N  8.29100 5.20100 26.81700
C  7.90600 6.05500 27.73600
C  7.21400 7.10900 27.17000
C  7.21700 6.89900 25.79400
C  7.84900 5.63200 25.61500
C  6.69200 8.19700 28.00000
C  6.77800 7.80400 24.72100
O  6.78900 7.44500 23.59400
C  6.21700 9.13500 25.00600
N  9.10500 2.70700 25.12300
C  8.58400 3.56100 24.18200
C  8.66500 3.00300 22.72900
C  9.49400 1.68900 22.91800
C  9.77900 1.72000 24.51000
C  7.29500 2.77300 22.04600
C  10.78200 1.49800 22.12600
C  10.86900 0.11900 21.46100
N  10.50700 1.68600 27.38500
C  10.93800 0.74000 26.48400
C  11.63900 -0.24000 27.22200
C  11.63600 0.08200 28.62200
C  10.87800 1.29800 28.63100
C  12.30600 -1.45800 26.60400
C  12.00300 -0.33800 29.92300
O  12.58800 -1.33400 30.34400
C  11.43900 0.81800 30.87300
C  10.48600 0.25600 31.94400
O  9.34200 -0.13600 31.85200
O  11.25900 0.06700 33.10700
C  10.50600 -0.47200 34.28500
H  7.86100 6.66100 29.81200
H  7.81300 5.35700 23.45700
H  10.96600 -0.05200 24.55000
H  9.24500 2.74400 32.25300
H  9.06400 5.71800 31.80300
H  6.63100 4.69200 30.98900
H  7.11100 5.43500 32.48800
H  7.15600 3.66100 32.25800
H  11.72400 4.28500 31.84200
H  11.24800 2.82500 32.74800
H  9.89800 4.85100 34.16900
H  11.16800 5.65100 33.34400
H  7.33700 9.03100 27.72200
H  6.74600 8.05600 29.07900
H  5.68300 8.48300 27.70400
H  6.91400 9.79300 25.52500
H  5.31100 8.91100 25.56900
H  5.90900 9.57700 24.05800
H  9.27700 3.75400 22.23100
H  8.95100 0.78500 22.63900
H  7.14500 3.48300 21.23300
H  6.46100 2.95900 22.72200
H  7.27800 1.74200 21.69200
H  11.59300 1.70500 22.82400
H  10.65900 2.26700 21.36300
H  10.48900 -0.60800 22.17900
H  11.91000 -0.18400 21.35200
H  10.37200 0.03600 20.49400
H  12.96000 -1.20000 25.77100
H  11.63700 -2.22500 26.21500
H  12.91700 -1.96600 27.35000
H  12.26200 1.24600 31.44500
H  10.09700 0.40400 34.78800
H  11.26000 -0.88700 34.95400
H  9.77200 -1.26700 34.15500
Mg 45.62700 44.49700 43.17000
C  42.19600 44.14800 42.95800
C  46.00700 41.23200 42.48200
C  48.84600 45.12000 42.81700
C  45.05400 48.00600 43.42500
N  44.22300 42.92700 42.83300
C  42.90400 42.93500 42.95800
C  42.33600 41.48800 42.79000
C  43.59500 40.59200 42.89600
C  44.69100 41.66600 42.83200
C  43.65000 39.81200 44.23700
C  41.47800 41.33900 41.58700
C  41.86700 42.07800 40.28500
H  41.75300 41.36200 38.97300
N  47.24300 43.30000 42.69000
C  47.18000 41.96800 42.52000
C  48.52300 41.46100 42.32200
C  49.43400 42.55100 42.39000
C  48.51900 43.73300 42.62600
C  48.89600 40.04400 42.04500
C  50.87600 42.51100 42.18000
O  51.52200 41.45900 42.11400
C  51.69300 43.75200 42.22500
N  46.82700 46.33100 43.19300
C  48.13400 46.31600 43.02300
C  48.68800 47.78700 42.95100
C  47.43700 48.58700 43.36800
C  46.37000 47.58000 43.37300
C  49.97700 47.99000 43.84000
C  47.28300 49.69200 42.30000
C  46.73900 50.97700 42.74400
N  43.99900 45.89600 43.23400
C  43.90400 47.24500 43.33500
C  42.52200 47.68600 43.35400
C  41.80300 46.46900 43.27500
C  42.70700 45.42400 43.20200
C  42.03700 49.10400 43.56100
C  40.39400 45.92500 43.18100
O  39.31500 46.47200 43.27400
C  40.65400 44.35300 42.90100
C  39.82100 43.56600 43.82800
O  38.92800 42.80100 43.53800
O  40.26300 43.83900 45.11600
C  39.90300 42.74200 45.95400
H  46.02600 40.16200 42.26300
H  49.87300 45.46800 42.69300
H  44.80700 49.04100 43.67000
H  41.69000 41.25400 43.63600
H  43.71400 39.88900 42.07200
H  42.89600 39.91700 45.01700
H  44.40100 40.29900 44.85800
H  43.90500 38.77900 44.00100
H  40.48200 41.70300 41.84000
H  41.44900 40.25600 41.47100
H  42.89900 42.40000 40.42200
H  41.26500 42.96900 40.10400
H  48.03400 39.43100 42.30600
H  49.70700 39.62500 42.64100
H  49.09400 39.98100 40.97500
H  51.69100 44.15100 43.23900
H  51.22700 44.46000 41.53900
H  52.72300 43.46600 42.01300
H  48.99000 47.81400 41.90400
H  47.63900 49.00800 44.35300
H  49.85900 48.85500 44.49100
H  50.80400 48.19000 43.15800
H  50.21300 47.13700 44.47700
H  46.65800 49.29500 41.50000
H  48.27000 49.93000 41.90300
H  47.56200 51.51300 43.21800
H  45.88900 50.87100 43.41700
H  46.43300 51.63300 41.92800
H  42.75900 49.82100 43.95000
H  41.22100 49.00900 44.27800
H  41.77900 49.48000 42.57100
H  40.29600 44.21500 41.88100
H  40.39600 42.70100 46.92600
H  40.24700 41.81500 45.49500
H  38.83100 42.79100 46.14400

