158

Mg 1.89900 -1.45100 44.47200
C  5.24200 -0.28200 44.24600
C  0.81100 1.32400 42.71000
C  -1.09700 -2.94400 44.24200
C  3.23800 -4.55900 45.69400
N  2.94100 0.29300 43.48400
C  4.23900 0.60100 43.67300
C  4.56800 1.95000 42.98700
C  3.15800 2.53900 42.53200
C  2.24700 1.29800 42.93600
C  2.76300 3.95600 43.17400
C  5.62000 1.76800 41.80500
C  5.41000 0.50000 40.89500
H  5.15500 0.75000 39.37500
N  0.12400 -0.93100 43.61400
C  -0.14500 0.28100 42.93600
C  -1.53500 0.34100 42.58200
C  -2.17300 -0.76700 43.23400
C  -1.04100 -1.64100 43.68300
C  -2.19500 1.53200 41.91500
C  -3.64200 -1.07100 43.20500
O  -4.40400 -0.26400 42.64500
C  -4.29600 -2.20200 43.98600
N  1.18300 -3.54900 44.80800
C  -0.13200 -3.79500 44.74000
C  -0.38900 -5.22000 45.32400
C  1.03800 -5.73500 45.81600
C  1.88000 -4.57400 45.34200
C  -1.69600 -5.54300 46.16500
C  1.41700 -7.03500 45.12300
C  2.01500 -8.03100 46.07600
N  3.81600 -2.32600 44.99600
C  4.16600 -3.52300 45.46200
C  5.64100 -3.56400 45.67400
C  6.05700 -2.33200 45.15300
C  4.93200 -1.62700 44.75300
C  6.50100 -4.74600 46.19100
C  7.26300 -1.52700 44.92100
O  8.41300 -1.85600 45.17100
C  6.79400 -0.11100 44.32000
C  7.31000 0.95100 45.25600
O  7.27100 0.84600 46.48100
O  7.85200 1.97300 44.58300
C  8.70700 3.00500 45.23000
H  0.50700 2.24400 42.20600
H  -2.07200 -3.40400 44.41900
H  3.67500 -5.42200 46.20200
H  5.08300 2.66000 43.63500
H  3.21100 2.46400 41.44600
H  2.90600 4.83900 42.55000
H  3.38300 4.05500 44.06500
H  1.69700 3.99000 43.39900
H  6.64800 1.81700 42.16300
H  5.46000 2.62500 41.15100
H  4.67900 -0.15400 41.37000
H  6.33100 -0.08300 40.93500
H  -1.47800 2.22800 41.48100
H  -2.70900 2.09600 42.69300
H  -2.82400 1.19000 41.09300
H  -5.34400 -1.95200 44.15100
H  -3.82800 -2.34900 44.96000
H  -4.42800 -3.14800 43.46100
H  -0.78800 -5.89100 44.56400
H  1.10700 -5.79000 46.90300
H  -1.88700 -4.59900 46.67600
H  -1.45200 -6.41900 46.76800
H  -2.59400 -5.76900 45.59000
H  1.97300 -6.80100 44.21500
H  0.47600 -7.51600 44.85500
H  1.25300 -8.70000 46.47400
H  2.50800 -7.51500 46.90000
H  2.78300 -8.54100 45.49500
H  6.30300 -4.89100 47.25300
H  7.57700 -4.57700 46.18500
H  6.42200 -5.64300 45.57700
H  7.25900 0.03700 43.34500
H  8.53700 3.82500 44.53300
H  9.73100 2.63100 45.25300
H  8.44600 3.27400 46.25400
Mg 42.46800 41.20900 26.80600
C  41.35100 43.67400 29.06400
C  43.46600 39.41500 29.41300
C  43.26700 38.81900 24.52900
C  41.61900 43.35600 24.17400
N  42.44900 41.55400 28.92500
C  41.91200 42.57800 29.71200
C  42.01100 42.38300 31.20100
C  42.93400 41.10600 31.23100
C  43.05900 40.71400 29.70600
C  44.37700 41.45000 31.77600
C  40.62300 42.24900 31.91500
C  40.45500 42.99900 33.23900
H  39.91200 42.10800 34.46300
N  43.39200 39.46200 26.98000
C  43.67800 38.81500 28.12400
C  44.11900 37.48000 27.79400
C  44.14500 37.32600 26.40300
C  43.55700 38.56800 25.90000
C  44.51400 36.47600 28.86300
C  44.59700 36.16500 25.56000
O  44.36600 36.11100 24.37200
C  45.37600 35.12900 26.22000
N  42.52900 41.19700 24.62200
C  42.82200 40.05500 23.93000
C  42.52900 40.16900 22.44000
C  41.98200 41.70800 22.28800
C  42.03100 42.12000 23.76400
C  43.72300 40.02900 21.46800
C  40.55000 41.77600 21.57800
C  39.35100 41.39700 22.38900
N  41.70100 43.19100 26.63200
C  41.44600 43.90200 25.51800
C  40.94000 45.18200 25.86500
C  40.79400 45.17500 27.25600
C  41.31300 43.91500 27.70300
C  40.46100 46.28300 24.89700
C  40.40300 45.89500 28.45400
O  39.87600 47.01400 28.56500
C  40.72400 44.95600 29.61400
C  41.58500 45.70300 30.53300
O  42.76400 45.87500 30.28600
O  40.80100 46.17500 31.52900
C  41.47700 46.98500 32.54300
H  43.82000 38.76100 30.21200
H  43.41300 38.05500 23.76200
H  41.36400 43.87500 23.24800
H  42.44500 43.23400 31.72600
H  42.63700 40.25200 31.83900
H  44.35100 42.52900 31.92900
H  45.17800 41.14700 31.10200
H  44.56700 40.96100 32.73200
H  40.49300 41.22600 32.26800
H  39.79100 42.62900 31.32200
H  39.66500 43.71700 33.02300
H  41.34700 43.60200 33.41000
H  44.13200 36.75400 29.84500
H  45.59400 36.37000 28.95900
H  44.02300 35.51700 28.69600
H  44.77700 34.48200 26.86000
H  46.17500 35.64100 26.75600
H  45.82800 34.47100 25.47700
H  41.82700 39.35200 22.27100
H  42.62000 42.40300 21.74100
H  43.79000 40.92100 20.84400
H  43.70900 39.12000 20.86600
H  44.64100 39.92800 22.04600
H  40.53100 41.10100 20.72200
H  40.30900 42.79600 21.28100
H  38.79200 40.69800 21.76700
H  38.65500 42.23300 22.46300
H  39.52900 41.06200 23.41100
H  39.79700 47.00600 25.37100
H  39.99200 45.80300 24.03900
H  41.38600 46.77900 24.60100
H  39.83900 44.69200 30.19200
H  42.54300 46.84000 32.71800
H  40.85200 46.81200 33.41800
H  41.54500 48.06200 32.39200

