158

Mg 35.13400 49.10600 26.54600
C  35.56300 46.91800 29.26000
C  34.01200 51.54200 28.66600
C  34.24100 50.99400 23.82500
C  35.85600 46.52200 24.43300
N  34.79200 49.31900 28.73200
C  35.16700 48.22700 29.61000
C  34.88700 48.73500 31.01000
C  34.40200 50.24000 30.87000
C  34.37200 50.39200 29.38100
C  33.03300 50.48500 31.55200
C  36.12700 48.59600 31.86900
C  36.01500 48.03100 33.34100
H  36.46600 49.11800 34.36200
N  34.35600 51.00800 26.30700
C  33.93200 51.85200 27.33600
C  33.60700 53.17400 26.76300
C  33.64500 53.11300 25.37300
C  34.06300 51.63300 25.10000
C  33.51500 54.43700 27.63500
C  33.52100 54.19200 24.35600
O  33.68200 53.97000 23.17100
C  33.11600 55.63200 24.69500
N  35.08500 48.85600 24.41400
C  34.61200 49.70500 23.49100
C  34.48300 49.04600 22.09600
C  35.27100 47.70400 22.33900
C  35.51200 47.68300 23.81200
C  33.06000 48.79900 21.46700
C  36.58100 47.43400 21.46100
C  36.93900 45.96800 21.03300
N  35.58600 47.15600 26.75800
C  35.88700 46.25500 25.76000
C  36.13600 44.96400 26.41200
C  35.98500 45.18800 27.76000
C  35.68100 46.51300 27.89000
C  36.33800 43.61200 25.78200
C  36.06500 44.53800 29.08000
O  36.34100 43.41800 29.44300
C  35.70800 45.67700 30.09800
C  34.43100 45.39500 30.79300
O  33.37500 45.05500 30.22000
O  34.55300 45.41700 32.19400
C  33.43500 44.82900 32.94400
H  33.52300 52.30300 29.27700
H  33.92200 51.57500 22.95700
H  36.00500 45.59100 23.88200
H  34.06700 48.10400 31.35200
H  35.05300 51.03400 31.23500
H  32.80700 49.64700 32.21100
H  32.32800 50.43800 30.72300
H  32.86000 51.46300 32.00100
H  36.66300 49.54400 31.89400
H  36.86800 47.97100 31.36900
H  36.64600 47.15400 33.48300
H  35.01100 47.72600 33.63600
H  34.32100 55.13300 27.40200
H  33.39600 54.32800 28.71300
H  32.58800 54.92300 27.32900
H  33.23900 56.26000 23.81200
H  33.70900 56.16300 25.43900
H  32.08800 55.69200 25.05300
H  35.01800 49.63900 21.35300
H  34.66400 46.81200 22.18100
H  33.10200 49.43300 20.58100
H  32.19500 49.01900 22.09200
H  32.86600 47.83500 20.99500
H  37.35900 47.73900 22.16000
H  36.64900 48.08300 20.58700
H  38.00200 45.80300 21.20800
H  36.76900 45.83500 19.96500
H  36.41200 45.20100 21.60100
H  37.39100 43.62300 25.49700
H  35.77700 43.32600 24.89200
H  36.24300 42.88300 26.58600
H  36.50500 45.93000 30.79700
H  32.49300 45.26400 32.60900
H  33.66600 45.32900 33.88500
H  33.44400 43.74000 32.99900
Mg 9.62200 48.55000 25.90100
C  7.72300 48.88700 28.80700
C  12.29600 50.06700 27.77800
C  11.50500 48.31700 23.22700
C  6.77800 47.91000 24.07000
N  9.96100 49.44500 28.12900
C  9.05800 49.33400 29.14000
C  9.64300 49.85400 30.46900
C  10.98400 50.50100 30.03500
C  11.08800 50.00100 28.52700
C  11.07100 52.00300 30.14200
C  9.87300 48.67500 31.42600
C  9.83500 48.99500 32.94000
H  9.48200 47.84200 33.89400
N  11.53400 48.96700 25.60400
C  12.52900 49.57700 26.42800
C  13.83400 49.59100 25.71900
C  13.56800 49.16200 24.42800
C  12.16300 48.84400 24.37200
C  15.09900 50.08800 26.37400
C  14.54800 49.09700 23.28600
O  14.30700 48.78800 22.11300
C  16.01200 49.36900 23.54300
N  9.23500 48.34100 23.84300
C  10.20300 48.10700 22.93800
C  9.68700 47.59700 21.58000
C  8.13100 47.48100 21.88600
C  7.97600 47.93400 23.34400
C  10.00500 48.40100 20.28300
C  7.72500 45.97200 21.75600
C  7.75600 45.10900 23.04500
N  7.65400 48.41400 26.29800
C  6.55600 48.11700 25.43600
C  5.30800 48.30300 26.16500
C  5.78700 48.45400 27.51600
C  7.21900 48.61300 27.54800
C  3.89700 48.16900 25.67800
C  5.26900 48.67100 28.87800
O  4.12800 48.78400 29.26400
C  6.54000 48.77900 29.74300
C  6.56300 47.49800 30.44000
O  6.81700 46.40200 29.92400
O  6.31400 47.80800 31.77500
C  6.17100 46.64400 32.69300
H  13.15300 50.54900 28.25300
H  12.14500 48.11000 22.36700
H  5.91600 47.52100 23.52300
H  8.91200 50.57400 30.83400
H  11.75500 50.10400 30.69600
H  12.04500 52.26400 30.55700
H  10.26800 52.36600 30.78300
H  11.01300 52.51500 29.18200
H  10.81800 48.24700 31.09300
H  9.24900 47.79300 31.28300
H  9.13600 49.81200 33.11600
H  10.82200 49.36300 33.22200
H  15.09300 50.05600 27.46300
H  15.49200 51.02800 25.98700
H  15.85300 49.35300 26.09200
H  16.03000 50.43000 23.79200
H  16.56200 49.19700 22.61800
H  16.47500 48.79500 24.34600
H  10.14600 46.61700 21.45100
H  7.60400 48.22100 21.28200
H  10.68500 49.20500 20.56500
H  9.17200 48.78900 19.69700
H  10.56800 47.76300 19.60100
H  8.44900 45.44400 21.13600
H  6.71000 45.82200 21.38700
H  8.36800 45.51500 23.85000
H  8.29600 44.22700 22.70100
H  6.74100 44.85600 23.35200
H  3.70900 47.11600 25.46800
H  3.75900 48.78300 24.78800
H  3.16700 48.47000 26.42900
H  6.61300 49.54400 30.51600
H  6.54200 46.99300 33.65700
H  6.75700 45.81300 32.30100
H  5.11200 46.39800 32.76900

