158

Mg -2.19800 17.40200 27.10000
C  -2.75700 15.24400 29.78600
C  -3.18500 20.04400 28.94500
C  -2.02500 19.38700 24.31100
C  -2.24600 14.54700 25.03600
N  -2.78900 17.52600 29.07200
C  -2.89700 16.58800 30.12600
C  -3.11100 17.23200 31.55200
C  -3.41700 18.71800 31.10500
C  -3.10700 18.79000 29.65100
C  -4.89500 19.14800 31.51500
C  -1.83700 17.14200 32.46000
C  -2.00100 17.78500 33.84700
H  -1.38100 17.07400 35.05700
N  -2.32700 19.45400 26.75100
C  -2.79500 20.37600 27.63400
C  -2.69700 21.70100 27.10300
C  -2.25700 21.54900 25.71100
C  -2.21400 20.09500 25.55100
C  -3.04600 22.95900 27.87100
C  -1.90600 22.62400 24.69700
O  -1.65800 22.37900 23.50500
C  -1.81300 23.98600 25.14500
N  -2.08100 17.02000 24.89800
C  -1.96200 17.97900 24.00800
C  -1.87100 17.39000 22.59800
C  -1.71200 15.83700 22.94400
C  -2.08700 15.75600 24.37000
C  -3.08200 17.67800 21.77300
C  -0.25500 15.32000 22.52900
C  0.93600 15.85300 23.35500
N  -2.28600 15.36400 27.32700
C  -2.27600 14.37000 26.39500
C  -2.50500 13.14000 27.04000
C  -2.70100 13.41100 28.41300
C  -2.55200 14.74300 28.49300
C  -2.70300 11.72400 26.35800
C  -2.93900 12.84300 29.71000
O  -3.11900 11.69000 30.01500
C  -3.02400 14.06200 30.71100
C  -2.05100 13.72000 31.75300
O  -0.82600 13.59900 31.60400
O  -2.81200 13.52200 32.91900
C  -2.08400 12.81700 33.92900
H  -3.42000 20.80100 29.69600
H  -1.86900 20.02700 23.44000
H  -2.36500 13.71000 24.34400
H  -3.98700 16.74900 31.98600
H  -2.75800 19.42900 31.60400
H  -5.34700 18.23000 31.89100
H  -5.44700 19.56300 30.67200
H  -4.85600 19.92500 32.27800
H  -1.08900 17.65900 31.86000
H  -1.57000 16.09400 32.59700
H  -3.07100 17.69800 34.03500
H  -1.69500 18.83100 33.84300
H  -3.52600 22.82500 28.84100
H  -3.73000 23.48300 27.20400
H  -2.16900 23.57000 28.08400
H  -0.95200 24.00000 25.81300
H  -2.71500 24.33500 25.64800
H  -1.62500 24.58900 24.25700
H  -0.94400 17.72800 22.13400
H  -2.43300 15.17700 22.46200
H  -3.98800 17.86700 22.34900
H  -3.38300 17.00700 20.96800
H  -2.70400 18.55700 21.25100
H  -0.18200 15.63900 21.48900
H  -0.21200 14.23200 22.59200
H  0.57600 16.31200 24.27600
H  1.47700 16.61900 22.79900
H  1.61800 15.01900 23.52200
H  -2.45500 10.89500 27.02200
H  -1.88200 11.81400 25.64600
H  -3.72800 11.58500 26.01600
H  -4.07000 14.01100 31.01200
H  -1.55600 11.96000 33.51100
H  -2.82200 12.46000 34.64800
H  -1.36900 13.49500 34.39500
Mg 25.28000 2.04600 29.73300
C  27.02600 1.63900 32.74200
C  22.44900 1.60200 31.66900
C  23.51200 2.10300 26.87900
C  28.19800 1.64500 27.92400
N  24.82400 1.78700 31.98600
C  25.65200 1.75900 32.98800
C  25.01000 1.90200 34.38600
C  23.47200 1.81800 34.00800
C  23.54800 1.67100 32.45100
C  22.69600 0.56500 34.53100
C  25.44500 3.25100 35.15600
C  26.45200 3.05200 36.34800
H  26.32100 4.20600 37.37800
N  23.28600 2.00200 29.32800
C  22.28200 1.74400 30.25400
C  20.96500 1.75400 29.52600
C  21.26600 1.90700 28.14200
C  22.77500 2.03000 28.09600
C  19.65700 1.29800 30.21700
C  20.31900 1.75700 26.87200
O  20.67400 1.64200 25.71300
C  18.89300 1.77300 27.09900
N  25.78200 1.79200 27.66600
C  24.90500 2.00400 26.72000
C  25.56300 2.01200 25.30100
C  27.08500 1.94100 25.62400
C  27.06300 1.74500 27.12000
C  25.04500 0.89100 24.37900
C  27.87800 3.19200 25.17100
C  27.44200 4.61500 25.67900
N  27.23600 1.71500 30.15800
C  28.31400 1.57500 29.32700
C  29.44800 1.28900 30.18900
C  29.04400 1.41800 31.48600
C  27.63900 1.63500 31.45300
C  30.86700 1.00200 29.78700
C  29.46700 1.30900 32.88300
O  30.63000 1.31200 33.32600
C  28.20400 1.58100 33.74600
C  28.21800 0.56300 34.86000
O  27.77800 -0.56500 34.78500
O  28.88400 1.15500 35.93000
C  28.87200 0.29700 37.15300
H  21.54500 1.57600 32.28200
H  22.95700 2.16400 25.94100
H  29.16500 1.64800 27.41600
H  25.23200 1.01600 34.98100
H  23.04300 2.78200 34.28200
H  21.78700 0.91400 35.02200
H  23.31500 0.02200 35.24500
H  22.50400 -0.06000 33.65900
H  24.57600 3.73200 35.60500
H  26.05000 3.74800 34.39900
H  27.47000 3.18500 35.98200
H  26.41200 2.05400 36.78300
H  19.77100 1.39800 31.29600
H  19.46300 0.23800 30.05100
H  18.74900 1.82400 29.92200
H  18.62900 2.43200 27.92600
H  18.45100 0.78200 27.20000
H  18.39800 2.02300 26.16100
H  25.27700 2.96300 24.85100
H  27.50900 1.04500 25.17100
H  25.06200 1.21000 23.33700
H  24.07300 0.64300 24.80600
H  25.69900 0.02800 24.49900
H  27.81300 3.25800 24.08500
H  28.89900 3.07200 25.53400
H  28.31200 5.10900 26.11100
H  26.62400 4.62300 26.40000
H  27.07900 5.23900 24.86200
H  31.44700 1.47400 30.58000
H  31.13100 1.52500 28.86800
H  31.12700 -0.04900 29.91300
H  28.37500 2.50700 34.29600
H  29.04400 -0.77000 37.01100
H  27.92400 0.38600 37.68300
H  29.81100 0.48100 37.67500

