158

Mg 41.75900 9.11100 29.63600
C  43.77600 10.17400 32.27600
C  39.50200 7.83100 32.01000
C  39.98700 7.74200 27.06800
C  44.30900 9.91000 27.41900
N  41.75200 8.76600 31.94000
C  42.51600 9.61600 32.73800
C  41.98000 9.65600 34.21400
C  40.84200 8.52500 34.16000
C  40.62800 8.37900 32.66100
C  41.22500 7.24900 34.95900
C  41.67400 11.18100 34.67800
C  40.92400 11.33300 35.99600
H  41.61700 11.91400 37.23200
N  39.92100 8.05600 29.52800
C  39.16700 7.57000 30.62200
C  38.09900 6.78700 30.08500
C  38.08600 7.01600 28.64200
C  39.36300 7.68500 28.34300
C  37.18200 5.91800 30.97500
C  37.03500 6.72600 27.71100
O  37.12500 6.83200 26.48400
C  35.69100 6.27600 28.16500
N  42.18800 8.76300 27.61700
C  41.28000 8.15800 26.78500
C  41.78900 8.02200 25.28900
C  43.15200 8.77900 25.34400
C  43.23800 9.15800 26.88500
C  41.90100 6.46900 24.83800
C  43.31200 9.98900 24.37800
C  42.54400 11.30700 24.52600
N  43.65500 9.89400 29.77400
C  44.51200 10.25200 28.74500
C  45.67400 10.87200 29.35100
C  45.39000 10.90900 30.74500
C  44.14400 10.26200 30.96900
C  46.95400 11.26800 28.67000
C  45.86800 11.44500 32.04600
O  46.85200 12.11600 32.37300
C  44.78500 10.97800 33.07900
C  45.33900 10.22200 34.21000
O  45.91600 9.15600 34.19400
O  45.28600 10.97200 35.35600
C  46.01600 10.50500 36.49000
H  38.64300 7.60200 32.64400
H  39.38700 7.24400 26.30300
H  45.11100 10.19400 26.73400
H  42.70500 9.21900 34.90000
H  39.92200 9.00200 34.49700
H  42.08100 7.43800 35.60800
H  41.57800 6.38900 34.39000
H  40.39400 6.87000 35.55300
H  41.05300 11.52600 33.85200
H  42.53000 11.85300 34.72200
H  40.50600 10.36300 36.26700
H  40.04300 11.92900 35.75700
H  37.75300 5.45700 31.78100
H  36.77300 5.12100 30.35500
H  36.31400 6.35900 31.46600
H  35.39700 6.79800 29.07500
H  35.78600 5.22800 28.45200
H  34.98900 6.44000 27.34700
H  41.11600 8.49800 24.57700
H  43.95800 8.08600 25.10100
H  42.93800 6.17000 24.68800
H  41.20400 6.35100 24.00800
H  41.57200 5.74200 25.58200
H  42.88000 9.54600 23.48000
H  44.34500 10.32100 24.28100
H  41.92300 11.31200 25.42200
H  41.87100 11.44800 23.68000
H  43.21700 12.15900 24.62000
H  47.75200 10.74000 29.19200
H  47.19600 12.32100 28.81400
H  47.10900 10.87600 27.66400
H  44.33900 11.87500 33.50800
H  46.97200 10.04600 36.23800
H  45.40100 9.84100 37.09600
H  46.07000 11.44200 37.04400
Mg 10.11900 48.30300 25.77100
C  7.80200 48.32300 28.52900
C  12.38500 49.75900 27.91200
C  12.21500 48.27300 23.19200
C  7.49200 47.37900 23.76900
N  9.96800 49.15300 27.98000
C  9.07400 48.83200 28.95700
C  9.56100 49.16900 30.35100
C  10.97900 49.85600 30.04900
C  11.12300 49.61000 28.54100
C  11.07100 51.35700 30.49000
C  9.55100 48.03900 31.41400
C  10.62300 48.07900 32.51000
H  10.41800 47.23000 33.75600
N  12.05500 48.83100 25.63900
C  12.83900 49.41100 26.62300
C  14.12900 49.50300 26.05700
C  14.16800 48.94300 24.75700
C  12.75600 48.61200 24.44900
C  15.27600 50.01700 26.83500
C  15.36000 48.67800 23.77900
O  15.27500 48.37300 22.61700
C  16.72800 48.90800 24.36600
N  9.88500 47.88100 23.65400
C  10.93100 47.91200 22.74400
C  10.49100 47.48000 21.32900
C  8.99900 47.14800 21.54300
C  8.76000 47.46200 23.11700
C  10.86000 48.67600 20.34100
C  8.49700 45.74300 21.08500
C  8.75400 44.55400 22.11400
N  7.97700 48.03400 26.00900
C  7.08000 47.60000 25.07800
C  5.83000 47.39000 25.70300
C  6.08200 47.54700 27.08300
C  7.37900 48.03500 27.19000
C  4.51000 46.98300 25.06500
C  5.52100 47.44000 28.37700
O  4.45600 46.99600 28.74800
C  6.60200 47.92000 29.38300
C  6.70300 46.78500 30.32100
O  7.16500 45.68900 30.04200
O  6.14100 47.10000 31.55300
C  6.63700 46.14200 32.53600
H  13.09900 50.15400 28.63800
H  12.95500 48.30000 22.39000
H  6.70300 47.03300 23.09800
H  8.88700 49.97300 30.64600
H  11.86600 49.40700 30.49500
H  11.76700 51.21900 31.31800
H  10.16500 51.81700 30.88300
H  11.44100 52.02600 29.71300
H  9.55200 47.10800 30.84800
H  8.61400 48.22800 31.93800
H  10.66800 49.12100 32.82700
H  11.52900 47.77600 31.98500
H  15.14500 50.51400 27.79600
H  15.73400 50.80100 26.23200
H  16.01900 49.23100 26.96800
H  16.93200 48.23800 25.20100
H  16.96000 49.96100 24.52900
H  17.45100 48.62100 23.60200
H  11.13800 46.61400 21.18800
H  8.40400 47.85000 20.95900
H  10.96100 49.64300 20.83300
H  10.11700 48.70700 19.54400
H  11.77800 48.57700 19.76200
H  9.06900 45.60800 20.16700
H  7.44500 45.88400 20.83700
H  9.33100 44.82100 22.99900
H  9.07900 43.65000 21.60000
H  7.76600 44.28000 22.48500
H  4.38600 45.90000 25.06900
H  4.44500 47.21800 24.00300
H  3.78100 47.49600 25.69300
H  6.17100 48.71100 29.99800
H  6.33800 45.11500 32.33000
H  6.13400 46.37800 33.47400
H  7.72400 46.21500 32.57300

