158

Mg 3.23800 -0.73700 43.94100
C  6.66500 -0.18000 43.75000
C  2.79200 2.21900 42.26600
C  0.24700 -1.90400 43.19600
C  4.02400 -3.94500 45.38000
N  4.63500 0.81900 42.92700
C  5.96100 0.83600 43.00400
C  6.55700 2.02600 42.21700
C  5.27400 2.91800 42.16400
C  4.18500 1.95800 42.46200
C  5.23200 4.11300 43.25600
C  7.11200 1.41100 40.94100
C  8.59400 1.65500 40.77000
H  9.11700 1.86600 39.35400
N  1.68900 0.11500 43.00000
C  1.68400 1.33700 42.40400
C  0.40100 1.65400 41.85000
C  -0.42600 0.44900 42.08900
C  0.47300 -0.51700 42.88300
C  0.06200 2.97000 41.16000
C  -1.92000 0.21000 41.71500
O  -2.56000 0.93300 40.98300
C  -2.68800 -0.95200 42.25100
N  2.25200 -2.77900 44.25200
C  0.95000 -2.96600 43.85100
C  0.36300 -4.33800 44.38500
C  1.64300 -4.93100 45.17400
C  2.65400 -3.76300 45.03300
C  -0.94900 -4.21300 45.23200
C  2.18900 -6.27900 44.67900
C  2.58400 -7.38600 45.61400
N  4.91500 -1.84500 44.47100
C  5.07200 -3.00200 45.18200
C  6.48700 -3.15300 45.58500
C  7.13300 -1.98900 45.11800
C  6.12200 -1.27800 44.41000
C  7.07800 -4.33000 46.34200
C  8.40500 -1.29800 44.99500
O  9.53700 -1.62900 45.35900
C  8.14300 -0.09400 44.16200
C  8.28700 1.13600 44.99400
O  7.66500 1.33800 45.98000
O  9.06600 2.07900 44.34300
C  9.00700 3.42200 44.87500
H  2.50900 3.19300 41.86200
H  -0.64500 -2.33500 42.73800
H  4.19700 -4.95400 45.76100
H  7.34400 2.64100 42.65300
H  5.20300 3.31000 41.14900
H  6.11000 4.06200 43.89900
H  4.33300 4.12200 43.87300
H  5.24300 5.03900 42.68100
H  6.64300 1.81900 40.04500
H  7.04400 0.32600 40.86300
H  9.27800 0.98000 41.28400
H  8.99200 2.51000 41.31600
H  0.75500 3.31400 40.39300
H  0.09800 3.71500 41.95400
H  -0.95200 3.00800 40.76100
H  -3.74800 -0.79100 42.05000
H  -2.49100 -1.04700 43.31900
H  -2.37500 -1.85700 41.73100
H  0.06700 -4.93900 43.52500
H  1.42300 -4.98300 46.24000
H  -1.70800 -4.58100 44.54200
H  -1.07900 -3.18700 45.57600
H  -0.96700 -4.95400 46.03200
H  3.13100 -6.07600 44.17000
H  1.48300 -6.69800 43.96100
H  3.58000 -7.75600 45.36700
H  1.84600 -8.18500 45.54300
H  2.65700 -6.98600 46.62500
H  6.50200 -5.25400 46.38600
H  7.32800 -4.06700 47.37000
H  7.99900 -4.70600 45.89600
H  8.75100 0.00200 43.26300
H  9.96200 3.62500 45.35900
H  8.27500 3.71300 45.62900
H  8.78100 4.17200 44.11800
Mg 24.83600 -5.77500 46.75900
C  26.96400 -3.41900 45.23600
C  22.21200 -4.40700 44.81400
C  22.93600 -8.58900 47.31700
C  27.44000 -7.11600 48.36300
N  24.65500 -4.29700 44.93300
C  25.65700 -3.37200 44.65700
C  25.12300 -2.31900 43.66700
C  23.57600 -2.37500 43.98700
C  23.44200 -3.74000 44.62100
C  23.13400 -1.25400 44.99800
C  25.51900 -2.86800 42.18100
C  26.34000 -1.94300 41.27900
H  26.18300 -2.05600 39.72900
N  22.81000 -6.41800 46.17900
C  21.94000 -5.75100 45.33500
C  20.69300 -6.39300 45.28100
C  20.79300 -7.69000 45.97800
C  22.25200 -7.61500 46.52400
C  19.62200 -5.88600 44.42700
C  19.82000 -8.83000 46.11700
O  18.71800 -8.68400 45.58800
C  20.10600 -10.05700 46.96200
N  25.08100 -7.60200 47.82600
C  24.22200 -8.67100 47.92100
C  24.88900 -9.79900 48.71600
C  26.31500 -9.20800 49.26100
C  26.27400 -7.88000 48.46200
C  24.10900 -10.31500 49.94800
C  27.69100 -10.07900 49.07500
C  28.55400 -10.10900 50.35200
N  26.75500 -5.33800 46.84600
C  27.76900 -5.98100 47.58800
C  29.06700 -5.27100 47.43600
C  28.74400 -4.29100 46.48000
C  27.39000 -4.39600 46.13800
C  30.28800 -5.64700 48.06800
C  29.31200 -3.18100 45.71200
O  30.44400 -2.73000 45.64700
C  28.17400 -2.60400 44.79700
C  28.02300 -1.12100 45.14400
O  28.68200 -0.22300 44.69700
O  27.02100 -0.91000 46.08200
C  26.98000 0.45100 46.64400
H  21.47600 -3.76000 44.33400
H  22.48500 -9.54100 47.60400
H  28.34800 -7.43900 48.87600
H  25.58200 -1.36200 43.91500
H  23.03600 -2.16600 43.06300
H  23.99100 -0.69400 45.37200
H  22.49900 -1.50300 45.84800
H  22.51800 -0.62500 44.35400
H  24.61400 -3.22700 41.69200
H  26.01700 -3.83100 42.29600
H  27.42000 -1.95000 41.42900
H  25.85000 -0.98800 41.46900
H  19.77100 -6.24000 43.40700
H  19.53100 -4.80000 44.42300
H  18.65200 -6.24700 44.76700
H  20.96600 -10.57400 46.53500
H  19.30000 -10.78300 47.07600
H  20.31300 -9.76000 47.99000
H  25.01900 -10.64300 48.03900
H  26.19000 -8.77200 50.25200
H  23.69200 -11.31200 49.81000
H  23.35500 -9.60400 50.28600
H  24.76300 -10.27200 50.81900
H  28.28600 -9.63200 48.27900
H  27.48200 -11.08200 48.70500
H  29.38900 -9.47900 50.04700
H  29.00600 -11.10000 50.36900
H  28.20300 -9.83700 51.34800
H  30.74700 -4.77200 48.52900
H  30.92100 -5.93400 47.22800
H  30.12400 -6.38700 48.85100
H  28.40400 -2.65000 43.73300
H  26.57700 0.57000 47.65000
H  26.32500 0.98900 45.95800
H  27.89700 1.03700 46.70400

