158

Mg 25.65700 1.11600 29.58400
C  27.45100 0.71400 32.47400
C  22.84200 1.61300 31.42100
C  23.84400 1.09100 26.67500
C  28.35600 -0.25000 27.78100
N  25.27200 1.11800 31.69300
C  26.12100 1.08200 32.79800
C  25.52900 1.56200 34.13700
C  24.04100 1.71700 33.67100
C  24.01400 1.50100 32.14700
C  23.08200 0.76100 34.49500
C  26.20000 2.90700 34.57600
C  27.00700 2.77500 35.98900
H  26.59100 3.64900 37.19000
N  23.65100 1.53200 29.11500
C  22.61000 1.65000 29.99100
C  21.38400 1.60800 29.32900
C  21.66300 1.50000 27.94500
C  23.16900 1.36000 27.86900
C  20.03500 1.71100 29.94100
C  20.68700 1.49800 26.82200
O  21.06900 1.62000 25.67100
C  19.17900 1.36200 26.96100
N  26.04300 0.57400 27.53000
C  25.21100 0.79100 26.51000
C  25.83200 0.59000 25.09900
C  27.27100 0.14500 25.44700
C  27.24100 0.18100 27.03600
C  24.95800 -0.37500 24.22700
C  28.25700 1.26500 24.92100
C  29.65600 0.87900 24.57100
N  27.57600 0.41900 29.92300
C  28.58000 -0.04100 29.17400
C  29.75700 -0.24000 29.93200
C  29.37400 0.13900 31.23600
C  27.99700 0.42800 31.17900
C  31.12100 -0.72500 29.54900
C  29.78900 0.37500 32.62600
O  30.89700 0.36500 33.12600
C  28.55600 0.76300 33.43900
C  28.39800 -0.21500 34.54400
O  27.51500 -1.07700 34.56500
O  29.36800 -0.01500 35.49100
C  29.22600 -0.83800 36.71400
H  21.97100 1.81300 32.04800
H  23.31000 1.05900 25.72300
H  29.13700 -0.65900 27.13600
H  25.61100 0.77800 34.89000
H  23.77000 2.75100 33.88200
H  22.16600 1.26100 34.81000
H  23.50000 0.27900 35.37800
H  22.61400 0.05700 33.80600
H  25.44400 3.67500 34.73900
H  26.85300 3.26300 33.78000
H  28.08900 2.81000 35.85700
H  26.73000 1.78300 36.34600
H  20.18500 1.76900 31.01900
H  19.59600 0.75800 29.64500
H  19.47600 2.55300 29.53400
H  18.63700 1.18900 26.03100
H  18.81800 2.21800 27.53000
H  19.04200 0.47200 27.57500
H  25.84200 1.57900 24.64100
H  27.47200 -0.82300 24.98800
H  25.62700 -1.10200 23.76500
H  24.49900 0.20200 23.42500
H  24.25500 -0.94800 24.83100
H  28.25100 2.02800 25.69900
H  27.90000 1.68700 23.98100
H  29.87700 1.28600 23.58400
H  29.71200 -0.21000 24.55600
H  30.26700 1.21700 25.40800
H  31.21500 -1.63300 28.95300
H  31.60000 -1.02600 30.48000
H  31.52700 0.09400 28.95400
H  28.53700 1.81300 33.73100
H  28.28100 -0.73400 37.24900
H  30.08600 -0.73800 37.37500
H  29.43800 -1.86000 36.39900
Mg 16.78600 51.47500 26.97400
C  18.82400 49.93300 29.40300
C  14.51200 52.04100 29.43400
C  14.91200 53.04000 24.61100
C  18.97800 50.30400 24.49600
N  16.69700 51.03300 29.16400
C  17.66800 50.45400 29.93000
C  17.36400 50.54100 31.44400
C  15.83300 50.99200 31.41300
C  15.63100 51.35800 29.92100
C  14.87100 49.87500 31.86200
C  18.27500 51.41500 32.31800
C  17.69200 52.06800 33.55400
H  16.78600 51.22200 34.41300
N  14.93500 52.48200 27.03100
C  14.16400 52.64600 28.16900
C  13.05800 53.49700 27.83500
C  13.11400 53.75800 26.42500
C  14.38800 53.11300 25.92300
C  12.07700 53.99200 28.88300
C  12.13400 54.46700 25.51200
O  12.26400 54.54700 24.30200
C  10.90600 54.99800 26.04900
N  16.82000 51.48800 24.79000
C  15.98400 52.35200 24.11500
C  16.39600 52.35300 22.65600
C  17.76500 51.60800 22.54700
C  17.91500 51.10100 24.01700
C  15.39000 51.68700 21.65900
C  19.04400 52.36700 22.03600
C  19.33400 53.81200 22.49200
N  18.55400 50.36800 26.91700
C  19.34800 50.03900 25.83200
C  20.59200 49.46000 26.32800
C  20.38200 49.35200 27.70500
C  19.14900 49.94100 28.01600
C  21.69600 49.02800 25.46500
C  20.98900 48.90800 28.94900
O  22.01900 48.26900 29.20600
C  20.10900 49.38100 30.03800
C  19.76700 48.22600 30.92100
O  19.18900 47.22500 30.59200
O  20.23000 48.48500 32.24300
C  19.89700 47.41500 33.29000
H  13.81100 52.28700 30.23400
H  14.26900 53.43600 23.82200
H  19.61700 50.10200 23.63400
H  17.44400 49.48400 31.69800
H  15.74200 51.88400 32.03300
H  15.41900 48.96100 32.09200
H  14.13600 49.69700 31.07700
H  14.39800 50.26100 32.76400
H  18.58000 52.24400 31.68000
H  19.25000 50.98500 32.54700
H  17.19500 52.98900 33.24800
H  18.52400 52.40300 34.17400
H  11.10900 53.49500 28.95100
H  11.81900 55.00900 28.58900
H  12.45200 53.88300 29.90000
H  10.33900 54.39300 26.75600
H  10.38300 55.15600 25.10600
H  11.14100 55.93700 26.54900
H  16.55800 53.38300 22.33900
H  17.68600 50.73100 21.90400
H  15.81600 51.35200 20.71400
H  14.75500 52.51500 21.34600
H  14.91300 50.78400 22.04100
H  18.97700 52.33600 20.94900
H  19.82700 51.64200 22.25900
H  20.36800 53.86300 22.83200
H  18.62500 54.22300 23.21000
H  19.25300 54.44600 21.60900
H  22.47200 49.79300 25.44200
H  21.47900 48.71700 24.44300
H  22.24800 48.26600 26.01500
H  20.58900 50.15400 30.63800
H  18.85300 47.39900 33.60100
H  20.45600 47.51500 34.22000
H  20.10200 46.42400 32.88300

