158

Mg 43.60400 42.34300 26.37200
C  42.80300 44.64900 28.88500
C  45.46600 40.51700 28.72700
C  44.61700 40.36400 24.03100
C  42.14900 44.44800 24.01300
N  44.12300 42.57600 28.53900
C  43.56300 43.58600 29.37800
C  44.00200 43.41000 30.83100
C  44.84900 42.12600 30.73900
C  44.85700 41.66600 29.32600
C  46.17300 42.04600 31.51400
C  42.89800 43.34500 31.90000
C  43.35700 44.06600 33.12600
H  42.48500 44.48300 34.31800
N  44.67800 40.58600 26.36900
C  45.45100 40.03000 27.36000
C  46.02300 38.76700 26.87700
C  45.61700 38.64900 25.50200
C  44.88400 39.88700 25.24900
C  46.67400 37.86100 27.84600
C  45.96500 37.57800 24.49900
O  45.47100 37.49900 23.34400
C  46.78400 36.39500 24.98600
N  43.59200 42.54100 24.27900
C  44.04100 41.51800 23.53600
C  43.90600 41.78600 22.00900
C  42.81700 42.92700 22.06600
C  42.93800 43.36300 23.50200
C  45.31500 42.25800 21.47700
C  41.48600 42.46100 21.43700
C  40.79400 41.31100 22.33700
N  42.75600 44.18900 26.41300
C  42.20900 44.93000 25.36900
C  41.62700 46.16000 25.89000
C  41.77600 46.11600 27.23100
C  42.49500 44.90600 27.49300
C  41.05800 47.29900 25.12200
C  41.61100 46.82600 28.50900
O  41.07500 47.89500 28.83500
C  42.30200 45.91300 29.64700
C  43.37900 46.67700 30.41900
O  44.54900 46.86200 30.09800
O  42.80100 47.23600 31.50500
C  43.78400 48.00400 32.27300
H  45.91800 39.95700 29.54900
H  45.00300 39.80400 23.17700
H  41.65000 45.06700 23.26300
H  44.73300 44.17900 31.08000
H  44.15500 41.36900 31.10400
H  45.99500 41.49900 32.44100
H  46.43800 43.02900 31.90300
H  46.99400 41.66400 30.90800
H  42.77800 42.31500 32.23500
H  41.90300 43.62400 31.55300
H  43.77000 45.02600 32.81500
H  44.21100 43.59500 33.61300
H  46.59800 38.23000 28.86800
H  47.73800 37.78500 27.62400
H  46.12300 36.92100 27.89400
H  46.41500 36.00500 25.93500
H  47.81300 36.73000 25.11700
H  46.76100 35.59900 24.24200
H  43.50700 40.88300 21.54700
H  43.12500 43.82400 21.52900
H  45.04200 42.95800 20.68700
H  45.87200 41.40300 21.09300
H  45.98500 42.64400 22.24500
H  41.81100 42.13400 20.44900
H  40.85900 43.34600 21.33200
H  40.05200 41.75900 22.99700
H  41.50900 40.75400 22.94300
H  40.45600 40.50900 21.68100
H  41.90400 47.96300 24.94600
H  40.49200 47.89200 25.84100
H  40.42700 47.17800 24.24100
H  41.51900 45.63600 30.35300
H  44.64000 47.40100 32.57600
H  43.30400 48.28000 33.21200
H  44.29800 48.77800 31.70300
Mg 10.38500 46.85900 25.58100
C  8.49800 47.06600 28.42700
C  13.05600 48.00300 27.19800
C  12.14000 46.71200 22.57400
C  7.37400 45.90600 23.72300
N  10.65400 47.72700 27.54300
C  9.75000 47.69400 28.60800
C  10.35600 48.32600 29.86300
C  11.68700 48.96300 29.22500
C  11.82700 48.12300 27.99900
C  11.54700 50.46600 28.85700
C  10.71900 47.35200 31.13300
C  10.11700 47.82000 32.47500
H  9.88900 46.69300 33.50600
N  12.33500 47.10900 25.02700
C  13.30800 47.58100 25.88700
C  14.58300 47.36000 25.26500
C  14.34300 46.98800 23.87600
C  12.88400 46.93200 23.77300
C  15.86400 47.75100 25.90300
C  15.35800 46.76300 22.74900
O  15.05900 46.49500 21.62400
C  16.84900 46.94900 23.00400
N  9.84200 46.54200 23.50000
C  10.75700 46.50100 22.43500
C  10.08400 46.04600 21.17400
C  8.66200 45.57800 21.62300
C  8.60200 46.11900 23.02900
C  10.16400 47.05400 20.04300
C  8.37300 44.03100 21.45200
C  9.07800 43.12000 22.46800
N  8.31800 46.56700 25.89100
C  7.26300 46.11700 25.11900
C  6.10300 45.98500 26.03100
C  6.62100 46.25700 27.34200
C  7.91100 46.68100 27.21700
C  4.58500 45.68600 25.70300
C  6.16800 46.34300 28.62800
O  5.04800 46.14700 29.11100
C  7.45100 46.71800 29.44900
C  7.73600 45.56000 30.30500
O  8.25700 44.45500 30.02400
O  7.27800 45.76900 31.57700
C  7.41000 44.57400 32.51700
H  14.00500 48.22200 27.69100
H  12.66900 46.66700 21.62000
H  6.62200 45.55100 23.01600
H  9.73600 49.17700 30.14700
H  12.60400 48.76500 29.77900
H  11.51700 50.59500 27.77500
H  12.47200 50.93000 29.19900
H  10.67600 50.98200 29.26000
H  11.80400 47.26300 31.17700
H  10.46900 46.31800 30.89600
H  9.20100 48.36400 32.24500
H  10.83000 48.61000 32.71100
H  16.57900 46.93600 25.78900
H  15.74900 48.03800 26.94800
H  16.19300 48.65800 25.39600
H  17.14500 46.16800 23.70400
H  17.02800 47.95900 23.37300
H  17.45800 46.85200 22.10600
H  10.62900 45.19400 20.76700
H  7.88300 46.08800 21.05600
H  10.79000 46.76300 19.20000
H  10.45400 48.07100 20.30800
H  9.14800 47.11600 19.65300
H  8.60300 43.78500 20.41500
H  7.34000 43.83300 21.73800
H  9.82000 43.78100 22.91500
H  9.51600 42.25500 21.97100
H  8.35600 42.88500 23.25000
H  4.24700 44.81000 26.25900
H  4.53800 45.32700 24.67500
H  3.85700 46.48000 25.86900
H  7.15200 47.50400 30.14300
H  7.42700 44.78400 33.58700
H  8.34100 44.03600 32.34400
H  6.71100 43.77700 32.26200

