158

Mg -2.62600 17.65100 26.75300
C  -3.19300 15.55400 29.53200
C  -2.86300 20.32600 28.72600
C  -2.78300 19.63000 23.89500
C  -2.91000 14.85900 24.65400
N  -2.99400 17.84500 28.84800
C  -3.02900 16.85700 29.86500
C  -3.05900 17.46500 31.26400
C  -3.20100 18.99400 30.90500
C  -3.07900 19.09900 29.39200
C  -4.46600 19.72100 31.35900
C  -1.92900 16.98900 32.25000
C  -1.65900 17.94500 33.34700
H  -1.40700 17.32100 34.65100
N  -2.48100 19.72700 26.41100
C  -2.56400 20.66600 27.37400
C  -2.31000 22.00500 26.75500
C  -2.30400 21.76300 25.37400
C  -2.59000 20.35400 25.14400
C  -2.36300 23.25100 27.55600
C  -2.04700 22.74400 24.26600
O  -2.04200 22.41400 23.08600
C  -1.60100 24.09300 24.56200
N  -2.89200 17.39800 24.55300
C  -2.89700 18.27400 23.61100
C  -2.69100 17.67800 22.24400
C  -2.61500 16.14500 22.43800
C  -2.75200 16.13100 24.00700
C  -3.67300 18.01700 21.12000
C  -1.16900 15.57900 21.91600
C  0.15700 16.03200 22.52400
N  -2.98700 15.66500 26.98600
C  -2.96300 14.64700 26.03900
C  -3.14400 13.35400 26.72700
C  -3.21400 13.67500 28.06400
C  -3.14400 15.07900 28.19700
C  -3.42400 12.00100 26.17100
C  -3.38500 13.13100 29.43300
O  -3.59600 11.99600 29.85100
C  -3.30000 14.37700 30.43200
C  -2.02400 14.12400 31.20200
O  -0.92800 14.45500 30.80500
O  -2.30500 13.44700 32.36100
C  -1.15200 13.23100 33.21000
H  -2.98700 21.13800 29.44600
H  -2.90000 20.19100 22.96600
H  -2.95800 13.99200 23.99100
H  -4.06800 17.16800 31.55100
H  -2.38500 19.57800 31.33200
H  -5.10500 19.31000 32.14100
H  -5.11600 19.91900 30.50700
H  -4.05800 20.63900 31.78100
H  -1.01400 16.95400 31.65900
H  -2.20600 16.03600 32.70000
H  -2.54000 18.58300 33.42000
H  -0.74500 18.49500 33.12200
H  -2.55900 23.11200 28.62000
H  -3.12100 23.91400 27.13900
H  -1.41200 23.73600 27.33500
H  -2.37000 24.64700 25.10100
H  -1.33600 24.57000 23.61900
H  -0.72200 24.01500 25.20200
H  -1.66000 17.93200 21.99900
H  -3.46500 15.65200 21.96500
H  -3.59500 19.09800 21.00500
H  -4.71000 17.72800 21.28900
H  -3.25400 17.52200 20.24400
H  -0.99400 15.85700 20.87700
H  -1.27500 14.49400 21.93200
H  0.64000 15.23700 23.09300
H  0.00200 16.86900 23.20500
H  0.80700 16.48500 21.77600
H  -3.17100 11.26000 26.93000
H  -2.71500 11.85300 25.35600
H  -4.47000 11.92900 25.87500
H  -4.16700 14.46000 31.08800
H  -1.02300 12.19800 33.53100
H  -1.23900 13.73900 34.17000
H  -0.13000 13.44600 32.89700
Mg 42.32200 42.02200 26.25900
C  41.52000 44.25300 28.80700
C  43.79100 39.93900 28.83700
C  43.44300 39.94700 23.86700
C  41.63200 44.45900 23.91100
N  42.72300 42.17500 28.57600
C  42.14400 43.11200 29.36300
C  42.12000 42.66600 30.83300
C  43.17400 41.45400 30.78600
C  43.22200 41.14900 29.31500
C  44.59500 41.75900 31.33500
C  40.57300 42.40600 31.20500
C  40.02900 43.06200 32.49700
H  40.93500 43.37500 33.71100
N  43.42500 40.25700 26.34600
C  43.97100 39.54700 27.39500
C  44.52700 38.33000 26.89800
C  44.37400 38.22300 25.52200
C  43.68300 39.51200 25.17400
C  45.10200 37.31300 27.89200
C  44.57600 36.99900 24.66000
O  44.29600 37.12900 23.44600
C  45.10900 35.71400 25.13900
N  42.67100 42.25600 24.11600
C  42.93900 41.18600 23.37100
C  42.91300 41.55900 21.90900
C  42.02900 42.82600 21.93200
C  42.16600 43.31600 23.34600
C  44.35500 41.80300 21.31500
C  40.58600 42.60000 21.44600
C  39.69300 41.77000 22.32700
N  41.69600 43.93000 26.24600
C  41.43300 44.82200 25.26500
C  40.94200 46.07600 25.82900
C  40.94900 45.86600 27.22400
C  41.38300 44.57100 27.39900
C  40.33900 47.24000 25.10900
C  40.47000 46.46900 28.45300
O  39.79700 47.49400 28.77000
C  40.77000 45.39900 29.55800
C  41.51100 46.12100 30.61100
O  42.69100 46.42900 30.60000
O  40.64000 46.48700 31.63500
C  41.26900 47.30300 32.67900
H  44.26400 39.26800 29.55700
H  43.41700 39.23000 23.04300
H  41.13800 45.16100 23.23600
H  42.53600 43.47700 31.43200
H  42.60000 40.75200 31.39100
H  44.63900 41.29400 32.32000
H  44.67200 42.83300 31.50900
H  45.37200 41.40100 30.66000
H  40.55300 41.31700 31.23000
H  39.88900 42.68800 30.40400
H  39.30800 42.30100 32.79600
H  39.45000 43.97400 32.35300
H  46.02500 36.83800 27.55900
H  44.41500 36.48600 28.07000
H  45.19400 37.73000 28.89500
H  46.06300 35.90200 25.63200
H  45.22000 35.17700 24.19800
H  44.40000 35.09800 25.69200
H  42.41000 40.73400 21.40400
H  42.43400 43.55600 21.23100
H  45.14500 41.26500 21.83900
H  44.58700 42.86400 21.40400
H  44.29800 41.66700 20.23500
H  40.64100 42.10600 20.47600
H  40.09900 43.54300 21.20100
H  40.23000 41.59200 23.25800
H  39.53900 40.83200 21.79300
H  38.73300 42.20700 22.60400
H  39.30100 47.39900 25.40100
H  40.27600 47.01400 24.04400
H  40.91500 48.14000 25.32700
H  39.96400 44.88600 30.08300
H  41.57400 48.25100 32.23600
H  41.99500 46.79900 33.31800
H  40.42300 47.38000 33.36100

