158

Mg 25.81200 0.77600 29.31200
C  27.73300 0.55500 32.15900
C  22.99100 0.99600 30.99300
C  24.01500 0.25600 26.32400
C  28.73300 0.08500 27.37900
N  25.40500 0.56100 31.34700
C  26.32000 0.64400 32.40100
C  25.59400 0.65500 33.76400
C  24.07900 0.77300 33.28700
C  24.14800 0.74700 31.77900
C  23.05300 -0.27000 33.81700
C  26.20500 2.02800 34.40200
C  25.29700 2.91300 35.19600
H  26.02500 3.40800 36.55300
N  23.78300 0.71800 28.73300
C  22.76400 0.84600 29.62400
C  21.46700 0.52900 28.98400
C  21.78200 0.26600 27.60300
C  23.18300 0.45900 27.49500
C  20.16700 0.46600 29.73600
C  20.86700 -0.03800 26.42100
O  21.22600 -0.36700 25.25600
C  19.36500 -0.06600 26.66200
N  26.30000 0.31800 27.11800
C  25.37700 0.12900 26.14900
C  25.99600 0.00100 24.72800
C  27.54800 0.13300 25.09000
C  27.57600 0.19800 26.62500
C  25.61800 -1.24900 23.81800
C  28.32400 1.24700 24.39000
C  28.27200 2.64000 24.99800
N  27.78600 0.43700 29.61000
C  28.85900 0.18400 28.77400
C  30.07600 0.02900 29.55700
C  29.65200 0.20600 30.89100
C  28.26600 0.38600 30.88400
C  31.40800 -0.34900 28.94600
C  30.15100 0.24900 32.21500
O  31.25800 0.05000 32.62400
C  28.93100 0.57300 33.09500
C  28.76200 -0.41600 34.29100
O  28.14600 -1.42500 34.31000
O  29.41100 0.17700 35.33900
C  29.35900 -0.59700 36.57900
H  22.12100 1.25800 31.59800
H  23.40900 0.34500 25.42000
H  29.63000 -0.16700 26.80900
H  25.77400 -0.23100 34.37300
H  23.63700 1.74700 33.49400
H  22.66200 -0.84900 32.97900
H  22.28600 0.41300 34.18400
H  23.58100 -0.82500 34.59200
H  26.49000 2.73200 33.62100
H  26.97400 1.74200 35.12000
H  24.51200 2.23000 35.52100
H  24.90900 3.68200 34.52800
H  20.24500 0.86000 30.74900
H  19.92500 -0.58100 29.91900
H  19.35300 0.93300 29.18200
H  18.88800 -0.24200 25.69800
H  19.04200 0.91700 27.00600
H  19.07200 -0.90900 27.28800
H  25.71300 0.88000 24.14800
H  27.93800 -0.82700 24.75300
H  26.35300 -2.05200 23.87500
H  25.47300 -0.92500 22.78700
H  24.65700 -1.65200 24.14000
H  28.04800 1.18000 23.33700
H  29.36800 0.93400 24.39700
H  27.38600 3.07300 24.53500
H  29.12300 3.31400 24.90000
H  28.04100 2.66800 26.06300
H  32.29200 0.28800 28.93700
H  31.24100 -0.90000 28.02000
H  31.73200 -1.24700 29.47200
H  29.07100 1.58000 33.48800
H  29.43700 -1.68400 36.57900
H  28.45000 -0.38100 37.14000
H  30.21500 -0.33100 37.19900
Mg 26.82700 50.66100 27.52100
C  24.61200 51.84600 29.92000
C  28.88500 49.68000 29.94000
C  28.87300 49.72200 25.09000
C  24.57300 52.03200 25.11200
N  26.69300 50.72500 29.61500
C  25.74300 51.29500 30.46000
C  26.00400 51.05200 31.90000
C  27.51200 50.49700 31.88700
C  27.71700 50.27200 30.37500
C  28.62700 51.48900 32.36700
C  25.07600 49.97200 32.54100
C  24.44700 50.34500 33.90400
H  25.42200 50.93700 35.01100
N  28.61000 49.86300 27.46500
C  29.30600 49.51300 28.61300
C  30.60700 48.98600 28.27000
C  30.71700 49.12300 26.85600
C  29.35700 49.56400 26.38400
C  31.60400 48.52700 29.21100
C  31.88500 48.77200 25.91300
O  31.80400 48.76000 24.67500
C  33.21400 48.27500 26.34100
N  26.76100 50.84400 25.31800
C  27.69400 50.32200 24.57200
C  27.26200 50.31200 23.14100
C  25.84700 50.91000 23.16900
C  25.71200 51.32000 24.62700
C  28.21000 51.07600 22.10400
C  24.71500 49.86800 22.84700
C  23.52900 50.40900 22.07000
N  24.97000 51.80400 27.44600
C  24.19100 52.36100 26.41600
C  23.08700 53.04800 26.94500
C  23.17200 52.91100 28.31200
C  24.35200 52.15400 28.57500
C  22.01300 53.72700 26.26500
C  22.56400 53.24600 29.55500
O  21.59600 53.95500 29.72000
C  23.52300 52.66900 30.69700
C  23.92700 53.86300 31.58300
O  24.94200 54.52400 31.33600
O  23.04700 54.02100 32.60400
C  23.46200 54.90400 33.70500
H  29.42300 49.26600 30.79600
H  29.55000 49.41800 24.28900
H  23.97700 52.34100 24.25100
H  25.85300 51.96700 32.47300
H  27.61800 49.54300 32.40400
H  29.29400 51.73700 31.54200
H  29.20000 50.97000 33.13500
H  28.27900 52.42700 32.79800
H  25.66300 49.06400 32.67800
H  24.26800 49.70800 31.85800
H  23.84500 49.49900 34.23700
H  23.76000 51.14100 33.61500
H  31.75000 47.44700 29.19600
H  31.36100 48.70500 30.25800
H  32.54800 49.07100 29.21300
H  33.62700 47.79400 25.45400
H  32.90300 47.40600 26.92100
H  33.59600 49.19200 26.79100
H  27.22300 49.24700 22.91100
H  25.78400 51.85600 22.63100
H  29.10100 51.55500 22.51200
H  27.65700 51.75900 21.46000
H  28.59000 50.27300 21.47200
H  24.40300 49.38800 23.77500
H  25.11500 49.00700 22.31000
H  22.55400 50.46200 22.55500
H  23.49200 49.63300 21.30600
H  23.69800 51.35600 21.55800
H  22.32700 54.09300 25.28700
H  21.69700 54.53700 26.92200
H  21.19200 53.02000 26.14900
H  22.90000 52.01800 31.31000
H  23.47800 55.93700 33.35800
H  24.40200 54.60400 34.16900
H  22.79700 54.85800 34.56800

