158

Mg 35.24900 1.53600 30.19600
C  32.97100 2.88800 32.46200
C  37.67500 1.87000 32.36700
C  37.40800 0.94300 27.65800
C  32.69500 1.84600 27.70900
N  35.36200 2.47600 32.10200
C  34.28500 2.70400 32.96100
C  34.58300 2.63000 34.42500
C  36.14600 2.66100 34.36000
C  36.43100 2.29900 32.82300
C  36.95000 3.91600 34.79000
C  33.91000 1.49500 35.31500
C  33.39500 1.74900 36.73600
H  34.06000 2.81500 37.58000
N  37.24300 1.28700 30.06200
C  38.07600 1.37100 31.06400
C  39.43900 0.99000 30.70800
C  39.38200 0.75700 29.28300
C  37.98300 0.97600 28.89800
C  40.58900 0.94300 31.65600
C  40.43500 0.31800 28.33700
O  40.22500 0.34900 27.14200
C  41.81500 0.08700 28.78500
N  35.12300 1.52300 27.97500
C  36.13900 1.21700 27.22400
C  35.74500 1.16600 25.76800
C  34.22800 1.20800 25.83700
C  33.93900 1.50900 27.25100
C  36.36400 2.34200 24.97200
C  33.54000 -0.08100 25.34200
C  33.33700 -0.22000 23.90100
N  33.24900 2.24700 30.06200
C  32.33400 2.22800 29.01900
C  31.05500 2.59000 29.48000
C  31.18200 2.93000 30.80000
C  32.54700 2.68400 31.11800
C  29.75800 2.62000 28.66100
C  30.63500 3.39100 32.06600
O  29.51900 3.77000 32.37600
C  31.78400 3.34000 33.17800
C  31.92500 4.69700 33.75500
O  32.45600 5.68600 33.22200
O  31.25700 4.71300 34.94900
C  31.21700 5.98500 35.70500
H  38.42600 1.80700 33.15700
H  37.91400 0.62600 26.74300
H  31.84700 1.84500 27.02000
H  34.31700 3.54400 34.95600
H  36.63500 1.85500 34.90800
H  37.69300 3.57600 35.51200
H  36.26900 4.64200 35.23300
H  37.57100 4.39200 34.03100
H  34.50700 0.58400 35.28000
H  33.01100 1.18300 34.78300
H  33.77100 0.92200 37.33800
H  32.31700 1.91100 36.69900
H  41.36700 0.21200 31.43700
H  40.07900 0.63600 32.56900
H  41.02300 1.91600 31.88700
H  42.21900 0.98100 29.25900
H  42.44300 -0.18100 27.93600
H  41.80000 -0.82300 29.38600
H  36.06400 0.28000 25.21900
H  33.80200 1.99000 25.20900
H  36.89300 3.03000 25.63200
H  35.55900 2.92200 24.52100
H  36.90900 1.98000 24.10100
H  32.57800 -0.25900 25.82300
H  34.29000 -0.79000 25.69200
H  34.12000 -0.90000 23.56600
H  33.51600 0.73800 23.41400
H  32.37800 -0.72100 23.77100
H  29.70000 3.67800 28.40400
H  28.92100 2.42800 29.33100
H  29.78900 1.95800 27.79500
H  31.47900 2.62900 33.94600
H  30.31100 6.49600 35.37900
H  32.06500 6.63800 35.50000
H  31.14500 5.78900 36.77500
Mg -11.50300 16.56900 40.24900
C  -8.28900 15.00900 39.54300
C  -10.23000 19.43100 38.84600
C  -14.65300 17.60600 39.77000
C  -12.67100 13.42400 41.00200
N  -9.52300 17.05900 39.39300
C  -8.31500 16.33400 39.22100
C  -7.12600 17.20900 38.77400
C  -7.79600 18.59900 38.75800
C  -9.32400 18.38300 38.96500
C  -7.22500 19.60100 39.82000
C  -6.67900 16.85400 37.42000
C  -5.43600 17.62400 36.88300
H  -4.55600 16.89800 35.79400
N  -12.30000 18.43500 39.69100
C  -11.67400 19.48100 39.13800
C  -12.62700 20.61900 38.87800
C  -13.92400 20.07900 39.22400
C  -13.64000 18.64500 39.58100
C  -12.27700 22.00900 38.38800
C  -15.20600 20.85200 39.08700
O  -15.12400 21.95500 38.59500
C  -16.48300 20.13800 39.36200
N  -13.42900 15.62800 40.37900
C  -14.61000 16.26800 40.11500
C  -15.76000 15.34500 40.37800
C  -15.10300 13.99300 40.56300
C  -13.61900 14.36900 40.72600
C  -16.69600 15.83400 41.58600
C  -15.27000 13.06300 39.36900
C  -15.69000 11.65500 39.69300
N  -10.67800 14.64100 40.43300
C  -11.25900 13.49300 40.74700
C  -10.33200 12.43100 40.81400
C  -9.16600 12.97500 40.37400
C  -9.42800 14.27600 40.04600
C  -10.51500 10.95500 40.98200
C  -7.75800 12.66800 40.09200
O  -7.08000 11.65700 40.08700
C  -7.19000 13.96200 39.56600
C  -5.96800 14.18900 40.29700
O  -5.86800 14.76100 41.37300
O  -4.84800 13.77000 39.55000
C  -3.44000 14.31900 39.74600
H  -9.76700 20.31000 38.39200
H  -15.68200 17.81600 39.46800
H  -13.06200 12.44300 41.28100
H  -6.39400 17.05200 39.56600
H  -7.69400 19.13500 37.81500
H  -6.36100 20.11800 39.40200
H  -6.98500 18.91400 40.63100
H  -7.88700 20.31700 40.30800
H  -7.49000 16.90700 36.69400
H  -6.31700 15.82800 37.35000
H  -4.80600 17.92000 37.72200
H  -5.68300 18.54500 36.35500
H  -12.28300 22.31800 37.34300
H  -11.21000 22.02000 38.61200
H  -12.80400 22.69600 39.05000
H  -17.19100 20.96100 39.26300
H  -16.53600 19.73500 40.37300
H  -16.67100 19.36500 38.61700
H  -16.31400 15.33900 39.43900
H  -15.39800 13.60100 41.53600
H  -16.13400 16.71600 41.89200
H  -16.59000 15.16800 42.44200
H  -17.69600 16.10300 41.24600
H  -14.32300 13.05900 38.82900
H  -15.98600 13.47300 38.65700
H  -16.75200 11.41300 39.69800
H  -15.22600 11.24600 40.59000
H  -15.23600 11.00900 38.94100
H  -11.13100 10.74400 41.85600
H  -9.60000 10.36400 41.02900
H  -11.12900 10.56800 40.16900
H  -6.91100 13.67800 38.55100
H  -3.06900 14.88200 38.89000
H  -2.67200 13.54500 39.73600
H  -3.25000 14.86900 40.66800

