158

Mg 54.52400 23.73600 44.06600
C  52.01400 26.01700 43.35500
C  52.36800 21.19500 43.37100
C  57.22000 21.71700 43.76400
C  56.69200 26.46900 44.72100
N  52.39500 23.61600 43.21600
C  51.53900 24.69000 42.99800
C  50.07500 24.22400 42.73600
C  50.24800 22.66200 43.09900
C  51.77100 22.42100 43.25800
C  49.54400 22.02000 44.28900
C  49.35600 24.56700 41.41200
C  50.29400 24.63100 40.13700
H  49.71200 25.40200 38.94200
N  54.78900 21.72400 43.69400
C  53.75600 20.83800 43.49000
C  54.30300 19.54400 43.27000
C  55.69200 19.63600 43.62800
C  55.96800 21.07800 43.67500
C  53.43200 18.33500 43.02400
C  56.61000 18.51600 43.96300
O  56.28800 17.32700 43.82500
C  58.02200 18.78400 44.57400
N  56.62300 24.12100 44.11800
C  57.51200 23.10600 44.00200
C  59.00900 23.50400 44.27600
C  58.83800 25.02700 44.32000
C  57.28500 25.21600 44.46100
C  59.64300 22.88400 45.54000
C  59.58400 25.83600 43.21200
C  58.79700 25.81800 41.86400
N  54.46900 25.79400 44.16700
C  55.34100 26.77000 44.55100
C  54.69700 28.05700 44.55800
C  53.32100 27.84900 44.23200
C  53.28800 26.43400 43.85600
C  55.30800 29.37200 44.86200
C  51.91000 28.39000 44.05400
O  51.45900 29.53500 44.22700
C  51.12800 27.23800 43.40900
C  50.72200 27.68000 42.02900
O  51.44600 27.56600 41.04000
O  49.43100 28.17600 42.02600
C  49.02200 28.69000 40.72600
H  51.74400 20.31900 43.18400
H  58.03800 21.02800 43.54400
H  57.35600 27.29400 44.98700
H  49.48500 24.62200 43.56200
H  49.95000 22.05000 42.24800
H  49.06700 21.10300 43.94300
H  48.86500 22.68600 44.82200
H  50.27400 21.63900 45.00300
H  48.88400 25.53100 41.60000
H  48.50000 23.91700 41.22800
H  50.32500 23.63600 39.69300
H  51.30700 24.83000 40.48600
H  54.03100 17.45400 42.79200
H  52.81200 18.43600 42.13200
H  52.84400 18.13200 43.91900
H  58.75500 18.82400 43.76800
H  58.19900 17.85700 45.11900
H  58.18800 19.56600 45.31500
H  59.51200 23.09000 43.40200
H  59.20100 25.40900 45.27400
H  58.92200 22.21500 46.00900
H  59.85700 23.74500 46.17300
H  60.52300 22.28500 45.31000
H  60.57600 25.40500 43.07900
H  59.72500 26.72600 43.82600
H  58.15800 24.93500 41.87900
H  59.49700 25.75200 41.03000
H  58.06900 26.62700 41.82400
H  55.78900 29.84400 44.00500
H  56.13700 29.25400 45.55900
H  54.55600 30.03900 45.28500
H  50.25100 27.09100 44.03900
H  48.18100 29.36800 40.86900
H  48.65900 27.97200 39.99100
H  49.77600 29.28700 40.21200
Mg 30.33700 59.27700 40.17400
C  27.81000 57.35900 38.85100
C  32.63900 56.89300 38.91200
C  32.98300 61.30700 40.70100
C  28.09400 61.90100 40.72000
N  30.18200 57.25700 39.04500
C  29.05300 56.68800 38.64400
C  29.24500 55.40900 37.85100
C  30.80000 55.07200 38.22300
C  31.28200 56.46100 38.68300
C  31.04500 53.97700 39.21900
C  29.18100 55.69200 36.30400
C  28.07200 54.90800 35.54900
H  27.21300 55.71500 34.56400
N  32.53200 59.12300 39.92100
C  33.27500 58.04600 39.51400
C  34.71000 58.30800 39.58600
C  34.83100 59.60400 40.13200
C  33.43700 60.06300 40.29300
C  35.84900 57.23800 39.26300
C  36.13100 60.26400 40.48000
O  37.16200 59.66700 40.27900
C  36.20600 61.57900 41.18400
N  30.51700 61.32500 40.59600
C  31.69500 61.86400 40.99100
C  31.55300 63.34200 41.34800
C  29.99400 63.60400 41.23900
C  29.43600 62.19100 40.81600
C  32.19400 63.75200 42.71000
C  29.53400 64.66300 40.25200
C  30.37600 65.92300 40.30600
N  28.31600 59.55700 40.00200
C  27.52300 60.70600 40.18000
C  26.09700 60.27300 40.03200
C  26.15600 58.98300 39.47900
C  27.54300 58.64900 39.41600
C  24.97300 61.13300 40.49800
C  25.38300 57.85900 39.04000
O  24.15600 57.81000 38.99200
C  26.37000 56.78900 38.49900
C  25.97500 55.55300 39.18900
O  26.58600 55.11900 40.16000
O  24.79300 55.11400 38.66700
C  24.19100 53.90900 39.30000
H  33.37000 56.19700 38.49400
H  33.71700 62.09400 40.88800
H  27.45500 62.74200 40.99400
H  28.59200 54.57500 38.10800
H  31.44900 54.76700 37.40200
H  30.07300 53.65100 39.58900
H  31.62800 54.63300 39.86600
H  31.66300 53.17000 38.82600
H  30.13700 55.32200 35.93400
H  29.05800 56.75800 36.11100
H  27.38100 54.53300 36.30400
H  28.55100 54.13200 34.95200
H  36.40700 57.50100 38.36400
H  35.49300 56.20800 39.29100
H  36.54000 57.30500 40.10300
H  37.15600 61.73300 41.69400
H  35.52800 61.57700 42.03800
H  36.05900 62.38300 40.46200
H  32.10900 63.93400 40.62100
H  29.47200 63.76900 42.18200
H  33.13300 64.28100 42.54700
H  32.62900 62.96200 43.32100
H  31.48600 64.39100 43.24000
H  28.49800 64.93800 40.44700
H  29.75800 64.28300 39.25500
H  30.87700 66.14200 39.36300
H  31.10300 65.85500 41.11500
H  29.83300 66.82900 40.57700
H  24.91100 62.07700 39.95600
H  25.24900 61.27600 41.54300
H  24.08200 60.50600 40.45600
H  26.27800 56.64900 37.42200
H  23.10800 53.98900 39.20600
H  24.55300 53.94900 40.32700
H  24.48300 52.97600 38.81700

