158

Mg 43.47800 4.30300 48.51000
C  40.95900 6.68900 47.47700
C  41.06700 1.93100 48.07600
C  46.03800 2.11400 48.45100
C  45.73000 6.85300 48.29500
N  41.29300 4.32500 47.70500
C  40.43600 5.37900 47.34000
C  39.02100 4.87400 47.12300
C  39.03700 3.31900 47.56000
C  40.55100 3.15800 47.76200
C  38.29800 2.99800 48.92200
C  38.53500 5.05000 45.66000
C  37.54300 6.15200 45.20700
H  37.90200 6.91200 43.89000
N  43.51700 2.25000 48.46800
C  42.40800 1.47800 48.34200
C  42.88600 0.07400 48.35200
C  44.27000 0.11600 48.48000
C  44.71000 1.52400 48.39300
C  41.94500 -1.13800 48.36900
C  45.06600 -1.10200 48.76100
O  44.54400 -2.18200 48.85000
C  46.51600 -1.09100 49.05400
N  45.61300 4.46400 48.27000
C  46.43000 3.41700 48.36700
C  47.92100 3.89800 48.53900
C  47.83800 5.45300 48.43600
C  46.34700 5.63700 48.34300
C  48.52700 3.35500 49.87400
C  48.67300 6.14400 47.22000
C  50.12600 6.69400 47.54000
N  43.43400 6.30800 48.02700
C  44.40400 7.26200 48.03800
C  43.90200 8.61400 47.78700
C  42.54500 8.36900 47.69500
C  42.32400 7.03800 47.75200
C  44.66600 9.84000 47.75700
C  41.25400 9.08400 47.49000
O  40.99700 10.25900 47.40900
C  40.19700 7.95400 47.35900
C  39.29400 8.12300 48.48600
O  39.08200 7.37000 49.44300
O  38.46400 9.18300 48.19800
C  37.38700 9.39200 49.13500
H  40.33000 1.17400 47.80200
H  46.83700 1.37000 48.48200
H  46.55400 7.56900 48.26000
H  38.31700 5.39400 47.77300
H  38.69800 2.60700 46.80700
H  38.98700 2.82000 49.74700
H  37.62400 2.15600 48.76300
H  37.62000 3.80000 49.21200
H  38.14100 4.12900 45.23000
H  39.36500 5.20400 44.97000
H  37.45100 6.94500 45.95000
H  36.55500 5.72900 45.02500
H  40.94900 -0.69700 48.32400
H  42.15800 -1.66500 49.29900
H  42.21200 -1.86300 47.59900
H  46.92900 -1.11500 48.04500
H  46.81500 -1.93500 49.67500
H  46.79800 -0.24300 49.67800
H  48.55800 3.46000 47.77100
H  48.11600 5.95800 49.36200
H  48.84900 4.09900 50.60300
H  49.35600 2.73500 49.52900
H  47.82100 2.77500 50.46800
H  48.15700 7.01400 46.81400
H  48.72500 5.45600 46.37600
H  50.90300 6.18200 46.97100
H  50.21300 6.51300 48.61100
H  50.13200 7.76300 47.32700
H  44.46300 10.31700 46.79800
H  45.72600 9.58900 47.73000
H  44.40800 10.50800 48.57800
H  39.71300 8.07600 46.39000
H  36.68800 8.56400 49.25200
H  36.70500 10.21600 48.92500
H  37.80900 9.57200 50.12400
Mg -5.26400 25.57800 26.26800
C  -3.66200 26.75500 29.07200
C  -6.89700 23.28300 28.37100
C  -6.52500 23.99000 23.57200
C  -3.17500 27.43600 24.18400
N  -5.31500 25.10800 28.45100
C  -4.64300 25.77600 29.40300
C  -5.20400 25.58700 30.84400
C  -5.85900 24.23400 30.62100
C  -6.10400 24.25400 29.11700
C  -5.06700 22.95200 31.14200
C  -6.08000 26.71500 31.42500
C  -5.87600 27.12500 32.94200
H  -5.58500 26.01500 33.92400
N  -6.50900 23.88200 25.94900
C  -7.08000 23.08600 26.96200
C  -7.79700 21.96000 26.33400
C  -7.63100 22.07700 24.91800
C  -6.83200 23.35500 24.75400
C  -8.35300 20.84200 27.20100
C  -8.13000 21.20000 23.75700
O  -7.97000 21.51500 22.54100
C  -8.89700 19.93900 24.07300
N  -4.89200 25.66900 24.21200
C  -5.64900 25.01400 23.31900
C  -5.14000 25.28500 21.87300
C  -4.34500 26.64200 22.03900
C  -4.01200 26.55400 23.54100
C  -4.39800 24.10800 21.22900
C  -5.05300 28.01900 21.72000
C  -5.78000 28.27900 20.33300
N  -3.72300 26.90700 26.53000
C  -2.98500 27.62500 25.58900
C  -2.09100 28.48900 26.28600
C  -2.29200 28.16800 27.63500
C  -3.27900 27.18400 27.72600
C  -1.09200 29.50500 25.68300
C  -1.84100 28.51800 28.95200
O  -1.03700 29.42200 29.27100
C  -2.77200 27.62100 29.98800
C  -1.96900 26.66400 30.88900
O  -1.44400 25.62200 30.57100
O  -1.85500 27.25300 32.07000
C  -1.10300 26.60300 33.13600
H  -7.31700 22.50200 29.00800
H  -7.04200 23.62400 22.68200
H  -2.42100 28.00600 23.63600
H  -4.40800 25.45600 31.57700
H  -6.73200 24.25500 31.27500
H  -4.66400 23.06100 32.14900
H  -4.32700 22.75700 30.36500
H  -5.75200 22.11400 31.27200
H  -7.12200 26.40200 31.35000
H  -5.87900 27.58600 30.80200
H  -6.79100 27.47000 33.42400
H  -5.19200 27.97200 32.99300
H  -8.71400 21.14500 28.18300
H  -7.55600 20.10400 27.30100
H  -9.18100 20.42100 26.63000
H  -9.00100 19.42600 23.11700
H  -9.93900 20.10000 24.34800
H  -8.45400 19.33800 24.86700
H  -6.02800 25.50400 21.28000
H  -3.38100 26.61300 21.53100
H  -4.49600 23.26400 21.91100
H  -3.36700 24.37700 21.00100
H  -4.86500 23.79200 20.29600
H  -4.18800 28.64600 21.94100
H  -5.78700 28.11100 22.52100
H  -6.84200 28.03800 20.37900
H  -5.29500 27.72100 19.53300
H  -5.75400 29.35400 20.15100
H  -0.85600 29.18800 24.66700
H  -0.20400 29.43400 26.31000
H  -1.45700 30.52900 25.60100
H  -3.50400 28.21500 30.53600
H  -0.11300 27.04300 33.25500
H  -0.93700 25.53200 33.02000
H  -1.67300 26.87100 34.02600

