158

Mg 16.33600 52.44600 26.42800
C  18.09200 51.04600 29.20600
C  14.08200 53.68200 28.70200
C  14.36100 52.93300 23.90100
C  18.77100 50.95300 24.33500
N  15.98600 52.19800 28.66700
C  16.93200 51.75000 29.62400
C  16.46800 52.11000 31.06200
C  15.01500 52.53900 30.83900
C  14.98900 52.86800 29.31500
C  13.93300 51.48100 31.18600
C  17.32600 53.28100 31.69900
C  17.85100 53.04000 33.07100
H  17.01300 52.02100 33.92800
N  14.60300 53.33800 26.30100
C  13.82200 53.86600 27.31200
C  12.70600 54.66600 26.67000
C  12.64900 54.27300 25.30700
C  13.88700 53.45100 25.11500
C  11.73700 55.59700 27.43400
C  11.56800 54.65800 24.22800
O  11.61600 54.40200 22.99900
C  10.48100 55.60300 24.65800
N  16.64300 52.01400 24.39400
C  15.62000 52.27100 23.51200
C  15.98800 51.83500 22.10700
C  17.51300 51.47900 22.23000
C  17.65900 51.48200 23.73000
C  15.17800 50.65100 21.56200
C  18.38800 52.49700 21.44000
C  18.97700 53.77900 21.96300
N  18.11300 51.33600 26.70800
C  18.96300 50.78900 25.74600
C  20.05000 49.98800 26.35800
C  19.71100 50.11700 27.69000
C  18.53600 50.88800 27.82800
C  21.24100 49.35900 25.77000
C  20.22400 49.91300 29.03000
O  21.29500 49.44700 29.31700
C  19.20700 50.50900 30.06000
C  18.75600 49.34300 30.93000
O  17.79200 48.63800 30.64200
O  19.59200 49.22700 32.02200
C  19.39100 48.11300 32.87900
H  13.36500 54.19600 29.34500
H  13.85000 53.16100 22.96300
H  19.57500 50.56800 23.70300
H  16.60200 51.15300 31.56600
H  14.74400 53.49300 31.29200
H  13.55700 51.65200 32.19500
H  14.25600 50.45100 31.03600
H  13.10400 51.54400 30.48100
H  16.78000 54.22200 31.63700
H  18.19600 53.35100 31.04600
H  17.96200 53.94500 33.66900
H  18.82700 52.59900 32.87200
H  11.85900 56.60900 27.04900
H  12.05100 55.79500 28.45800
H  10.68800 55.30100 27.42900
H  9.66600 55.47100 23.94600
H  10.87600 56.60900 24.79600
H  10.05000 55.27000 25.60200
H  15.72000 52.62700 21.40800
H  17.80600 50.50800 21.83100
H  15.78800 49.74800 21.54600
H  14.95100 50.78800 20.50400
H  14.22000 50.46800 22.04900
H  17.96000 52.96100 20.55200
H  19.13400 51.90800 20.90600
H  18.47400 54.67000 21.58800
H  20.01600 53.75800 21.63300
H  18.98800 53.89600 23.04700
H  22.06400 49.26500 26.47800
H  21.53500 49.76200 24.80100
H  21.03200 48.29000 25.75100
H  19.73000 51.21700 30.70300
H  19.28900 47.21600 32.26700
H  18.40200 48.16100 33.33500
H  20.09500 48.06700 33.70900
Mg -11.10400 38.40200 41.11300
C  -8.99500 35.73500 39.95800
C  -8.95900 40.52600 39.56200
C  -13.41300 40.64500 41.49600
C  -13.15800 35.85100 42.49400
N  -9.28300 38.03000 39.67300
C  -8.63500 36.92400 39.41900
C  -7.27900 37.34200 38.61700
C  -7.18500 38.85600 38.90800
C  -8.57900 39.20600 39.41700
C  -6.16300 39.19200 40.04800
C  -7.38800 36.97000 37.10500
C  -6.56500 35.78000 36.64000
H  -5.83800 36.05100 35.28600
N  -11.18400 40.34000 40.59600
C  -10.14600 41.12900 40.05800
C  -10.49900 42.49200 40.18900
C  -11.82400 42.53000 40.54800
C  -12.21600 41.16800 40.93400
C  -9.55200 43.61000 39.74200
C  -12.63000 43.82100 40.65800
O  -12.04000 44.92100 40.47100
C  -14.04600 43.87500 40.75100
N  -13.06600 38.20000 41.76000
C  -13.81100 39.33300 41.87800
C  -15.20000 39.09700 42.49400
C  -15.12800 37.57600 42.81600
C  -13.66300 37.20300 42.40900
C  -15.71900 40.04800 43.61700
C  -16.18200 36.61300 42.10400
C  -16.77300 35.44800 42.97700
N  -11.03700 36.25300 41.32600
C  -11.92300 35.43500 42.00000
C  -11.36800 34.16000 42.10000
C  -10.26100 34.22500 41.22100
C  -10.18700 35.50700 40.68800
C  -11.82100 33.10900 42.94900
C  -9.16500 33.47700 40.61000
O  -8.80500 32.31700 40.81300
C  -8.41300 34.37500 39.56900
C  -6.90700 34.25800 39.81400
O  -6.26500 34.89800 40.66500
O  -6.49400 33.28500 38.95000
C  -5.12200 32.82200 39.03100
H  -8.26900 41.24900 39.12200
H  -14.21000 41.33700 41.77800
H  -13.72200 35.12900 43.08800
H  -6.38900 36.81300 38.95500
H  -6.79700 39.39500 38.04400
H  -5.25700 39.67900 39.68600
H  -5.91200 38.31700 40.64700
H  -6.70600 39.86700 40.70900
H  -7.20000 37.85500 36.49800
H  -8.43300 36.72900 36.91200
H  -7.16200 34.87200 36.55100
H  -5.77500 35.54600 37.35300
H  -9.96000 43.88500 38.76900
H  -8.48500 43.41400 39.63100
H  -9.63500 44.38400 40.50500
H  -14.36300 43.02900 40.14000
H  -14.44200 44.80500 40.34400
H  -14.31500 43.55100 41.75600
H  -15.90900 39.22600 41.67600
H  -15.19900 37.39500 43.88900
H  -14.97300 40.80600 43.85600
H  -15.96900 39.43600 44.48400
H  -16.68800 40.45300 43.32500
H  -15.93300 36.21700 41.12000
H  -17.08700 37.20600 41.97000
H  -17.86000 35.38300 43.02100
H  -16.24600 35.45200 43.93100
H  -16.54100 34.43500 42.64600
H  -11.95100 32.24000 42.30400
H  -12.79300 33.25100 43.42000
H  -11.13700 32.93500 43.77900
H  -8.55400 34.09400 38.52600
H  -4.43900 33.34300 38.36000
H  -4.96800 31.74900 38.90900
H  -4.70300 33.04900 40.01100

