158

Mg 16.31100 52.47600 24.52700
C  17.83900 51.62200 27.53800
C  13.46700 53.41700 26.47000
C  14.63000 53.23300 21.70400
C  18.85300 50.95300 22.71300
N  15.75500 52.46600 26.79100
C  16.63500 52.23100 27.76500
C  15.98300 52.50400 29.20700
C  14.57300 52.97900 28.80900
C  14.49300 52.95000 27.24600
C  13.36100 52.17400 29.45600
C  16.80200 53.48700 30.06600
C  17.20000 52.99700 31.54400
H  16.35100 51.95600 32.23700
N  14.39300 53.23500 24.15900
C  13.34000 53.51600 25.06000
C  12.23200 54.10800 24.42000
C  12.52100 54.21100 22.98800
C  13.91700 53.50100 22.90200
C  11.06100 54.57700 25.24500
C  11.69400 54.75700 21.82900
O  12.10700 54.88000 20.68900
C  10.27600 55.28400 22.01700
N  16.63100 52.16100 22.49700
C  15.77800 52.54600 21.53300
C  16.32700 52.17800 20.19900
C  17.87100 51.69600 20.47300
C  17.80500 51.57600 21.96100
C  15.47900 50.99100 19.67100
C  19.03100 52.59900 20.00700
C  19.17700 52.99200 18.53000
N  18.00500 51.50400 24.95900
C  18.93900 50.91400 24.11500
C  20.04100 50.52600 24.89500
C  19.62600 50.70700 26.24400
C  18.40500 51.28400 26.24700
C  21.21300 49.92400 24.44100
C  20.02500 50.53400 27.61600
O  21.15600 50.20100 28.05500
C  18.89500 51.10000 28.48100
C  18.38800 50.01600 29.28900
O  17.64800 49.06800 29.04200
O  19.09700 50.01200 30.48600
C  18.95600 48.87300 31.38300
H  12.67500 53.82400 27.10300
H  14.02800 53.52100 20.84000
H  19.68700 50.54900 22.13500
H  15.95900 51.51200 29.65700
H  14.39100 54.01000 29.11500
H  12.56000 52.06300 28.72500
H  12.81900 52.74000 30.21400
H  13.78900 51.31800 29.97700
H  16.16500 54.36900 30.13600
H  17.72000 53.72300 29.52900
H  17.12500 53.86200 32.20400
H  18.20700 52.58100 31.53300
H  10.15000 54.55100 24.64700
H  11.19900 55.60300 25.58600
H  10.81200 53.98200 26.12400
H  10.29700 56.12900 22.70600
H  9.60200 54.45800 22.24600
H  9.93800 55.69000 21.06300
H  16.30300 53.03000 19.52000
H  17.98000 50.66400 20.14000
H  16.01800 50.04700 19.59000
H  15.23400 51.32700 18.66400
H  14.66200 50.67500 20.32000
H  19.82600 51.87900 20.20200
H  19.24900 53.39100 20.72300
H  19.44200 54.04700 18.47200
H  18.22100 52.82200 18.03600
H  19.93700 52.33900 18.10000
H  21.08200 49.54900 23.42600
H  21.36200 49.13400 25.17800
H  21.95800 50.71500 24.52000
H  19.21200 52.01600 28.97900
H  18.88800 47.92100 30.85500
H  18.13300 48.94900 32.09400
H  19.90600 48.80300 31.91200
Mg -2.27500 34.75400 26.70300
C  -3.36700 32.91900 29.41800
C  -0.63400 36.88200 28.85600
C  -1.48100 36.58700 24.03200
C  -3.58700 32.34200 24.57000
N  -2.08100 34.85500 28.88500
C  -2.53500 33.95800 29.81700
C  -2.06600 34.34100 31.16900
C  -1.29800 35.58800 31.01700
C  -1.33100 35.80900 29.45600
C  -1.82700 36.81800 31.91100
C  -1.18600 33.18400 31.83700
C  -1.63700 32.57500 33.18900
H  -0.68900 32.41000 34.46100
N  -1.23500 36.52000 26.44300
C  -0.66100 37.23400 27.44900
C  -0.03400 38.36800 26.84600
C  -0.30500 38.34900 25.49200
C  -1.01000 37.10500 25.21400
C  0.81300 39.37600 27.66400
C  0.15200 39.39100 24.45800
O  0.01000 39.20200 23.29400
C  0.84200 40.64900 24.84500
N  -2.37200 34.48500 24.60300
C  -2.05300 35.39500 23.68800
C  -2.58000 35.12800 22.32500
C  -2.94400 33.58300 22.47000
C  -2.89800 33.41000 23.98400
C  -3.77400 35.95200 21.87100
C  -2.08200 32.58000 21.71900
C  -0.71300 32.11700 22.41200
N  -3.41700 32.91800 26.90100
C  -3.86100 32.02000 25.92600
C  -4.60400 30.98000 26.58700
C  -4.52300 31.33200 27.98500
C  -3.74800 32.56300 28.08700
C  -5.07400 29.74600 25.85600
C  -4.84600 30.92100 29.29200
O  -5.46100 29.94300 29.68100
C  -4.11100 31.91500 30.27600
C  -5.13800 32.53100 31.14100
O  -5.92600 33.37400 30.76400
O  -5.13300 31.93300 32.43600
C  -6.27600 32.39700 33.22000
H  -0.12400 37.55700 29.54600
H  -1.37700 37.18000 23.12100
H  -4.03600 31.66700 23.83800
H  -2.96000 34.60900 31.73200
H  -0.26000 35.41100 31.29800
H  -0.94100 37.15600 32.44600
H  -2.57500 36.41100 32.59200
H  -2.25400 37.61900 31.30800
H  -0.14000 33.45400 31.97900
H  -1.07900 32.37900 31.11000
H  -1.69800 31.52100 32.92000
H  -2.63700 32.91400 33.45800
H  1.85600 39.50900 27.38000
H  0.98700 39.05900 28.69200
H  0.27800 40.31300 27.82300
H  0.16000 41.27100 25.42600
H  1.24300 41.11400 23.94400
H  1.74300 40.40400 25.40700
H  -1.68300 35.18200 21.70800
H  -3.96500 33.34900 22.16800
H  -3.96100 36.59100 22.73400
H  -4.67500 35.37200 21.67300
H  -3.42700 36.57300 21.04500
H  -1.81300 33.06000 20.77700
H  -2.56900 31.63000 21.50300
H  0.08900 32.80400 22.14200
H  -0.35600 31.12900 22.12000
H  -0.70200 32.04700 23.50000
H  -4.38900 29.52700 25.03700
H  -6.02000 29.89200 25.33500
H  -5.10200 28.89800 26.54000
H  -3.41500 31.39300 30.93200
H  -7.19500 32.60500 32.67200
H  -6.06700 33.32800 33.74800
H  -6.48100 31.60100 33.93500

