158

Mg -1.73700 17.37200 26.21000
C  -1.80200 15.40000 29.28100
C  -1.91200 20.19300 28.37300
C  -1.87400 19.29700 23.59600
C  -1.95400 14.50400 24.41900
N  -1.83600 17.71000 28.58700
C  -1.83100 16.72200 29.61600
C  -2.04200 17.36500 31.02400
C  -2.43900 18.85700 30.55000
C  -1.93400 18.93500 29.09100
C  -3.97300 19.18500 30.58600
C  -0.87000 17.36600 32.12500
C  -1.36200 17.16800 33.54600
H  -0.51400 16.39400 34.56900
N  -1.70000 19.46600 25.97400
C  -1.75400 20.44600 26.98600
C  -1.78700 21.75700 26.35200
C  -1.87200 21.51300 24.93500
C  -1.82300 20.08500 24.81700
C  -1.55700 23.10300 27.11900
C  -1.82300 22.54900 23.78800
O  -1.82900 22.21200 22.63800
C  -1.68300 23.99100 24.10800
N  -2.15800 16.96300 24.27100
C  -2.04200 17.95900 23.36600
C  -2.27400 17.30200 21.97400
C  -2.04300 15.74800 22.19000
C  -2.07800 15.71500 23.68700
C  -3.74300 17.73700 21.48500
C  -0.72300 15.26800 21.53400
C  -0.78500 14.72000 20.07300
N  -1.88600 15.34900 26.70800
C  -1.87000 14.23000 25.83300
C  -1.94700 12.98600 26.47200
C  -1.81300 13.41900 27.86500
C  -1.88800 14.80000 27.97800
C  -1.82800 11.56600 25.88400
C  -1.66400 12.95500 29.17900
O  -1.63200 11.79300 29.65000
C  -1.68200 14.19200 30.16100
C  -0.38800 14.09300 30.83800
O  0.69600 14.48200 30.39800
O  -0.53000 13.65900 32.14900
C  0.68600 13.66300 32.97700
H  -1.98200 21.07000 29.02000
H  -1.99400 19.92900 22.71400
H  -2.04300 13.55500 23.88600
H  -2.92700 16.88300 31.43800
H  -1.92000 19.57000 31.19000
H  -4.44300 18.24800 30.88500
H  -4.25600 19.43000 29.56200
H  -4.33300 19.97800 31.24100
H  -0.36700 18.33200 32.09200
H  -0.01000 16.81700 31.74400
H  -2.22400 16.50000 33.55300
H  -1.59000 18.13900 33.98500
H  -0.69900 23.60100 26.66700
H  -1.36000 22.92100 28.17500
H  -2.44100 23.73000 27.00600
H  -2.62000 24.33200 24.54700
H  -1.66900 24.40200 23.09800
H  -0.81200 24.26600 24.70300
H  -1.60100 17.66800 21.19900
H  -2.91300 15.16100 21.89600
H  -4.10200 17.14300 20.64500
H  -3.73800 18.80000 21.24600
H  -4.56500 17.56800 22.18100
H  -0.06800 14.74400 22.23000
H  -0.10600 16.16700 21.51700
H  -1.79900 14.83600 19.68900
H  -0.44300 13.69300 19.94500
H  -0.20800 15.36800 19.41300
H  -2.60000 11.40200 25.13300
H  -1.86600 10.90000 26.74700
H  -0.88900 11.48900 25.33600
H  -2.56200 14.18100 30.80400
H  1.18800 14.62800 32.91400
H  1.34600 12.90400 32.55700
H  0.39100 13.52300 34.01700
Mg 1.04200 7.69600 25.88500
C  1.84600 9.98600 28.52600
C  1.26300 5.14200 28.11800
C  0.21700 5.67700 23.41000
C  1.44500 10.39300 23.72700
N  1.34600 7.66300 28.11700
C  1.67900 8.64400 29.02900
C  1.75700 8.11800 30.46300
C  1.66300 6.57800 30.28100
C  1.39900 6.40400 28.73700
C  3.03500 5.87200 30.56200
C  0.65300 8.78800 31.31800
C  0.86300 8.70400 32.84400
H  2.12300 8.00800 33.39000
N  0.82300 5.65600 25.79800
C  0.84600 4.80000 26.84400
C  0.56500 3.46500 26.38800
C  0.29900 3.60200 24.94900
C  0.40500 5.05300 24.65400
C  0.68200 2.20700 27.33100
C  -0.08700 2.52700 23.93100
O  0.02100 2.64700 22.70300
C  -0.38500 1.21400 24.42300
N  1.07300 7.96500 23.80400
C  0.47900 7.02200 23.06900
C  0.47000 7.46300 21.54700
C  0.81300 8.99600 21.68600
C  1.04800 9.17100 23.16800
C  1.38500 6.56100 20.65000
C  -0.31400 9.97300 21.10700
C  -1.67500 9.97300 21.77900
N  1.43400 9.85500 26.04000
C  1.59300 10.75000 25.06000
C  1.82400 12.05100 25.63300
C  2.02300 11.79000 26.97100
C  1.73900 10.41400 27.19800
C  2.04500 13.35900 24.89100
C  2.39500 12.42200 28.22600
O  2.79200 13.54800 28.55700
C  2.24300 11.25000 29.29800
C  3.58400 10.99500 29.93600
O  4.52900 10.48700 29.38300
O  3.58400 11.40700 31.21700
C  4.87500 11.33800 31.96700
H  1.41500 4.30500 28.80300
H  -0.08700 5.06700 22.55700
H  1.55100 11.18900 22.98700
H  2.69800 8.34600 30.96300
H  0.80000 6.20600 30.83300
H  3.50300 5.51600 29.64400
H  2.95100 4.95900 31.15300
H  3.72400 6.46600 31.16200
H  -0.32300 8.34600 31.11500
H  0.41100 9.80800 31.01900
H  0.02000 8.12200 33.21400
H  0.67400 9.71200 33.21400
H  -0.33400 1.91900 27.60300
H  1.06200 2.38400 28.33700
H  1.28700 1.42400 26.87400
H  0.49300 0.69200 24.80300
H  -0.93300 0.58300 23.72200
H  -1.10100 1.40000 25.22300
H  -0.55100 7.33100 21.19000
H  1.75900 9.28800 21.23100
H  1.73500 5.67600 21.18200
H  2.26500 7.13900 20.36600
H  0.81500 6.21600 19.78800
H  -0.52500 9.71600 20.06800
H  -0.04500 11.02900 21.13500
H  -1.69300 10.75100 22.54200
H  -1.75900 9.04900 22.35100
H  -2.45700 9.97900 21.01900
H  2.42500 13.44400 23.87200
H  2.70600 13.95600 25.52000
H  1.05700 13.82000 24.90100
H  1.45800 11.54100 29.99600
H  4.78700 12.10600 32.73500
H  5.64900 11.66100 31.27100
H  5.10800 10.33200 32.31700

