158

Mg 16.54700 52.55600 26.80700
C  18.39100 50.71400 29.27200
C  14.34700 53.44100 29.19800
C  14.47900 53.43800 24.37100
C  18.83100 51.24200 24.38000
N  16.27300 51.81400 29.00800
C  17.24500 51.31100 29.79300
C  17.04400 51.64800 31.34300
C  15.60000 52.29200 31.22000
C  15.39500 52.56900 29.72700
C  14.51300 51.36300 31.84300
C  18.15400 52.49700 31.89800
C  18.82000 52.11500 33.22700
H  18.27200 52.64800 34.60700
N  14.70100 53.37900 26.74100
C  13.98300 53.76100 27.83100
C  12.77500 54.39100 27.35900
C  12.79000 54.44600 25.95100
C  14.04700 53.73900 25.61700
C  11.70500 54.90700 28.30300
C  11.80400 54.94300 24.93900
O  11.85600 54.65200 23.72000
C  10.62200 55.63400 25.41100
N  16.58600 52.23200 24.69700
C  15.66900 52.79700 23.88600
C  16.12000 52.89500 22.43700
C  17.55400 52.25300 22.50200
C  17.70200 51.84800 23.91400
C  15.10800 52.26600 21.40500
C  18.73400 53.19800 22.02100
C  19.17800 54.33400 23.00300
N  18.23900 51.17100 26.75600
C  19.03700 50.82400 25.72300
C  20.21900 50.16000 26.26400
C  20.01200 50.07500 27.66400
C  18.76700 50.65200 27.88600
C  21.41300 49.63600 25.44100
C  20.53900 49.63800 28.93600
O  21.63100 49.08500 29.12500
C  19.46800 50.13300 30.00100
C  18.90400 48.95500 30.76600
O  18.02000 48.20400 30.30800
O  19.47800 48.86300 31.93800
C  18.77400 48.02900 32.93000
H  13.76800 53.77900 30.06000
H  14.00400 54.02300 23.58100
H  19.71800 51.13700 23.75000
H  16.92000 50.75700 31.95800
H  15.60100 53.19500 31.83100
H  14.17400 51.90500 32.72600
H  14.77400 50.38200 32.24200
H  13.72700 51.23500 31.09900
H  17.79600 53.51100 32.07300
H  18.90500 52.60100 31.11400
H  19.87700 52.34800 33.09900
H  18.81100 51.03200 33.35400
H  11.53300 55.98100 28.23000
H  11.83500 54.60700 29.34300
H  10.71000 54.55900 28.02500
H  10.11000 54.88800 26.02000
H  10.01000 55.95300 24.56800
H  11.08800 56.42600 25.99600
H  16.38400 53.92300 22.18900
H  17.54100 51.28100 22.00800
H  15.11300 51.18200 21.51500
H  15.37500 52.68600 20.43500
H  14.18200 52.65500 21.82900
H  18.32000 53.70400 21.14900
H  19.61500 52.59000 21.81500
H  18.40700 55.10400 22.98500
H  20.08900 54.81200 22.64400
H  19.26100 53.90000 23.99900
H  22.16700 49.22900 26.11400
H  21.89000 50.40100 24.82900
H  21.12400 48.83100 24.76500
H  20.01000 50.74100 30.72500
H  18.66800 48.48700 33.91400
H  19.29700 47.09300 33.12400
H  17.71600 47.78600 32.83000
Mg 8.83100 48.28200 26.69700
C  6.74400 47.98800 29.42400
C  11.50500 48.81700 28.85500
C  10.88800 48.46100 23.98800
C  6.11900 47.94400 24.60400
N  9.13700 48.43400 28.95200
C  8.07600 48.24500 29.80600
C  8.66900 48.28500 31.25100
C  10.16900 48.71800 31.08900
C  10.34000 48.60900 29.59100
C  10.60700 50.09700 31.68200
C  8.45500 46.98900 32.17600
C  9.31800 46.65000 33.32400
H  8.70800 45.84100 34.53700
N  10.85400 48.81600 26.47400
C  11.77500 49.00200 27.47400
C  13.07700 49.35800 26.87500
C  12.98500 48.99000 25.51600
C  11.52700 48.76800 25.22600
C  14.24800 49.87300 27.66900
C  14.12800 48.72700 24.56100
O  13.93600 48.37600 23.39100
C  15.53800 48.71800 25.03900
N  8.54800 48.27700 24.59100
C  9.52700 48.33700 23.63300
C  9.08600 47.79800 22.25600
C  7.53000 47.89100 22.43500
C  7.35200 48.00600 23.96900
C  9.71500 48.59300 21.03400
C  6.69900 46.84600 21.67800
C  5.84500 47.37700 20.51900
N  6.77900 48.06500 26.90800
C  5.79500 47.92300 25.98800
C  4.52400 47.80900 26.60700
C  4.85900 47.79600 27.96700
C  6.25500 47.91500 28.09800
C  3.22500 47.83400 25.89700
C  4.25900 47.66500 29.23600
O  3.09600 47.61900 29.60500
C  5.48500 47.64500 30.24300
C  5.55100 46.24200 30.83900
O  6.03400 45.23300 30.29800
O  4.80800 46.28700 31.98300
C  4.58900 44.96200 32.56000
H  12.41800 48.96600 29.43500
H  11.59000 48.40600 23.15300
H  5.30800 47.66800 23.92700
H  8.01800 49.03100 31.70600
H  10.80100 47.98100 31.58500
H  10.65400 50.79400 30.84500
H  11.56700 50.08200 32.19700
H  9.87700 50.46700 32.40200
H  8.54800 46.11200 31.53500
H  7.42600 47.04800 32.53200
H  9.71800 47.60500 33.66400
H  10.13300 46.02200 32.96500
H  14.65900 50.76600 27.19800
H  14.94600 49.09500 27.98000
H  13.86600 50.25600 28.61600
H  16.24400 48.32300 24.30900
H  15.55400 48.00500 25.86400
H  15.82200 49.71400 25.37800
H  9.37800 46.74800 22.28500
H  7.25100 48.91000 22.16800
H  10.58100 49.20900 21.27500
H  8.85200 49.13800 20.65300
H  10.12100 47.82900 20.37100
H  6.13100 46.12900 22.27100
H  7.43800 46.17500 21.24100
H  4.83200 47.20000 20.88100
H  5.99900 46.77500 19.62300
H  5.86100 48.43900 20.27400
H  3.01800 46.78500 25.68400
H  3.19900 48.37100 24.94900
H  2.32400 48.08100 26.45700
H  5.39000 48.36800 31.05300
H  4.97200 44.90900 33.57900
H  5.05200 44.11100 32.06100
H  3.52600 44.73500 32.63800

