158

Mg 25.92800 0.64200 29.00900
C  27.87700 0.14400 31.96400
C  23.16200 0.87700 30.94200
C  24.17900 0.59400 26.11800
C  28.86300 0.04700 27.19300
N  25.64300 0.51400 31.27400
C  26.55300 0.40900 32.21900
C  25.75200 0.69300 33.52900
C  24.28200 0.89800 33.11500
C  24.35900 0.79000 31.66600
C  23.33800 -0.31600 33.60900
C  26.35800 1.95400 34.29300
C  26.96200 1.75400 35.63900
H  26.34400 2.54600 36.88200
N  23.93600 0.67400 28.58800
C  22.94200 0.87800 29.53900
C  21.62500 0.88800 28.86000
C  21.88400 0.68700 27.42400
C  23.37000 0.57300 27.34600
C  20.35000 1.18300 29.62700
C  20.90900 0.65700 26.27000
O  21.34800 0.66200 25.10500
C  19.43400 0.74700 26.52400
N  26.46900 0.39100 26.87200
C  25.55800 0.56600 25.84800
C  26.18100 0.35800 24.49000
C  27.77800 0.39700 24.86700
C  27.72400 0.21000 26.41800
C  25.76100 -0.91000 23.68500
C  28.47300 1.80000 24.65800
C  28.31400 2.32300 23.21700
N  27.96200 0.27900 29.40800
C  28.98100 0.05100 28.56100
C  30.15000 -0.20600 29.32500
C  29.78000 -0.12600 30.68900
C  28.41300 0.08900 30.64800
C  31.49500 -0.53300 28.77700
C  30.29400 -0.12400 32.06800
O  31.42300 -0.22300 32.45000
C  28.98100 0.02000 33.02800
C  28.80900 -1.16000 33.95300
O  28.25300 -2.20300 33.67900
O  29.33800 -0.92100 35.19600
C  29.38500 -2.06400 36.16600
H  22.20700 0.88000 31.47200
H  23.65000 0.72000 25.17100
H  29.81000 -0.17100 26.69400
H  25.80900 -0.26900 34.03800
H  23.81500 1.80000 33.51000
H  23.65500 -0.80500 34.53000
H  23.30000 -1.11800 32.87300
H  22.36500 0.12700 33.82200
H  25.59300 2.73100 34.31400
H  27.06800 2.46200 33.64100
H  27.91800 2.24900 35.47300
H  27.04800 0.69500 35.88200
H  20.67700 1.78000 30.47800
H  19.92500 0.22900 29.93900
H  19.58200 1.70500 29.05600
H  18.98900 0.63300 25.53500
H  19.25500 1.77100 26.85200
H  18.99000 0.04800 27.23200
H  25.99600 1.17700 23.79500
H  28.30500 -0.50300 24.54900
H  24.97100 -0.63200 22.98700
H  25.26300 -1.65800 24.30100
H  26.52300 -1.36700 23.05400
H  29.51900 1.87300 24.95700
H  28.01200 2.46500 25.38700
H  29.34700 2.40500 22.87700
H  27.87200 3.31800 23.27200
H  27.75900 1.58800 22.63400
H  31.27200 -0.98900 27.81300
H  32.09100 -1.13400 29.46400
H  32.07000 0.37300 28.58300
H  28.95500 0.86000 33.72200
H  30.39100 -2.01500 36.58300
H  29.32000 -3.07000 35.75100
H  28.59700 -1.98600 36.91500
Mg 48.21100 44.18400 43.20500
C  44.77800 44.22000 42.72200
C  48.07000 40.70700 42.52700
C  51.46200 44.19400 43.46200
C  48.22800 47.66000 42.98300
N  46.54900 42.56300 42.47800
C  45.23400 42.86300 42.57800
C  44.40600 41.61700 42.52300
C  45.49600 40.46000 42.61000
C  46.80500 41.24700 42.45200
C  45.44300 39.61600 43.87500
C  43.55300 41.55100 41.23400
C  44.12200 42.23500 40.00800
H  43.77600 41.54600 38.71300
N  49.61200 42.62600 42.97300
C  49.32900 41.27100 42.81800
C  50.59500 40.59500 42.75700
C  51.62900 41.55300 43.07200
C  50.94600 42.89000 43.17600
C  50.81200 39.12000 42.50500
C  53.15200 41.27300 43.34000
O  53.64300 40.18300 43.37100
C  54.06500 42.40900 43.72500
N  49.61300 45.71100 43.07500
C  50.85700 45.44200 43.41500
C  51.77400 46.68000 43.52800
C  50.78000 47.83900 43.16600
C  49.46900 47.07700 43.07100
C  52.55500 46.95600 44.78200
C  51.09400 48.61500 41.85000
C  51.87000 49.97100 42.07400
N  46.84500 45.69300 42.89600
C  46.97800 47.05600 42.93400
C  45.68700 47.71300 42.87300
C  44.74700 46.62500 42.87400
C  45.52400 45.40700 42.85800
C  45.46700 49.21600 42.92400
C  43.29800 46.24900 42.92600
O  42.34500 46.96200 43.00100
C  43.27800 44.65400 42.75500
C  42.24400 44.18400 43.69100
O  41.25900 43.60500 43.28800
O  42.53100 44.47800 44.97700
C  41.63400 44.06600 46.02600
H  47.95400 39.62500 42.43000
H  52.51200 44.35400 43.71200
H  48.30800 48.74700 42.90700
H  43.68400 41.75000 43.33000
H  45.51700 39.77800 41.76000
H  46.01700 38.70400 43.70800
H  44.41600 39.28900 44.03700
H  45.85600 40.11100 44.75400
H  42.61800 42.04600 41.49500
H  43.40200 40.48600 41.05600
H  45.20400 42.30000 40.12100
H  43.75500 43.26100 39.97200
H  51.39600 38.85400 41.62300
H  49.93300 38.49600 42.34300
H  51.05700 38.65100 43.45800
H  54.33800 43.20000 43.02600
H  55.05300 42.00900 43.95800
H  53.66700 42.86200 44.63300
H  52.51600 46.59300 42.73500
H  50.71900 48.60900 43.93400
H  52.22100 46.28600 45.57400
H  52.42300 47.95400 45.20100
H  53.60000 46.70700 44.59700
H  50.16100 48.85600 41.34100
H  51.79600 48.04200 41.24400
H  51.23100 50.83800 41.90500
H  52.63900 49.92400 41.30300
H  52.30600 50.11100 43.06300
H  44.63200 49.46400 42.26900
H  46.37900 49.70900 42.58800
H  45.26000 49.53200 43.94700
H  42.81300 44.37300 41.81000
H  42.10200 43.27500 46.61100
H  40.68200 43.65800 45.68700
H  41.38600 44.87900 46.70800

