158

Mg 1.36100 8.68500 26.97000
C  1.87700 10.73900 29.74700
C  1.49400 5.94400 29.18500
C  1.22800 6.54400 24.32100
C  1.90700 11.38900 24.84200
N  1.55900 8.38800 29.16900
C  1.69300 9.41800 30.14200
C  1.53600 8.89100 31.56500
C  1.87600 7.35800 31.35900
C  1.61100 7.15400 29.85800
C  3.23900 6.85300 31.73800
C  0.07200 9.16400 32.05400
C  -0.23600 9.06500 33.53700
H  0.84700 8.68700 34.57300
N  1.43200 6.57200 26.73500
C  1.40500 5.62900 27.81500
C  1.14200 4.29700 27.25900
C  0.90400 4.46800 25.86400
C  1.22000 5.90100 25.55100
C  1.14400 3.11800 28.28000
C  0.32200 3.48500 24.83500
O  -0.09800 3.83700 23.72500
C  0.15800 2.13200 25.30100
N  1.69800 8.99800 24.75700
C  1.48500 7.88600 23.97000
C  1.38200 8.49700 22.50500
C  1.27400 10.07000 22.68700
C  1.70600 10.18000 24.14900
C  2.64100 8.11100 21.79200
C  -0.13200 10.69600 22.43100
C  -0.20500 11.99500 21.61800
N  1.77400 10.69200 27.18200
C  1.97000 11.65800 26.20300
C  2.20800 12.95800 26.90500
C  2.22700 12.63700 28.28500
C  1.94100 11.20900 28.36700
C  2.32600 14.29700 26.17600
C  2.24700 13.19300 29.64500
O  2.44200 14.32600 30.09600
C  1.92000 11.96100 30.62200
C  2.91600 11.94600 31.71000
O  4.12200 11.82600 31.56200
O  2.30500 12.23500 32.88000
C  3.20000 12.60600 33.96600
H  1.36900 5.15700 29.93100
H  1.28000 5.90500 23.43700
H  1.93500 12.23500 24.15200
H  2.34800 9.18500 32.23000
H  1.18400 6.71800 31.90600
H  3.89300 6.46800 30.95400
H  3.10100 6.07000 32.48400
H  3.82200 7.68900 32.12400
H  -0.52200 8.42700 31.51300
H  -0.19900 10.19300 31.81800
H  -1.01100 8.29900 33.55700
H  -0.69400 10.03300 33.74000
H  2.11100 3.33300 28.73500
H  1.14300 2.14400 27.79000
H  0.39200 3.26600 29.05600
H  -0.54300 2.27900 26.12300
H  1.14500 1.69100 25.44200
H  -0.24100 1.48800 24.51700
H  0.48800 8.14300 21.99000
H  1.96300 10.60000 22.03000
H  3.24400 8.97600 21.51300
H  2.42500 7.47700 20.93200
H  3.15400 7.53200 22.55900
H  -0.54400 10.89400 23.42000
H  -0.72900 9.91900 21.95300
H  0.74200 12.15900 21.10300
H  -0.63600 12.79600 22.21900
H  -0.89400 11.86500 20.78500
H  2.32000 15.14200 26.86500
H  1.46400 14.46000 25.53000
H  3.17600 14.25600 25.49600
H  0.98200 12.26700 31.08400
H  3.80200 13.43200 33.58800
H  3.91700 11.83900 34.26300
H  2.61300 13.08200 34.75100
Mg 24.08400 -5.47500 46.23400
C  26.37400 -3.15700 45.11500
C  21.69200 -4.29800 44.07300
C  22.08700 -8.22200 47.04400
C  26.64500 -6.86600 48.27800
N  24.06600 -3.99400 44.79000
C  25.07700 -3.08600 44.57100
C  24.68000 -2.02700 43.60700
C  23.07700 -2.26100 43.48500
C  22.90700 -3.63500 44.11100
C  22.04500 -1.14900 44.14900
C  25.44700 -2.16200 42.25800
C  25.81700 -0.88000 41.57200
H  25.24500 -0.79000 40.17400
N  22.12300 -6.10300 45.69400
C  21.32800 -5.45700 44.81500
C  20.02400 -6.07200 44.88400
C  20.08700 -7.27400 45.57500
C  21.47500 -7.24400 46.16700
C  18.80400 -5.61500 44.09700
C  19.00300 -8.34600 45.69400
O  17.92700 -8.11500 45.15700
C  19.22000 -9.68900 46.26500
N  24.23300 -7.22500 47.52500
C  23.30900 -8.20800 47.67200
C  23.89500 -9.43400 48.45600
C  25.19300 -8.81200 49.11600
C  25.41100 -7.54800 48.25300
C  22.98700 -10.18300 49.34600
C  26.41000 -9.69700 49.03900
C  27.02800 -9.98000 47.63200
N  26.17500 -5.17300 46.64700
C  27.04600 -5.67600 47.53000
C  28.31000 -4.90100 47.49900
C  28.07000 -3.95600 46.51900
C  26.79500 -4.11100 46.03000
C  29.51100 -5.13800 48.37400
C  28.70300 -2.90900 45.77100
O  29.86400 -2.47500 45.74300
C  27.58400 -2.27600 44.81600
C  27.53600 -0.83100 45.06100
O  26.84100 -0.27600 45.93800
O  28.27000 -0.08600 44.09200
C  28.11200 1.41100 44.09000
H  20.89700 -3.96100 43.40500
H  21.57600 -9.17500 47.20000
H  27.41800 -7.28300 48.92700
H  24.88200 -1.04600 44.03900
H  22.71200 -2.28700 42.45900
H  22.69200 -0.38100 44.57400
H  21.37100 -1.75500 44.75400
H  21.45200 -0.68100 43.36300
H  24.80100 -2.73300 41.59000
H  26.38600 -2.70200 42.38000
H  26.88100 -0.64500 41.61300
H  25.38900 -0.10000 42.20200
H  18.69800 -5.94000 43.06200
H  18.80600 -4.52500 44.10000
H  17.93500 -5.93300 44.67300
H  19.48200 -9.39800 47.28200
H  20.10500 -10.17900 45.86000
H  18.32300 -10.29600 46.14500
H  24.24800 -10.17500 47.73900
H  24.99300 -8.43700 50.12000
H  21.99700 -9.72900 49.37500
H  23.31600 -10.14600 50.38400
H  22.96700 -11.16600 48.87500
H  26.31200 -10.67000 49.52100
H  27.07700 -9.22400 49.76000
H  27.14200 -11.05100 47.46700
H  28.05700 -9.62900 47.71300
H  26.48000 -9.45500 46.84900
H  30.46700 -4.96400 47.87800
H  29.59800 -6.12900 48.81800
H  29.46200 -4.45200 49.21900
H  27.91300 -2.43600 43.78900
H  27.25000 1.73100 43.50500
H  28.97500 1.86300 43.60000
H  27.94800 1.79700 45.09600

