158

Mg 47.07600 25.62500 28.56100
C  48.29900 27.65500 31.20800
C  45.80600 23.55800 30.88400
C  46.18000 23.58500 26.07400
C  48.72900 27.78900 26.36600
N  47.07600 25.72000 30.82500
C  47.50600 26.58800 31.65300
C  46.98200 26.33900 33.14300
C  46.37900 24.96900 32.94800
C  46.46000 24.69700 31.42800
C  47.22200 23.83800 33.59600
C  46.02300 27.47100 33.66800
C  46.51100 28.23600 34.89600
H  45.48900 28.34600 36.03800
N  46.05000 23.87800 28.44500
C  45.65300 23.16100 29.54200
C  44.95600 22.01400 29.05400
C  44.98400 21.97200 27.61300
C  45.79600 23.16600 27.32000
C  44.31000 20.95700 29.93600
C  44.31800 21.03400 26.56100
O  44.30100 21.34200 25.38200
C  43.55700 19.83500 27.09000
N  47.21300 25.80800 26.52100
C  46.80400 24.76400 25.62900
C  47.40500 24.91900 24.20100
C  48.04700 26.36500 24.38700
C  47.96700 26.74700 25.80800
C  48.44800 23.86000 23.94700
C  47.46600 27.53900 23.44400
C  48.41900 28.21100 22.41600
N  48.30900 27.46700 28.69000
C  48.84700 28.25200 27.69200
C  49.45900 29.41200 28.31600
C  49.26500 29.20400 29.69000
C  48.64100 27.94700 29.82500
C  50.08500 30.63100 27.62400
C  49.54400 29.74300 30.99800
O  50.15900 30.74200 31.30800
C  48.88000 28.78800 32.01300
C  49.93200 28.35000 33.10300
O  50.58300 27.31200 32.97300
O  49.96800 29.22400 34.19600
C  50.94400 28.86100 35.22800
H  45.33000 22.95500 31.66100
H  46.12100 22.92300 25.20700
H  49.16500 28.49000 25.65100
H  47.78700 26.18300 33.86100
H  45.33700 24.85100 33.24300
H  47.54300 24.08800 34.60700
H  48.09800 23.71400 32.95800
H  46.65400 22.91100 33.67200
H  45.06500 26.99400 33.87700
H  45.89800 28.20500 32.87200
H  46.61100 29.27800 34.59000
H  47.47400 27.91200 35.29000
H  43.25600 20.80100 29.70300
H  44.56400 21.05800 30.99100
H  44.79400 20.00900 29.70100
H  44.20500 19.17300 27.66400
H  43.28800 19.26000 26.20300
H  42.64300 20.23200 27.53100
H  46.58200 24.80200 23.49700
H  49.12300 26.35700 24.21700
H  48.10700 22.94900 23.45500
H  48.85300 23.54700 24.91000
H  49.28000 24.19900 23.33000
H  46.97600 28.28100 24.07300
H  46.65100 27.10100 22.86800
H  48.18700 29.27500 22.46600
H  48.15800 27.77600 21.45100
H  49.48500 28.16900 22.64100
H  49.57000 30.80400 26.67900
H  51.13800 30.36500 27.53200
H  49.92100 31.54100 28.20200
H  48.12100 29.42700 32.46500
H  51.06000 29.65600 35.96500
H  51.93700 28.64800 34.83300
H  50.56500 28.01000 35.79500
Mg 36.22800 49.44100 24.58600
C  36.62400 47.62600 27.53500
C  34.95600 52.06800 26.46300
C  35.44500 50.99600 21.68200
C  37.50500 46.84100 22.81900
N  35.67000 49.74600 26.80700
C  36.10700 48.88900 27.76400
C  35.82800 49.54300 29.15100
C  35.25700 50.91100 28.80500
C  35.33800 50.94100 27.27400
C  33.88800 51.29600 29.39000
C  37.14600 49.47900 30.04400
C  36.86700 49.45500 31.54400
H  35.43300 49.41700 32.12200
N  35.32200 51.24400 24.10400
C  34.92700 52.13100 25.03400
C  34.56800 53.35300 24.36300
C  34.55800 53.04500 22.96600
C  35.13000 51.71200 22.83000
C  34.38500 54.65200 25.06000
C  34.25300 53.99400 21.76900
O  34.33600 53.63200 20.60200
C  33.63200 55.33000 22.05600
N  36.30400 48.88100 22.48500
C  36.05900 49.77300 21.48900
C  36.43400 49.23600 20.15500
C  36.97700 47.73400 20.52700
C  36.93500 47.77900 22.01400
C  35.26000 49.15800 19.15200
C  38.37800 47.47200 19.86800
C  39.62600 48.26400 20.43800
N  36.95200 47.60600 24.99300
C  37.48300 46.69400 24.19500
C  38.01700 45.58300 25.01600
C  37.56100 45.89400 26.32100
C  37.01500 47.16800 26.27700
C  38.69700 44.34200 24.51900
C  37.59300 45.41400 27.61200
O  38.01500 44.37800 28.08000
C  36.84100 46.49100 28.44700
C  35.58800 45.97200 29.01400
O  34.63500 45.51600 28.33100
O  35.66200 46.02700 30.37700
C  34.53000 45.34400 31.04300
H  34.59300 52.93100 27.02500
H  35.18400 51.55000 20.77800
H  38.06600 45.99300 22.42100
H  35.02200 48.93200 29.55700
H  35.95400 51.69000 29.11700
H  33.30800 51.91800 28.70700
H  34.02700 51.79600 30.34800
H  33.40200 50.36500 29.68300
H  37.51200 50.47800 29.80800
H  37.83900 48.69600 29.73400
H  37.29900 50.41100 31.83900
H  37.41100 48.63600 32.01500
H  33.33000 54.78700 25.29800
H  34.82700 55.48800 24.51800
H  35.02200 54.59200 25.94300
H  34.48300 55.93600 22.36900
H  32.89400 55.05700 22.81100
H  33.06000 55.57300 21.16100
H  37.31600 49.76600 19.79400
H  36.28700 46.95600 20.19900
H  35.28500 50.14400 18.68700
H  34.34200 49.04500 19.72900
H  35.42100 48.26100 18.55300
H  38.38800 47.72200 18.80700
H  38.67600 46.42700 19.94800
H  39.41100 49.14900 21.03700
H  40.16100 48.69100 19.59000
H  40.28700 47.62300 21.02100
H  37.96000 43.69600 24.04300
H  39.28200 44.01800 25.38100
H  39.30400 44.47100 23.62300
H  37.50100 46.63200 29.30300
H  34.33200 44.38600 30.56300
H  33.64300 45.96000 30.89000
H  34.84900 45.16800 32.07000

