158

Mg 53.82000 25.19800 43.85700
C  51.17800 27.37500 43.50800
C  51.59700 22.56000 43.21700
C  56.51200 23.08700 43.35300
C  56.04700 27.84300 43.87400
N  51.65000 25.00500 43.58000
C  50.79700 26.05400 43.36600
C  49.40800 25.53400 42.87600
C  49.47500 24.02900 43.41800
C  51.00000 23.80500 43.43300
C  48.81300 23.84300 44.82100
C  49.31400 25.60000 41.35700
C  47.94300 25.45600 40.79600
H  47.79500 25.48000 39.24300
N  54.00800 23.04500 43.43800
C  52.95600 22.19400 43.21700
C  53.56200 20.95200 42.96400
C  54.97600 21.07100 43.04300
C  55.22700 22.42100 43.28200
C  52.75500 19.70500 42.72100
C  55.90800 19.91900 42.80800
O  55.41100 18.74600 42.62800
C  57.43500 19.89600 42.89200
N  55.97400 25.45300 43.49000
C  56.82800 24.38700 43.43300
C  58.32500 24.98500 43.51300
C  58.09900 26.52100 43.43000
C  56.60200 26.60300 43.67700
C  59.21600 24.53200 44.69400
C  58.42800 27.22500 42.03300
C  59.42300 28.41100 42.04100
N  53.73800 27.26900 43.92800
C  54.67100 28.19900 44.06400
C  53.98900 29.44500 44.27400
C  52.60300 29.23600 44.01800
C  52.53200 27.85400 43.74900
C  54.59700 30.71100 44.70100
C  51.27900 29.82700 43.81500
O  50.94800 30.99200 43.97500
C  50.34500 28.67100 43.32500
C  50.10000 28.96800 41.92400
O  51.02200 29.19100 41.13000
O  48.74900 29.09100 41.76400
C  48.30400 29.84600 40.59000
H  50.89300 21.74700 43.02600
H  57.46300 22.55200 43.30100
H  56.70600 28.71100 43.94100
H  48.60400 26.07900 43.37100
H  49.01300 23.26900 42.78800
H  48.53100 24.85000 45.12800
H  49.55200 23.46800 45.52800
H  47.99100 23.13200 44.91100
H  49.94300 24.85300 40.87300
H  49.74600 26.53700 41.00800
H  47.32900 26.19000 41.31800
H  47.59700 24.46900 41.10100
H  52.70100 19.42600 41.66800
H  51.74500 19.89700 43.08200
H  53.01200 18.85600 43.35500
H  57.93500 20.59700 42.22300
H  57.81300 18.91200 42.61600
H  57.72300 20.06300 43.93000
H  58.88000 24.66900 42.63000
H  58.60200 27.07900 44.22000
H  59.24700 25.43000 45.31000
H  60.24700 24.22800 44.51100
H  58.68500 23.78800 45.28900
H  57.49200 27.57100 41.59500
H  58.79500 26.51500 41.29100
H  60.20400 28.23400 41.30100
H  59.89100 28.64000 42.99800
H  58.79900 29.27000 41.79500
H  54.31500 31.49200 43.99400
H  55.67000 30.57700 44.56200
H  54.50900 30.99600 45.74900
H  49.43700 28.69900 43.92600
H  47.40600 29.36800 40.19700
H  49.01700 30.14900 39.82300
H  47.86800 30.79200 40.90900
Mg 43.11100 42.67900 26.57900
C  42.32800 44.70700 29.14600
C  44.29400 40.31400 28.89000
C  44.19100 40.88700 24.01100
C  42.31400 45.35500 24.37200
N  43.32500 42.48800 28.80000
C  42.78300 43.47300 29.61000
C  42.85600 43.01500 31.08700
C  43.77500 41.66500 30.97500
C  43.81600 41.43400 29.47900
C  45.21200 41.76400 31.62700
C  41.46300 42.86400 31.71900
C  41.38400 42.07100 32.99800
H  40.51800 42.50300 34.10500
N  44.08400 40.86800 26.45000
C  44.40400 40.00700 27.53500
C  45.00500 38.80400 26.96900
C  44.83300 38.89300 25.52600
C  44.36800 40.23700 25.26800
C  45.53500 37.66100 27.81900
C  45.17400 37.85500 24.48000
O  44.83600 38.05000 23.28900
C  45.72400 36.56100 24.82800
N  43.34000 43.09800 24.52100
C  43.75300 42.16300 23.64500
C  43.63500 42.59300 22.19400
C  42.74000 43.89900 22.33200
C  42.71400 44.12000 23.80300
C  45.03400 42.86300 21.68900
C  41.24600 43.69700 21.82300
C  40.40900 42.67300 22.60400
N  42.48300 44.70800 26.61700
C  42.22300 45.66400 25.70000
C  41.67800 46.83900 26.38700
C  41.70400 46.47800 27.73300
C  42.27500 45.20900 27.83600
C  41.19200 48.07900 25.67000
C  41.33700 46.86100 29.06300
O  40.79200 47.87200 29.42100
C  41.77300 45.77900 30.04600
C  42.78400 46.30600 31.03200
O  43.94500 46.57500 30.88900
O  42.18100 46.48600 32.27800
C  42.94200 47.21300 33.28200
H  44.65500 39.60600 29.63900
H  44.50900 40.33100 23.12600
H  42.03700 46.11200 23.63600
H  43.39600 43.68400 31.75700
H  43.23300 40.83000 31.41900
H  45.21900 40.97700 32.38100
H  45.40500 42.70900 32.13300
H  46.02700 41.63700 30.91400
H  40.83600 42.30300 31.02700
H  40.93100 43.77600 31.99000
H  42.37700 41.85700 33.39300
H  40.89400 41.12600 32.76200
H  45.62200 37.95800 28.86400
H  46.55200 37.49400 27.46400
H  44.96700 36.73500 27.71700
H  46.21200 36.26700 23.89800
H  45.12700 35.70100 25.13300
H  46.60400 36.57600 25.46900
H  43.04300 41.81400 21.71300
H  43.17600 44.71600 21.75600
H  45.14000 42.35000 20.73300
H  45.86300 42.42200 22.24300
H  45.18100 43.94200 21.63200
H  41.37500 43.43300 20.77400
H  40.91500 44.73500 21.83800
H  39.75400 42.07500 21.97000
H  39.74300 43.14500 23.32600
H  41.03500 42.04700 23.24000
H  41.96600 48.30700 24.93800
H  41.09500 48.93700 26.33500
H  40.26400 47.84200 25.15000
H  40.89000 45.38600 30.55000
H  43.72000 47.92500 33.00300
H  43.29400 46.43200 33.95500
H  42.44400 47.94900 33.91300

