158

Mg 1.62600 8.12500 24.72500
C  2.44000 9.71500 27.71000
C  2.38500 5.06100 26.24200
C  0.88100 6.58200 21.83700
C  1.31600 11.24400 23.20600
N  2.49600 7.48300 26.70900
C  2.47500 8.33100 27.85900
C  2.62600 7.51700 29.12600
C  2.81800 6.11200 28.62200
C  2.49700 6.18500 27.11500
C  4.23300 5.51200 28.88800
C  1.25200 7.71900 29.84600
C  1.24000 7.61100 31.35600
H  2.46700 6.90800 32.04700
N  1.51000 6.06700 24.19000
C  1.86300 4.96800 24.98100
C  1.63000 3.76700 24.24200
C  1.15600 4.20900 22.95000
C  1.17200 5.67800 22.91700
C  1.79900 2.37400 24.93800
C  0.54500 3.23100 21.90100
O  0.09200 3.62000 20.82500
C  0.52400 1.66500 22.21100
N  1.34900 8.81300 22.71000
C  0.97500 7.96400 21.75300
C  0.27500 8.72200 20.56700
C  0.24700 10.19000 21.08100
C  1.06000 10.12400 22.39600
C  1.08400 8.51500 19.26700
C  -1.15700 10.88600 21.11000
C  -1.90000 10.99300 19.72900
N  1.83500 10.21600 25.30900
C  1.70700 11.33600 24.56800
C  2.10300 12.49000 25.47700
C  2.28800 11.86900 26.74400
C  2.17800 10.51700 26.54100
C  2.28300 13.99100 25.05900
C  2.71700 12.14600 28.12300
O  3.10300 13.19600 28.61900
C  2.62400 10.74100 28.81300
C  3.79500 10.57800 29.70100
O  4.85900 10.10100 29.39800
O  3.52100 11.05300 30.95000
C  4.58700 10.84700 32.00700
H  2.76900 4.17700 26.75500
H  0.53800 6.12600 20.90500
H  1.07500 12.15300 22.65100
H  3.42900 7.82900 29.79400
H  2.12000 5.43600 29.11700
H  4.80300 5.70000 27.97800
H  4.21900 4.44700 29.12000
H  4.65000 6.05000 29.74000
H  0.50700 6.96600 29.58800
H  0.77200 8.66300 29.59100
H  0.33000 7.07900 31.63400
H  1.36600 8.61600 31.75800
H  2.44800 1.67500 24.41000
H  0.82000 1.90000 25.01800
H  2.07300 2.46000 25.99000
H  1.51100 1.20400 22.23500
H  -0.14900 1.22000 21.47800
H  -0.01100 1.51100 23.14900
H  -0.72600 8.29700 20.50000
H  0.91200 10.76500 20.43600
H  2.14400 8.36400 19.47100
H  0.85100 9.37000 18.63100
H  0.73600 7.61100 18.76600
H  -1.02900 11.87900 21.54000
H  -1.76500 10.35500 21.84200
H  -1.18400 10.73900 18.94700
H  -2.26900 12.01700 19.67500
H  -2.72900 10.28900 19.80200
H  1.31100 14.26000 24.64600
H  3.05600 13.95800 24.29100
H  2.65700 14.62700 25.86000
H  1.70100 10.85600 29.38100
H  4.29400 10.02300 32.65700
H  4.67000 11.83500 32.46100
H  5.57700 10.60300 31.62300
Mg 44.31200 3.79700 48.26000
C  42.07200 6.43000 47.27300
C  41.84400 1.47400 47.53900
C  46.64000 1.42900 48.12600
C  46.93100 6.27700 48.03200
N  42.26200 3.98600 47.28000
C  41.45800 5.10200 47.17200
C  40.00700 4.76300 46.87500
C  40.00800 3.26000 47.19800
C  41.48200 2.85700 47.35400
C  39.04900 2.71800 48.36100
C  39.47900 5.18200 45.43600
C  38.01300 5.66700 45.34900
H  37.32900 5.34400 43.94900
N  44.23700 1.69800 48.08900
C  43.11000 0.95100 47.88400
C  43.46400 -0.46400 48.14000
C  44.85000 -0.49500 48.37300
C  45.33200 0.91200 48.20600
C  42.49900 -1.62300 47.94800
C  45.63500 -1.67900 48.76400
O  45.14100 -2.80600 48.87300
C  47.15000 -1.53900 49.08500
N  46.51000 3.88300 48.05500
C  47.18300 2.73000 48.15800
C  48.71000 2.99400 48.07600
C  48.77000 4.43300 47.53700
C  47.36000 4.93600 47.84300
C  49.47400 2.69300 49.42900
C  49.09100 4.57200 46.05200
C  50.44300 5.22400 45.66200
N  44.48000 5.93900 47.88600
C  45.60800 6.75900 47.84700
C  45.10400 8.10100 47.64800
C  43.75700 7.97000 47.46800
C  43.41000 6.67100 47.64500
C  45.95800 9.32000 47.61200
C  42.54500 8.78700 47.30200
O  42.42500 10.01300 47.17600
C  41.39500 7.74300 47.10100
C  40.28300 7.95500 48.06800
O  40.21600 7.50700 49.22200
O  39.37200 8.87300 47.52600
C  38.06900 9.10200 48.34200
H  40.96300 0.82900 47.53300
H  47.48000 0.73300 48.08100
H  47.60000 7.10300 47.78000
H  39.27400 5.20000 47.55300
H  39.70000 2.64400 46.35200
H  38.63100 3.55400 48.92200
H  39.63000 2.12700 49.06800
H  38.30300 2.16000 47.79500
H  39.60700 4.31800 44.78300
H  40.15300 5.93900 45.03600
H  38.19600 6.73700 45.44800
H  37.40800 5.23500 46.14600
H  41.53000 -1.40400 47.50000
H  42.34100 -2.18500 48.86800
H  42.86800 -2.34500 47.22000
H  47.51700 -0.76100 49.75400
H  47.59200 -1.39000 48.10000
H  47.52900 -2.44200 49.56400
H  49.18300 2.39000 47.30200
H  49.41100 5.04100 48.17700
H  50.19100 3.44000 49.76900
H  50.13000 1.86600 49.15900
H  48.82100 2.24200 50.17600
H  48.35800 5.15100 45.49000
H  49.23200 3.59500 45.59000
H  50.86900 5.89400 46.40800
H  50.21600 5.79300 44.76000
H  51.14500 4.45100 45.35100
H  45.46700 10.04000 48.26700
H  45.90300 9.69900 46.59200
H  47.03200 9.24400 47.78500
H  40.80800 7.85100 46.18800
H  37.98500 8.32300 49.10000
H  37.24200 9.14300 47.63200
H  38.30600 10.02800 48.86500

