158

Mg 7.51400 3.07800 27.96200
C  8.98300 1.77100 30.93300
C  5.50800 4.99000 29.96500
C  5.75500 4.04800 25.20800
C  9.21700 0.67100 26.07600
N  7.38600 3.41000 30.27700
C  8.18400 2.85500 31.28000
C  7.61100 3.32000 32.67500
C  6.41800 4.25200 32.29500
C  6.37700 4.16600 30.75000
C  5.08800 3.81600 32.80700
C  8.65600 3.97100 33.61700
C  9.17600 3.22700 34.76500
H  9.87200 3.98000 35.90300
N  5.87100 4.34700 27.63400
C  5.22900 5.06000 28.59000
C  4.21000 5.85000 27.99700
C  4.39200 5.75600 26.53500
C  5.38600 4.74000 26.39300
C  3.26600 6.74300 28.79200
C  3.76800 6.51900 25.37900
O  4.12400 6.36900 24.25500
C  2.61800 7.54100 25.57700
N  7.40900 2.47300 25.97600
C  6.58800 2.99500 25.00400
C  6.83500 2.29400 23.67200
C  8.21600 1.56700 23.88600
C  8.23500 1.49800 25.42100
C  5.69000 1.30800 23.12800
C  9.47400 2.30900 23.35500
C  9.84700 1.70800 21.90800
N  8.86300 1.61900 28.32700
C  9.45700 0.71000 27.47400
C  10.22500 -0.27300 28.26700
C  10.13800 0.15500 29.59900
C  9.19000 1.27000 29.59200
C  10.81900 -1.52000 27.88200
C  10.56300 -0.09100 30.97300
O  11.32200 -0.90500 31.41000
C  9.86800 0.94100 31.88000
C  9.14800 0.23300 32.94600
O  7.99800 -0.20900 32.80400
O  9.86800 0.05600 34.05200
C  9.24100 -0.41500 35.32100
H  4.88400 5.64900 30.57200
H  5.22500 4.37500 24.31000
H  9.68400 -0.00300 25.35400
H  7.35900 2.38500 33.17600
H  6.58100 5.28800 32.59200
H  5.34200 3.07800 33.56900
H  4.30600 3.37800 32.18700
H  4.68900 4.63800 33.40100
H  8.22300 4.93000 33.90100
H  9.55700 4.11300 33.02100
H  9.87500 2.57200 34.24600
H  8.44700 2.51900 35.16000
H  3.22400 6.57400 29.86800
H  2.28200 6.66800 28.32800
H  3.60700 7.77800 28.81400
H  2.27900 8.04600 24.67300
H  3.18600 8.27100 26.15200
H  1.73600 7.19500 26.11600
H  6.92900 3.17200 23.03400
H  8.09800 0.56100 23.48500
H  5.26200 1.68500 22.19800
H  4.88200 1.29300 23.85900
H  6.03600 0.29200 22.94000
H  10.25600 2.23200 24.11000
H  9.17700 3.33900 23.15900
H  9.91300 2.43800 21.10100
H  9.26700 0.85900 21.54500
H  10.84300 1.29900 22.07400
H  10.32400 -1.93500 27.00500
H  10.64800 -2.16300 28.74500
H  11.86400 -1.46700 27.57900
H  10.69500 1.51500 32.29900
H  9.17000 0.48000 35.93900
H  9.70000 -1.23000 35.88100
H  8.18200 -0.62800 35.17600
Mg 24.62900 1.80400 30.07700
C  26.94700 1.38500 32.72500
C  22.08200 1.94300 32.45000
C  22.52800 1.92500 27.51900
C  27.38400 1.16700 27.89400
N  24.58900 1.53200 32.34800
C  25.70300 1.53600 33.24300
C  25.24100 1.87500 34.67000
C  23.64600 1.85800 34.58500
C  23.41700 1.89000 33.02900
C  23.01300 0.58800 35.20200
C  25.88100 3.23100 35.15100
C  26.66100 3.24900 36.44800
H  26.14200 4.09600 37.60500
N  22.60400 1.81500 30.00200
C  21.73500 1.88000 31.06300
C  20.37600 1.97900 30.57100
C  20.46900 1.98100 29.13900
C  21.93600 1.95000 28.78100
C  19.08100 2.18600 31.44100
C  19.36600 1.98600 28.09500
O  19.54600 2.08100 26.84400
C  17.95200 1.75500 28.58000
N  24.89600 1.67800 28.03600
C  23.89700 1.76200 27.14700
C  24.30000 1.81400 25.76600
C  25.80800 1.68400 25.93900
C  26.03200 1.36100 27.38400
C  23.65500 0.84200 24.68700
C  26.69200 2.90800 25.41000
C  26.98500 4.02100 26.36600
N  26.71900 1.32400 30.19600
C  27.70900 1.18400 29.23400
C  28.93500 0.92700 29.83700
C  28.70300 1.06000 31.23200
C  27.31500 1.23700 31.39000
C  30.24700 0.56600 29.12200
C  29.40100 1.13800 32.48900
O  30.56400 1.14600 32.75200
C  28.21600 1.28400 33.54700
C  28.25700 0.10900 34.52600
O  27.84300 -1.04200 34.31100
O  28.58800 0.53700 35.76600
C  28.39500 -0.44500 36.87100
H  21.36400 2.14700 33.24700
H  21.88700 2.00100 26.63700
H  28.22300 1.12100 27.19700
H  25.51300 1.07500 35.35900
H  23.26600 2.71200 35.14600
H  22.10300 0.26300 34.69800
H  22.62700 0.75700 36.20700
H  23.74200 -0.21400 35.32000
H  25.17300 4.04700 35.00500
H  26.62200 3.51400 34.40300
H  27.64200 3.64600 36.18800
H  26.91900 2.24400 36.78200
H  18.41000 2.97700 31.10700
H  19.38800 2.62200 32.39100
H  18.47300 1.29400 31.59000
H  17.33500 1.41600 27.74800
H  17.51000 2.68100 28.94800
H  17.95900 0.96000 29.32600
H  24.06400 2.83200 25.45600
H  26.04000 0.73600 25.45300
H  23.17500 -0.10100 24.94900
H  24.42300 0.59600 23.95300
H  22.79900 1.38000 24.28000
H  26.15700 3.34200 24.56500
H  27.66800 2.59300 25.04100
H  26.47300 3.91600 27.32300
H  26.82500 4.94200 25.80600
H  28.02800 4.03800 26.68300
H  31.04700 1.02000 29.70800
H  30.29600 1.04000 28.14200
H  30.34900 -0.51200 28.99200
H  28.45300 2.23500 34.02400
H  27.33000 -0.67400 36.87800
H  28.65200 0.10300 37.77700
H  29.00200 -1.34100 36.73900

