158

Mg 35.43400 3.16000 29.29400
C  33.24900 4.22900 31.69300
C  38.01900 3.28700 31.58900
C  37.77200 2.74600 26.81100
C  32.91100 3.37700 26.92500
N  35.57200 3.67100 31.35400
C  34.50200 3.98300 32.18500
C  34.93200 4.20800 33.65000
C  36.50700 4.24800 33.50300
C  36.77300 3.65600 32.05800
C  37.09800 5.67100 33.81600
C  34.42500 2.99200 34.43300
C  33.89600 3.41800 35.81400
H  34.74700 4.46000 36.67700
N  37.60700 2.92200 29.23300
C  38.42600 2.94200 30.29400
C  39.77700 2.70000 29.88200
C  39.75600 2.50100 28.48700
C  38.34500 2.74800 28.10800
C  40.88000 2.65900 30.87000
C  40.97300 2.26700 27.51900
O  40.71800 2.03900 26.32400
C  42.36500 2.43000 27.84400
N  35.36500 3.07000 27.15500
C  36.49300 3.05200 26.34400
C  35.97000 3.15900 24.86800
C  34.42500 2.87900 24.92700
C  34.17200 3.12400 26.41300
C  36.21400 4.51700 24.13100
C  34.03900 1.43800 24.48700
C  33.27400 1.22200 23.10100
N  33.49900 3.68400 29.20800
C  32.56600 3.83100 28.22800
C  31.31300 4.37800 28.74800
C  31.63400 4.49000 30.11200
C  32.88700 4.04700 30.33900
C  30.02000 4.65800 28.10300
C  31.00300 4.91700 31.41400
O  29.91200 5.40100 31.62500
C  32.12000 4.70100 32.50400
C  32.33200 5.96400 33.23500
O  32.85600 7.00800 32.80200
O  31.77100 5.85600 34.48700
C  32.06600 7.10100 35.30700
H  38.80900 3.39400 32.33500
H  38.49200 2.63700 25.99800
H  32.16800 3.44700 26.12800
H  34.58900 5.14700 34.08400
H  37.10100 3.55100 34.09400
H  38.08700 5.70800 33.36100
H  37.09900 5.88500 34.88400
H  36.37900 6.29200 33.28000
H  35.24700 2.27600 34.46400
H  33.57700 2.65500 33.83800
H  34.00700 2.50900 36.40600
H  32.82400 3.61400 35.80900
H  41.82700 2.56300 30.33800
H  40.67900 1.74400 31.42700
H  40.82900 3.51800 31.53900
H  42.96900 2.16900 26.97500
H  42.65200 1.69500 28.59700
H  42.59400 3.45000 28.15400
H  36.47500 2.41600 24.25200
H  33.84100 3.64100 24.41000
H  36.80100 4.35900 23.22700
H  36.76900 5.14100 24.83200
H  35.30900 5.01600 23.78600
H  33.44300 0.93500 25.24700
H  34.92400 0.81900 24.34400
H  33.89100 0.60200 22.45000
H  33.02600 2.12100 22.53700
H  32.37300 0.69400 23.41400
H  30.12500 4.78100 27.02500
H  29.48600 5.52700 28.48700
H  29.34800 3.82000 28.28800
H  31.80200 3.84800 33.10300
H  31.28600 7.85400 35.19700
H  33.10500 7.41000 35.18900
H  32.03300 6.76800 36.34500
Mg 30.57400 58.09500 40.44200
C  27.69800 56.30100 39.56700
C  32.55600 55.70500 39.17300
C  33.24200 60.23800 40.53700
C  28.43300 60.84100 41.24600
N  30.11700 56.29400 39.37400
C  28.89300 55.66200 39.21800
C  29.02400 54.19400 38.71300
C  30.57800 54.08600 38.75300
C  31.17300 55.46300 39.16400
C  31.02800 52.98700 39.71000
C  28.27400 53.80300 37.39800
C  29.05900 53.90500 36.06700
H  28.21800 54.11600 34.84900
N  32.66200 58.00000 40.07200
C  33.23900 56.88100 39.50500
C  34.68800 57.04800 39.51800
C  34.92500 58.35200 40.01100
C  33.54900 58.94700 40.21200
C  35.69600 55.97800 39.13900
C  36.30500 59.02600 40.33900
O  37.39100 58.38600 40.21300
C  36.49800 60.49400 40.70600
N  30.82100 60.18900 40.87400
C  32.04000 60.80900 40.94400
C  31.86800 62.29600 41.11500
C  30.35300 62.44800 41.51200
C  29.81600 61.07600 41.18700
C  32.81800 63.09300 42.08700
C  29.49600 63.73600 40.92600
C  28.75700 64.58000 42.01700
N  28.47400 58.52100 40.52000
C  27.70600 59.68100 40.85000
C  26.26800 59.34400 40.56600
C  26.27700 57.99100 40.29600
C  27.57400 57.59600 40.13300
C  25.08600 60.20900 40.72600
C  25.35600 56.86400 40.09500
O  24.14700 56.85100 40.21600
C  26.30400 55.76800 39.48400
C  26.11200 54.60800 40.36100
O  26.64000 54.42300 41.43500
O  25.23800 53.64500 39.79800
C  24.89700 52.41200 40.69200
H  33.27500 54.93300 38.89300
H  33.89700 61.10100 40.40100
H  27.82600 61.68000 41.59400
H  28.61200 53.50300 39.44900
H  30.99300 53.84700 37.77400
H  31.47700 53.33600 40.64000
H  31.76800 52.40500 39.16100
H  30.23500 52.25700 39.86700
H  27.36600 54.40000 37.32000
H  27.99100 52.77500 37.62100
H  29.65100 52.99800 35.94400
H  29.88600 54.59900 36.21700
H  36.48600 56.44200 38.54900
H  35.20600 55.34800 38.39700
H  36.02000 55.36000 39.97700
H  35.87200 60.69500 41.57500
H  36.21100 61.08100 39.83400
H  37.55800 60.69100 40.86600
H  31.94600 62.83400 40.17100
H  30.36000 62.32100 42.59400
H  32.30600 63.54400 42.93600
H  33.28000 63.79100 41.38800
H  33.59800 62.50200 42.56600
H  28.82900 63.38900 40.13600
H  30.21000 64.43000 40.48200
H  29.40100 65.45500 42.09900
H  28.68600 64.04700 42.96600
H  27.74700 64.85600 41.71300
H  25.13700 60.95400 41.52000
H  24.10900 59.73900 40.83500
H  25.11600 60.76500 39.78900
H  26.03500 55.70900 38.43000
H  25.54300 51.56800 40.45000
H  23.85000 52.11400 40.64900
H  24.98200 52.53700 41.77200

