158

Mg 25.01000 1.55000 29.40500
C  27.03100 1.55400 32.28700
C  22.27700 1.94500 31.43400
C  23.12800 1.21400 26.64400
C  27.82900 0.86600 27.50500
N  24.71700 1.67300 31.62700
C  25.72200 1.91300 32.60400
C  25.12200 2.21600 33.93800
C  23.52300 2.09200 33.67600
C  23.44300 1.91900 32.12800
C  22.82300 0.99500 34.54500
C  25.66100 3.58000 34.47900
C  26.36800 3.57500 35.83000
H  25.81900 4.63500 36.84700
N  23.00100 1.58500 29.12200
C  21.99300 1.70200 30.02300
C  20.67800 1.64500 29.43800
C  20.89800 1.45500 28.04500
C  22.41000 1.45400 27.84000
C  19.33100 1.82400 30.23500
C  19.82500 1.19600 26.98800
O  20.19200 1.17200 25.77100
C  18.44500 0.98900 27.42800
N  25.39900 1.06900 27.36900
C  24.47900 1.13700 26.37100
C  25.10300 1.43400 24.91900
C  26.60800 1.33300 25.21200
C  26.61300 1.02400 26.80000
C  24.53300 0.37600 23.93100
C  27.40500 2.53600 24.76900
C  27.31000 3.77500 25.50700
N  26.98100 1.07100 29.81000
C  27.98200 0.84300 28.95100
C  29.25400 0.68300 29.62700
C  28.94000 0.89000 31.01800
C  27.52000 1.11900 31.03200
C  30.51900 0.66600 29.02700
C  29.51800 1.04900 32.31700
O  30.64200 0.85000 32.82700
C  28.24800 1.56500 33.22100
C  28.28300 0.66200 34.41900
O  27.82300 -0.45100 34.41700
O  28.80500 1.36200 35.47100
C  29.14200 0.35700 36.53700
H  21.41600 2.18300 32.06200
H  22.53200 1.22500 25.72900
H  28.70500 0.86300 26.85300
H  25.31000 1.44600 34.68700
H  23.03000 2.98200 34.06700
H  23.53300 0.35600 35.07100
H  22.24700 0.29400 33.94200
H  22.15700 1.48400 35.25600
H  24.83700 4.28700 34.58100
H  26.39100 4.03500 33.81000
H  27.39400 3.76700 35.51600
H  26.49100 2.62900 36.35700
H  19.44600 2.09000 31.28500
H  18.86400 0.84600 30.35400
H  18.74300 2.64000 29.81400
H  18.32000 0.24200 28.21200
H  17.91400 0.77900 26.50000
H  18.13900 1.97300 27.78300
H  24.82200 2.40000 24.50000
H  26.99900 0.52900 24.58800
H  23.96100 0.95300 23.20400
H  23.95200 -0.41200 24.41100
H  25.36400 -0.06500 23.38100
H  27.00600 2.81700 23.79400
H  28.40700 2.11600 24.67900
H  26.72400 3.59800 26.40900
H  26.85400 4.67200 25.08600
H  28.34100 4.05700 25.72100
H  30.93100 -0.32800 28.85600
H  31.24800 1.14000 29.68400
H  30.53100 1.18400 28.06800
H  28.54600 2.57700 33.49300
H  28.26500 -0.13000 36.96400
H  29.72700 0.82700 37.32900
H  29.80900 -0.34100 36.03200
Mg 49.30800 35.37300 28.34600
C  47.32900 34.01300 30.82400
C  49.68400 38.21100 30.22500
C  50.80300 36.91200 25.61400
C  48.60000 32.60100 26.27500
N  48.46100 36.06100 30.26700
C  47.83600 35.24800 31.17000
C  47.91300 35.92800 32.64600
C  48.33100 37.39800 32.29800
C  48.93300 37.23500 30.87800
C  47.17600 38.40400 32.30200
C  48.89900 35.15200 33.52100
C  49.82300 35.83600 34.60100
H  49.14500 36.39600 35.87800
N  50.14200 37.28700 27.97800
C  50.24600 38.25900 28.94500
C  50.80100 39.47800 28.35600
C  51.21900 39.18400 26.99500
C  50.72600 37.75200 26.80100
C  51.00400 40.74200 29.13100
C  51.89200 39.95900 25.89200
O  52.24800 39.46500 24.85100
C  52.27500 41.40700 26.10600
N  49.55500 34.85600 26.29500
C  50.37400 35.61900 25.42500
C  50.73500 34.80100 24.19100
C  50.34100 33.34200 24.51400
C  49.42000 33.61900 25.74700
C  50.02100 35.41500 22.92300
C  51.51000 32.28100 24.79400
C  51.55600 31.17800 23.70800
N  48.29800 33.63200 28.52100
C  48.07600 32.59000 27.61600
C  47.43600 31.51200 28.22500
C  46.97100 32.07000 29.47400
C  47.55800 33.37300 29.60300
C  47.13900 30.15300 27.64700
C  46.23400 31.77600 30.62800
O  45.62800 30.78400 30.93300
C  46.32500 33.05000 31.49000
C  46.71300 32.53900 32.83100
O  47.75900 32.08100 33.16800
O  45.69200 32.91400 33.66800
C  46.05600 32.88900 35.10400
H  49.95500 39.01700 30.90900
H  51.24100 37.32700 24.70400
H  48.57100 31.69100 25.67200
H  46.94000 35.85900 33.13400
H  49.13000 37.74300 32.95400
H  46.80900 38.31100 33.32400
H  46.45000 38.19800 31.51500
H  47.56900 39.40400 32.12200
H  49.49200 34.57400 32.81300
H  48.41300 34.48500 34.23400
H  50.31600 36.65900 34.08300
H  50.64600 35.18600 34.90100
H  51.02000 40.53700 30.20200
H  50.23700 41.45900 28.83600
H  51.95500 41.23300 28.92400
H  52.43500 41.96200 25.18100
H  53.00400 41.64900 26.87900
H  51.31100 41.81600 26.40600
H  51.82400 34.82100 24.18000
H  49.72800 33.06900 23.65500
H  49.67100 36.40800 23.20800
H  49.23900 34.82400 22.44700
H  50.74300 35.65500 22.14300
H  51.50800 31.99100 25.84500
H  52.48000 32.76900 24.69900
H  50.62800 31.06100 23.14900
H  51.64500 30.18600 24.15200
H  52.38700 31.37500 23.03000
H  47.90700 29.47800 28.02300
H  47.20600 30.15800 26.55900
H  46.13900 29.91800 28.01100
H  45.29000 33.38200 31.56800
H  47.03500 33.35300 35.22100
H  45.92900 31.85800 35.43500
H  45.38300 33.52400 35.67900

