158

Mg -11.62600 16.25400 42.39800
C  -8.61400 14.51900 41.76900
C  -10.28700 19.05600 41.15000
C  -14.73000 17.46900 42.26800
C  -13.01500 13.06500 43.01600
N  -9.77800 16.68600 41.34600
C  -8.67500 15.87100 41.32500
C  -7.47700 16.60100 40.68000
C  -7.95100 18.08600 40.64300
C  -9.40700 17.93800 41.01500
C  -7.03500 18.83600 41.69500
C  -7.11700 16.08700 39.26100
C  -5.57200 16.10700 38.90200
H  -4.95400 17.29800 38.20200
N  -12.42800 18.10800 41.78400
C  -11.65400 19.15700 41.31500
C  -12.52200 20.29000 41.17400
C  -13.85400 19.85100 41.51100
C  -13.73700 18.43300 41.93700
C  -11.97400 21.59300 40.85500
C  -15.19100 20.63900 41.30900
O  -15.14700 21.74600 40.76400
C  -16.45600 20.10500 41.71200
N  -13.61500 15.33400 42.31900
C  -14.65700 16.11000 42.40600
C  -15.95500 15.31400 42.71200
C  -15.43500 13.79800 42.69700
C  -13.90000 14.06000 42.68300
C  -16.75200 15.70300 44.04300
C  -15.97500 12.86500 41.48200
C  -16.51300 11.59000 42.06500
N  -10.94000 14.20400 42.59100
C  -11.61400 13.10300 42.88300
C  -10.61500 11.97300 42.95900
C  -9.41500 12.54100 42.57900
C  -9.69500 13.86300 42.28300
C  -10.92400 10.59500 43.50700
C  -8.07700 12.30700 42.31200
O  -7.41900 11.24500 42.43100
C  -7.45400 13.61700 41.81500
C  -6.39500 14.07500 42.76200
O  -6.35400 13.96700 43.98600
O  -5.28400 14.55700 42.12000
C  -4.20500 15.00100 43.06700
H  -9.79400 19.96100 40.78800
H  -15.72700 17.82500 42.53400
H  -13.48800 12.12400 43.30400
H  -6.53500 16.49400 41.21800
H  -7.84000 18.52600 39.65200
H  -7.67600 19.59700 42.14200
H  -6.16700 19.30600 41.23400
H  -6.70600 18.08400 42.41200
H  -7.59700 16.72000 38.51400
H  -7.36700 15.05000 39.04100
H  -5.42700 15.22300 38.28200
H  -4.97300 15.95800 39.80000
H  -12.69700 22.37400 41.08900
H  -11.75000 21.68700 39.79300
H  -11.09900 21.79200 41.47400
H  -17.23800 20.85600 41.59200
H  -16.35400 19.83000 42.76200
H  -16.63900 19.27300 41.03100
H  -16.64300 15.45500 41.87900
H  -15.67700 13.30900 43.64100
H  -17.78800 15.77200 43.71200
H  -16.51300 16.68200 44.45800
H  -16.64900 14.91700 44.79100
H  -15.07000 12.78800 40.87800
H  -16.71700 13.53700 41.05100
H  -15.78600 10.84100 41.75100
H  -17.53600 11.30500 41.82300
H  -16.36900 11.47000 43.13900
H  -11.83100 10.28300 42.99000
H  -11.20500 10.71000 44.55400
H  -10.23300 9.75300 43.46600
H  -7.08600 13.34900 40.82500
H  -4.56400 16.00500 43.29300
H  -3.34800 15.21400 42.42800
H  -3.97300 14.44200 43.97400
Mg -5.38100 25.13100 25.94400
C  -3.86700 26.67600 28.66800
C  -6.80400 22.89200 28.15300
C  -7.09300 23.78000 23.39600
C  -3.66400 27.14700 23.77800
N  -5.32200 24.80600 28.12800
C  -4.74500 25.65800 29.06000
C  -5.13900 25.27300 30.54300
C  -5.66600 23.78300 30.24600
C  -5.94500 23.83400 28.78300
C  -4.74600 22.64000 30.82200
C  -6.28100 26.17700 31.14400
C  -5.94900 26.68400 32.55700
H  -6.90100 26.34100 33.66700
N  -6.76900 23.55700 25.70800
C  -7.29800 22.77800 26.80800
C  -8.43700 21.92300 26.39200
C  -8.56900 22.16300 25.01400
C  -7.48500 23.23300 24.65300
C  -9.09100 21.02900 27.38400
C  -9.47800 21.64200 23.87700
O  -9.36700 22.10100 22.72800
C  -10.36600 20.38700 24.13700
N  -5.17000 25.30700 23.90200
C  -6.07700 24.67800 23.04600
C  -5.74100 24.99000 21.59300
C  -4.70800 26.24200 21.70600
C  -4.42200 26.19500 23.18600
C  -5.33500 23.72700 20.76500
C  -5.27800 27.61000 21.12600
C  -4.93600 27.93800 19.62800
N  -4.01900 26.57200 26.13800
C  -3.33900 27.27700 25.16500
C  -2.46000 28.27300 25.72400
C  -2.69800 28.12200 27.12600
C  -3.61300 27.00800 27.32400
C  -1.57200 29.20700 24.97600
C  -2.32000 28.67700 28.49000
O  -1.65700 29.62200 28.95200
C  -3.11400 27.67800 29.47800
C  -2.09300 27.00800 30.28500
O  -1.21100 26.22700 29.78400
O  -2.06200 27.54900 31.56800
C  -0.92500 27.20700 32.37600
H  -7.19500 22.14300 28.84500
H  -7.72300 23.62200 22.51800
H  -3.05400 27.81200 23.16300
H  -4.36300 25.18400 31.30300
H  -6.65700 23.59900 30.66200
H  -3.84000 22.55400 30.22200
H  -5.36400 21.74200 30.83300
H  -4.52100 22.85000 31.86800
H  -7.27100 25.72200 31.16800
H  -6.19300 27.08500 30.54800
H  -6.19000 27.74700 32.54900
H  -4.92100 26.44700 32.83100
H  -9.38100 21.53100 28.30700
H  -8.31700 20.30300 27.63200
H  -9.97300 20.50800 27.01100
H  -9.71700 19.70100 24.68100
H  -10.69000 20.09400 23.13800
H  -11.14400 20.82000 24.76500
H  -6.70000 25.34900 21.21800
H  -3.78200 25.96400 21.20300
H  -5.40600 22.87100 21.43700
H  -4.30400 23.82400 20.42500
H  -6.06300 23.78500 19.95600
H  -4.86900 28.39100 21.76700
H  -6.35900 27.72900 21.20000
H  -4.06400 27.39300 19.26500
H  -4.71500 29.00400 19.57900
H  -5.78100 27.64700 19.00300
H  -2.09000 29.96000 24.38200
H  -0.83100 28.57700 24.48400
H  -0.96400 29.72300 25.72000
H  -3.74200 28.25700 30.15600
H  -1.28800 26.59500 33.20100
H  -0.70100 28.16800 32.84000
H  -0.03700 26.77600 31.91300

