158

Mg 47.47600 24.18300 27.76400
C  47.91400 26.48700 30.50100
C  46.72500 21.84800 30.12000
C  47.41600 21.93200 25.34800
C  48.59300 26.64000 25.58700
N  47.44200 24.20200 30.09400
C  47.42300 25.24800 30.95200
C  47.09300 24.86100 32.39700
C  46.74300 23.27600 32.25800
C  46.95200 23.10000 30.72700
C  47.42100 22.28500 33.30500
C  46.00600 25.73200 33.07300
C  46.33900 26.06700 34.58600
H  45.16000 26.11800 35.52200
N  47.05700 22.18100 27.66300
C  46.78200 21.40900 28.77600
C  46.45000 20.08900 28.33600
C  46.59400 20.04800 26.92400
C  47.03600 21.38500 26.55300
C  46.03900 18.88000 29.29000
C  46.41300 18.86300 25.93100
O  46.50600 18.94800 24.72500
C  46.08000 17.45700 26.43600
N  47.95600 24.27000 25.80200
C  47.79900 23.25300 24.97400
C  48.36000 23.58100 23.53200
C  48.51800 25.12900 23.62300
C  48.33800 25.37900 25.06900
C  49.67300 22.86900 23.07700
C  47.41500 25.85300 22.78600
C  46.06600 26.01200 23.46600
N  48.33300 26.07100 27.94700
C  48.60300 27.00100 26.94700
C  49.05200 28.21000 27.57200
C  48.81100 28.09600 28.97400
C  48.33700 26.75000 29.14000
C  49.61100 29.44900 26.97000
C  48.79800 28.76700 30.31900
O  49.19700 29.90900 30.66800
C  48.18500 27.76400 31.33600
C  49.03200 27.47400 32.53000
O  49.94500 26.73700 32.56700
O  48.66200 28.19100 33.60900
C  49.46400 28.25700 34.82100
H  46.29200 21.13500 30.82400
H  47.39500 21.18100 24.55500
H  48.85900 27.43400 24.88700
H  48.02600 24.85100 32.96000
H  45.67500 23.06400 32.31500
H  46.52700 21.76200 33.64700
H  48.09500 22.58000 34.10900
H  47.90800 21.55200 32.66300
H  45.04400 25.22300 33.12300
H  45.71300 26.64600 32.55800
H  46.81500 27.03400 34.75000
H  47.02000 25.28700 34.92800
H  46.60900 18.00300 28.98400
H  44.96200 18.72100 29.22800
H  46.34500 19.11600 30.30900
H  45.93200 16.72900 25.63800
H  45.15800 17.56700 27.00700
H  47.00000 17.21000 26.96600
H  47.61400 23.26700 22.80100
H  49.47500 25.48400 23.24300
H  49.58500 22.08700 22.32300
H  50.05200 22.36300 23.96500
H  50.38800 23.61800 22.73900
H  47.34200 25.15200 21.95500
H  47.87500 26.82800 22.61900
H  45.99300 25.23300 24.22500
H  45.34600 25.69000 22.71400
H  45.82100 27.00400 23.84400
H  48.93000 30.28800 27.11600
H  49.93500 29.41600 25.93000
H  50.47200 29.76400 27.56100
H  47.22500 28.11300 31.71800
H  50.39000 27.69000 34.72000
H  48.93700 27.63600 35.54500
H  49.68100 29.24200 35.23500
Mg 46.81900 44.45400 42.18400
C  43.38800 43.51400 42.09700
C  47.62200 41.03100 42.00200
C  49.93900 45.25400 41.76100
C  45.75500 47.79600 41.76100
N  45.58800 42.51100 41.91700
C  44.20000 42.38700 41.97100
C  43.72000 40.92900 41.90000
C  45.05300 40.08200 42.01300
C  46.22800 41.23000 41.91200
C  45.23400 39.10500 43.23600
C  42.84400 40.60900 40.59000
C  43.11000 41.46300 39.29700
H  43.20300 40.60600 38.01000
N  48.56600 43.26900 41.91200
C  48.72800 41.95400 42.03200
C  50.12800 41.67400 41.93300
C  50.85300 42.87100 41.69800
C  49.77500 43.86400 41.79500
C  50.62000 40.27600 42.02000
C  52.33700 42.92600 41.42400
O  53.04700 41.91900 41.56400
C  52.97300 44.19100 40.92100
N  47.76900 46.25500 41.78300
C  49.12100 46.38100 41.82600
C  49.49100 47.81100 41.81200
C  48.12600 48.63100 41.84100
C  47.14000 47.46200 41.77700
C  50.41800 48.23500 43.04500
C  47.93500 49.65600 40.65000
C  47.49700 50.98400 41.11600
N  44.97000 45.50900 41.98700
C  44.69000 46.84100 41.83300
C  43.28500 47.09000 41.93400
C  42.70800 45.82600 42.06600
C  43.79400 44.87600 42.05000
C  42.53100 48.40300 41.93400
C  41.48500 45.11900 42.31600
O  40.33500 45.46900 42.45900
C  41.90900 43.65300 42.35000
C  41.54800 43.01200 43.53400
O  40.77800 42.06000 43.65300
O  42.03200 43.76900 44.58500
C  41.98600 43.13900 45.90300
H  47.90500 39.98200 42.11200
H  50.97800 45.59000 41.76800
H  45.38900 48.82400 41.70800
H  43.25800 40.63000 42.84100
H  45.10300 39.40500 41.16000
H  46.29100 39.17400 43.49300
H  45.05500 38.08300 42.90400
H  44.61200 39.21900 44.12300
H  41.85400 40.82400 40.99300
H  42.85400 39.54100 40.37100
H  44.02500 42.03700 39.44100
H  42.31400 42.16100 39.03900
H  51.11600 40.07900 41.07000
H  49.86700 39.49600 42.14000
H  51.39500 40.23800 42.78600
H  52.16200 44.61000 40.32600
H  53.71700 43.96600 40.15800
H  53.33000 44.83300 41.72600
H  50.03800 47.93600 40.87800
H  47.94500 49.13300 42.79200
H  51.32000 48.61600 42.56700
H  50.70300 47.43300 43.72700
H  49.98900 49.01500 43.67400
H  47.13400 49.30600 39.99900
H  48.80700 49.74000 40.00300
H  46.60400 51.30400 40.57900
H  48.32400 51.64900 40.86900
H  47.19300 51.07100 42.15900
H  41.90100 48.48600 42.82000
H  42.00600 48.47000 40.98100
H  43.26200 49.21100 41.96900
H  41.44300 43.15900 41.49700
H  40.94000 42.92300 46.12200
H  42.53600 43.80100 46.57100
H  42.55200 42.21200 45.99200

