158

Mg 44.05800 3.50300 47.95200
C  42.07700 6.26800 47.27900
C  41.23500 1.48200 47.63700
C  46.06600 0.64800 47.87800
C  46.88100 5.42200 47.58900
N  42.00400 3.85800 47.55800
C  41.37000 5.08800 47.38000
C  39.86300 4.93600 47.31200
C  39.57800 3.44600 47.54500
C  41.05300 2.87400 47.54600
C  38.89100 3.10600 48.87100
C  39.18600 5.52900 46.04800
C  39.62400 4.93000 44.68800
H  39.57900 5.87600 43.51100
N  43.74000 1.35000 47.79700
C  42.48600 0.77600 47.79100
C  42.65600 -0.63300 47.61000
C  44.04800 -0.88300 47.45000
C  44.70100 0.40300 47.67300
C  41.52900 -1.59000 47.59100
C  44.76300 -2.19700 47.17700
O  44.16300 -3.28300 47.17800
C  46.18500 -2.20900 46.82100
N  46.18700 3.16800 47.51500
C  46.72300 1.89200 47.84500
C  48.19500 1.96500 48.23600
C  48.51700 3.53000 48.05400
C  47.08600 4.10700 47.73600
C  48.42400 1.47100 49.75200
C  49.54400 3.85000 46.97200
C  50.96900 4.07700 47.45400
N  44.49200 5.46700 47.50100
C  45.69600 6.15900 47.46200
C  45.37000 7.58700 47.50600
C  44.00300 7.67100 47.34300
C  43.48900 6.37300 47.38700
C  46.44700 8.63400 47.64100
C  42.95900 8.56400 47.15400
O  42.97300 9.75200 47.05600
C  41.63100 7.69100 47.17400
C  40.95300 8.14900 48.32500
O  41.38000 8.05400 49.47400
O  39.70800 8.59200 47.95800
C  38.80800 9.08000 49.02100
H  40.28900 0.93600 47.64700
H  46.79100 -0.12900 48.12800
H  47.72600 6.09300 47.75300
H  39.58400 5.58800 48.13900
H  39.06800 3.00700 46.68800
H  37.96600 2.58400 48.62400
H  38.67000 3.99800 49.45800
H  39.44100 2.46100 49.55600
H  39.33000 6.60900 46.07500
H  38.14000 5.28300 46.22900
H  39.03000 4.04600 44.45600
H  40.67500 4.64400 44.73500
H  41.32600 -1.87800 46.56000
H  40.63700 -1.06900 47.94000
H  41.87800 -2.39700 48.23500
H  46.88100 -2.54500 47.58900
H  46.36900 -1.24200 46.35200
H  46.32300 -2.84000 45.94200
H  48.80300 1.32900 47.59100
H  48.80000 4.08100 48.95100
H  48.60000 0.39600 49.69800
H  47.59200 1.78000 50.38400
H  49.33900 1.98100 50.05200
H  49.08400 4.66600 46.41400
H  49.69000 2.93000 46.40600
H  51.65100 3.26700 47.19400
H  50.95200 4.26200 48.52800
H  51.30200 5.01100 47.00200
H  47.14000 8.47200 48.46700
H  46.12800 9.67600 47.68100
H  46.98800 8.63700 46.69400
H  41.09700 7.99600 46.27400
H  38.02000 8.32700 49.03600
H  38.42700 10.02000 48.62100
H  39.28600 9.24000 49.98800
Mg 7.01100 57.20500 41.73300
C  5.93600 53.75900 41.84600
C  9.89400 56.12200 40.21100
C  7.72100 60.49700 41.16600
C  3.75400 58.03200 42.65500
N  7.77700 55.12200 41.12500
C  7.24600 53.86900 41.21400
C  8.15400 52.78300 40.62500
C  9.55600 53.56900 40.56700
C  9.03600 55.03900 40.62100
C  10.54500 53.30300 41.70000
C  7.54800 52.34200 39.28000
C  7.48900 50.91800 38.88900
H  6.48400 50.44800 37.83700
N  8.69700 58.20400 40.88600
C  9.77300 57.54100 40.33500
C  10.61900 58.55200 39.83000
C  10.02700 59.84300 40.08400
C  8.71700 59.55300 40.72700
C  12.08900 58.21900 39.35400
C  10.71900 61.20800 39.92600
O  11.69500 61.34500 39.19200
C  10.05200 62.43000 40.31500
N  5.91700 58.97600 41.75800
C  6.44700 60.21300 41.70200
C  5.52400 61.34900 42.08000
C  4.23000 60.50100 42.38600
C  4.65600 59.05400 42.23700
C  6.12400 62.31000 43.13600
C  3.04500 60.87300 41.49700
C  2.18800 62.06700 42.10300
N  5.19600 56.13600 42.26900
C  3.99500 56.66500 42.62800
C  3.14200 55.60400 43.09900
C  3.91600 54.44700 42.81000
C  5.14800 54.78000 42.24100
C  1.67400 55.72000 43.73700
C  3.98700 52.99700 43.04800
O  3.24700 52.26500 43.65300
C  5.33300 52.45800 42.25500
C  4.83900 51.51500 41.14900
O  4.21200 51.76000 40.16500
O  5.05200 50.19300 41.57500
C  4.29300 49.11700 40.98000
H  10.86600 55.83000 39.80800
H  7.88600 61.56400 41.00100
H  2.86500 58.28600 43.23500
H  8.26300 51.92800 41.29400
H  10.15600 53.53100 39.65800
H  11.54500 53.04200 41.35600
H  10.08000 52.40300 42.10100
H  10.45800 54.09500 42.44300
H  8.16000 52.78600 38.49500
H  6.61600 52.89700 39.16900
H  7.15700 50.34000 39.75200
H  8.49100 50.66500 38.54300
H  12.01400 58.50400 38.30500
H  12.41000 57.21100 39.61600
H  12.75500 58.80500 39.98800
H  9.19300 62.62000 39.67200
H  10.77900 63.23800 40.24400
H  9.68200 62.25900 41.32600
H  5.41100 61.97400 41.19300
H  4.01000 60.67900 43.43900
H  7.20500 62.17600 43.16900
H  5.81600 62.07900 44.15600
H  5.90500 63.37200 43.02800
H  2.40000 60.00000 41.59100
H  3.32700 61.17700 40.48900
H  1.31300 61.52900 42.46800
H  1.92000 62.95300 41.52700
H  2.65300 62.41800 43.02400
H  1.68700 55.50200 44.80500
H  1.00200 55.02400 43.23500
H  1.36700 56.74600 43.53400
H  5.91300 51.91900 43.00500
H  3.99400 48.51400 41.83800
H  5.04100 48.55800 40.41800
H  3.42900 49.41900 40.38900

