158

Mg 54.43400 24.46700 44.55900
C  51.60900 26.34400 43.91700
C  52.66100 21.64300 43.64600
C  57.30500 22.80300 44.21100
C  56.15800 27.47200 45.19900
N  52.39600 24.10000 43.88400
C  51.39300 25.00700 43.65200
C  50.09000 24.30900 43.21500
C  50.38700 22.78400 43.48700
C  51.90400 22.80700 43.75800
C  49.56600 22.24400 44.63100
C  49.75900 24.60700 41.77000
C  48.33500 25.07500 41.45500
H  47.92600 25.37600 40.01400
N  54.92300 22.49300 43.94000
C  54.06700 21.47400 43.65400
C  54.77300 20.28100 43.33100
C  56.11100 20.53400 43.52900
C  56.20000 21.98300 43.90800
C  54.13600 19.01800 42.70600
C  57.25100 19.55600 43.40500
O  57.08800 18.38600 43.06800
C  58.66900 19.92700 43.84100
N  56.44200 25.13400 44.37700
C  57.48200 24.21700 44.33000
C  58.84400 24.93600 44.64200
C  58.47500 26.37800 44.79100
C  56.89400 26.34300 44.83200
C  59.64500 24.47500 45.87700
C  58.99900 27.40400 43.73000
C  59.80800 28.63800 44.34100
N  53.95000 26.45800 44.86000
C  54.71200 27.60200 45.10800
C  53.87900 28.76600 45.19300
C  52.64000 28.31100 44.73900
C  52.75500 26.89900 44.54300
C  54.20300 30.17100 45.61700
C  51.28500 28.76700 44.50400
O  50.74000 29.85600 44.59900
C  50.63600 27.50000 43.85500
C  50.06900 28.00500 42.48800
O  50.79000 28.31400 41.53400
O  48.69700 28.28700 42.58500
C  48.04300 28.92500 41.41400
H  52.13200 20.69000 43.57400
H  58.30700 22.36900 44.18400
H  56.69600 28.36700 45.52000
H  49.27800 24.68600 43.83600
H  50.24400 22.13500 42.62400
H  48.52900 22.58200 44.63400
H  49.93200 22.26800 45.65700
H  49.40400 21.18100 44.45600
H  49.94000 23.73800 41.13700
H  50.42000 25.38900 41.39600
H  48.15500 25.95300 42.07600
H  47.75800 24.19600 41.74200
H  54.36100 18.07700 43.20900
H  54.51300 19.01600 41.68400
H  53.05300 19.12100 42.65000
H  59.06700 20.75500 43.25400
H  59.20000 18.97500 43.81100
H  58.52000 20.14600 44.89800
H  59.46300 24.85000 43.74900
H  58.63000 26.80200 45.78300
H  59.11500 23.77500 46.52400
H  59.97700 25.29500 46.51300
H  60.54800 24.02500 45.46500
H  58.07700 27.78100 43.28800
H  59.57200 26.90700 42.94700
H  60.81800 28.69200 43.93400
H  59.98100 28.63900 45.41700
H  59.26600 29.55900 44.12500
H  53.69300 30.80300 44.89000
H  55.28500 30.22400 45.49900
H  53.86800 30.49400 46.60300
H  49.79200 27.23500 44.49200
H  47.71800 29.95500 41.56100
H  47.12500 28.34700 41.31500
H  48.63900 29.07000 40.51200
Mg 5.89900 55.27100 39.96200
C  4.83300 52.02700 39.98000
C  9.19100 54.20300 39.15300
C  6.97000 58.54900 39.35500
C  2.75500 56.38100 40.17900
N  6.88900 53.39000 39.60300
C  6.23200 52.13700 39.71600
C  7.20600 51.07300 39.03700
C  8.61200 51.70900 39.36100
C  8.19300 53.19600 39.37200
C  9.31900 51.13400 40.62300
C  6.95400 50.90500 37.51400
C  7.04500 49.41100 37.05700
H  6.70200 49.00300 35.63600
N  7.89200 56.26900 39.56100
C  9.03100 55.63300 39.22900
C  10.07300 56.68400 39.04000
C  9.45200 57.94900 39.21800
C  8.03600 57.59200 39.44100
C  11.50700 56.41100 38.70900
C  10.10300 59.34300 39.20900
O  11.32300 59.40500 39.25800
C  9.28900 60.72000 39.28500
N  4.92900 57.19000 39.71100
C  5.56900 58.44000 39.53300
C  4.67400 59.63400 39.78900
C  3.33600 58.90600 39.98900
C  3.64000 57.40200 39.89800
C  5.02400 60.45200 41.07200
C  2.13500 59.31000 39.06800
C  0.79600 59.79100 39.65900
N  4.04700 54.43700 40.17800
C  2.84300 55.04500 40.33500
C  1.83400 54.04300 40.50600
C  2.57600 52.78900 40.46400
C  3.90400 53.12200 40.17900
C  0.35000 54.20000 40.67400
C  2.46500 51.39000 40.54200
O  1.47800 50.75400 40.93200
C  3.86800 50.82500 40.11200
C  3.61300 50.07800 38.86000
O  3.57100 50.57200 37.75800
O  3.33800 48.75800 39.25200
C  3.22000 47.98300 38.05000
H  10.16000 53.82500 38.82100
H  7.17400 59.60500 39.16600
H  1.71000 56.67500 40.30000
H  7.14600 50.09200 39.50900
H  9.30500 51.39700 38.58000
H  8.80900 50.29900 41.10300
H  9.09900 51.99800 41.25000
H  10.39900 51.01300 40.54500
H  7.65600 51.39900 36.84200
H  5.98700 51.29800 37.19800
H  6.39500 48.75700 37.63900
H  8.03400 49.06300 37.35400
H  11.61700 55.41700 38.27500
H  12.22300 56.36700 39.53000
H  11.93700 57.21400 38.11100
H  8.76100 60.86100 38.34200
H  10.12600 61.36600 39.54900
H  8.58800 60.84300 40.11000
H  4.68200 60.34700 38.96400
H  2.96700 59.01700 41.00800
H  4.33500 60.23000 41.88600
H  4.91100 61.51900 40.87900
H  5.99200 60.21400 41.51300
H  1.91300 58.44700 38.44000
H  2.46500 60.12200 38.42100
H  0.75000 59.54400 40.72000
H  0.07000 59.15500 39.15200
H  0.53600 60.83800 39.50500
H  -0.13400 54.76800 39.87900
H  0.16100 54.70300 41.62200
H  -0.02100 53.17600 40.62500
H  4.18000 50.19900 40.94900
H  2.28700 48.25400 37.55500
H  3.18000 46.90200 38.17600
H  4.06100 48.18400 37.38600

