158

Mg 44.39900 4.15300 47.11300
C  42.63300 7.16500 47.50400
C  41.44400 2.67500 46.32400
C  46.10100 1.33900 46.37400
C  47.31200 6.07300 46.90100
N  42.28100 4.93000 46.78000
C  41.76800 6.14300 47.05700
C  40.24400 6.19200 46.70200
C  39.93300 4.70900 46.28200
C  41.26900 4.08100 46.58500
C  38.60700 4.11100 47.00000
C  39.91200 7.12000 45.53200
C  40.74800 7.14800 44.16700
H  39.97400 6.96500 42.85200
N  43.81500 2.19400 46.56800
C  42.54400 1.80000 46.32100
C  42.54700 0.41300 45.97400
C  43.84800 -0.11600 45.90000
C  44.68000 1.13900 46.27300
C  41.26000 -0.37000 45.60300
C  44.36300 -1.49000 45.64800
O  43.55800 -2.42500 45.50800
C  45.80800 -1.83100 45.69300
N  46.34700 3.80200 46.48700
C  46.84000 2.50300 46.48300
C  48.40300 2.55000 46.41200
C  48.75500 4.01000 46.68500
C  47.42900 4.69400 46.66000
C  49.08200 1.49500 47.35500
C  49.72100 4.64800 45.58400
C  51.13100 4.70900 46.15900
N  44.92300 6.20600 47.18400
C  46.12000 6.80700 47.14000
C  45.98300 8.24700 47.42500
C  44.59600 8.44300 47.57900
C  44.01800 7.16300 47.37100
C  47.09600 9.26900 47.62400
C  43.54300 9.44100 47.79200
O  43.60300 10.66300 47.89800
C  42.25000 8.58200 47.67300
C  41.54100 8.78400 48.91200
O  41.52900 8.07800 49.95000
O  40.91600 10.03200 48.81700
C  40.15700 10.48000 49.92900
H  40.52400 2.12100 46.12600
H  46.74000 0.45600 46.31500
H  48.16800 6.74200 47.00400
H  39.69900 6.59800 47.55400
H  39.74800 4.48700 45.23100
H  38.07900 4.80300 47.65600
H  38.86900 3.24500 47.60900
H  37.82100 3.94200 46.26300
H  39.95300 8.13500 45.92600
H  38.88500 7.00500 45.18400
H  41.45300 6.31700 44.14600
H  41.41800 8.00700 44.17300
H  40.27100 0.03500 45.81700
H  41.21300 -1.38500 45.99700
H  41.31800 -0.38600 44.51500
H  46.05000 -2.89200 45.63800
H  46.03600 -1.42500 46.67900
H  46.39200 -1.31700 44.93000
H  48.67400 2.29300 45.38900
H  48.98100 4.13800 47.74400
H  48.35900 1.12100 48.08000
H  49.93000 1.79400 47.97100
H  49.38200 0.57900 46.84600
H  49.32500 5.59400 45.21400
H  49.67700 4.07900 44.65500
H  51.73800 3.91500 45.72500
H  51.09600 4.47500 47.22300
H  51.59800 5.64600 45.85500
H  47.89500 9.13600 46.89500
H  47.64600 9.10500 48.55100
H  46.68900 10.27900 47.57300
H  41.75700 9.02200 46.80600
H  39.67400 9.63300 50.41600
H  39.45600 11.26900 49.65200
H  40.88800 10.87600 50.63300
Mg -12.34700 16.73100 41.60200
C  -9.41700 14.79200 41.34200
C  -10.82300 19.25800 39.96700
C  -15.32000 18.15300 41.22900
C  -13.93900 13.62300 42.63700
N  -10.44600 16.94000 40.53300
C  -9.38800 16.08400 40.73400
C  -8.10400 16.66500 40.00400
C  -8.54000 18.11200 39.68400
C  -10.02000 18.11500 40.19100
C  -7.65800 19.27600 40.26100
C  -7.62500 15.84900 38.79500
C  -6.13700 16.16100 38.34600
H  -6.03000 16.55700 36.87500
N  -13.00200 18.58000 40.91900
C  -12.21500 19.49100 40.24500
C  -12.93400 20.66000 39.93100
C  -14.27400 20.37400 40.31500
C  -14.21800 19.01700 40.87400
C  -12.38100 21.97000 39.41200
C  -15.48300 21.29100 40.14200
O  -15.39200 22.45700 39.78600
C  -16.81200 20.81900 40.60100
N  -14.26800 15.91600 41.92100
C  -15.33700 16.81200 41.76200
C  -16.70300 16.11700 41.87500
C  -16.26500 14.72500 42.22900
C  -14.72700 14.72900 42.24500
C  -17.52900 16.87900 43.00400
C  -16.90100 13.59100 41.38100
C  -17.99500 12.80600 42.11500
N  -11.80300 14.63000 42.04300
C  -12.52200 13.54900 42.43600
C  -11.69500 12.39800 42.57600
C  -10.40000 12.84100 42.19800
C  -10.51200 14.23300 41.88500
C  -12.13100 10.99400 43.12200
C  -9.06600 12.46100 42.02400
O  -8.55000 11.41500 42.23600
C  -8.31800 13.65000 41.42900
C  -7.12900 14.03200 42.23400
O  -7.13900 14.42100 43.42300
O  -5.92700 13.85800 41.46900
C  -4.70200 14.30700 42.17800
H  -10.31200 20.12300 39.53800
H  -16.32700 18.44400 40.92300
H  -14.43800 12.66500 42.79800
H  -7.20600 16.64400 40.62200
H  -8.70000 18.29500 38.62100
H  -6.74400 18.87100 40.69500
H  -8.06800 19.77500 41.13800
H  -7.36800 20.03200 39.53100
H  -8.11900 16.11100 37.85900
H  -7.79500 14.78400 38.94800
H  -5.53900 15.26500 38.51000
H  -5.65400 16.82500 39.06400
H  -13.08800 22.49600 38.77100
H  -11.49000 21.68300 38.85500
H  -12.12700 22.67600 40.20200
H  -16.62000 20.54000 41.63700
H  -17.10100 19.96300 39.99200
H  -17.71900 21.41300 40.70800
H  -17.17900 16.16400 40.89600
H  -16.47800 14.56400 43.28600
H  -17.82600 16.21300 43.81400
H  -18.42900 17.11100 42.43300
H  -17.07800 17.74700 43.48300
H  -16.06000 12.91400 41.22900
H  -17.31400 13.89400 40.41800
H  -17.67300 11.82100 42.45400
H  -18.95300 12.74400 41.59800
H  -18.38600 13.27700 43.01600
H  -11.74500 10.28000 42.39400
H  -13.21500 10.97300 43.22900
H  -11.61600 10.78100 44.05900
H  -7.98400 13.22600 40.48200
H  -4.31700 13.46700 42.75600
H  -4.78800 15.23500 42.74200
H  -3.98000 14.47700 41.38000

