158

Mg 6.20000 54.00600 40.34600
C  5.95500 50.45300 40.29900
C  9.53500 53.60500 39.32300
C  6.29200 57.23700 39.64100
C  2.75500 54.16900 40.96800
N  7.56300 52.21600 39.90800
C  7.22000 50.91000 39.99100
C  8.44200 50.06400 39.59100
C  9.61600 51.05900 39.55700
C  8.86400 52.39600 39.61300
C  10.80200 50.93900 40.59600
C  8.32300 49.15100 38.35800
C  7.81900 49.78400 37.07000
H  6.69300 49.02800 36.35800
N  7.72500 55.29200 39.64100
C  8.99500 54.92400 39.41100
C  9.79400 56.11400 39.12500
C  8.96400 57.23100 39.29300
C  7.60000 56.63900 39.48400
C  11.28900 56.12900 38.87000
C  9.41300 58.76400 39.17700
O  10.55600 59.02900 38.92800
C  8.38400 59.81700 39.34500
N  4.74300 55.43300 40.10800
C  5.02100 56.74300 39.91900
C  3.86000 57.64400 40.23200
C  2.66100 56.68200 40.43600
C  3.42900 55.35400 40.54600
C  4.13100 58.41800 41.53100
C  1.50900 56.82900 39.38400
C  0.11700 57.13900 39.84700
N  4.59800 52.64200 40.62800
C  3.26200 52.88700 41.01000
C  2.66900 51.60700 41.25200
C  3.64400 50.64500 41.06100
C  4.79400 51.31400 40.58300
C  1.33600 51.44100 41.82300
C  3.94000 49.31500 41.25500
O  3.36100 48.42600 41.84600
C  5.32900 49.07800 40.66800
C  5.09100 48.23100 39.50500
O  4.27700 48.37700 38.60500
O  5.86500 47.11000 39.61100
C  5.55100 45.92100 38.89100
H  10.61400 53.52700 39.17800
H  6.39600 58.30300 39.42800
H  1.72600 54.40900 41.24500
H  8.57400 49.38600 40.43400
H  9.99900 51.05600 38.53700
H  11.77400 50.95200 40.10400
H  10.69900 50.08900 41.27100
H  10.77900 51.76100 41.31000
H  7.96900 48.15700 38.63100
H  9.36900 48.97900 38.10300
H  8.54400 49.75000 36.25600
H  7.49700 50.80200 37.29200
H  11.47400 56.58200 37.89500
H  11.66700 55.10800 38.90400
H  11.74000 56.72600 39.66300
H  8.00600 59.77200 40.36600
H  7.56400 59.75800 38.63000
H  8.85400 60.78700 39.18500
H  3.72000 58.34200 39.40600
H  2.16000 56.87200 41.38500
H  3.48000 58.26100 42.39100
H  4.03300 59.47900 41.30000
H  5.17400 58.24500 41.79500
H  1.41900 55.81300 39.00000
H  1.77000 57.47000 38.54200
H  -0.59400 56.39800 39.48300
H  -0.20400 58.09900 39.44200
H  -0.10100 57.07600 40.91300
H  0.72100 51.15300 40.97100
H  1.12600 52.34100 42.40100
H  1.26100 50.61400 42.52900
H  5.86900 48.48700 41.40700
H  5.76500 45.91100 37.82200
H  4.50000 45.63400 38.91700
H  5.98600 45.09600 39.45500
Mg -9.67400 17.37800 42.43300
C  -6.20400 17.28200 42.54800
C  -9.49500 20.73000 41.96800
C  -13.11200 17.41800 42.14100
C  -9.81700 13.96300 42.94600
N  -7.98500 18.84200 42.28900
C  -6.70200 18.57300 42.36000
C  -5.82400 19.81300 42.32300
C  -6.89500 20.92600 42.39900
C  -8.24800 20.13300 42.27500
C  -6.70700 21.86700 43.61800
C  -4.92800 20.01600 41.07800
C  -5.47300 19.81000 39.70900
H  -4.97400 18.76200 38.76900
N  -11.11000 18.86400 41.96500
C  -10.78000 20.15500 41.71300
C  -12.01100 20.86700 41.40200
C  -13.17000 19.97000 41.62900
C  -12.48800 18.64600 41.88500
C  -12.08600 22.39100 41.13700
C  -14.58400 20.32500 41.60000
O  -14.91600 21.45500 41.17500
C  -15.71400 19.38700 42.00500
N  -11.31900 15.79200 42.27800
C  -12.61400 16.13400 42.36300
C  -13.50400 14.84500 42.71900
C  -12.34100 13.85200 43.19400
C  -11.10400 14.58800 42.73400
C  -14.58100 15.11400 43.74600
C  -12.39900 12.42200 42.42000
C  -12.31400 11.18400 43.34400
N  -8.30500 15.89500 42.68900
C  -8.50100 14.51900 42.74600
C  -7.22200 13.90600 42.84500
C  -6.27100 14.92700 42.79600
C  -6.99000 16.11600 42.70000
C  -6.89800 12.48600 42.94500
C  -4.85100 15.24400 42.83900
O  -3.86600 14.54500 42.86900
C  -4.75500 16.73400 42.77500
C  -4.17100 17.27700 43.95300
O  -3.16500 17.95400 44.01700
O  -4.85300 16.82500 45.07700
C  -4.29200 17.29300 46.37800
H  -9.48700 21.82000 41.90300
H  -14.20000 17.33200 42.11300
H  -9.89200 12.93300 43.30200
H  -5.09200 19.88300 43.12800
H  -6.92600 21.58400 41.53000
H  -6.06700 22.69400 43.31200
H  -6.03400 21.41000 44.34400
H  -7.61600 22.21800 44.10600
H  -4.09400 19.35600 41.31900
H  -4.45400 20.99800 41.07700
H  -5.23000 20.79900 39.31900
H  -6.56200 19.83800 39.72200
H  -12.53000 22.81600 42.03700
H  -12.67500 22.61400 40.24700
H  -11.09300 22.73800 40.85300
H  -15.91600 18.61800 41.26000
H  -16.60500 20.00100 42.13800
H  -15.54400 18.92700 42.97900
H  -13.94100 14.35400 41.84900
H  -12.39800 13.69800 44.27200
H  -14.59200 16.12300 44.15800
H  -14.56600 14.51800 44.65800
H  -15.54100 15.07600 43.22900
H  -11.57600 12.52200 41.71300
H  -13.32000 12.41500 41.83600
H  -11.47100 10.58500 43.00100
H  -13.16700 10.50800 43.28900
H  -12.03300 11.41000 44.37300
H  -7.70300 11.76900 43.10600
H  -6.21400 12.30300 43.77400
H  -6.34600 12.19100 42.05300
H  -4.14000 16.93700 41.89800
H  -3.20200 17.29200 46.35000
H  -4.46100 16.52900 47.13600
H  -4.58900 18.27600 46.74200

