158

Mg 1.80700 -1.81700 43.58400
C  5.23500 -0.80200 43.94700
C  1.37500 0.97400 41.62000
C  -1.19900 -2.97800 43.00700
C  2.80300 -4.99400 44.91400
N  3.14600 -0.07000 42.84000
C  4.45300 0.02500 43.15200
C  5.04400 1.26700 42.46000
C  3.81100 1.94300 41.75400
C  2.70500 0.93100 42.03600
C  3.45300 3.35800 42.36200
C  6.21800 1.08700 41.45200
C  6.33500 -0.18700 40.59300
H  6.40800 0.18400 39.08000
N  0.18700 -1.06500 42.56700
C  0.21200 0.09600 41.81700
C  -1.14400 0.34000 41.35400
C  -1.94200 -0.77400 41.66100
C  -1.03100 -1.71900 42.41300
C  -1.46900 1.57200 40.56700
C  -3.42500 -0.98700 41.39900
O  -4.08400 -0.23400 40.70900
C  -4.15600 -2.18200 41.95700
N  0.99200 -3.81100 43.58000
C  -0.33900 -3.93000 43.56200
C  -0.80400 -5.23200 44.22200
C  0.51600 -5.93800 44.50700
C  1.48100 -4.81400 44.38600
C  -1.71500 -4.93400 45.48200
C  0.93500 -7.11600 43.62600
C  0.73700 -8.45900 44.38500
N  3.60600 -2.75700 44.35200
C  3.88100 -4.05300 44.79200
C  5.32200 -4.13700 45.25900
C  5.87800 -2.87200 44.94500
C  4.83400 -2.10100 44.33900
C  5.91000 -5.19100 46.08600
C  7.01900 -1.92400 45.07300
O  8.08900 -2.04600 45.62800
C  6.71400 -0.71400 44.26300
C  6.99000 0.52900 45.01500
O  6.52000 0.77300 46.08400
O  7.78200 1.43100 44.33100
C  7.81700 2.79700 44.89900
H  1.19600 1.86800 41.01800
H  -2.23600 -3.31700 42.95700
H  2.99700 -5.89500 45.49900
H  5.52700 1.88900 43.21400
H  3.96400 2.02500 40.67800
H  4.35000 3.85100 42.73600
H  2.63900 3.40300 43.08600
H  3.18700 4.02100 41.53900
H  7.17300 1.28300 41.94100
H  6.21300 1.89100 40.71700
H  5.46800 -0.81600 40.79500
H  7.24500 -0.64400 40.98200
H  -0.70600 1.77800 39.81700
H  -1.46100 2.43000 41.24000
H  -2.41500 1.41000 40.05000
H  -5.22600 -2.15900 41.75000
H  -4.09300 -2.06100 43.03800
H  -3.69800 -3.09900 41.58500
H  -1.45000 -5.77000 43.52800
H  0.43500 -6.24700 45.54900
H  -1.47700 -5.54700 46.35100
H  -2.72900 -5.22400 45.20500
H  -1.60500 -3.87200 45.70200
H  2.00000 -7.05000 43.40300
H  0.51200 -7.15000 42.62200
H  -0.02800 -8.38000 45.15700
H  1.70100 -8.70700 44.82800
H  0.44200 -9.32400 43.79200
H  6.28500 -5.98200 45.43700
H  5.11000 -5.57800 46.71800
H  6.79500 -4.88000 46.64100
H  7.45100 -0.77500 43.46200
H  6.84800 3.26300 44.72300
H  8.62400 3.36600 44.43600
H  8.07800 2.74200 45.95600
Mg 8.02600 2.43200 27.93200
C  9.34000 1.24300 31.00500
C  6.21800 4.68700 29.77000
C  6.66100 3.27300 25.10300
C  9.79600 -0.10900 26.29500
N  7.46100 2.72400 30.26400
C  8.35800 2.29800 31.26100
C  8.07300 2.98600 32.62000
C  6.84400 3.93400 32.28300
C  6.80200 3.83000 30.67700
C  5.38700 3.63000 32.92200
C  9.30800 3.77500 33.09100
C  9.13000 4.74500 34.22900
H  10.09800 4.60100 35.42300
N  6.59900 3.79700 27.48400
C  5.95500 4.64900 28.37900
C  4.98100 5.44100 27.60000
C  5.16900 5.08400 26.20900
C  6.15500 3.97200 26.21700
C  4.13400 6.47000 28.28100
C  4.48200 5.57300 24.95800
O  4.70000 5.25100 23.78800
C  3.34800 6.54300 25.13400
N  8.13500 1.66400 25.88700
C  7.48300 2.20100 24.89700
C  7.77400 1.55500 23.53800
C  9.04500 0.68900 23.82000
C  9.04500 0.75800 25.44000
C  6.49200 0.78900 23.20100
C  10.37000 1.27800 23.20400
C  11.24600 2.14100 24.11700
N  9.23400 0.90800 28.45400
C  9.89100 -0.02600 27.67700
C  10.88500 -0.78200 28.46600
C  10.71500 -0.31900 29.78700
C  9.67600 0.65800 29.73500
C  11.86500 -1.84600 27.96300
C  11.14900 -0.46300 31.06200
O  11.95500 -1.28600 31.48500
C  10.28700 0.53600 31.97300
C  9.78000 -0.21800 33.15200
O  9.36700 -1.36100 33.14100
O  9.78100 0.57800 34.26700
C  9.04000 0.02800 35.42300
H  5.87700 5.55700 30.33500
H  6.31100 3.58600 24.11700
H  10.53500 -0.76800 25.83700
H  7.72800 2.22100 33.31600
H  7.12100 4.97600 32.43800
H  4.71400 3.34000 32.11600
H  5.07000 4.42900 33.59200
H  5.43000 2.88900 33.72000
H  9.75300 4.33100 32.26500
H  10.19600 3.20500 33.36500
H  8.11100 4.67300 34.61100
H  9.20700 5.67600 33.66900
H  4.31400 7.42800 27.79400
H  4.29600 6.50900 29.35800
H  3.07700 6.25900 28.12300
H  2.75300 6.59400 24.22200
H  3.66600 7.56200 25.35200
H  2.75000 6.14200 25.95200
H  7.86300 2.27100 22.72200
H  8.84200 -0.27500 23.35400
H  5.77400 0.90200 24.01300
H  6.48100 -0.28100 22.99600
H  6.10100 1.32100 22.33400
H  10.08700 2.00600 22.44400
H  10.93000 0.48900 22.70200
H  11.60000 2.89900 23.41800
H  12.07400 1.50400 24.42900
H  10.78400 2.46900 25.04800
H  11.28100 -2.66600 27.54500
H  12.50000 -2.21500 28.76900
H  12.53900 -1.55600 27.15800
H  11.00900 1.24600 32.37700
H  7.95200 0.08900 35.40100
H  9.55900 0.62900 36.16900
H  9.39400 -1.00100 35.48400

