158

Mg 9.06400 4.03000 27.70900
C  10.19400 2.52500 30.66800
C  6.80800 5.80800 29.55600
C  7.81400 5.27700 24.80400
C  10.81800 1.55900 25.89000
N  8.45800 3.99200 29.82900
C  9.10500 3.31500 30.87100
C  8.62800 3.83600 32.26200
C  7.29100 4.60300 31.82700
C  7.44400 4.79800 30.29700
C  5.94000 3.96200 32.24900
C  9.73800 4.70400 32.98900
C  9.91600 4.51400 34.52100
H  11.23300 4.82300 35.22300
N  7.60100 5.46300 27.27600
C  6.81100 6.16400 28.16700
C  6.06100 7.17200 27.46300
C  6.36600 7.03800 26.06500
C  7.31200 5.90900 26.02900
C  5.06800 8.04000 28.14000
C  5.74200 7.79100 24.79700
O  6.04700 7.48200 23.65100
C  4.83900 8.97500 25.09800
N  9.12500 3.46000 25.68600
C  8.60000 4.18100 24.66900
C  9.14600 3.73100 23.26000
C  9.90600 2.38300 23.61200
C  10.03100 2.52900 25.18700
C  7.96400 3.41400 22.31000
C  11.21900 2.22400 22.87700
C  11.42500 0.94600 22.04000
N  10.32800 2.44000 28.13000
C  10.96900 1.52000 27.31400
C  11.76800 0.55100 28.18200
C  11.56200 1.01100 29.44500
C  10.68600 2.14500 29.44100
C  12.58700 -0.60200 27.68900
C  11.91800 0.69400 30.75700
O  12.68700 -0.10800 31.22200
C  11.05600 1.69500 31.67400
C  10.42900 1.00400 32.79500
O  9.40700 0.34400 32.71400
O  11.25700 1.09600 33.88600
C  10.79400 0.39900 35.06400
H  6.09500 6.38300 30.15000
H  7.57200 5.63500 23.80100
H  11.36200 0.85000 25.26300
H  8.42500 2.92000 32.81700
H  7.25700 5.61800 32.22100
H  5.49500 4.61700 32.99700
H  6.15300 3.03500 32.78200
H  5.25600 3.86200 31.40600
H  9.47000 5.72800 32.73000
H  10.69600 4.49200 32.51500
H  9.52000 3.55300 34.84900
H  9.18900 5.27200 34.81200
H  4.07000 7.78000 27.78900
H  5.08900 9.10300 27.89600
H  5.07300 7.99500 29.22900
H  4.53300 9.53000 24.21100
H  5.40600 9.66600 25.72300
H  4.02900 8.65600 25.75300
H  9.77800 4.56900 22.96500
H  9.18300 1.56800 23.60800
H  6.98600 3.64600 22.73100
H  7.86100 2.43800 21.83500
H  8.06000 4.02100 21.41000
H  12.06800 2.20500 23.56000
H  11.24100 3.06200 22.18100
H  11.86200 1.23100 21.08300
H  10.42900 0.51200 21.95500
H  12.17900 0.30500 22.49700
H  13.59300 -0.20700 27.54600
H  12.18600 -0.86500 26.71000
H  12.71100 -1.36000 28.46200
H  11.86300 2.24800 32.15400
H  11.58500 -0.25900 35.42600
H  9.92800 -0.26100 35.01600
H  10.55200 1.10100 35.86100
Mg 30.43700 57.47400 40.94600
C  27.46900 55.57500 39.84000
C  32.34500 54.90400 39.90000
C  32.87000 59.50800 41.37600
C  28.02500 59.94800 41.73600
N  29.91400 55.52100 39.97900
C  28.71100 54.91000 39.62500
C  28.93000 53.45700 39.12500
C  30.47300 53.28100 39.32300
C  30.96400 54.60100 39.80700
C  30.91600 52.15300 40.25200
C  28.47100 53.13600 37.65300
C  28.88700 54.30100 36.68500
H  27.88000 55.30900 36.10500
N  32.41200 57.21800 40.69800
C  33.01900 56.08900 40.25600
C  34.43000 56.28600 40.46100
C  34.60600 57.64500 40.81700
C  33.25500 58.19800 41.01100
C  35.47100 55.12600 40.30000
C  35.91800 58.36100 41.16900
O  37.00700 57.78400 41.00500
C  36.02400 59.71400 41.83500
N  30.42100 59.42400 41.26800
C  31.65800 60.02200 41.50000
C  31.40100 61.54600 41.82300
C  29.88800 61.58600 42.26900
C  29.40800 60.23800 41.71900
C  32.30700 62.26800 42.87000
C  29.05000 62.81200 41.97100
C  28.02700 63.25700 43.06200
N  28.13100 57.71900 40.98800
C  27.35700 58.82700 41.28200
C  25.95400 58.59100 41.10800
C  25.98400 57.32800 40.54900
C  27.29200 56.83700 40.43800
C  24.81500 59.45200 41.51200
C  25.13200 56.25100 39.99700
O  23.91200 56.23000 39.89600
C  26.05200 55.06300 39.62000
C  25.67900 53.90300 40.42600
O  25.54800 53.88100 41.58500
O  25.58100 52.74200 39.64900
C  25.19500 51.56200 40.44800
H  32.94800 54.00800 39.73800
H  33.71600 60.17100 41.57100
H  27.36000 60.75500 42.05000
H  28.42200 52.85300 39.87600
H  30.91500 53.07200 38.34800
H  30.23200 51.33200 40.47100
H  31.06500 52.57400 41.24600
H  31.91500 51.84500 39.94200
H  27.43000 52.82200 37.72500
H  29.05200 52.25300 37.38700
H  29.32400 53.75800 35.84700
H  29.68600 54.93100 37.07600
H  36.47100 55.55700 40.24300
H  35.33600 54.72600 39.29500
H  35.31700 54.25700 40.93900
H  35.73900 60.54400 41.18900
H  37.06100 59.79500 42.16200
H  35.42700 59.60500 42.74000
H  31.50700 62.05400 40.86400
H  29.80100 61.41500 43.34200
H  33.27700 61.82400 43.09500
H  31.70700 62.33000 43.77700
H  32.55100 63.30600 42.64300
H  28.46700 62.65300 41.06400
H  29.68600 63.67100 41.75800
H  28.33700 64.14200 43.61700
H  27.82600 62.56400 43.88000
H  27.04700 63.40000 42.60700
H  24.37300 59.95400 40.65200
H  25.14500 60.34100 42.05100
H  24.07200 58.90300 42.09000
H  25.89900 54.82700 38.56700
H  24.87700 50.86300 39.67500
H  24.35600 51.76300 41.11300
H  26.13600 51.31900 40.94200

