158

Mg 5.35700 54.96200 40.63600
C  4.87800 51.45500 40.78000
C  8.41200 54.63100 39.68300
C  5.26700 58.31400 39.92400
C  1.87000 55.28700 41.49000
N  6.38800 53.24900 40.09900
C  6.10900 51.90100 40.18100
C  7.32200 51.05000 39.71400
C  8.49900 52.12500 39.75900
C  7.67500 53.40900 39.81800
C  9.60700 52.00100 40.87900
C  7.03100 50.41600 38.31800
C  5.99200 51.14200 37.37700
H  6.69800 51.93300 36.28100
N  6.81200 56.44200 40.07000
C  8.03500 56.04500 39.58000
C  8.76900 57.23900 39.20600
C  7.84600 58.39600 39.37100
C  6.56000 57.78700 39.80600
C  10.14800 57.33400 38.64100
C  8.08100 59.84100 39.12600
O  9.10600 60.19200 38.54300
C  7.01200 60.90400 39.40000
N  3.73900 56.59800 40.71200
C  4.02200 57.87200 40.33700
C  2.74800 58.78400 40.36200
C  1.63100 57.74000 40.70300
C  2.43900 56.51600 41.00400
C  2.74500 60.03200 41.24800
C  0.48500 57.46300 39.69900
C  -0.09400 58.67600 38.98800
N  3.64100 53.68600 41.02200
C  2.36300 53.96500 41.45800
C  1.72200 52.71400 41.88700
C  2.62600 51.66700 41.71200
C  3.73700 52.33100 41.13000
C  0.45500 52.51900 42.59100
C  3.01100 50.30000 41.94000
O  2.48700 49.41900 42.61300
C  4.40000 50.04600 41.20400
C  4.28600 49.02500 40.04900
O  3.81000 49.23800 38.97300
O  4.63800 47.83200 40.48100
C  4.31500 46.59900 39.76600
H  9.48300 54.45100 39.57000
H  5.01900 59.35800 39.72400
H  0.84800 55.25900 41.87100
H  7.46200 50.29200 40.48500
H  8.92500 52.11900 38.75600
H  10.58200 51.87300 40.40800
H  9.43500 51.07800 41.43200
H  9.56800 52.86700 41.54000
H  6.68000 49.40000 38.49900
H  7.94900 50.31900 37.73800
H  5.29700 51.78000 37.92400
H  5.39200 50.37800 36.88300
H  10.82500 57.52500 39.47300
H  10.38000 57.91100 37.74500
H  10.43100 56.28400 38.56000
H  6.22700 60.92800 38.64500
H  7.49700 61.87200 39.53200
H  6.48900 60.64900 40.32200
H  2.61800 59.16300 39.34900
H  1.20200 58.05200 41.65500
H  1.78900 60.14900 41.75900
H  2.91900 60.94000 40.67200
H  3.60700 59.97600 41.91300
H  -0.31400 56.96100 40.24500
H  0.91600 56.77500 38.97200
H  0.50300 58.89300 38.10300
H  -0.09800 59.46500 39.74000
H  -1.12800 58.47200 38.71100
H  0.59200 52.13300 43.60100
H  -0.12100 51.77800 42.03600
H  -0.10600 53.44600 42.71500
H  5.06500 49.58600 41.93500
H  4.71400 46.68200 38.75500
H  3.24900 46.45200 39.59500
H  4.69500 45.71400 40.27700
Mg -10.08100 39.78600 39.59700
C  -9.07900 36.57500 38.84600
C  -6.91800 40.86000 38.79100
C  -11.32500 43.10100 39.60400
C  -13.45100 38.60000 39.72900
N  -8.23700 38.82700 38.76900
C  -8.04300 37.48200 38.66300
C  -6.53200 37.15700 38.48700
C  -5.80100 38.48900 38.71600
C  -7.06000 39.46500 38.80600
C  -4.90400 38.63800 40.01400
C  -6.06500 36.39100 37.16200
C  -6.27500 37.05900 35.81200
H  -7.10700 36.34500 34.76900
N  -9.26200 41.79100 39.21000
C  -7.92500 41.92100 38.94700
C  -7.68000 43.38700 38.87600
C  -8.92400 44.04900 38.99000
C  -9.93100 43.00000 39.29100
C  -6.30800 43.92900 38.44900
C  -9.10400 45.56400 38.98500
O  -8.09100 46.19600 38.89600
C  -10.44800 46.12400 39.15500
N  -12.09200 40.71100 39.34900
C  -12.27800 42.04100 39.70600
C  -13.75800 42.26000 39.87700
C  -14.39200 40.90200 39.83300
C  -13.22300 39.96000 39.58200
C  -14.03000 43.01600 41.26000
C  -15.57600 40.62500 38.70400
C  -16.84400 39.92900 39.24800
N  -11.05100 38.01000 39.55600
C  -12.39000 37.67800 39.71800
C  -12.53800 36.22400 39.70100
C  -11.27900 35.77200 39.37100
C  -10.40400 36.89900 39.25600
C  -13.84900 35.44500 39.70500
C  -10.52700 34.61100 38.94600
O  -10.82700 33.44700 38.77500
C  -8.99400 35.08000 38.66300
C  -8.14800 34.39500 39.63900
O  -8.48200 34.30400 40.79800
O  -7.01000 33.81700 39.09800
C  -6.11900 33.28100 40.03800
H  -5.89400 41.23700 38.76300
H  -11.76700 44.05400 39.90100
H  -14.47500 38.23500 39.83900
H  -6.39500 36.39800 39.25700
H  -5.18400 38.60800 37.82500
H  -4.03300 39.03800 39.49600
H  -4.84800 37.63500 40.43800
H  -5.33500 39.30100 40.76500
H  -6.64900 35.47200 37.13400
H  -5.04400 36.02100 37.25600
H  -5.29700 37.12900 35.33500
H  -6.61300 38.09500 35.77700
H  -5.68500 43.15700 37.99600
H  -5.83400 44.36800 39.32700
H  -6.43500 44.73700 37.72900
H  -10.77100 46.31600 40.17800
H  -11.16700 45.49800 38.62700
H  -10.42100 46.97000 38.46700
H  -14.30900 42.92300 39.20900
H  -14.68200 40.50300 40.80600
H  -14.30600 44.06900 41.20300
H  -13.16000 42.95600 41.91300
H  -14.87000 42.61400 41.82700
H  -15.09400 39.94300 38.00300
H  -15.77500 41.53900 38.14400
H  -16.86500 39.96000 40.33800
H  -16.89800 38.89000 38.92300
H  -17.78600 40.40100 38.96800
H  -14.28300 35.40500 38.70600
H  -14.63200 35.92900 40.29000
H  -13.83200 34.48700 40.22400
H  -8.78200 34.96200 37.60000
H  -6.64700 32.59700 40.70200
H  -5.72400 34.08900 40.65300
H  -5.36300 32.79900 39.41700

