158

Mg 54.02100 24.92500 45.31100
C  51.15600 26.67200 44.11600
C  52.94400 22.12300 43.70400
C  57.10500 23.57900 45.72200
C  55.18600 27.95400 46.65800
N  52.27800 24.55200 44.04900
C  51.25700 25.35600 43.63600
C  50.47400 24.69500 42.50500
C  50.77400 23.15200 42.85900
C  52.08800 23.28700 43.63500
C  49.66700 22.39500 43.73300
C  50.97700 25.17500 41.09400
C  49.83500 25.25500 40.02700
H  50.24400 25.68300 38.69000
N  54.82600 23.03000 44.96200
C  54.22000 22.00900 44.36900
C  55.02900 20.85600 44.42500
C  56.21200 21.19600 45.15200
C  56.09400 22.67700 45.31600
C  54.74700 19.41300 44.05000
C  57.31700 20.23500 45.78200
O  57.31400 19.02200 45.47500
C  58.50100 20.78900 46.54200
N  55.90100 25.72400 45.92800
C  56.97300 24.96800 45.98100
C  58.18700 25.77000 46.28400
C  57.58800 27.18600 46.71900
C  56.12300 26.95500 46.46200
C  59.29500 25.14800 47.18300
C  58.19000 28.34000 45.91400
C  58.20200 29.79900 46.56500
N  53.32800 26.82700 45.57700
C  53.86400 27.92700 46.21000
C  52.93900 29.00400 46.30400
C  51.90400 28.59900 45.42100
C  52.19100 27.21900 45.04300
C  52.99900 30.22700 47.17900
C  50.64700 29.01500 44.73300
O  50.01600 30.07400 44.80600
C  50.09000 27.76500 43.92700
C  49.78000 28.14800 42.56000
O  50.47500 28.80900 41.83800
O  48.49800 27.74000 42.32400
C  47.79900 28.46800 41.18400
H  52.69900 21.21900 43.14300
H  58.08300 23.10200 45.81700
H  55.48000 28.94200 47.01700
H  49.43800 24.97000 42.70600
H  50.78900 22.60900 41.91400
H  48.68900 22.87500 43.76400
H  50.00600 22.53300 44.76000
H  49.54100 21.37100 43.38300
H  51.73000 24.51100 40.66900
H  51.57700 26.08300 41.15900
H  49.21800 25.97300 40.56700
H  49.43100 24.25300 39.88700
H  55.44100 19.21900 43.23200
H  53.72400 19.16900 43.76300
H  54.95500 18.81500 44.93700
H  58.12100 21.54800 47.22700
H  59.15100 21.40100 45.91700
H  59.06600 20.09200 47.16100
H  58.54100 25.90900 45.26200
H  57.66200 27.40100 47.78500
H  58.87800 24.45300 47.91200
H  59.77100 25.83500 47.88200
H  60.08600 24.78700 46.52600
H  57.65100 28.48500 44.97800
H  59.16900 28.10300 45.49700
H  57.68500 29.77500 47.52400
H  57.81300 30.61400 45.95500
H  59.22500 30.03100 46.86000
H  52.04200 30.74900 47.13600
H  53.80800 30.78800 46.71200
H  53.13300 30.02200 48.24200
H  49.14900 27.51800 44.41700
H  48.39000 28.28100 40.28700
H  47.73300 29.54700 41.32900
H  46.81800 27.99400 41.14500
Mg 46.91300 24.53100 28.42600
C  47.48900 26.82900 31.15800
C  46.12400 22.16800 30.68500
C  46.57100 22.38600 25.78800
C  48.76400 26.68900 26.40900
N  46.91800 24.55100 30.66600
C  46.96300 25.57000 31.54300
C  46.50500 25.18400 32.98800
C  46.32100 23.63800 32.78400
C  46.55500 23.38100 31.29900
C  47.17600 22.80600 33.84500
C  45.26400 26.05900 33.48900
C  45.44900 26.69800 34.88900
H  46.19600 25.93600 35.99300
N  46.31100 22.65600 28.26400
C  46.01000 21.85800 29.30900
C  45.66600 20.52900 28.77700
C  45.65300 20.54500 27.37400
C  46.19900 21.89500 27.03900
C  45.43500 19.29900 29.67400
C  45.20400 19.56200 26.36600
O  45.31700 19.68300 25.12500
C  44.54400 18.39700 26.81300
N  47.61500 24.50800 26.39900
C  47.31400 23.55300 25.48100
C  47.80500 23.87400 24.03300
C  48.57500 25.18200 24.35500
C  48.26600 25.55000 25.83100
C  48.72000 22.74800 23.51000
C  48.24900 26.26100 23.27600
C  46.86100 26.92300 23.30200
N  47.97700 26.28500 28.65900
C  48.66500 27.09800 27.74900
C  49.13100 28.32500 28.32000
C  48.53800 28.26200 29.59600
C  47.95200 27.03100 29.82400
C  49.92500 29.48400 27.68300
C  48.37500 29.02200 30.77100
O  48.77100 30.23900 30.89100
C  47.70800 28.12700 31.89000
C  48.65400 27.92500 33.02100
O  49.65600 27.27100 33.02400
O  48.17000 28.72800 34.05100
C  49.00300 28.75000 35.27000
H  45.68800 21.47400 31.40600
H  46.36900 21.66900 24.98900
H  49.37300 27.29900 25.73800
H  47.40200 25.27800 33.60000
H  45.28700 23.33600 32.95400
H  48.10900 22.40500 33.44800
H  46.56500 22.01900 34.28700
H  47.36700 23.40300 34.73700
H  44.35200 25.46600 33.55500
H  45.11600 26.86500 32.77000
H  44.42800 26.80400 35.25500
H  45.83900 27.71500 34.87300
H  44.42400 18.93300 29.49700
H  45.56600 19.40700 30.75000
H  46.06800 18.50800 29.27200
H  43.77300 18.65200 27.54100
H  45.23900 17.68900 27.26400
H  43.99800 17.95100 25.98200
H  46.93900 24.15100 23.43200
H  49.65700 25.07600 24.27200
H  48.24400 22.27600 22.65100
H  48.98300 22.16800 24.39500
H  49.64800 23.15200 23.10500
H  48.51500 25.76000 22.34500
H  49.03100 27.01900 23.30400
H  46.94100 27.99900 23.45800
H  46.27200 26.45500 24.09100
H  46.28300 26.68000 22.41000
H  50.12300 29.28500 26.62900
H  50.83600 29.70700 28.23700
H  49.19900 30.29600 27.71900
H  46.81700 28.67300 32.20300
H  48.48700 28.52100 36.20200
H  49.37100 29.76400 35.42600
H  49.89400 28.12200 35.25100

