158

Mg 1.14000 7.45000 25.11900
C  1.62700 9.27200 28.28000
C  1.03000 4.62100 26.94800
C  1.05600 5.89900 22.19000
C  1.89200 10.57100 23.44800
N  1.50200 6.99600 27.37600
C  1.53800 7.89500 28.46600
C  1.42500 7.11400 29.73600
C  1.48400 5.58100 29.29100
C  1.31400 5.71000 27.77800
C  2.79500 4.79300 29.60600
C  0.14900 7.52300 30.66700
C  0.17800 7.57700 32.20000
H  1.42000 7.00400 33.00700
N  0.99800 5.49700 24.57300
C  0.86600 4.49600 25.49000
C  0.66400 3.25200 24.72600
C  0.66700 3.57300 23.34000
C  0.89900 5.03600 23.29800
C  0.55900 1.79500 25.33900
C  0.57400 2.69100 22.13700
O  0.64400 3.11200 21.01200
C  0.31200 1.26100 22.29600
N  1.32400 8.15800 23.12700
C  1.25600 7.31400 22.10800
C  1.41100 8.04700 20.81600
C  1.60000 9.50400 21.30200
C  1.57800 9.41300 22.74000
C  2.60800 7.51000 19.93200
C  0.47200 10.52300 20.85700
C  -0.89700 10.68800 21.60500
N  1.58800 9.46800 25.69600
C  1.78800 10.66100 24.86000
C  1.92900 11.86900 25.76200
C  1.81800 11.33000 27.07000
C  1.61900 9.91500 27.01200
C  2.10900 13.34700 25.43600
C  1.92100 11.70400 28.58700
O  2.01900 12.81900 29.08400
C  1.72100 10.30900 29.31200
C  2.84800 10.15400 30.28900
O  4.00600 9.87200 30.06200
O  2.29200 10.46800 31.50100
C  3.15800 10.37700 32.67300
H  0.88200 3.70700 27.52700
H  0.87100 5.42100 21.22600
H  2.16500 11.46200 22.87900
H  2.31000 7.37900 30.31400
H  0.63600 5.02400 29.69000
H  3.32300 5.43300 30.31300
H  3.31600 4.43900 28.71700
H  2.60300 3.96000 30.28300
H  -0.57500 6.77000 30.35300
H  -0.20000 8.52800 30.43100
H  -0.76700 7.16600 32.55600
H  0.16400 8.60100 32.57300
H  1.41200 1.15900 25.10000
H  -0.29100 1.23900 24.94400
H  0.45600 1.92300 26.41700
H  -0.56500 1.10500 22.92300
H  1.12500 0.74600 22.80800
H  0.19700 0.72800 21.35200
H  0.50400 8.01400 20.21100
H  2.56900 9.93700 21.05200
H  3.00600 8.30000 19.29600
H  2.32300 6.66700 19.30100
H  3.43800 7.22700 20.58000
H  0.30800 10.17100 19.83900
H  0.89700 11.52600 20.88900
H  -1.72800 10.85000 20.91900
H  -0.70700 11.48900 22.31800
H  -1.06700 9.79100 22.20100
H  2.90700 13.62600 24.74800
H  2.24500 13.88000 26.37700
H  1.17000 13.63200 24.96200
H  0.77100 10.43000 29.83200
H  3.57200 11.38400 32.72900
H  4.04400 9.78500 32.44500
H  2.65400 10.10600 33.60100
Mg -6.16400 24.37500 26.28400
C  -4.29300 25.91800 28.86700
C  -7.51800 22.32000 28.44900
C  -7.69500 22.94900 23.61700
C  -4.21200 26.48900 23.90500
N  -5.86400 24.12900 28.35700
C  -5.06900 24.83300 29.29000
C  -5.37900 24.50000 30.72300
C  -6.13900 23.20700 30.55000
C  -6.52800 23.16700 28.97200
C  -5.29200 21.92800 31.01200
C  -6.09600 25.60300 31.58700
C  -5.87900 25.65800 33.12300
H  -7.12800 25.17500 33.85400
N  -7.50500 22.94900 26.14500
C  -7.98200 22.25300 27.14600
C  -9.11400 21.45400 26.73300
C  -9.16100 21.57100 25.31600
C  -8.11400 22.52200 24.91100
C  -10.07100 20.67600 27.70100
C  -10.08400 20.88300 24.33400
O  -10.00100 21.03600 23.12900
C  -11.15500 19.85000 24.87700
N  -6.00400 24.71800 24.17000
C  -6.77000 23.90300 23.27500
C  -6.43000 24.16800 21.73700
C  -5.43900 25.40000 21.85700
C  -5.11800 25.53200 23.39000
C  -5.95600 22.89300 20.98700
C  -6.01000 26.67900 21.39400
C  -5.04700 27.65900 20.69600
N  -4.55900 25.82400 26.31900
C  -3.96100 26.62200 25.32000
C  -3.09100 27.60500 25.98000
C  -3.19700 27.32400 27.38700
C  -4.08400 26.29300 27.54600
C  -2.40100 28.72100 25.29400
C  -2.72500 27.74200 28.66800
O  -1.95600 28.66500 29.01800
C  -3.49100 26.86200 29.67000
C  -2.52900 26.27700 30.63100
O  -1.84400 25.24900 30.46100
O  -2.48100 27.04900 31.71900
C  -1.58400 26.60100 32.80600
H  -7.87100 21.48800 29.06200
H  -8.11000 22.36100 22.79600
H  -3.83000 27.21300 23.18200
H  -4.43700 24.27900 31.22300
H  -7.02600 23.09700 31.17400
H  -5.39300 21.03200 30.40000
H  -5.43000 21.58000 32.03600
H  -4.23300 22.17800 30.94600
H  -7.14500 25.33200 31.46600
H  -6.06100 26.61300 31.17900
H  -5.69600 26.71000 33.34000
H  -4.96500 25.10700 33.34600
H  -11.08000 21.02600 27.48600
H  -9.84600 20.83400 28.75600
H  -9.88500 19.64700 27.39300
H  -10.54700 18.98700 25.14800
H  -11.90300 19.64800 24.11000
H  -11.79400 20.31800 25.62600
H  -7.32100 24.44100 21.17100
H  -4.52700 25.20800 21.29300
H  -6.80500 22.54900 20.39600
H  -5.79000 22.11700 21.73300
H  -5.16900 23.06100 20.25200
H  -6.38400 27.12700 22.31500
H  -6.78300 26.45800 20.65900
H  -4.02700 27.29500 20.57600
H  -5.01900 28.57700 21.28300
H  -5.47500 27.80300 19.70400
H  -1.55700 28.47500 24.64900
H  -2.00100 29.34000 26.09600
H  -3.18400 29.30200 24.80700
H  -4.13200 27.47900 30.29900
H  -0.61200 26.48100 32.32600
H  -1.81700 25.58800 33.13300
H  -1.52600 27.28700 33.65100

