158

Mg 2.54600 -0.95000 44.55300
C  5.82100 -0.52600 43.35500
C  1.55600 1.53100 42.37200
C  -0.61700 -2.08600 44.88400
C  3.66200 -4.11400 45.81900
N  3.62400 0.37100 43.10100
C  4.96900 0.44200 42.76900
C  5.30200 1.44600 41.65200
C  3.96900 2.22100 41.51600
C  2.95100 1.36800 42.34300
C  3.95500 3.69100 42.21300
C  5.82800 0.69500 40.33900
C  7.01100 1.34500 39.72400
H  6.77300 1.87500 38.29000
N  0.77900 -0.27800 43.92100
C  0.56400 0.82400 43.08500
C  -0.82900 1.11800 42.96700
C  -1.53800 0.03500 43.55700
C  -0.46600 -0.84100 44.18900
C  -1.35200 2.21800 42.04400
C  -3.04700 -0.16800 43.65300
O  -3.79600 0.68600 43.21100
C  -3.72800 -1.38500 44.32800
N  1.62500 -2.88100 45.33600
C  0.27400 -3.01400 45.40400
C  -0.11300 -4.41900 46.13200
C  1.31500 -5.16200 46.15600
C  2.29000 -3.95500 45.81800
C  -0.73200 -4.16400 47.53800
C  1.47500 -6.35100 45.12800
C  2.04600 -7.63900 45.77500
N  4.36800 -2.07100 44.90800
C  4.67000 -3.31300 45.33400
C  6.13000 -3.48500 45.28600
C  6.61300 -2.46900 44.51700
C  5.47100 -1.60200 44.27400
C  6.78000 -4.76700 45.68800
C  7.80400 -1.90000 43.96800
O  8.95900 -2.33000 43.98200
C  7.33900 -0.60400 43.20900
C  8.10300 0.45400 43.99500
O  8.15300 0.46600 45.20700
O  8.79000 1.39200 43.21400
C  9.68600 2.36500 43.87900
H  1.32100 2.50000 41.92600
H  -1.59600 -2.56500 44.95800
H  3.97800 -5.11100 46.13400
H  6.03800 2.04100 42.19200
H  3.68400 2.26700 40.46400
H  3.35500 4.37600 41.61400
H  4.98500 4.03600 42.31300
H  3.58000 3.66800 43.23600
H  4.95400 0.65700 39.68800
H  6.00700 -0.33300 40.65400
H  7.73400 0.52900 39.70700
H  7.43000 2.14400 40.33600
H  -2.37000 2.01200 41.71300
H  -0.74900 2.21000 41.13600
H  -1.33400 3.22200 42.46700
H  -4.81700 -1.38100 44.29500
H  -3.38700 -1.46400 45.36000
H  -3.38900 -2.26800 43.78700
H  -0.85000 -5.03000 45.61100
H  1.52200 -5.44600 47.18800
H  -1.15100 -3.16000 47.60500
H  0.03500 -4.36500 48.28500
H  -1.50200 -4.91300 47.72300
H  2.05400 -6.05100 44.25400
H  0.50500 -6.55800 44.67500
H  2.17000 -7.61500 46.85800
H  3.08800 -7.84300 45.52800
H  1.48100 -8.53800 45.52700
H  6.40200 -5.51700 44.99300
H  6.45300 -4.91400 46.71700
H  7.85600 -4.59500 45.68400
H  7.66200 -0.62200 42.16800
H  8.97800 3.06200 44.32500
H  10.33000 2.87100 43.15900
H  10.37200 1.82800 44.53500
Mg 41.04400 41.14500 27.39600
C  40.56500 43.59800 29.79000
C  41.85900 38.89500 29.90800
C  42.08300 39.02500 25.09200
C  40.05800 43.33700 24.94600
N  41.27800 41.32500 29.60000
C  40.91700 42.37800 30.42300
C  40.85700 41.90800 31.91500
C  41.39400 40.40600 31.87500
C  41.52600 40.18100 30.35500
C  42.70200 40.19100 32.71700
C  39.56000 42.21100 32.57400
C  39.21300 41.55100 33.89000
H  38.64100 42.42400 34.98100
N  41.91300 39.23800 27.54200
C  42.05300 38.38900 28.64800
C  42.50700 37.11400 28.22800
C  42.84000 37.22400 26.82200
C  42.31700 38.59000 26.45400
C  42.70300 36.02000 29.25100
C  43.40500 36.17100 25.88300
O  43.61400 36.45900 24.65000
C  43.62600 34.82900 26.39500
N  41.19600 41.25200 25.30400
C  41.52400 40.22000 24.61000
C  41.37900 40.35600 23.08900
C  40.48500 41.62500 23.06900
C  40.54300 42.13400 24.51300
C  42.59200 40.46000 22.08800
C  39.04300 41.50900 22.54000
C  38.19200 40.53400 23.37300
N  40.59400 43.14600 27.36000
C  40.17000 43.92300 26.24300
C  39.88700 45.29200 26.73000
C  40.07500 45.10300 28.08000
C  40.49700 43.83900 28.42600
C  39.55500 46.47600 25.89300
C  40.04900 45.90100 29.35800
O  39.77400 47.09900 29.57400
C  40.20300 44.85100 30.47100
C  41.37200 45.25000 31.21300
O  42.51700 45.13000 30.81100
O  41.08400 45.49300 32.54600
C  42.28400 45.83500 33.34100
H  41.83000 38.19900 30.74900
H  42.35900 38.28800 24.33500
H  39.53400 44.03100 24.28700
H  41.60000 42.59000 32.32900
H  40.71100 39.63400 32.22600
H  42.50600 40.08000 33.78300
H  43.49100 40.90000 32.46300
H  43.19200 39.24100 32.50400
H  38.69400 41.91000 31.98400
H  39.68800 43.28900 32.67300
H  40.10100 41.04400 34.26800
H  38.52900 40.71000 33.77700
H  43.75200 35.73100 29.31200
H  42.29300 35.19000 28.67600
H  42.20100 36.14500 30.21100
H  44.08000 34.27700 25.57200
H  42.74100 34.33600 26.79800
H  44.38800 34.92800 27.16800
H  40.80300 39.46800 22.83100
H  40.88400 42.37600 22.38700
H  43.45900 40.76400 22.67600
H  42.28600 41.04200 21.21800
H  42.78700 39.49300 21.62500
H  39.05200 40.99600 21.57800
H  38.65100 42.52100 22.43900
H  37.62100 39.80200 22.80300
H  37.49300 41.19400 23.88500
H  38.77800 39.97800 24.10500
H  40.46200 46.65700 25.31500
H  39.28700 47.32900 26.51600
H  38.76000 46.26200 25.17900
H  39.31600 44.79900 31.10200
H  43.09500 45.13000 33.16200
H  41.95200 45.67900 34.36800
H  42.67700 46.84700 33.25200

