158

Mg 24.22100 -7.14500 47.95100
C  26.59800 -5.06800 46.74700
C  22.14400 -5.98100 45.32400
C  21.91700 -9.44600 48.88900
C  26.53300 -8.59700 50.12100
N  24.33900 -5.53000 46.40500
C  25.40700 -4.80400 46.06100
C  25.22900 -3.86900 44.81200
C  23.64800 -3.92900 44.74400
C  23.36200 -5.26200 45.48900
C  22.89000 -2.71300 45.38000
C  25.88300 -4.34000 43.57500
C  26.65500 -3.20000 42.81500
H  26.02600 -2.82300 41.43500
N  22.36300 -7.57900 47.22600
C  21.67100 -7.02300 46.14000
C  20.47000 -7.81000 45.92500
C  20.35400 -8.74900 46.95800
C  21.51400 -8.53700 47.79200
C  19.51800 -7.57300 44.77900
C  19.07600 -9.67300 47.12900
O  18.23200 -9.76000 46.22700
C  18.82600 -10.44100 48.42900
N  24.22900 -8.82300 49.31400
C  23.13100 -9.60000 49.54500
C  23.54500 -10.75300 50.51700
C  24.83900 -10.20300 51.20200
C  25.22000 -9.12400 50.14400
C  22.42600 -11.19800 51.53700
C  25.95100 -11.28800 51.33300
C  26.50900 -11.87900 50.10100
N  26.18400 -7.00000 48.35500
C  27.03000 -7.57900 49.29000
C  28.34700 -7.02900 49.18300
C  28.20400 -5.99100 48.15200
C  26.89600 -6.01300 47.72900
C  29.50700 -7.24600 50.12200
C  28.86100 -4.93400 47.45200
O  30.03800 -4.65600 47.44100
C  27.90400 -4.41100 46.44600
C  27.92400 -2.92500 46.59000
O  27.23400 -2.27300 47.37000
O  28.79900 -2.45900 45.65900
C  28.83000 -1.01200 45.52900
H  21.53000 -5.53800 44.53800
H  21.20500 -10.23300 49.14800
H  27.33500 -8.85200 50.81800
H  25.42800 -2.82100 45.03500
H  23.23500 -4.09700 43.74900
H  22.09500 -3.10200 46.01600
H  22.39500 -2.12300 44.60800
H  23.54100 -2.05300 45.95400
H  25.08800 -4.82300 43.00600
H  26.60800 -5.12100 43.79900
H  27.65900 -3.57700 42.61700
H  26.78400 -2.42000 43.56500
H  19.31900 -8.50300 44.24600
H  19.94400 -6.86600 44.06800
H  18.58000 -7.23100 45.21600
H  17.75300 -10.61800 48.36000
H  18.86600 -9.77800 49.29300
H  19.31000 -11.39900 48.61600
H  23.75900 -11.59100 49.85400
H  24.59700 -9.86100 52.20800
H  21.54700 -10.63400 51.22700
H  22.73300 -10.96400 52.55600
H  22.23200 -12.25500 51.35500
H  25.36500 -12.03100 51.87400
H  26.66300 -10.99600 52.10400
H  26.15600 -11.36200 49.20800
H  26.35600 -12.94700 49.94900
H  27.59800 -11.88700 50.13600
H  29.11500 -6.92400 51.08700
H  30.27000 -6.62800 49.64900
H  29.64900 -8.32500 50.06500
H  28.23100 -4.62900 45.43000
H  29.62600 -0.60900 46.15500
H  27.94500 -0.54600 45.96300
H  28.94700 -0.73500 44.48200
Mg -1.94100 35.13100 26.34700
C  -3.52800 33.02500 28.73100
C  -0.88900 36.96800 29.01200
C  -0.62700 37.17700 24.17600
C  -3.60300 33.33900 23.84200
N  -2.25600 34.99900 28.62500
C  -2.82500 34.02600 29.36600
C  -2.74700 34.20700 30.88100
C  -1.90700 35.55500 30.87800
C  -1.62400 35.85900 29.41100
C  -2.58000 36.69200 31.69100
C  -2.20200 32.93900 31.58100
C  -2.97000 32.26600 32.71100
H  -2.25900 32.24700 34.06300
N  -0.88300 36.88600 26.60100
C  -0.48100 37.43300 27.76000
C  0.46100 38.38000 27.48500
C  0.57300 38.47000 26.04000
C  -0.35700 37.51300 25.54500
C  1.27300 39.06100 28.62400
C  1.55700 39.22000 25.19600
O  1.59600 39.19600 23.94000
C  2.56600 40.11800 25.88900
N  -2.27600 35.27700 24.30700
C  -1.52600 36.23100 23.62500
C  -1.84800 36.24700 22.16500
C  -2.80800 34.97500 22.04600
C  -2.90300 34.47800 23.45600
C  -2.44200 37.65000 21.60700
C  -2.28400 33.95600 21.02900
C  -1.01400 33.06600 21.47900
N  -3.27000 33.42900 26.24300
C  -3.83700 32.84900 25.12700
C  -4.71000 31.74700 25.51000
C  -4.56300 31.72300 26.95100
C  -3.70400 32.84100 27.28100
C  -5.51900 30.80600 24.81100
C  -4.97300 31.04400 28.15900
O  -5.89500 30.27900 28.38200
C  -4.22800 31.77200 29.33700
C  -5.40100 32.09600 30.14900
O  -6.23900 32.98000 29.95700
O  -5.48100 31.15300 31.16000
C  -6.52200 31.44300 32.19300
H  -0.48200 37.39800 29.93000
H  -0.26000 37.84300 23.39100
H  -4.06100 32.70700 23.07900
H  -3.73000 34.30300 31.34300
H  -0.95900 35.42700 31.39900
H  -3.43100 36.28900 32.24100
H  -2.87200 37.47400 30.99100
H  -1.88700 37.11400 32.41900
H  -1.21500 33.27700 31.89700
H  -1.96800 32.13500 30.88300
H  -3.13500 31.26300 32.32000
H  -3.94100 32.76200 32.72900
H  2.35000 39.06400 28.45700
H  1.10500 38.54400 29.56900
H  0.91100 40.08000 28.75800
H  2.98000 40.79000 25.13700
H  3.30000 39.45000 26.34100
H  1.99800 40.72900 26.59000
H  -1.02100 36.12500 21.46500
H  -3.80700 35.32900 21.79100
H  -1.64800 38.02700 20.96300
H  -2.53900 38.27900 22.49100
H  -3.44400 37.58000 21.18200
H  -2.04900 34.48500 20.10600
H  -3.01200 33.21200 20.70300
H  -0.71500 33.34600 22.48900
H  -0.24800 33.25300 20.72600
H  -1.27200 32.01200 21.36900
H  -5.40600 31.01300 23.74700
H  -6.57900 30.86000 25.05600
H  -5.10700 29.81400 25.00000
H  -3.60300 31.07800 29.90000
H  -6.17700 32.07400 33.01200
H  -6.83700 30.43900 32.47800
H  -7.44200 31.94600 31.89300

