158

Mg 7.49300 52.95800 40.90700
C  6.95300 49.43500 40.87200
C  10.67100 52.22400 39.66500
C  7.98400 56.21300 40.51300
C  4.14900 53.48800 41.49700
N  8.63000 51.05800 40.32800
C  8.20700 49.74800 40.41200
C  9.29000 48.79400 39.88500
C  10.54500 49.68800 39.92600
C  9.88000 51.11600 39.85800
C  11.38400 49.44100 41.17700
C  9.05400 48.24500 38.48600
C  8.54200 49.20900 37.41800
H  8.03200 48.53200 36.14900
N  9.10700 54.10000 40.15000
C  10.32100 53.53200 39.84100
C  11.19600 54.68700 39.50700
C  10.47200 55.91300 39.82100
C  9.11800 55.41200 40.11700
C  12.60800 54.54100 38.90400
C  11.04800 57.29000 39.72000
O  12.06400 57.53200 39.04400
C  10.42600 58.43400 40.38700
N  6.17600 54.71000 40.76100
C  6.66100 55.93400 40.86700
C  5.65800 56.91400 41.47500
C  4.41800 56.00300 41.47400
C  4.89400 54.65400 41.28600
C  6.07500 57.48700 42.80400
C  3.32800 56.34000 40.34700
C  2.33900 57.38700 40.71100
N  5.86200 51.79300 41.15900
C  4.57800 52.12900 41.53500
C  3.82100 50.93000 41.82800
C  4.71800 49.83600 41.54900
C  5.95200 50.40800 41.17100
C  2.31300 50.84400 42.14300
C  4.82900 48.40600 41.54600
O  3.91400 47.66600 41.85600
C  6.35500 48.06000 41.12800
C  6.16400 47.19200 39.92800
O  5.83600 47.55400 38.86800
O  6.67400 45.88900 40.15400
C  6.56500 44.89600 39.08100
H  11.69500 52.02400 39.34400
H  8.06700 57.29400 40.64100
H  3.12300 53.60700 41.85300
H  9.32300 47.96600 40.59300
H  11.23900 49.64000 39.08700
H  12.39500 49.26200 40.81200
H  11.26200 48.45600 41.62600
H  11.35000 50.27300 41.88000
H  8.56400 47.27600 38.39300
H  10.08900 48.05300 38.20100
H  9.30400 49.94200 37.15100
H  7.75200 49.84300 37.82200
H  12.82400 55.02700 37.95300
H  12.93600 53.50200 38.88500
H  13.32300 55.02900 39.56600
H  9.68500 58.97500 39.79800
H  11.23800 59.12300 40.61800
H  9.94900 58.11700 41.31500
H  5.61400 57.74700 40.77400
H  3.97500 56.03300 42.47000
H  6.95800 56.94700 43.14800
H  5.30800 57.46900 43.57700
H  6.29000 58.55100 42.70600
H  2.82700 55.48800 39.88700
H  3.96300 56.84800 39.62100
H  2.20400 57.38100 41.79300
H  1.41200 57.33200 40.14000
H  2.64900 58.37300 40.36500
H  2.32700 50.57700 43.20000
H  1.84600 50.07000 41.53400
H  1.93400 51.86400 42.08700
H  6.85000 47.48900 41.91300
H  7.23000 45.08700 38.23800
H  5.52400 44.74900 38.79200
H  6.89400 43.95300 39.51800
Mg 10.69800 46.76900 25.61000
C  8.60800 47.27800 28.35400
C  13.20900 48.42900 27.30700
C  12.71600 46.21200 22.97300
C  7.92000 45.65400 23.78500
N  10.92900 47.56200 27.70400
C  9.95600 47.67900 28.71100
C  10.56100 48.18000 29.97800
C  11.81400 48.98800 29.42000
C  12.00700 48.27500 28.08200
C  11.77500 50.52900 29.49700
C  10.85800 46.98700 30.87200
C  10.42000 47.15500 32.33100
H  10.32500 45.98500 33.19600
N  12.79600 47.16900 25.23500
C  13.62300 47.84700 26.06000
C  14.95000 47.84800 25.45200
C  14.82000 47.28700 24.15400
C  13.44100 46.85100 24.06500
C  16.16500 48.44900 26.27300
C  15.89600 47.15100 23.13900
O  15.76600 46.49800 22.14000
C  17.19300 47.65300 23.38300
N  10.27100 46.24500 23.60600
C  11.35600 45.99300 22.76500
C  10.79300 45.49200 21.36900
C  9.31500 45.15900 21.70400
C  9.13000 45.67900 23.11300
C  10.96600 46.54900 20.24900
C  9.02200 43.61500 21.54600
C  9.43400 42.60300 22.68100
N  8.75800 46.42300 25.97400
C  7.73200 45.97900 25.11800
C  6.48400 46.01800 25.82000
C  6.84000 46.39700 27.14500
C  8.17500 46.73700 27.11200
C  5.13400 45.68100 25.34700
C  6.24800 46.62900 28.45500
O  5.09800 46.47400 28.89300
C  7.51200 47.04500 29.35200
C  7.76700 45.87400 30.15200
O  8.31700 44.82900 29.83800
O  7.14700 46.04100 31.41700
C  7.29000 44.92500 32.38300
H  14.07600 48.98600 27.66700
H  13.25400 45.89400 22.07800
H  7.03800 45.42900 23.18100
H  9.94900 48.89600 30.52800
H  12.67000 48.73800 30.04700
H  10.75300 50.83700 29.71800
H  12.06800 50.95000 28.53500
H  12.48800 50.79600 30.27700
H  11.94700 46.99100 30.92700
H  10.54500 45.98700 30.57000
H  9.41700 47.58200 32.31500
H  11.10700 47.80000 32.87900
H  15.92000 48.39000 27.33300
H  16.28900 49.50600 26.03700
H  17.05500 47.82700 26.17600
H  17.16600 48.71900 23.60700
H  17.81500 47.64200 22.48800
H  17.56500 46.97600 24.15300
H  11.28200 44.57000 21.05500
H  8.58100 45.68800 21.09700
H  11.85700 47.09400 20.55900
H  10.17600 47.28600 20.39000
H  11.22500 46.14100 19.27200
H  9.60700 43.28100 20.68900
H  7.95700 43.50100 21.34100
H  10.19800 41.89700 22.35600
H  8.58500 42.04000 23.07100
H  9.81900 43.15300 23.53900
H  5.33500 44.88200 24.63300
H  4.69700 46.51300 24.79500
H  4.47600 45.42400 26.17700
H  7.46900 47.90000 30.02800
H  7.39200 45.28300 33.40700
H  8.06200 44.17600 32.20700
H  6.32900 44.41600 32.30300

