158

Mg -1.50400 17.72300 26.93300
C  -1.88400 15.28300 29.47000
C  -2.09800 20.13000 29.31900
C  -1.53300 19.90200 24.45700
C  -1.62000 15.04900 24.57300
N  -1.97900 17.69400 29.07700
C  -1.94300 16.61500 29.93600
C  -2.24400 17.06900 31.40600
C  -2.52700 18.58900 31.24700
C  -2.19200 18.82100 29.77700
C  -3.98200 18.97100 31.71200
C  -1.18900 16.65100 32.43300
C  -1.23300 17.31100 33.84800
H  -0.68300 16.60700 35.06700
N  -1.62100 19.74700 26.87400
C  -1.81500 20.60100 27.98200
C  -1.73600 22.00400 27.46900
C  -1.43200 21.92900 26.07000
C  -1.53700 20.50000 25.74300
C  -1.98800 23.15600 28.38700
C  -1.11900 22.99400 25.16200
O  -0.74400 22.73900 24.03300
C  -1.28100 24.44500 25.54500
N  -1.60800 17.41500 24.84200
C  -1.61300 18.55800 24.01500
C  -1.52500 18.21500 22.55500
C  -1.37400 16.61800 22.58200
C  -1.54800 16.32700 24.04900
C  -2.80800 18.67600 21.75400
C  -0.04300 16.17600 21.93300
C  1.15000 15.57700 22.82500
N  -1.67000 15.57900 26.91500
C  -1.67100 14.63900 25.88200
C  -1.80500 13.26500 26.48700
C  -1.90800 13.51000 27.87100
C  -1.79700 14.88300 28.09400
C  -1.77100 11.96000 25.66700
C  -2.02600 12.83300 29.12100
O  -2.03400 11.59800 29.29900
C  -2.04300 13.89700 30.28100
C  -1.02000 13.46500 31.16000
O  0.16900 13.72300 31.10100
O  -1.56700 12.63100 32.06900
C  -0.56000 11.97800 32.98900
H  -2.22400 20.90900 30.07400
H  -1.58100 20.61100 23.62800
H  -1.57900 14.41900 23.68200
H  -3.16500 16.56000 31.69400
H  -1.78800 19.19900 31.76600
H  -4.37300 19.69500 30.99800
H  -3.92700 19.55300 32.63200
H  -4.67500 18.14900 31.89100
H  -0.21900 16.76400 31.94900
H  -1.40800 15.60800 32.66300
H  -2.24300 17.71000 33.94400
H  -0.56600 18.16800 33.75500
H  -1.06500 23.66200 28.66800
H  -2.46500 22.81800 29.30800
H  -2.65700 23.80400 27.82100
H  -2.27600 24.72700 25.89100
H  -0.90000 25.15600 24.81200
H  -0.60000 24.58500 26.38400
H  -0.64700 18.66500 22.09300
H  -2.21500 16.17400 22.04900
H  -3.62600 18.92500 22.42900
H  -3.14300 18.01200 20.95700
H  -2.45500 19.56300 21.22800
H  0.33700 16.93300 21.24700
H  -0.32900 15.37200 21.25500
H  0.78600 15.26000 23.80200
H  1.82600 16.39500 23.07700
H  1.73500 14.84700 22.26600
H  -1.92100 11.02800 26.21100
H  -0.90600 11.87200 25.00900
H  -2.67600 12.02000 25.06200
H  -3.04500 13.85300 30.70600
H  -0.20100 11.21500 32.29800
H  -1.05100 11.60900 33.89000
H  0.27600 12.61100 33.28500
Mg 31.10300 59.44000 39.08000
C  28.40100 57.09500 38.08300
C  33.22200 56.94600 38.48600
C  33.43400 61.72900 39.61100
C  28.48600 61.87700 39.32900
N  30.78500 57.27700 38.36700
C  29.62900 56.44100 38.21600
C  30.02200 54.97700 38.09700
C  31.61900 55.03000 38.26000
C  31.90400 56.53700 38.41400
C  32.25200 54.00300 39.29400
C  29.44100 54.24300 36.83100
C  30.00500 54.70000 35.46000
H  29.08800 54.86500 34.21200
N  33.00400 59.35300 39.12400
C  33.74600 58.23900 38.85000
C  35.16700 58.53800 39.03800
C  35.28100 59.87700 39.43600
C  33.88300 60.43900 39.44600
C  36.26900 57.55800 38.68500
C  36.54800 60.69900 39.73100
O  37.64800 60.15700 39.54400
C  36.57100 62.09700 40.19700
N  30.96100 61.57700 39.36400
C  32.12800 62.27100 39.65600
C  31.80600 63.70600 40.08000
C  30.20500 63.71600 39.95000
C  29.85000 62.27700 39.61600
C  32.24200 64.11600 41.42400
C  29.71000 64.80100 38.89000
C  28.81000 65.91400 39.51600
N  28.94100 59.57100 38.73100
C  28.04800 60.59800 38.92600
C  26.70700 60.24200 38.46900
C  26.82200 58.85000 38.23200
C  28.18400 58.49600 38.40400
C  25.46800 61.24400 38.33300
C  26.00200 57.69500 37.96200
O  24.78100 57.59400 37.89800
C  26.95100 56.50000 37.79300
C  26.54100 55.54800 38.83900
O  26.54700 55.76800 40.01500
O  25.91500 54.47300 38.28800
C  25.53300 53.44200 39.30300
H  33.93000 56.12200 38.59500
H  34.13500 62.55600 39.74400
H  27.68700 62.61900 39.38500
H  29.54100 54.57400 38.98900
H  32.02400 54.76800 37.28300
H  32.82600 54.63200 39.97500
H  33.01200 53.37500 38.82900
H  31.65300 53.36800 39.94700
H  28.35300 54.21500 36.88700
H  29.81200 53.22900 36.97900
H  30.86100 54.09900 35.15400
H  30.35300 55.72100 35.61800
H  36.04200 56.57800 38.26400
H  36.74400 57.39100 39.65200
H  37.04000 58.00000 38.05400
H  35.95100 62.23200 41.08300
H  36.26000 62.69300 39.33900
H  37.58800 62.27300 40.54900
H  32.22800 64.35400 39.31100
H  29.77900 63.89700 40.93700
H  31.50300 63.82500 42.17100
H  32.57300 65.15400 41.41800
H  33.14500 63.60100 41.75100
H  29.13600 64.38300 38.06400
H  30.56200 65.38200 38.53500
H  29.24600 66.90900 39.43500
H  28.56300 65.82300 40.57400
H  27.82200 65.87800 39.05500
H  25.26700 61.45700 39.38300
H  24.66400 60.80800 37.74000
H  25.72900 62.22600 37.93900
H  26.77900 56.07300 36.80500
H  26.29300 53.31500 40.07400
H  25.32700 52.52500 38.75000
H  24.59100 53.76700 39.74500

