158

Mg 1.74400 -1.30200 43.61500
C  5.36000 -0.91800 43.69500
C  1.51400 1.86700 42.36200
C  -1.45900 -1.96000 43.09200
C  2.36200 -4.48100 44.83100
N  3.28700 0.21800 42.99500
C  4.68700 0.16300 43.08100
C  5.32500 1.42700 42.40700
C  4.05600 2.35400 42.09500
C  2.83600 1.44400 42.56100
C  4.01500 3.68400 42.77300
C  6.25900 1.13300 41.26600
C  5.99200 -0.14600 40.42600
H  5.23500 0.10400 39.05100
N  0.23500 -0.23900 42.90600
C  0.34100 1.11600 42.56300
C  -0.98700 1.60700 42.29900
C  -1.93500 0.53000 42.40800
C  -1.08700 -0.61200 42.85000
C  -1.30300 3.08900 41.99000
C  -3.43800 0.57500 42.15000
O  -3.86600 1.63900 41.75700
C  -4.42400 -0.53300 42.47400
N  0.70100 -3.07900 43.57600
C  -0.61200 -3.05800 43.44000
C  -1.27300 -4.32600 43.85600
C  -0.13600 -4.92400 44.74000
C  1.10500 -4.16700 44.33700
C  -2.70200 -4.37200 44.37800
C  0.05400 -6.45900 44.55100
C  0.17300 -7.29800 45.80500
N  3.45900 -2.51800 44.19300
C  3.53300 -3.79400 44.69700
C  4.88200 -4.19100 45.01600
C  5.61700 -3.07100 44.62700
C  4.73300 -2.12200 44.13700
C  5.22600 -5.61400 45.50100
C  7.04000 -2.61300 44.47800
O  8.10900 -3.12700 44.80800
C  6.89000 -1.14200 43.87300
C  7.30600 -0.14200 44.92400
O  6.64400 0.14100 45.88000
O  8.49000 0.46400 44.44900
C  8.77600 1.80700 45.00500
H  1.36400 2.89100 42.01300
H  -2.46800 -2.30400 42.85400
H  2.39700 -5.39100 45.43400
H  5.92500 1.93900 43.16000
H  4.02800 2.51500 41.01800
H  3.50400 4.38100 42.10900
H  5.02700 4.00800 43.01200
H  3.45700 3.73900 43.70800
H  7.29200 1.12000 41.61300
H  6.11700 2.01400 40.64000
H  5.52800 -1.02000 40.88500
H  6.99100 -0.53300 40.22200
H  -1.35000 3.20800 40.90700
H  -0.49100 3.62300 42.48400
H  -2.21500 3.33700 42.53400
H  -4.53400 -1.31500 41.72300
H  -5.33500 -0.10100 42.88800
H  -3.92000 -0.96100 43.34100
H  -1.24000 -4.97800 42.98300
H  -0.34600 -4.57200 45.75100
H  -3.22300 -3.42000 44.27000
H  -2.80700 -4.89300 45.32900
H  -3.21300 -5.19100 43.87200
H  0.93000 -6.76300 43.97800
H  -0.78400 -6.92600 44.03500
H  0.29200 -8.36400 45.60900
H  -0.72600 -7.30000 46.42100
H  0.94500 -6.83000 46.41500
H  5.26500 -6.37800 44.72400
H  4.51100 -6.01500 46.21900
H  6.17100 -5.58300 46.04200
H  7.45200 -1.07700 42.94100
H  9.06000 2.46200 44.18200
H  9.70500 1.66700 45.55800
H  8.01300 2.35200 45.56100
Mg 46.13100 25.27100 28.16400
C  47.09600 27.35000 30.78500
C  45.40100 22.74500 30.50700
C  46.03300 22.88100 25.64900
C  47.54900 27.53100 25.89700
N  46.33500 25.12700 30.37400
C  46.56500 26.15900 31.23000
C  46.24500 25.78000 32.73800
C  45.74100 24.30300 32.64600
C  45.78500 24.06100 31.07000
C  46.53500 23.36800 33.55800
C  45.14500 26.71700 33.43000
C  45.53200 27.51300 34.70800
H  44.51200 27.53100 35.82100
N  45.62400 23.11400 28.02900
C  45.35300 22.32300 29.16900
C  44.90800 21.02800 28.66000
C  45.19400 20.99300 27.27300
C  45.65200 22.34500 26.93600
C  44.24100 19.96900 29.64500
C  45.13500 19.80200 26.30400
O  45.17200 20.01700 25.05900
C  45.06500 18.42500 26.76400
N  46.58400 25.27900 26.11300
C  46.46100 24.16800 25.28600
C  46.76800 24.61100 23.80100
C  47.14200 26.11300 23.91000
C  47.01400 26.31700 25.38700
C  47.77900 23.71100 23.09900
C  46.33700 27.09600 23.05300
C  47.24700 27.85600 22.06200
N  47.17400 27.10200 28.26600
C  47.58600 27.96200 27.23800
C  48.25600 29.14900 27.89500
C  47.95800 29.01000 29.27800
C  47.36400 27.69800 29.40700
C  48.84400 30.19600 27.18900
C  48.12800 29.66000 30.53500
O  48.51300 30.79300 30.82700
C  47.51800 28.61100 31.51400
C  48.59800 28.18400 32.38100
O  49.60000 27.57600 31.98600
O  48.34200 28.69900 33.64600
C  49.35700 28.30100 34.64400
H  45.08800 22.16900 31.38000
H  45.97700 22.12400 24.86400
H  48.02300 28.23000 25.20500
H  47.17900 25.74900 33.29800
H  44.66100 24.30900 32.79700
H  46.98200 23.98500 34.33700
H  47.38600 22.87100 33.09100
H  45.91500 22.64500 34.08900
H  44.28100 26.06600 33.56200
H  44.84000 27.41000 32.64500
H  45.56200 28.55000 34.37200
H  46.45600 27.22900 35.21200
H  43.49700 19.41300 29.07600
H  43.68600 20.47500 30.43500
H  44.90800 19.19400 30.02400
H  45.47200 17.72900 26.03100
H  43.99100 18.24400 26.80500
H  45.61100 18.29600 27.69800
H  45.81400 24.53600 23.28000
H  48.20400 26.13000 23.66600
H  48.06800 22.81500 23.64900
H  48.68300 24.22200 22.76900
H  47.31600 23.29000 22.20600
H  45.86700 27.90700 23.61000
H  45.46900 26.57900 22.64400
H  48.18800 27.32800 21.90600
H  47.48400 28.82500 22.50300
H  46.79700 28.05800 21.09100
H  49.23600 31.03200 27.76800
H  48.06500 30.58600 26.53400
H  49.62600 29.70300 26.61200
H  46.66200 29.10300 31.97700
H  50.22700 27.72800 34.32300
H  48.93100 27.57800 35.34000
H  49.76600 29.15300 35.18700

