158

Mg 2.60000 -0.95100 44.58500
C  5.82600 -0.60500 43.38300
C  1.50700 1.51300 42.42500
C  -0.52800 -1.88000 45.22100
C  3.76300 -3.82800 46.21600
N  3.62000 0.38000 43.07200
C  4.92300 0.30000 42.67100
C  5.21800 1.53700 41.80800
C  3.85000 2.31700 41.79800
C  2.91400 1.38600 42.46100
C  3.86100 3.75400 42.24100
C  5.87800 1.17900 40.39900
C  6.91300 2.16800 39.89900
H  6.48600 2.94100 38.62100
N  0.72900 -0.14800 44.05300
C  0.41500 0.87800 43.16000
C  -1.04100 1.06600 42.99600
C  -1.63200 0.15200 43.92400
C  -0.47000 -0.67400 44.50600
C  -1.54700 2.25400 42.13200
C  -3.02500 0.07200 44.22000
O  -3.81000 0.94600 43.87700
C  -3.64000 -1.05500 45.01500
N  1.72400 -2.64000 45.59800
C  0.36500 -2.76800 45.72600
C  0.05200 -4.20000 46.12300
C  1.41800 -4.80200 46.54400
C  2.40600 -3.72100 46.05600
C  -0.96700 -4.12000 47.27800
C  1.70200 -6.25400 46.06700
C  2.47800 -7.23100 46.94400
N  4.46200 -1.90600 44.93500
C  4.78800 -3.04000 45.66700
C  6.28500 -3.19900 45.71000
C  6.67200 -2.23900 44.81200
C  5.54100 -1.55800 44.34300
C  7.12100 -4.11200 46.47000
C  7.84300 -1.75500 44.13000
O  9.03200 -2.12300 44.14300
C  7.36200 -0.59600 43.19000
C  8.00400 0.65200 43.68900
O  7.50400 1.37900 44.52700
O  9.20600 0.88000 43.03200
C  9.76700 2.23500 43.31100
H  1.12900 2.34700 41.82900
H  -1.55200 -2.15900 45.47800
H  4.03800 -4.76000 46.71500
H  5.96600 2.20100 42.24000
H  3.64500 2.25300 40.72900
H  3.84500 4.45300 41.40400
H  4.82100 3.88600 42.74100
H  3.11800 3.98700 43.00300
H  5.12300 1.14700 39.61300
H  6.44300 0.25000 40.46300
H  7.80200 1.54100 39.83500
H  7.08600 2.98300 40.60200
H  -2.48700 1.98300 41.65300
H  -0.88600 2.41300 41.28000
H  -1.71700 3.13700 42.74800
H  -4.72400 -0.96200 44.95900
H  -3.37800 -1.06400 46.07300
H  -3.41000 -2.03400 44.59400
H  -0.33500 -4.72900 45.25200
H  1.45600 -4.81000 47.63400
H  -1.20300 -3.07000 47.45200
H  -0.64100 -4.55600 48.22200
H  -1.84700 -4.73400 47.08800
H  2.24000 -6.19600 45.12100
H  0.72700 -6.63300 45.75800
H  1.83900 -8.06500 47.23300
H  2.91400 -6.80600 47.84900
H  3.18000 -7.79000 46.32600
H  8.09200 -3.64500 46.63800
H  7.21400 -5.06000 45.94100
H  6.66600 -4.29000 47.44400
H  7.63300 -0.64300 42.13600
H  8.97400 2.98200 43.30800
H  10.54900 2.51700 42.60500
H  10.18900 2.24400 44.31600
Mg 47.01400 16.57500 28.21100
C  44.95900 16.07500 31.16900
C  49.10400 18.41900 30.12000
C  48.54600 17.56000 25.46100
C  44.45700 15.19700 26.32100
N  46.89700 17.23800 30.43200
C  46.06300 16.85800 31.42000
C  46.67500 17.18000 32.78800
C  47.83900 18.17800 32.39100
C  47.95000 18.02600 30.86900
C  47.54700 19.67000 32.81300
C  47.12200 15.98400 33.61900
C  47.54800 16.21200 35.09500
H  46.89700 17.37600 35.80700
N  48.79100 17.63500 27.86500
C  49.55100 18.26200 28.82000
C  50.73800 18.71900 28.20400
C  50.52100 18.66200 26.78500
C  49.24200 17.93700 26.62500
C  51.93600 19.04300 29.07100
C  51.29300 19.14900 25.64400
O  50.94800 18.99400 24.46000
C  52.49500 19.86400 25.89300
N  46.59800 16.30000 26.23700
C  47.41100 16.81300 25.31300
C  46.78100 16.70400 23.88900
C  45.56800 15.63500 24.13300
C  45.46900 15.71900 25.64200
C  46.31600 17.94800 23.18900
C  45.91500 14.25400 23.66100
C  45.31800 13.97300 22.26800
N  45.12900 15.75500 28.60800
C  44.21400 15.21300 27.70900
C  43.09000 14.64900 28.42800
C  43.38300 14.90500 29.80300
C  44.59500 15.65300 29.83900
C  41.88200 14.04100 27.75800
C  42.82500 14.83900 31.15200
O  41.79000 14.25300 31.48200
C  43.87600 15.57100 32.14500
C  43.10800 16.70400 32.83800
O  42.47500 17.55400 32.26200
O  43.33100 16.66900 34.19700
C  42.65200 17.66300 34.98100
H  49.78300 18.93500 30.80200
H  48.82600 18.09300 24.55000
H  43.71900 14.76800 25.63900
H  45.89300 17.70000 33.34200
H  48.81600 17.94100 32.81200
H  46.76100 19.73100 33.56600
H  47.27700 20.26000 31.93800
H  48.41500 20.13400 33.28100
H  47.83100 15.47100 32.96800
H  46.27800 15.29300 33.62500
H  48.63500 16.26500 35.03600
H  47.44800 15.38500 35.79800
H  51.97100 18.51300 30.02200
H  52.04600 20.11300 29.25000
H  52.82100 18.63700 28.58200
H  53.37100 19.29200 26.19900
H  52.21300 20.49800 26.73300
H  52.86100 20.43700 25.04100
H  47.56600 16.27600 23.26400
H  44.60400 16.00400 23.78400
H  45.33900 17.71300 22.76700
H  47.05500 18.14000 22.41100
H  46.37200 18.79500 23.87300
H  45.60500 13.46300 24.34400
H  47.00300 14.23400 23.60600
H  46.01000 14.10500 21.43700
H  44.58700 14.74600 22.03100
H  44.83100 13.00100 22.18000
H  41.70400 14.66800 26.88500
H  40.94000 14.20800 28.28100
H  42.05100 12.99900 27.48300
H  44.28200 14.87100 32.87500
H  43.10900 17.49700 35.95700
H  41.63600 17.27700 35.06700
H  42.65300 18.67100 34.56500

