158

Mg 46.13100 2.98800 47.46900
C  43.61500 5.36000 46.74200
C  43.71800 0.55900 47.27800
C  48.59600 0.75100 47.18500
C  48.50700 5.54900 46.98200
N  43.97600 2.97300 46.88500
C  43.08300 4.07800 46.79000
C  41.59000 3.63200 46.72600
C  41.73900 2.13200 47.18200
C  43.27000 1.81700 47.03800
C  40.92100 1.79100 48.46400
C  41.18600 3.74500 45.19800
C  39.88900 4.40300 44.79400
H  39.97800 5.59600 43.87200
N  46.14500 0.89800 47.31900
C  45.09200 0.11200 47.26600
C  45.56000 -1.31300 47.18400
C  46.97900 -1.31100 47.01800
C  47.35100 0.13000 47.16700
C  44.64700 -2.47900 47.36100
C  47.88200 -2.53500 46.77200
O  47.45800 -3.68500 46.73000
C  49.39000 -2.24800 46.61800
N  48.34900 3.12200 47.38000
C  49.05500 2.03900 47.18100
C  50.56200 2.43200 47.16800
C  50.48000 3.92000 46.72100
C  49.02000 4.24700 47.04000
C  51.44400 2.22500 48.41100
C  50.91300 4.25800 45.24600
C  52.38100 3.92300 44.79900
N  46.07600 5.02700 47.03400
C  47.09000 5.94000 46.88300
C  46.53000 7.26800 46.60200
C  45.14700 7.05600 46.61400
C  44.93600 5.67100 46.82000
C  47.28700 8.50000 46.37200
C  43.88200 7.73200 46.53400
O  43.59800 8.88700 46.41100
C  42.80300 6.66900 46.68500
C  41.94800 7.09800 47.84100
O  42.30200 7.31500 49.00400
O  40.69900 7.42700 47.30100
C  39.74700 7.91600 48.27800
H  42.87500 -0.13400 47.31600
H  49.51800 0.16800 47.22500
H  49.23300 6.27100 46.60300
H  40.81900 4.16200 47.28600
H  41.25700 1.40100 46.53300
H  40.43700 2.68300 48.86200
H  41.66100 1.44000 49.18300
H  40.14300 1.04500 48.30300
H  41.03000 2.74100 44.80300
H  42.07800 4.11400 44.69100
H  39.42000 4.88900 45.65000
H  39.14800 3.70300 44.40900
H  43.64600 -2.16000 47.65100
H  45.00100 -3.26600 48.02600
H  44.49500 -2.89600 46.36500
H  49.81600 -1.92900 47.56900
H  49.51200 -1.46400 45.87100
H  49.88300 -3.17100 46.31300
H  51.06800 2.00500 46.30200
H  51.05400 4.42800 47.49600
H  50.86700 2.01800 49.31300
H  52.17900 3.01300 48.57300
H  51.93300 1.28300 48.16400
H  50.63700 5.30500 45.11900
H  50.30300 3.74700 44.50100
H  52.89100 4.85400 44.55300
H  52.31100 3.20500 43.98200
H  52.93000 3.41500 45.59200
H  48.07000 8.60100 47.12400
H  46.65200 9.38500 46.33600
H  47.74200 8.44800 45.38200
H  42.20300 6.71700 45.77600
H  39.61700 7.29900 49.16700
H  38.81100 8.16600 47.77800
H  40.15100 8.89000 48.55500
Mg 34.88800 49.63600 25.58200
C  35.39800 47.63300 28.50800
C  33.28800 52.01300 27.53600
C  34.30400 51.06300 22.77800
C  36.01400 46.75400 23.79400
N  34.39400 49.75200 27.77000
C  34.71900 48.84200 28.79400
C  34.22700 49.42400 30.14500
C  33.39700 50.63200 29.73300
C  33.73800 50.89000 28.27300
C  31.84600 50.52000 30.03400
C  35.48700 49.75100 31.09700
C  35.41300 49.38200 32.54600
H  33.98100 49.51400 33.11900
N  33.96000 51.38200 25.20700
C  33.32200 52.25800 26.12800
C  32.81700 53.36800 25.38000
C  33.17700 53.10200 23.98400
C  33.80100 51.80700 23.92400
C  32.09600 54.51000 26.05600
C  32.98300 54.02400 22.80200
O  33.18000 53.74800 21.61900
C  32.37000 55.45400 22.94300
N  35.16700 49.06700 23.54300
C  34.95200 49.87800 22.57700
C  35.56600 49.51500 21.21600
C  35.93100 48.00200 21.48400
C  35.67900 47.89100 23.05300
C  34.49700 49.59600 20.05500
C  37.40700 47.62800 21.10500
C  38.50400 47.93100 22.08900
N  35.58300 47.63500 25.97300
C  36.03400 46.61800 25.14100
C  36.49600 45.47200 25.95200
C  36.24100 45.89100 27.27300
C  35.71700 47.13300 27.21400
C  37.14700 44.25600 25.45300
C  36.31200 45.44000 28.71800
O  36.69300 44.31900 29.17500
C  35.73700 46.53900 29.55400
C  34.58400 45.99700 30.34000
O  33.46500 45.69400 29.90000
O  34.96600 45.78600 31.63200
C  34.06700 45.01800 32.51200
H  32.93800 52.79500 28.21300
H  34.08400 51.56000 21.83100
H  36.43800 45.92400 23.22500
H  33.58800 48.79200 30.76200
H  33.80600 51.50100 30.24900
H  31.31600 50.80100 29.12400
H  31.66300 51.28600 30.78700
H  31.60900 49.55800 30.48800
H  35.66800 50.82600 31.12100
H  36.31700 49.30000 30.55400
H  36.07000 50.04100 33.11400
H  35.72700 48.33900 32.58300
H  32.41100 55.53300 25.85200
H  32.19600 54.59200 27.13800
H  31.05200 54.52600 25.74200
H  31.99900 55.69700 21.94700
H  33.06600 56.21800 23.28900
H  31.56000 55.32800 23.66100
H  36.44700 50.09200 20.93600
H  35.22200 47.30900 21.03100
H  34.31300 50.66000 19.90600
H  33.63600 49.00900 20.37500
H  34.72500 49.06300 19.13100
H  37.70500 48.17900 20.21300
H  37.55400 46.59000 20.80900
H  38.08500 48.43700 22.95900
H  39.22500 48.67900 21.75800
H  39.10600 47.11100 22.47900
H  37.40800 43.56700 26.25500
H  38.00100 44.49000 24.81800
H  36.40000 43.75000 24.84100
H  36.42400 46.96800 30.28400
H  33.28000 45.65700 32.91400
H  34.63700 44.80100 33.41500
H  33.70900 44.10900 32.02800

