158

Mg 48.36700 35.78100 28.11000
C  46.28800 34.02700 30.39900
C  48.66900 38.18700 30.32100
C  49.93500 37.47700 25.64800
C  47.39000 33.38200 25.69100
N  47.59200 36.00900 30.02500
C  46.89900 35.14600 30.79200
C  46.83000 35.64800 32.19700
C  47.12000 37.18400 32.10200
C  47.84000 37.15900 30.72600
C  45.84500 38.15000 32.18000
C  47.67400 34.81200 33.25600
C  48.68400 35.60800 34.18400
H  48.21500 36.66600 35.21100
N  49.32900 37.51900 28.06900
C  49.39400 38.38100 29.15300
C  50.16300 39.48300 28.81200
C  50.59700 39.32800 27.43400
C  49.95100 38.07400 26.95400
C  50.37400 40.66800 29.71400
C  51.36400 40.31800 26.52400
O  51.63900 40.01200 25.34700
C  51.92900 41.69700 26.92900
N  48.51500 35.47100 26.01600
C  49.26400 36.34700 25.19300
C  49.49300 35.80600 23.71500
C  48.96300 34.33200 23.96700
C  48.20900 34.43900 25.30300
C  48.83000 36.69800 22.60000
C  50.06100 33.27200 23.91400
C  49.70400 31.92400 23.27600
N  47.07600 34.06900 28.00400
C  46.77000 33.19500 26.93900
C  45.82800 32.15700 27.35500
C  45.51000 32.48700 28.68600
C  46.39700 33.58800 29.02700
C  45.35500 31.04100 26.36700
C  44.70900 32.17900 29.82400
O  43.92400 31.30700 30.10300
C  45.09700 33.22900 30.89300
C  45.32200 32.62200 32.21000
O  46.23300 31.87800 32.52400
O  44.36200 33.04900 33.09700
C  44.43500 32.63900 34.52900
H  48.70000 39.06200 30.97400
H  50.50100 37.98500 24.86400
H  47.15200 32.71100 24.86300
H  45.81700 35.49500 32.56900
H  47.82800 37.57400 32.83300
H  44.91500 37.61100 32.35600
H  45.72000 38.62900 31.20800
H  45.91100 38.98000 32.88300
H  48.14100 33.92900 32.82100
H  46.90500 34.35100 33.87600
H  49.44700 36.04200 33.53800
H  49.29700 34.87300 34.70400
H  50.10800 40.63200 30.77100
H  49.81500 41.47400 29.23800
H  51.42800 40.86000 29.91700
H  51.14200 42.44300 27.03900
H  52.52400 42.04400 26.08400
H  52.48700 41.58500 27.85900
H  50.55800 35.83100 23.48700
H  48.22000 34.03000 23.22900
H  49.49600 36.91900 21.76600
H  48.52500 37.64900 23.03600
H  47.94700 36.22400 22.17100
H  50.42400 33.10500 24.92800
H  50.80500 33.79100 23.31000
H  50.35600 31.74400 22.42200
H  48.71400 31.87600 22.82100
H  49.87400 31.11700 23.98900
H  44.49000 30.49000 26.73500
H  46.15900 30.32000 26.21900
H  45.18400 31.37000 25.34200
H  44.28400 33.95500 30.91500
H  45.47600 32.50700 34.82600
H  43.88100 31.76800 34.87900
H  43.92700 33.42600 35.08600
Mg 31.39200 59.14100 40.55400
C  28.63900 57.18300 39.78700
C  33.43400 56.57300 39.49600
C  33.98800 61.12700 40.88900
C  29.23800 61.90700 41.07000
N  31.04500 57.15300 39.72800
C  29.82600 56.50000 39.54700
C  30.01700 55.10400 38.97200
C  31.50500 54.83300 39.25500
C  32.04000 56.24800 39.53100
C  31.73900 53.78400 40.39400
C  29.61600 55.12400 37.44600
C  28.48300 54.16700 36.97800
H  27.52500 54.74800 35.89600
N  33.44800 58.92400 40.29900
C  34.07900 57.80700 39.82600
C  35.43500 58.11100 39.65800
C  35.65000 59.37500 40.16200
C  34.34200 59.89100 40.44500
C  36.30800 57.15700 38.74500
C  37.04600 60.04800 40.22900
O  38.03700 59.35200 39.98200
C  37.38200 61.46900 40.53500
N  31.53300 61.40100 40.77000
C  32.80200 61.77300 41.17200
C  32.69500 63.20700 41.85800
C  31.11600 63.47700 41.72900
C  30.56000 62.17300 41.19000
C  33.27900 63.22800 43.28500
C  30.67500 64.59000 40.65000
C  29.45500 65.41500 40.96600
N  29.35400 59.49900 40.48600
C  28.63900 60.65300 40.73700
C  27.21500 60.31200 40.68200
C  27.11300 58.97800 40.36100
C  28.44800 58.52300 40.21800
C  26.08200 61.20900 40.86100
C  26.20600 57.86600 40.12600
O  24.98500 57.72800 40.20600
C  27.17600 56.58900 39.68400
C  27.09900 55.45600 40.59400
O  27.69200 55.33900 41.62400
O  26.29800 54.46100 40.05000
C  26.23100 53.24000 40.90900
H  34.05700 55.69400 39.31700
H  34.85600 61.70400 41.21600
H  28.59800 62.64400 41.55900
H  29.43500 54.46500 39.63600
H  31.85200 54.40600 38.31400
H  31.21500 54.30800 41.19300
H  32.82500 53.85600 40.46100
H  31.32400 52.78100 40.29600
H  30.55100 55.02200 36.89600
H  29.26800 56.13100 37.21900
H  27.97800 53.87100 37.89800
H  28.88600 53.26000 36.52800
H  35.61800 56.63000 38.08700
H  36.89700 56.49000 39.37600
H  37.01600 57.69100 38.11200
H  37.30500 61.56600 41.61800
H  36.68600 62.11900 40.00600
H  38.34900 61.69700 40.08600
H  33.11200 63.98000 41.21200
H  30.73300 63.83100 42.68600
H  33.81100 62.27700 43.32900
H  32.55700 63.25800 44.10100
H  33.94400 64.08500 43.38600
H  30.19000 63.99100 39.88000
H  31.47800 65.21900 40.26500
H  29.12500 65.27300 41.99600
H  28.55800 65.19000 40.39100
H  29.72700 66.45200 40.77200
H  25.30000 60.82700 40.20400
H  26.28400 62.26200 40.66800
H  25.76100 61.21500 41.90300
H  27.16500 56.24900 38.64900
H  25.20200 52.88300 40.96100
H  26.55600 53.37600 41.94000
H  26.87000 52.54800 40.36000

