158

Mg -3.35600 16.77800 27.36000
C  -3.12400 14.72100 30.32300
C  -3.32100 19.63100 29.34100
C  -3.49600 18.53700 24.66100
C  -3.44800 13.84500 25.52400
N  -3.23700 17.09600 29.55900
C  -3.11000 16.12700 30.57600
C  -3.12000 16.76400 31.94900
C  -3.28600 18.24300 31.56600
C  -3.20800 18.39600 30.05000
C  -4.59500 18.83500 32.18200
C  -1.87400 16.41300 32.81100
C  -1.51900 17.31800 34.07300
H  -0.84000 16.72000 35.29300
N  -3.36500 18.77300 27.00700
C  -3.35200 19.77800 27.95900
C  -3.23400 21.01200 27.34600
C  -3.31200 20.78900 25.92700
C  -3.45300 19.30400 25.79700
C  -3.18500 22.31800 28.06500
C  -3.09500 21.78400 24.64600
O  -3.15300 21.43400 23.48000
C  -2.57500 23.20000 24.93200
N  -3.41800 16.23000 25.33500
C  -3.48700 17.16500 24.37400
C  -3.43800 16.51400 22.96300
C  -3.28700 15.02500 23.29000
C  -3.40400 15.03900 24.78500
C  -4.68800 16.79800 22.05000
C  -1.96500 14.36700 22.84300
C  -1.88700 13.94300 21.39500
N  -3.43200 14.74600 27.76100
C  -3.40500 13.68300 26.89700
C  -3.36200 12.39200 27.59200
C  -3.23700 12.79600 28.93200
C  -3.32500 14.22300 28.98800
C  -3.43900 11.02700 27.06400
C  -3.23500 12.28500 30.28500
O  -3.12700 11.13400 30.74800
C  -3.02900 13.56600 31.25600
C  -1.66200 13.36400 31.80000
O  -0.72100 13.94600 31.34200
O  -1.68700 12.69900 32.97600
C  -0.43200 12.63800 33.73000
H  -3.38400 20.41600 30.09800
H  -3.50000 19.12400 23.74000
H  -3.49700 12.97900 24.86000
H  -4.02200 16.43600 32.46500
H  -2.49700 18.82200 32.04500
H  -4.58400 19.92400 32.13200
H  -4.53500 18.69100 33.26100
H  -5.44900 18.35900 31.70100
H  -1.01800 16.35600 32.13800
H  -1.93300 15.39600 33.19800
H  -2.45000 17.79300 34.38400
H  -0.86200 18.11900 33.73400
H  -2.23300 22.82700 27.91000
H  -3.33500 22.22500 29.14100
H  -3.93900 23.01400 27.69700
H  -1.67600 23.06900 25.53400
H  -3.26400 23.82900 25.49500
H  -2.36700 23.74400 24.01000
H  -2.56400 16.95300 22.48100
H  -4.16500 14.51600 22.89100
H  -5.34300 17.54300 22.50100
H  -5.37700 16.02500 21.70900
H  -4.31600 17.30600 21.16000
H  -1.73300 13.46200 23.40400
H  -1.16500 15.09600 22.97800
H  -2.76700 14.35800 20.90100
H  -1.86800 12.85700 21.30300
H  -0.98300 14.33500 20.93000
H  -4.45400 10.66000 27.21900
H  -2.67900 10.49900 27.63900
H  -3.05900 10.90200 26.05000
H  -3.77100 13.42600 32.04300
H  -0.31400 13.46100 34.43400
H  0.47900 12.48900 33.14900
H  -0.57900 11.68600 34.23900
Mg 37.13600 49.70500 24.76100
C  37.28100 47.86600 27.85800
C  35.68600 52.22900 26.44400
C  36.26000 51.25200 21.69000
C  38.10500 46.97600 23.03200
N  36.46700 49.88300 26.92700
C  36.67500 49.11900 28.04500
C  36.15700 49.69100 29.28600
C  35.63000 51.07400 28.76300
C  35.90200 51.06200 27.22000
C  34.15600 51.42700 28.95700
C  37.27500 49.85600 30.40200
C  36.94500 49.42200 31.84500
H  35.42300 49.32300 32.22100
N  36.25400 51.60300 24.18500
C  35.77700 52.52200 25.06600
C  35.24600 53.69700 24.29500
C  35.33300 53.35900 22.96000
C  35.95700 51.96500 22.85800
C  34.69400 54.95500 24.98200
C  34.95200 54.24000 21.77300
O  35.18300 53.83600 20.66300
C  34.39500 55.57500 21.91700
N  37.29100 49.32000 22.76500
C  36.83900 50.02300 21.67500
C  37.08900 49.29400 20.41700
C  38.00000 48.10800 20.83200
C  37.77800 48.12700 22.33000
C  35.68500 48.82100 19.84800
C  39.52800 48.30400 20.59400
C  40.37300 47.09000 20.13600
N  37.61300 47.84500 25.23000
C  37.96300 46.80000 24.43400
C  38.52400 45.65000 25.29100
C  38.27200 46.06100 26.62100
C  37.72000 47.40500 26.54600
C  39.19900 44.45000 24.75300
C  38.36200 45.56500 28.04900
O  38.84400 44.63100 28.62000
C  37.65600 46.78100 28.82900
C  36.49700 46.33100 29.72100
O  35.28300 46.30800 29.41000
O  36.97300 45.85700 30.97500
C  36.03100 45.11700 31.77100
H  35.32500 53.12100 26.96100
H  35.94300 51.63500 20.71800
H  38.44700 46.13600 22.42300
H  35.32200 49.18100 29.76600
H  36.27200 51.90200 29.06400
H  33.50500 50.57000 29.13200
H  33.73000 52.03900 28.16200
H  34.05000 51.87000 29.94700
H  37.48900 50.91800 30.51800
H  38.23400 49.42400 30.11600
H  37.51100 49.97700 32.59300
H  37.34700 48.43400 32.06700
H  35.29300 55.82000 24.69800
H  34.76300 54.92100 26.06900
H  33.63200 55.12200 24.79900
H  33.61500 55.64100 22.67600
H  33.86700 55.73900 20.97800
H  35.14200 56.35200 22.08000
H  37.61000 49.87800 19.65900
H  37.61700 47.19300 20.38000
H  35.54800 49.33200 18.89500
H  34.84400 49.07600 20.49200
H  35.72300 47.73500 19.76300
H  40.02000 48.87300 21.38300
H  39.59100 48.96000 19.72500
H  41.07800 46.62600 20.82500
H  40.98900 47.35600 19.27700
H  39.63800 46.40700 19.70900
H  39.99400 44.60400 24.02300
H  38.51500 43.69700 24.36200
H  39.69600 43.99000 25.60800
H  38.41500 47.05800 29.56000
H  35.69700 45.79800 32.55400
H  36.44900 44.21500 32.21900
H  35.11800 44.84600 31.24100

