158

Mg 5.52000 54.31400 41.53800
C  4.92200 50.90900 41.07900
C  8.55600 54.05400 39.95300
C  5.61600 57.75500 41.59200
C  2.06800 54.62100 42.62500
N  6.55200 52.65100 40.54900
C  6.18500 51.32000 40.58100
C  7.30900 50.44300 40.09700
C  8.57500 51.45000 40.13600
C  7.84400 52.79500 40.17800
C  9.64300 51.21900 41.24300
C  7.03700 49.83000 38.72000
C  6.30200 50.62800 37.65500
H  5.50100 49.70800 36.67400
N  6.90800 55.67300 40.91100
C  8.10300 55.35400 40.30200
C  8.68400 56.53800 39.93400
C  7.94100 57.65200 40.47400
C  6.75700 57.04500 41.12100
C  9.96100 56.49400 39.01700
C  8.28500 59.15500 40.19200
O  9.33800 59.39100 39.62700
C  7.34900 60.33700 40.45900
N  4.06400 56.01300 42.12800
C  4.32800 57.33000 41.89700
C  3.16200 58.23400 42.19800
C  2.00700 57.18100 42.53900
C  2.73500 55.85100 42.43500
C  3.41400 59.25900 43.27200
C  0.59100 57.41700 41.83000
C  -0.67600 57.41500 42.79800
N  3.82200 53.03800 41.86200
C  2.59900 53.29200 42.32300
C  1.94300 52.01500 42.50600
C  2.81100 51.04400 42.07600
C  3.95500 51.74700 41.65200
C  0.64900 51.68300 43.08700
C  3.08700 49.67000 42.06700
O  2.47700 48.75000 42.55100
C  4.38400 49.48300 41.29500
C  3.97000 48.74700 40.11100
O  3.49800 49.28000 39.12100
O  4.12000 47.37400 40.30200
C  3.49200 46.46500 39.33100
H  9.58000 54.01200 39.57600
H  5.63300 58.84500 41.53000
H  0.97800 54.63000 42.69500
H  7.49600 49.56800 40.71900
H  9.19100 51.41600 39.23800
H  9.55400 50.28800 41.80300
H  9.76400 52.10000 41.87400
H  10.62600 51.11000 40.78700
H  6.49100 48.89100 38.81800
H  8.04900 49.54800 38.42900
H  7.11200 51.13700 37.13200
H  5.55800 51.31100 38.06500
H  10.41200 57.47900 38.89200
H  9.74800 56.07500 38.03400
H  10.76600 55.94600 39.50600
H  7.86000 61.29900 40.44100
H  7.12400 60.32000 41.52600
H  6.54300 60.33900 39.72600
H  2.92600 58.72600 41.25400
H  1.85600 57.28400 43.61400
H  3.65500 60.20800 42.79400
H  4.40600 59.18000 43.71800
H  2.55600 59.27800 43.94300
H  0.49000 56.63800 41.07500
H  0.60700 58.36800 41.29600
H  -1.50800 56.85900 42.36700
H  -1.10700 58.40800 42.91800
H  -0.30600 56.85500 43.65800
H  0.05500 51.41200 42.21400
H  0.20700 52.54600 43.58300
H  0.86800 50.91100 43.82500
H  5.11500 48.98900 41.93500
H  2.46000 46.36000 39.66800
H  4.01400 45.50800 39.33600
H  3.34600 46.74300 38.28700
Mg -11.96600 16.21400 42.22300
C  -8.91500 14.73400 41.88400
C  -10.65700 19.16500 40.84400
C  -15.06400 17.42100 41.73200
C  -13.32000 13.00500 42.97000
N  -9.97700 16.81000 41.32700
C  -8.89300 16.02700 41.32800
C  -7.69300 16.75300 40.69300
C  -8.26100 18.21300 40.47400
C  -9.72900 18.09300 40.84900
C  -7.55000 19.37700 41.32600
C  -7.25300 16.11300 39.35700
C  -5.71800 16.19200 39.00100
H  -5.28100 17.00000 37.79000
N  -12.73100 18.10500 41.53300
C  -12.01100 19.15500 41.09800
C  -12.95300 20.25300 40.81000
C  -14.24600 19.81600 41.13200
C  -14.06000 18.39200 41.44700
C  -12.44700 21.50200 40.14100
C  -15.54400 20.55600 41.04700
O  -15.53600 21.75200 40.68600
C  -17.05300 19.86600 41.20900
N  -13.88700 15.28800 42.08600
C  -14.94800 16.07800 42.03900
C  -16.30100 15.20700 42.21900
C  -15.73300 13.86600 42.64900
C  -14.22300 14.05000 42.60100
C  -17.37600 15.76800 43.22000
C  -16.20500 12.63000 41.85400
C  -17.05300 11.72500 42.70800
N  -11.25200 14.28100 42.70000
C  -11.89600 13.14200 43.04700
C  -10.91000 12.13700 43.32600
C  -9.70800 12.67100 42.85500
C  -9.99500 13.99100 42.42500
C  -11.18700 10.87900 44.01300
C  -8.36100 12.37100 42.65900
O  -7.72300 11.36900 42.92600
C  -7.82900 13.71900 41.96800
C  -6.86500 14.18300 42.96000
O  -7.10000 14.77700 44.01200
O  -5.58300 13.99900 42.53100
C  -4.45800 14.51500 43.37200
H  -10.18900 20.05600 40.42100
H  -16.11700 17.67900 41.59600
H  -13.75400 12.01100 43.09300
H  -6.93300 16.78300 41.47300
H  -8.16700 18.50200 39.42800
H  -6.59600 19.00000 41.69600
H  -8.06200 19.71700 42.22700
H  -7.31400 20.24300 40.70700
H  -7.80700 16.59100 38.54900
H  -7.50800 15.05600 39.28100
H  -5.35200 15.17600 38.85500
H  -5.16100 16.55400 39.86600
H  -11.95800 21.28700 39.19100
H  -11.72600 21.89500 40.85900
H  -13.13200 22.31800 39.91000
H  -17.80800 20.63700 41.05200
H  -17.25800 19.44200 42.19200
H  -17.25500 19.06800 40.49400
H  -16.66400 15.25400 41.19200
H  -15.99600 13.75200 43.70100
H  -18.20400 16.04300 42.56600
H  -17.04800 16.67400 43.73100
H  -17.73000 15.02400 43.93400
H  -15.30600 12.06700 41.60300
H  -16.75700 12.93100 40.96400
H  -17.57300 12.27800 43.49100
H  -16.47500 10.89800 43.12100
H  -17.90300 11.31800 42.16000
H  -11.37200 10.14200 43.23200
H  -12.10100 10.87700 44.60800
H  -10.30000 10.60500 44.58400
H  -7.30100 13.51300 41.03700
H  -4.81000 15.42500 43.85800
H  -3.60600 14.84100 42.77600
H  -4.12700 13.85300 44.17300

