158

Mg 30.95100 57.68600 40.11300
C  28.51900 55.34900 39.01100
C  33.29800 55.27200 39.64200
C  33.25500 60.07500 40.25600
C  28.39400 60.12800 40.13000
N  30.85600 55.49000 39.35200
C  29.80300 54.82600 38.90800
C  30.29800 53.43000 38.41600
C  31.71400 53.25700 39.03700
C  32.00900 54.77900 39.38600
C  31.94400 52.18800 40.14900
C  30.22900 53.27100 36.80700
C  28.97700 52.49400 36.28400
H  28.08300 53.18600 35.15900
N  32.95500 57.63000 40.03600
C  33.75600 56.54600 39.86700
C  35.14300 56.93700 39.84800
C  35.21000 58.26600 40.10800
C  33.75700 58.73400 40.17700
C  36.34000 55.92200 39.61700
C  36.43400 59.08100 40.34300
O  37.52600 58.51700 40.40200
C  36.34200 60.52400 40.70700
N  30.80900 59.93200 40.05500
C  31.93000 60.60200 40.28000
C  31.55800 62.13900 40.54300
C  29.98700 62.11900 40.77900
C  29.67100 60.66200 40.35700
C  32.30000 62.97800 41.60800
C  29.18000 63.26500 40.09300
C  28.04200 63.86500 40.97900
N  28.84000 57.82500 39.73100
C  27.92900 58.86900 39.91800
C  26.62800 58.40300 39.39100
C  26.79200 56.98800 39.19200
C  28.14500 56.65600 39.41900
C  25.44600 59.25100 39.02600
C  26.13400 55.80500 38.79500
O  24.93900 55.65100 38.62100
C  27.22200 54.63900 38.66100
C  26.86800 53.36400 39.34900
O  27.13500 53.17000 40.49600
O  26.18300 52.41900 38.63400
C  25.70300 51.29300 39.32500
H  34.06900 54.50300 39.55600
H  34.09400 60.75600 40.41300
H  27.64500 60.92100 40.17900
H  29.65600 52.72600 38.94600
H  32.43400 53.08600 38.23600
H  32.44600 52.59000 41.02900
H  32.59300 51.38900 39.78900
H  31.00100 51.70200 40.39800
H  31.08300 52.64700 36.54200
H  30.32700 54.24500 36.32800
H  28.27600 52.31200 37.09800
H  29.32600 51.56300 35.83500
H  37.18100 56.42600 39.14000
H  36.12200 54.99300 39.08900
H  36.58800 55.51900 40.59900
H  37.26200 60.93400 41.12200
H  35.65300 60.56800 41.55100
H  36.03200 61.17000 39.88600
H  31.68600 62.69800 39.61600
H  29.83500 62.06500 41.85700
H  32.77500 62.28800 42.30500
H  31.56500 63.51100 42.21200
H  32.96900 63.69400 41.13000
H  28.58800 62.80500 39.30100
H  29.77300 64.07000 39.66000
H  28.06900 64.95400 41.02100
H  28.15000 63.50400 42.00200
H  27.09300 63.67600 40.47800
H  24.63300 59.26900 39.75200
H  24.96600 58.72400 38.20100
H  25.61900 60.29200 38.75200
H  27.12300 54.53000 37.58100
H  24.99400 50.72400 38.72300
H  25.19800 51.71900 40.19300
H  26.54900 50.69900 39.67100
Mg -10.87100 16.83500 41.33800
C  -7.58300 15.52000 41.02900
C  -9.67400 19.96300 40.75200
C  -14.04200 17.74400 40.99800
C  -11.90000 13.39600 41.64700
N  -8.83900 17.60900 40.83600
C  -7.63100 16.92600 40.87100
C  -6.49900 17.92700 40.58400
C  -7.14800 19.31200 40.81800
C  -8.60900 18.97500 40.81100
C  -6.68100 20.06600 42.04500
C  -5.81700 17.79100 39.06500
C  -4.29000 17.52000 39.00800
H  -3.78200 16.31600 38.17400
N  -11.77800 18.62800 40.94400
C  -11.15100 19.82300 40.70900
C  -12.13200 20.85300 40.49700
C  -13.40700 20.24200 40.62300
C  -13.14100 18.80100 40.81400
C  -11.79500 22.26400 40.14100
C  -14.80300 20.96800 40.45500
O  -14.79100 22.16500 40.21200
C  -16.17500 20.30000 40.55000
N  -12.67500 15.70300 41.30700
C  -13.86400 16.34000 41.13800
C  -15.07400 15.36100 41.31900
C  -14.30600 13.98300 41.50900
C  -12.83900 14.36400 41.53500
C  -16.11800 15.69500 42.45300
C  -14.74300 12.83500 40.55500
C  -14.98800 11.55100 41.35200
N  -10.01400 14.82300 41.41500
C  -10.54300 13.53700 41.58700
C  -9.53900 12.59800 41.63600
C  -8.29900 13.30500 41.48800
C  -8.67000 14.66300 41.24300
C  -9.80500 11.12300 41.89200
C  -6.89000 13.15800 41.53200
O  -6.24200 12.15500 41.78900
C  -6.39900 14.53000 41.09000
C  -5.37000 14.89700 42.00000
O  -5.45100 15.49400 43.05900
O  -4.16900 14.42600 41.45500
C  -2.98500 14.55700 42.32500
H  -9.33100 20.99800 40.69000
H  -15.03700 18.19200 40.95600
H  -12.17400 12.42600 42.06600
H  -5.65200 17.73800 41.24300
H  -6.98500 20.00000 39.98800
H  -5.68400 19.77700 42.37800
H  -7.36100 19.73100 42.82800
H  -6.71100 21.13700 41.84400
H  -6.09500 18.71900 38.56400
H  -6.26200 16.92800 38.57000
H  -3.87600 17.36800 40.00500
H  -3.78700 18.42000 38.65400
H  -12.17500 22.46800 39.14000
H  -10.73400 22.48600 40.02200
H  -12.14800 22.94400 40.91600
H  -16.14400 19.43700 39.88600
H  -17.02300 20.94900 40.32900
H  -16.26800 19.99600 41.59200
H  -15.67800 15.47400 40.41900
H  -14.48200 13.61100 42.51800
H  -16.12900 15.03200 43.31800
H  -17.09500 15.77000 41.97600
H  -15.84000 16.73200 42.64400
H  -13.94500 12.70000 39.82500
H  -15.65700 13.21500 40.09800
H  -15.84100 11.79000 41.98800
H  -14.15300 11.50100 42.05100
H  -15.09900 10.55300 40.93000
H  -10.58400 10.78600 41.20900
H  -10.04600 10.76400 42.89200
H  -8.93000 10.56700 41.55700
H  -5.89700 14.56400 40.12300
H  -2.57800 15.56700 42.38100
H  -2.18100 13.92100 41.95600
H  -3.17400 14.18400 43.33200

