158

Mg 24.02900 -6.86500 45.47500
C  26.15900 -4.66400 43.86400
C  21.41400 -5.47800 43.41600
C  22.23200 -9.73500 45.82400
C  26.77800 -8.62700 46.80600
N  23.86600 -5.18000 43.81400
C  24.90700 -4.30100 43.48400
C  24.47200 -3.19500 42.47600
C  22.82200 -3.32000 42.69200
C  22.65600 -4.75600 43.28700
C  22.25400 -2.16700 43.57500
C  24.94500 -3.45300 40.98200
C  25.49900 -2.21600 40.18400
H  24.94500 -1.89300 38.79100
N  22.01100 -7.41500 44.89800
C  21.04900 -6.68900 44.10300
C  19.83300 -7.44800 44.03700
C  20.07400 -8.68500 44.71400
C  21.49700 -8.69100 45.15900
C  18.58800 -6.96900 43.37800
C  18.92700 -9.67700 44.86900
O  17.80200 -9.41400 44.44400
C  19.01600 -10.95700 45.74000
N  24.48100 -9.03600 46.00200
C  23.51900 -9.87800 46.31400
C  24.07300 -11.17200 46.91600
C  25.60100 -10.81500 47.35800
C  25.64300 -9.45700 46.59800
C  23.23900 -11.91600 48.02900
C  26.67200 -11.80100 46.85600
C  27.45400 -12.62100 47.93600
N  26.01400 -6.62600 45.54500
C  27.01500 -7.35600 46.12200
C  28.23500 -6.64200 45.93900
C  28.00800 -5.65600 44.99900
C  26.59900 -5.71800 44.71700
C  29.58000 -6.90100 46.61500
C  28.61000 -4.55500 44.26400
O  29.76900 -4.19500 44.32400
C  27.43200 -3.99300 43.29300
C  27.38700 -2.55500 43.41200
O  27.62000 -1.77400 42.46400
O  26.88100 -2.14900 44.63900
C  26.89100 -0.67700 44.83300
H  20.70600 -4.85100 42.86900
H  21.69300 -10.68000 45.91100
H  27.63900 -9.01000 47.35800
H  24.79800 -2.26400 42.93900
H  22.34300 -3.17100 41.72400
H  21.53800 -1.56900 43.01100
H  22.98400 -1.51900 44.06000
H  21.68800 -2.45000 44.46200
H  24.03700 -3.81300 40.49800
H  25.73200 -4.20300 40.89900
H  26.57800 -2.33500 40.08200
H  25.43900 -1.38400 40.88500
H  18.21700 -7.56100 42.54100
H  18.76400 -5.97000 42.97700
H  17.70700 -6.88200 44.01400
H  19.33600 -10.56900 46.70700
H  19.63400 -11.68800 45.21800
H  18.03800 -11.41400 45.89300
H  24.02100 -11.88200 46.09000
H  25.50500 -10.57500 48.41700
H  22.35100 -11.31000 48.21300
H  23.77300 -11.84500 48.97700
H  22.98900 -12.95700 47.82500
H  27.45100 -11.23000 46.35200
H  26.16200 -12.40100 46.10200
H  27.00200 -12.45400 48.91400
H  28.52900 -12.46000 47.84900
H  27.26900 -13.69200 47.85600
H  29.41000 -7.19700 47.65000
H  30.15900 -5.98500 46.73000
H  30.16500 -7.66300 46.09800
H  27.53700 -4.26600 42.24300
H  27.90000 -0.28200 44.70900
H  26.61400 -0.48300 45.87000
H  26.27600 -0.16300 44.09400
Mg 34.69200 49.56700 25.73400
C  34.54100 47.94800 28.98900
C  33.31000 52.36000 27.33700
C  34.11900 50.88000 22.74700
C  35.52300 46.56800 24.25900
N  33.99200 50.07800 27.87800
C  34.06500 49.33500 29.04300
C  33.76500 50.10400 30.33900
C  33.19100 51.45300 29.78800
C  33.38900 51.26200 28.22600
C  31.71700 51.73300 30.06300
C  35.00000 50.15300 31.28600
C  34.85800 49.46600 32.59900
H  33.55900 49.64600 33.38900
N  34.07100 51.43900 25.15900
C  33.57200 52.43900 25.96900
C  33.37600 53.57800 25.13800
C  33.57000 53.19000 23.79200
C  33.85500 51.76600 23.84900
C  32.98100 54.93100 25.63000
C  33.51900 54.05100 22.52000
O  33.59800 53.64700 21.40200
C  33.32600 55.51000 22.62700
N  34.60300 48.78500 23.79700
C  34.45400 49.54100 22.70300
C  34.96500 48.87500 21.40500
C  35.43800 47.51300 21.93200
C  35.24300 47.65600 23.42200
C  33.94200 48.91700 20.29200
C  36.80000 47.05400 21.35600
C  38.02300 47.63200 22.09100
N  34.90000 47.60400 26.45000
C  35.27600 46.49800 25.69400
C  35.53400 45.35000 26.61800
C  35.21100 45.91600 27.89200
C  34.90900 47.26100 27.75200
C  35.98200 43.93800 26.33400
C  35.12500 45.57000 29.29300
O  35.37300 44.51400 29.87400
C  34.64100 46.88200 30.03400
C  33.46800 46.68600 30.92400
O  32.36000 47.12100 30.70600
O  33.76300 45.81100 31.90200
C  32.67400 45.48400 32.88900
H  33.23100 53.30800 27.87400
H  34.14500 51.36900 21.77100
H  35.87900 45.73300 23.65100
H  32.98000 49.60400 30.90600
H  33.72700 52.27700 30.26000
H  31.34600 51.06200 30.83800
H  30.94900 51.68600 29.29100
H  31.63900 52.74800 30.45300
H  35.32500 51.18700 31.40700
H  35.76800 49.81200 30.59300
H  35.70200 49.75400 33.22600
H  34.92500 48.39000 32.43800
H  33.82100 55.61400 25.50400
H  32.84200 54.91300 26.71100
H  31.99500 55.15100 25.22100
H  32.29900 55.77000 22.88200
H  33.46700 55.93400 21.63300
H  34.14800 55.99800 23.15100
H  35.77100 49.42100 20.91500
H  34.73100 46.77500 21.55300
H  32.94900 49.27600 20.56500
H  33.82900 47.96900 19.76600
H  34.29800 49.53200 19.46600
H  36.80200 47.41100 20.32600
H  36.93500 45.97700 21.26000
H  38.63800 46.77400 22.36300
H  37.85900 48.21900 22.99500
H  38.63000 48.04600 21.28700
H  35.48000 43.41000 25.52400
H  35.93500 43.21800 27.15200
H  37.04000 43.93500 26.07200
H  35.48200 47.20400 30.64800
H  33.21700 45.24800 33.80400
H  32.15600 44.64200 32.43000
H  31.98700 46.25100 33.24700

