158

Mg 48.65900 45.54300 43.83400
C  45.09100 45.56800 42.83200
C  48.77100 42.34100 42.87600
C  51.86300 45.91500 43.80000
C  48.36700 49.15100 44.17600
N  47.12000 44.18500 42.84000
C  45.80900 44.36600 42.51000
C  45.24100 43.05100 42.01300
C  46.32800 42.02200 42.40000
C  47.53300 42.90200 42.80700
C  45.91600 41.09200 43.58100
C  44.65800 42.98800 40.61900
C  45.64900 43.07300 39.43200
H  45.36900 42.29100 38.09700
N  50.16500 44.21300 43.46200
C  50.03200 42.93900 43.01400
C  51.27900 42.31700 42.95700
C  52.19200 43.35400 43.18100
C  51.46100 44.55800 43.54000
C  51.51400 40.89800 42.50700
C  53.75500 43.07000 43.13200
O  54.16400 41.96800 42.89400
C  54.65400 44.11000 43.44700
N  49.93200 47.33400 43.77700
C  51.25800 47.16600 43.81400
C  52.04700 48.45600 43.83700
C  50.88300 49.56300 43.74200
C  49.57500 48.62300 43.77400
C  53.00900 48.77400 45.04600
C  51.01500 50.43500 42.50700
C  51.04300 52.00400 42.76900
N  47.05800 46.99100 43.73100
C  47.14600 48.39100 43.93200
C  45.82400 48.93700 43.71000
C  44.98200 47.88300 43.31800
C  45.75000 46.70300 43.32300
C  45.41600 50.38400 43.71400
C  43.63900 47.51900 42.81700
O  42.73000 48.20300 42.42000
C  43.63400 45.90500 42.55300
C  42.68400 45.21400 43.44800
O  42.14100 44.07900 43.17000
O  42.26800 45.99300 44.53400
C  41.39600 45.41400 45.56000
H  48.83400 41.25500 42.78300
H  52.94900 45.91200 43.91400
H  48.36000 50.19200 44.50700
H  44.33400 42.91000 42.60100
H  46.50700 41.36900 41.54600
H  44.88300 41.28500 43.86900
H  46.55400 41.32900 44.43200
H  46.02400 40.02900 43.36200
H  43.83400 43.68600 40.47100
H  44.13000 42.04100 40.50600
H  46.63500 42.96400 39.88200
H  45.53500 44.08800 39.05000
H  52.28100 40.83600 41.73500
H  50.61100 40.33400 42.27800
H  51.92500 40.30100 43.32200
H  54.57800 45.02300 42.85600
H  55.68500 43.75900 43.41600
H  54.40700 44.34900 44.48100
H  52.63900 48.52900 42.92500
H  50.89900 50.28900 44.55400
H  52.59000 49.57300 45.65800
H  53.90500 49.18400 44.57900
H  53.25700 47.92400 45.68300
H  50.10400 50.28400 41.92800
H  51.74200 50.11200 41.76200
H  51.88100 52.48800 42.26600
H  51.17900 52.20700 43.83100
H  50.08800 52.46800 42.52100
H  44.71600 50.80300 44.43700
H  44.83700 50.41900 42.79100
H  46.23300 51.10600 43.70600
H  43.23200 45.68000 41.56500
H  41.40600 45.68300 46.61600
H  41.34500 44.33800 45.39200
H  40.36800 45.58600 45.24000
Mg -12.09900 16.96300 40.63000
C  -8.92400 15.51700 39.96800
C  -10.79500 19.91700 39.59400
C  -15.19600 18.22400 40.72700
C  -13.28700 13.71900 41.27500
N  -10.10100 17.65800 39.82700
C  -8.96500 16.90200 39.68000
C  -7.79200 17.72500 39.11900
C  -8.34600 19.17600 39.24100
C  -9.82100 18.91800 39.64400
C  -7.49100 20.15800 40.06500
C  -7.45900 17.26500 37.65000
C  -6.05300 17.52200 37.08400
H  -6.11200 17.85800 35.57200
N  -12.91000 18.79100 40.14400
C  -12.14900 19.91300 39.78400
C  -13.08300 21.02500 39.66900
C  -14.39200 20.58900 40.05800
C  -14.19600 19.15500 40.31700
C  -12.53000 22.42600 39.25700
C  -15.65400 21.48400 40.09100
O  -15.60700 22.68100 39.84200
C  -16.92900 20.95800 40.58900
N  -13.97800 16.09000 40.81400
C  -15.13000 16.88000 40.96800
C  -16.32000 15.92200 41.37700
C  -15.63400 14.63600 41.89900
C  -14.24600 14.77600 41.29000
C  -17.44900 16.46200 42.37300
C  -16.36600 13.24200 41.53300
C  -16.66700 12.16400 42.57700
N  -11.28000 14.99800 40.63200
C  -11.89300 13.77800 40.97500
C  -10.90700 12.70800 40.96000
C  -9.71600 13.30800 40.48500
C  -9.99900 14.68700 40.39200
C  -11.19500 11.35100 41.24800
C  -8.34900 13.09200 40.11700
O  -7.81000 11.99300 39.90800
C  -7.78500 14.45900 39.83900
C  -6.71000 14.73900 40.75700
O  -6.84300 15.00500 41.93000
O  -5.48500 14.49400 40.18200
C  -4.23600 14.72500 40.83300
H  -10.34700 20.90100 39.44500
H  -16.23000 18.54500 40.87400
H  -13.70900 12.81000 41.70800
H  -6.83300 17.55900 39.61000
H  -8.53800 19.58900 38.25100
H  -6.63000 19.64400 40.49200
H  -8.06000 20.57100 40.89900
H  -7.11000 20.94600 39.41600
H  -8.17300 17.85600 37.07700
H  -7.68100 16.20900 37.49500
H  -5.36600 16.67900 37.16600
H  -5.73700 18.49600 37.45700
H  -12.09300 22.28300 38.26900
H  -11.65000 22.79100 39.78600
H  -13.28600 23.21200 39.22200
H  -17.68400 21.71800 40.78700
H  -16.72800 20.42300 41.51700
H  -17.24600 20.17400 39.90100
H  -16.90000 15.70600 40.47900
H  -15.46800 14.80000 42.96400
H  -17.41500 17.53900 42.53900
H  -17.61700 15.90500 43.29500
H  -18.39500 16.25300 41.87300
H  -15.85500 12.77700 40.69000
H  -17.25600 13.58400 41.00500
H  -17.30600 11.52100 41.97100
H  -17.19300 12.68100 43.38000
H  -15.71400 11.71200 42.85400
H  -11.53200 10.80600 40.36600
H  -11.85800 11.23400 42.10500
H  -10.23700 10.89400 41.49600
H  -7.47700 14.42900 38.79400
H  -3.79400 13.82500 41.26100
H  -4.39200 15.45400 41.62800
H  -3.48700 15.28300 40.27000

