158

Mg -2.24500 35.38100 27.31900
C  -4.06800 33.45700 29.54200
C  -1.32000 37.45000 29.86500
C  -0.57800 37.13200 25.10500
C  -3.45100 33.24700 24.72200
N  -2.71000 35.49800 29.36400
C  -3.31700 34.55100 30.13000
C  -3.17300 34.75400 31.59900
C  -2.60800 36.11500 31.69000
C  -2.16600 36.38200 30.27400
C  -3.64400 37.15600 32.29200
C  -2.55200 33.60400 32.43200
C  -3.27100 33.04900 33.60900
H  -2.48800 32.51600 34.82000
N  -1.20500 37.09500 27.46400
C  -0.87000 37.78200 28.57300
C  -0.02200 38.93500 28.27900
C  0.21200 38.86800 26.88200
C  -0.52600 37.65700 26.42100
C  0.30300 40.01400 29.28900
C  1.01900 39.75400 26.04100
O  1.13500 39.56700 24.81000
C  1.74300 40.95200 26.68500
N  -2.02300 35.26700 25.27300
C  -1.20900 36.02700 24.55500
C  -1.15000 35.68400 23.03900
C  -2.05300 34.44700 23.00300
C  -2.54900 34.23100 24.44600
C  -1.62500 36.79000 22.02700
C  -1.28200 33.13100 22.46500
C  -1.76200 32.55100 21.09500
N  -3.64600 33.84900 27.08600
C  -3.97300 33.01300 26.02500
C  -4.92500 31.98300 26.41200
C  -4.91800 32.05800 27.78100
C  -4.19000 33.22500 28.18500
C  -5.56100 30.93200 25.55200
C  -5.32500 31.41900 28.94800
O  -5.91300 30.36100 29.10500
C  -4.88200 32.33400 30.20200
C  -6.20200 32.83600 30.89500
O  -7.11600 33.45100 30.24000
O  -6.27600 32.60600 32.18500
C  -7.46200 32.91700 32.88200
H  -0.99600 37.92900 30.79200
H  -0.12700 37.72800 24.30900
H  -3.77300 32.46400 24.03200
H  -4.21600 34.81900 31.90900
H  -1.67600 36.07500 32.25300
H  -3.23300 38.16200 32.37800
H  -3.89700 36.98400 33.33800
H  -4.59000 37.06400 31.75800
H  -1.63400 33.98400 32.88100
H  -2.31000 32.79200 31.74700
H  -3.73400 32.12400 33.26400
H  -4.08400 33.68700 33.95600
H  0.03100 39.85700 30.33200
H  -0.11200 40.94000 28.88900
H  1.39000 40.08900 29.30100
H  2.78600 40.73300 26.91400
H  1.34300 41.39400 27.59800
H  1.58700 41.70100 25.90900
H  -0.13300 35.35000 22.83100
H  -2.97700 34.56700 22.43600
H  -1.12100 36.49100 21.10800
H  -1.57100 37.82100 22.37700
H  -2.68600 36.62100 21.84400
H  -1.34600 32.39200 23.26400
H  -0.21700 33.27000 22.28100
H  -0.79200 32.38500 20.62700
H  -2.45800 33.23400 20.60700
H  -2.30300 31.64200 21.35500
H  -6.43300 30.48500 26.03000
H  -4.88100 30.15900 25.19500
H  -5.88300 31.29700 24.57700
H  -4.23000 31.76500 30.86400
H  -7.15500 33.60400 33.67100
H  -7.88200 31.99400 33.28100
H  -8.28300 33.37700 32.33200
Mg -5.10100 25.73000 26.98900
C  -4.00300 27.52800 29.64700
C  -6.80300 23.58100 28.94900
C  -5.90300 23.86400 24.18100
C  -3.24000 27.91800 24.87500
N  -5.28300 25.54200 29.04600
C  -4.73500 26.37900 29.99700
C  -5.21300 25.99400 31.36800
C  -5.82700 24.62100 31.15100
C  -6.07200 24.58200 29.60700
C  -4.99400 23.42100 31.64700
C  -6.29500 27.00200 31.87200
C  -6.59100 27.05000 33.33300
H  -6.10000 25.99000 34.33900
N  -6.12400 23.90800 26.61000
C  -6.91900 23.31800 27.53400
C  -7.74500 22.18600 26.92900
C  -7.39800 22.26000 25.54100
C  -6.45800 23.36000 25.38100
C  -8.77300 21.28000 27.66700
C  -7.83800 21.35800 24.47000
O  -7.44500 21.54700 23.31300
C  -8.78200 20.12900 24.76000
N  -4.43000 25.75900 24.89900
C  -4.96900 24.89900 23.92700
C  -4.45000 25.23600 22.53000
C  -3.78900 26.67300 22.73900
C  -3.77600 26.78100 24.27800
C  -3.42100 24.11300 22.05800
C  -4.59200 27.83000 22.02800
C  -3.71900 28.72700 21.13700
N  -3.87900 27.38600 27.24600
C  -3.22700 28.22100 26.26800
C  -2.60100 29.30600 26.94500
C  -2.87100 29.06900 28.29100
C  -3.67000 27.94000 28.39600
C  -1.78000 30.34200 26.29600
C  -2.71700 29.58700 29.60000
O  -2.08500 30.54600 30.03300
C  -3.43200 28.60800 30.58000
C  -2.47500 28.17600 31.65200
O  -1.41900 27.59300 31.44600
O  -3.03700 28.44300 32.85700
C  -2.12800 27.95700 33.90300
H  -7.40600 22.95600 29.61100
H  -6.11300 23.41200 23.20900
H  -2.56400 28.56000 24.30600
H  -4.38200 25.99000 32.07300
H  -6.74900 24.70400 31.72700
H  -3.99800 23.75600 31.93600
H  -4.92600 22.58200 30.95400
H  -5.53800 23.01600 32.50100
H  -7.21600 26.87400 31.30300
H  -5.94800 28.01000 31.64600
H  -7.67000 26.91800 33.24800
H  -6.34900 28.06200 33.65600
H  -9.69300 21.26400 27.08300
H  -8.93000 21.81200 28.60500
H  -8.47200 20.26000 27.90700
H  -8.53700 19.55200 25.65200
H  -8.68100 19.43300 23.92700
H  -9.79700 20.51900 24.68200
H  -5.25600 25.23000 21.79500
H  -2.76400 26.71000 22.37000
H  -3.73900 23.62800 21.13400
H  -3.23000 23.39900 22.85900
H  -2.40800 24.50800 21.98200
H  -5.12000 28.39200 22.79800
H  -5.38500 27.45900 21.37900
H  -2.68800 28.68200 21.48800
H  -4.13900 29.70900 20.91800
H  -3.70600 28.19700 20.18500
H  -2.23100 30.92600 25.49400
H  -0.90100 29.94700 25.78600
H  -1.52900 31.12200 27.01500
H  -4.23100 29.23300 30.97700
H  -2.28600 26.88100 33.97400
H  -2.38300 28.34700 34.88900
H  -1.08400 28.19900 33.70000

