158

Mg -1.63200 17.21900 26.67300
C  -2.07800 14.83600 29.07200
C  -2.42300 19.60800 28.85900
C  -1.47200 19.37900 24.11400
C  -1.87800 14.62200 24.18100
N  -1.86400 17.18900 28.78800
C  -1.94200 16.11400 29.57700
C  -2.10600 16.57900 31.06400
C  -2.73500 18.04600 30.90700
C  -2.39100 18.31900 29.38900
C  -4.19600 18.34300 31.23900
C  -0.68400 16.63200 31.67000
C  -0.52400 17.22800 33.10400
H  -0.29900 16.30200 34.32500
N  -1.77500 19.21800 26.49000
C  -1.96300 20.06600 27.62200
C  -1.94900 21.49500 27.18000
C  -1.74000 21.44700 25.72600
C  -1.62500 19.97900 25.35700
C  -2.37900 22.63500 28.07300
C  -1.79000 22.55700 24.73100
O  -1.68000 22.40900 23.51700
C  -1.89600 23.90200 25.30500
N  -1.59400 16.99700 24.52800
C  -1.51600 18.08900 23.69400
C  -1.60700 17.68800 22.25300
C  -1.46400 16.16100 22.25000
C  -1.64900 15.92500 23.72700
C  -2.88800 18.20900 21.54200
C  -0.12500 15.64800 21.55300
C  1.07400 15.36200 22.52100
N  -1.87900 15.13400 26.58600
C  -2.02900 14.21800 25.51800
C  -2.20400 12.89300 26.01000
C  -2.21900 13.10400 27.41600
C  -2.03500 14.49200 27.69600
C  -2.09200 11.73700 25.23200
C  -2.24800 12.46900 28.72500
O  -2.30100 11.27400 29.03200
C  -2.41300 13.58900 29.81300
C  -1.53700 13.37800 30.98000
O  -0.39500 13.05700 31.06300
O  -2.38700 13.55000 32.05700
C  -1.86200 13.46800 33.44100
H  -2.64200 20.34800 29.63200
H  -1.34000 20.12600 23.32700
H  -1.93600 13.82200 23.44000
H  -2.78800 15.87600 31.54200
H  -2.21300 18.74600 31.56000
H  -4.13300 19.23500 31.86200
H  -4.61700 17.46100 31.72100
H  -4.77200 18.61600 30.35400
H  0.03700 17.06700 30.97900
H  -0.28300 15.63900 31.87300
H  -1.47900 17.74300 33.20800
H  0.25600 17.99000 33.11300
H  -2.76500 22.29500 29.03500
H  -3.21900 23.04600 27.51400
H  -1.47100 23.22400 28.20100
H  -1.74800 24.61100 24.49000
H  -1.02900 23.94100 25.96300
H  -2.88800 24.05400 25.73200
H  -0.82000 18.19700 21.69600
H  -2.34100 15.61800 21.89800
H  -3.59100 17.37900 21.48400
H  -2.63700 18.40500 20.49900
H  -3.29600 19.10000 22.02000
H  0.24700 16.45700 20.92400
H  -0.34300 14.82900 20.86900
H  0.77700 15.27800 23.56600
H  1.79500 16.17800 22.47500
H  1.63500 14.49400 22.17700
H  -2.95800 11.54100 24.60000
H  -2.07900 10.93300 25.96700
H  -1.13000 11.77300 24.72200
H  -3.47100 13.68200 30.05900
H  -2.40200 14.16600 34.08100
H  -0.80800 13.74400 33.48200
H  -1.89500 12.43500 33.78700
Mg 36.76300 49.21400 24.89900
C  37.12900 47.30100 27.88900
C  35.19900 51.54200 26.75100
C  36.32500 50.89100 22.15400
C  37.55300 46.28000 23.06600
N  36.15200 49.37500 27.08600
C  36.52000 48.53800 28.14000
C  36.18800 49.20000 29.47600
C  35.33600 50.43400 29.05600
C  35.51800 50.48100 27.55900
C  33.88000 50.45900 29.57500
C  37.50500 49.51600 30.25200
C  37.45700 49.48600 31.76800
H  36.07800 49.49400 32.50100
N  35.99800 50.99700 24.56300
C  35.52600 51.88600 25.41800
C  35.32400 53.16000 24.78000
C  35.41800 52.95600 23.40700
C  35.90700 51.51900 23.30200
C  34.79900 54.36700 25.49800
C  35.23400 53.89200 22.15400
O  35.29100 53.40100 20.98500
C  34.90000 55.31500 22.30000
N  36.79500 48.65400 22.88700
C  36.78400 49.59000 21.90200
C  37.03200 49.06300 20.57000
C  37.48400 47.57500 20.90800
C  37.26600 47.46000 22.39700
C  35.72800 49.10800 19.67400
C  38.85800 47.32500 20.30800
C  40.01400 47.72100 21.27800
N  37.23900 47.18800 25.29600
C  37.54800 46.09700 24.46000
C  37.89200 44.96700 25.21800
C  37.82600 45.43600 26.60600
C  37.30100 46.72100 26.59100
C  38.41300 43.66100 24.66500
C  37.98000 44.99200 27.94900
O  38.28500 43.87800 28.40300
C  37.58600 46.17900 28.80800
C  36.42200 45.63400 29.60400
O  35.34700 45.26300 29.13800
O  36.73300 45.68700 30.91900
C  35.81000 45.06900 31.87800
H  34.56100 52.22300 27.31900
H  36.18400 51.40800 21.20200
H  37.71000 45.41000 22.42500
H  35.59200 48.47100 30.02500
H  35.70100 51.42300 29.33300
H  33.29000 50.67300 28.68400
H  33.78800 51.31200 30.24800
H  33.69100 49.51700 30.08900
H  37.85000 50.52500 30.02900
H  38.30100 48.80400 30.03300
H  37.97500 50.35100 32.18100
H  38.05800 48.64800 32.12200
H  34.57400 54.22800 26.55600
H  33.78600 54.52700 25.13000
H  35.40900 55.26300 25.37900
H  33.93800 55.31800 22.81200
H  34.92500 55.73300 21.29300
H  35.65900 55.83000 22.88900
H  37.83000 49.65600 20.12300
H  36.83400 46.86000 20.40400
H  34.84300 49.19600 20.30400
H  35.71500 48.28700 18.95700
H  35.77600 49.96100 18.99600
H  39.08600 47.90800 19.41500
H  39.11000 46.30700 20.01000
H  40.17500 46.95400 22.03500
H  39.73700 48.62100 21.82800
H  40.98800 47.76500 20.79200
H  37.88600 43.57000 23.71500
H  38.05600 42.78000 25.19900
H  39.49100 43.56500 24.54100
H  38.44900 46.50300 29.39100
H  35.11900 45.86900 32.14100
H  36.32500 44.61900 32.72700
H  35.15400 44.35300 31.38200

