158

Mg 41.63200 40.58500 27.03400
C  40.95200 43.23300 29.49900
C  42.52700 38.69700 29.54200
C  42.68200 38.60600 24.65500
C  40.98100 43.17500 24.46500
N  41.83000 41.02600 29.34400
C  41.41500 42.03000 30.09700
C  41.40000 41.71800 31.61900
C  42.04100 40.21000 31.55600
C  42.06500 39.91000 30.03800
C  43.43200 40.09600 32.29600
C  39.92400 41.87900 32.23300
C  39.74200 42.68500 33.50800
H  39.07000 42.04900 34.82400
N  42.49000 38.83700 27.14300
C  42.79100 38.16800 28.26200
C  43.31200 36.88600 27.91100
C  43.20500 36.75900 26.48700
C  42.78100 38.10800 26.03100
C  43.81500 35.91900 28.90900
C  43.45800 35.55700 25.57300
O  43.58400 35.66100 24.33000
C  43.53800 34.22400 26.25900
N  41.81700 40.88500 24.90900
C  42.15900 39.79600 24.16200
C  42.09200 40.09500 22.63300
C  41.58400 41.56000 22.60800
C  41.47300 41.91200 24.09700
C  43.51100 39.95200 22.00400
C  40.27500 41.64100 21.70400
C  40.32200 42.53500 20.55500
N  41.20400 42.77300 26.96900
C  40.86300 43.59900 25.85500
C  40.56300 44.93300 26.41800
C  40.52700 44.80400 27.84100
C  40.93600 43.51600 28.09300
C  40.11100 46.18600 25.60500
C  40.17700 45.47500 29.03100
O  39.78200 46.64700 29.16600
C  40.37600 44.48300 30.16700
C  41.33100 45.18300 31.13300
O  42.53900 45.26200 30.97500
O  40.71700 45.80600 32.14300
C  41.59900 46.55400 33.03000
H  42.62900 37.94000 30.32300
H  43.10700 37.90900 23.93000
H  40.67900 43.85900 23.66900
H  42.05500 42.45100 32.09200
H  41.31700 39.56600 32.05400
H  43.74900 41.04300 32.73300
H  44.10400 39.61400 31.58600
H  43.43500 39.38600 33.12300
H  39.39400 40.95100 32.44800
H  39.24100 42.29300 31.49100
H  39.06300 43.44600 33.12300
H  40.67500 43.10500 33.88400
H  43.11200 35.08600 28.90400
H  43.95900 36.28500 29.92600
H  44.76100 35.53000 28.53100
H  44.49900 33.97800 26.71100
H  43.30200 33.49100 25.48800
H  42.67500 34.15500 26.92200
H  41.38700 39.33500 22.29500
H  42.40400 42.11600 22.15400
H  44.19800 40.44700 22.69000
H  43.55900 40.41500 21.01900
H  44.01400 38.98700 21.93900
H  39.38900 41.91000 22.28000
H  39.95900 40.64900 21.38000
H  39.29600 42.88700 20.44100
H  40.59900 41.88800 19.72200
H  41.03900 43.32600 20.77200
H  39.02400 46.12000 25.54900
H  40.46800 46.24700 24.57700
H  40.33200 47.12200 26.11800
H  39.39900 44.33100 30.62600
H  41.96700 46.01400 33.90200
H  41.00900 47.36300 33.46000
H  42.45000 47.01200 32.52600
Mg -10.70400 17.20600 40.95400
C  -7.16900 17.16300 41.04600
C  -10.57800 20.56500 40.48500
C  -14.04500 17.14500 40.29600
C  -10.56000 13.71300 41.11800
N  -9.03800 18.65000 40.59000
C  -7.68900 18.42900 40.71000
C  -6.85600 19.65600 40.48900
C  -7.99300 20.75600 40.70900
C  -9.30900 19.96600 40.61700
C  -7.93000 21.63400 42.03600
C  -6.34300 19.67100 39.01700
C  -4.84100 19.46900 38.88000
H  -4.35000 18.48500 37.80900
N  -12.11400 18.66000 40.53800
C  -11.83800 19.93700 40.32300
C  -12.97000 20.66200 39.99800
C  -14.11200 19.80500 39.93300
C  -13.49700 18.46300 40.30700
C  -12.92000 22.21800 39.58200
C  -15.58500 20.16800 39.67600
O  -15.90600 21.32300 39.53500
C  -16.63600 19.20400 39.62800
N  -12.08500 15.66300 40.62700
C  -13.36500 15.87200 40.44800
C  -14.17300 14.55500 40.47600
C  -13.07200 13.49200 40.64800
C  -11.79200 14.34300 40.74100
C  -15.35700 14.53000 41.48400
C  -13.06000 12.33500 39.55700
C  -12.78900 12.74200 38.09000
N  -9.17400 15.67500 41.02300
C  -9.30400 14.32900 41.23700
C  -8.06900 13.75500 41.60400
C  -7.20200 14.86900 41.50800
C  -7.96400 15.98900 41.12700
C  -7.73100 12.30700 41.88400
C  -5.79800 15.27500 41.68400
O  -4.78000 14.67000 41.93800
C  -5.75400 16.78400 41.38100
C  -5.06100 17.50900 42.53400
O  -3.88000 17.83600 42.53600
O  -5.97100 17.74100 43.49900
C  -5.33300 18.05900 44.79400
H  -10.51600 21.65200 40.56800
H  -15.07400 17.05000 39.94200
H  -10.63200 12.64600 41.33800
H  -6.14600 19.79900 41.30400
H  -8.06300 21.47900 39.89600
H  -7.98800 22.68200 41.74100
H  -6.97400 21.49700 42.54200
H  -8.75400 21.44400 42.72400
H  -6.61500 20.64100 38.60000
H  -6.77800 18.97100 38.30400
H  -4.44000 19.21300 39.86000
H  -4.46400 20.42900 38.52800
H  -12.65600 22.23200 38.52400
H  -12.19200 22.71700 40.22100
H  -13.88700 22.70900 39.69400
H  -16.48000 18.43200 38.87500
H  -17.57800 19.71300 39.42100
H  -16.69600 18.72200 40.60400
H  -14.64200 14.33400 39.51700
H  -13.16900 13.19200 41.69200
H  -15.26700 15.25200 42.29600
H  -15.58800 13.47300 41.61700
H  -16.13000 14.81500 40.76900
H  -14.07600 11.95800 39.43600
H  -12.34900 11.65000 40.01800
H  -11.76100 12.45200 37.87000
H  -12.86700 13.82700 38.02700
H  -13.43600 12.27700 37.34700
H  -8.38100 11.89600 42.65600
H  -6.65800 12.31200 42.07500
H  -7.99400 11.74300 40.98900
H  -5.10200 16.89300 40.51300
H  -6.03100 18.48900 45.51300
H  -4.53900 18.80500 44.73600
H  -4.93900 17.15400 45.25600

