158

Mg -0.26100 33.97700 26.74000
C  -2.31900 32.39400 29.05400
C  1.15700 35.76300 29.23000
C  1.05300 36.03700 24.33600
C  -1.82400 32.17000 24.22900
N  -0.57700 34.09200 28.91100
C  -1.39300 33.26400 29.59000
C  -1.25700 33.67800 31.11200
C  -0.23400 34.88300 31.08400
C  0.28600 34.82700 29.66900
C  -0.72200 36.26200 31.48800
C  -0.81900 32.47700 31.96300
C  -0.35600 32.72300 33.41800
H  -0.72700 31.84200 34.57800
N  1.08700 35.68200 26.77500
C  1.57400 36.18900 27.88300
C  2.52400 37.19900 27.51200
C  2.52600 37.35100 26.08000
C  1.50500 36.39800 25.64100
C  3.28600 37.96000 28.45600
C  3.26000 38.35000 25.16600
O  3.16900 38.31200 23.92400
C  4.28200 39.36900 25.64200
N  -0.60800 34.26600 24.67800
C  0.17500 35.10700 23.90000
C  0.08600 34.77500 22.42800
C  -0.80600 33.47800 22.33400
C  -1.06000 33.24000 23.82200
C  -0.40800 35.93800 21.51700
C  -0.12300 32.20600 21.72900
C  0.95300 31.55900 22.60800
N  -1.78500 32.66000 26.60100
C  -2.29700 31.96700 25.52200
C  -3.35800 31.00300 25.93300
C  -3.32900 31.12700 27.33200
C  -2.43800 32.16400 27.68000
C  -4.06100 30.01100 25.13700
C  -3.93700 30.58400 28.57600
O  -4.79700 29.74700 28.72500
C  -3.17800 31.32000 29.77600
C  -4.16900 31.81600 30.73500
O  -4.88300 32.78500 30.58200
O  -3.98400 31.13600 31.93900
C  -4.87500 31.50000 33.05000
H  1.58900 36.47500 29.93600
H  1.72700 36.55600 23.65200
H  -2.25100 31.56800 23.42400
H  -2.17700 34.06800 31.54800
H  0.66100 34.69600 31.67700
H  -1.41000 36.18300 32.33100
H  -1.26700 36.66400 30.63500
H  0.16400 36.84100 31.74900
H  0.01300 32.02100 31.42700
H  -1.57700 31.70000 32.05700
H  -0.53100 33.76600 33.68200
H  0.72200 32.56600 33.46200
H  2.84400 38.92200 28.71500
H  4.31000 38.16200 28.14000
H  3.38100 37.37300 29.36900
H  4.01900 39.68500 26.65100
H  4.20000 40.26700 25.02800
H  5.27200 38.91300 25.63800
H  1.07800 34.42700 22.14100
H  -1.67600 33.55600 21.68300
H  -0.09900 36.90900 21.90400
H  -1.49300 35.86100 21.45000
H  -0.13200 35.74400 20.48000
H  0.27400 32.39300 20.73100
H  -0.81100 31.36200 21.68200
H  1.86600 31.35300 22.04900
H  0.64700 30.60600 23.03800
H  1.28900 32.29600 23.33700
H  -3.54300 29.73700 24.21800
H  -5.01500 30.32200 24.71300
H  -4.30200 29.21600 25.84300
H  -2.48500 30.61200 30.23000
H  -4.16600 31.65500 33.86300
H  -5.62700 30.75000 33.29200
H  -5.45700 32.41500 32.93700
Mg -12.52300 16.15000 41.30000
C  -9.57400 14.35400 40.75500
C  -10.75400 18.97100 39.85700
C  -15.34600 17.78300 41.16800
C  -14.18300 13.29700 42.09600
N  -10.32600 16.61500 40.51900
C  -9.37700 15.67800 40.33100
C  -8.10400 16.24800 39.69700
C  -8.42800 17.82300 39.65600
C  -9.95800 17.81000 40.03300
C  -7.43500 18.68500 40.59300
C  -7.70000 15.59700 38.30700
C  -6.23600 15.11800 38.24300
H  -5.41500 15.78600 37.21500
N  -12.93100 18.15600 40.66700
C  -12.14100 19.13100 40.19800
C  -12.89200 20.29600 39.99400
C  -14.29600 19.93200 40.23100
C  -14.23800 18.59600 40.73400
C  -12.32800 21.64500 39.51100
C  -15.47100 20.85000 39.96500
O  -15.31300 22.08900 39.82900
C  -16.87800 20.37400 39.83500
N  -14.63600 15.51000 41.24100
C  -15.57900 16.44800 41.51300
C  -16.92400 15.90000 41.95700
C  -16.42800 14.44800 42.39500
C  -14.95800 14.43200 41.92800
C  -17.75000 16.82700 42.97000
C  -17.35200 13.42600 41.75200
C  -17.63900 12.24800 42.65300
N  -11.99300 14.17000 41.58500
C  -12.77300 13.08400 41.88700
C  -11.96700 11.89900 41.83800
C  -10.70300 12.33400 41.48100
C  -10.75800 13.72800 41.26800
C  -12.42500 10.56100 42.07700
C  -9.33700 11.94300 41.16700
O  -8.81000 10.84900 41.28600
C  -8.53500 13.18000 40.74200
C  -7.43700 13.33600 41.78600
O  -7.61100 13.80400 42.92800
O  -6.18900 13.14200 41.19600
C  -4.95000 13.35000 41.95000
H  -10.19700 19.83600 39.48900
H  -16.19800 18.46300 41.22000
H  -14.65200 12.36700 42.42200
H  -7.35800 15.88300 40.40300
H  -8.30800 18.28300 38.67500
H  -6.68000 18.01200 40.99700
H  -7.96500 19.26500 41.34900
H  -6.89500 19.29100 39.86500
H  -7.96400 16.33300 37.54800
H  -8.31400 14.73200 38.05400
H  -6.26700 14.02900 38.24400
H  -5.68100 15.27900 39.16700
H  -12.49800 21.80800 38.44700
H  -11.25100 21.67700 39.67900
H  -12.90100 22.38700 40.06700
H  -16.80400 19.40900 39.33300
H  -17.36500 21.02600 39.10900
H  -17.39200 20.34100 40.79500
H  -17.47000 15.72600 41.03000
H  -16.35400 14.33600 43.47600
H  -17.72000 16.33000 43.93900
H  -18.72000 16.95300 42.48900
H  -17.25000 17.79500 43.00000
H  -16.93100 13.07700 40.80900
H  -18.35800 13.73900 41.47500
H  -18.61600 11.81800 42.43400
H  -17.69900 12.61500 43.67700
H  -16.89200 11.46800 42.50400
H  -11.58500 9.87300 41.98000
H  -13.23600 10.24900 41.42000
H  -12.80100 10.51600 43.09900
H  -8.07400 12.94500 39.78300
H  -4.04800 13.03000 41.42900
H  -4.97600 12.68800 42.81500
H  -4.86700 14.33400 42.41200

