158

Mg 0.86800 43.53800 25.38000
C  3.11300 43.43600 28.22900
C  -1.78900 43.18000 27.39100
C  -0.91700 42.79800 22.61400
C  3.83300 43.50600 23.40600
N  0.66100 43.46600 27.55600
C  1.70200 43.34900 28.50300
C  1.04200 43.30900 29.85000
C  -0.52300 43.09600 29.60000
C  -0.57200 43.25200 28.09400
C  -1.09000 41.81600 30.10800
C  1.38100 44.54800 30.75900
C  0.78300 44.65400 32.21300
H  0.32500 43.36500 32.76900
N  -1.08300 43.09500 25.07000
C  -2.05000 43.07300 26.00400
C  -3.32500 42.84600 25.34900
C  -3.09500 42.55600 24.03700
C  -1.59200 42.90300 23.85400
C  -4.63700 42.74500 26.09200
C  -4.02900 41.88300 22.98700
O  -3.71200 41.77400 21.79700
C  -5.35300 41.36700 23.42800
N  1.47400 43.02100 23.32900
C  0.47600 42.90700 22.39900
C  1.04200 42.74800 21.04000
C  2.54000 43.25600 21.18300
C  2.65000 43.30800 22.74200
C  0.94400 41.29300 20.57100
C  2.87400 44.57000 20.39800
C  2.36200 45.87300 20.91300
N  3.07400 43.59900 25.70600
C  4.13700 43.56700 24.80000
C  5.35100 43.57500 25.47500
C  5.06600 43.46800 26.77600
C  3.66600 43.55100 26.92800
C  6.75100 43.68300 24.82200
C  5.55700 43.33500 28.15200
O  6.72100 43.26200 28.53300
C  4.30700 43.35600 29.19500
C  4.31300 42.03000 29.97400
O  3.92700 40.93700 29.51000
O  4.84600 42.25700 31.24200
C  4.66000 41.22800 32.34100
H  -2.64000 42.94800 28.03400
H  -1.46400 42.66000 21.67900
H  4.72100 43.49800 22.77100
H  1.54900 42.51300 30.39600
H  -1.02800 43.97300 30.00500
H  -1.69700 42.08100 30.97300
H  -0.37600 41.10100 30.51700
H  -1.67700 41.36300 29.30900
H  1.22300 45.45300 30.17300
H  2.45100 44.43800 30.93400
H  -0.06000 45.34200 32.14900
H  1.55800 45.15100 32.79600
H  -4.83600 41.69200 26.29100
H  -5.48300 43.26800 25.64600
H  -4.41100 43.24700 27.03300
H  -5.33100 40.62700 24.22800
H  -5.79800 40.84800 22.57900
H  -5.94500 42.24300 23.69400
H  0.40500 43.35200 20.39300
H  3.20500 42.45200 20.86900
H  0.42800 40.68900 21.31700
H  1.89100 40.76100 20.48300
H  0.38400 41.24600 19.63700
H  2.39400 44.48200 19.42300
H  3.95300 44.59100 20.24200
H  1.65100 46.36000 20.24600
H  3.27100 46.41500 21.17100
H  1.92600 45.70600 21.89700
H  7.54700 43.48700 25.53900
H  6.77200 44.73400 24.53400
H  6.71600 43.04800 23.93600
H  4.45200 44.22500 29.83600
H  3.74400 41.43700 32.89400
H  5.49700 41.33200 33.03200
H  4.55700 40.28900 31.79800
Mg -6.01900 25.33300 26.46600
C  -4.29000 26.74200 29.15900
C  -7.49100 23.16600 28.54100
C  -7.26200 23.96000 23.77000
C  -4.01200 27.51200 24.28700
N  -5.80100 24.92000 28.60900
C  -5.15400 25.67400 29.54200
C  -5.61800 25.36400 31.03100
C  -6.39400 24.02500 30.77800
C  -6.63700 24.01500 29.20500
C  -5.62200 22.74000 31.26700
C  -6.51500 26.50200 31.62600
C  -6.27100 27.00000 33.10500
H  -5.69900 25.90600 34.04400
N  -7.28600 23.74600 26.19500
C  -7.86300 23.00400 27.16900
C  -8.64600 21.97900 26.66000
C  -8.54400 22.20300 25.21700
C  -7.65000 23.35000 24.97400
C  -9.35700 20.88400 27.40500
C  -9.24800 21.49400 24.10600
O  -9.05900 21.78600 22.95600
C  -10.38800 20.46800 24.36500
N  -5.59800 25.61800 24.29200
C  -6.35200 24.97600 23.42000
C  -6.10000 25.42400 21.96000
C  -5.02400 26.55300 22.10300
C  -4.78700 26.60300 23.62100
C  -5.51600 24.32300 21.02400
C  -5.53800 28.02500 21.64000
C  -4.62600 28.85000 20.73300
N  -4.55900 26.85000 26.66100
C  -3.87500 27.63600 25.66400
C  -2.98700 28.62700 26.40800
C  -3.14400 28.27000 27.77900
C  -4.08000 27.23600 27.84300
C  -1.89900 29.58000 25.79300
C  -2.56100 28.57700 29.08900
O  -1.77000 29.44600 29.46500
C  -3.37800 27.52900 30.11700
C  -2.43600 26.69500 30.79700
O  -1.85400 25.77000 30.22300
O  -2.32300 27.17300 32.10600
C  -1.28200 26.57100 33.00300
H  -8.07900 22.52600 29.20200
H  -7.68800 23.44400 22.90700
H  -3.47000 28.24000 23.68000
H  -4.75800 25.13700 31.66200
H  -7.33500 23.91500 31.31600
H  -6.34300 21.92900 31.37600
H  -4.99900 22.79300 32.16000
H  -4.90100 22.51700 30.48100
H  -7.57700 26.27700 31.53600
H  -6.30600 27.35300 30.97800
H  -7.20900 27.28600 33.58000
H  -5.47800 27.74200 33.20500
H  -9.20100 19.86700 27.04500
H  -10.43000 21.03300 27.28400
H  -9.09800 20.87400 28.46400
H  -10.78700 20.07100 23.43300
H  -11.08000 20.92900 25.06900
H  -9.81100 19.65000 24.79700
H  -7.07000 25.85100 21.70400
H  -4.02900 26.35900 21.70300
H  -6.22700 24.25100 20.20200
H  -5.54700 23.31600 21.44000
H  -4.48700 24.48000 20.69900
H  -5.75700 28.66500 22.49400
H  -6.42100 27.80900 21.03800
H  -3.59500 28.52100 20.60500
H  -4.54700 29.73800 21.36000
H  -5.06600 29.03100 19.75200
H  -2.22800 30.61800 25.74700
H  -1.74600 29.27800 24.75700
H  -0.99600 29.53600 26.40200
H  -3.87000 28.08400 30.91600
H  -0.67600 27.31100 33.52500
H  -0.64700 25.88600 32.43900
H  -1.67300 26.06600 33.88600

