158

Mg 7.88900 2.41500 27.28400
C  9.22700 0.77700 30.03700
C  6.20800 4.58000 29.08900
C  6.35000 3.45400 24.43400
C  9.29400 -0.32700 25.30500
N  7.74200 2.60300 29.27100
C  8.42700 1.94500 30.28200
C  8.19100 2.62200 31.62500
C  6.98300 3.62800 31.34700
C  7.04800 3.65600 29.80600
C  5.55800 3.09600 31.83300
C  9.50900 3.30700 32.13700
C  9.29100 4.22300 33.42400
H  10.25600 3.99100 34.56500
N  6.54400 3.90800 26.82100
C  6.04500 4.79100 27.74100
C  5.18700 5.71800 27.09600
C  5.19800 5.46800 25.67200
C  6.02700 4.27700 25.53100
C  4.47000 6.84500 27.90800
C  4.41600 6.18500 24.54700
O  4.57100 5.89600 23.36300
C  3.56100 7.30200 24.92200
N  7.96300 1.66500 25.17200
C  7.18400 2.27100 24.29000
C  7.16000 1.49600 22.99100
C  8.28300 0.43100 23.12900
C  8.50400 0.57000 24.58800
C  5.82000 0.91400 22.62700
C  9.65200 0.84800 22.43500
C  10.52100 -0.31600 21.90200
N  9.09600 0.57600 27.58800
C  9.61200 -0.37000 26.71000
C  10.32200 -1.30500 27.47300
C  10.31500 -0.82600 28.76700
C  9.45000 0.24900 28.78400
C  11.13000 -2.43100 27.00200
C  10.83900 -1.07200 30.07300
O  11.70700 -1.81900 30.44200
C  10.14200 -0.03400 31.00600
C  9.37500 -0.68200 32.10800
O  8.49300 -1.58100 32.02800
O  9.93500 -0.24200 33.27500
C  9.47300 -0.77500 34.58700
H  5.60500 5.26700 29.68600
H  5.95000 3.81100 23.48300
H  9.69400 -1.15300 24.71300
H  7.94400 1.94300 32.44100
H  7.21400 4.63500 31.69600
H  5.07500 2.48000 31.07400
H  4.88100 3.88400 32.16400
H  5.71600 2.50700 32.73700
H  9.85000 3.84300 31.25200
H  10.17700 2.53000 32.50900
H  8.40600 3.79700 33.89800
H  9.18000 5.29400 33.25500
H  3.41800 6.57700 28.01200
H  4.63500 7.75600 27.33300
H  4.95000 7.00900 28.87300
H  4.27000 8.07800 25.20800
H  2.93600 7.09600 25.79100
H  2.86800 7.62500 24.14500
H  7.39200 2.21500 22.20500
H  7.91900 -0.58400 22.97400
H  5.17700 0.91200 23.50800
H  5.75000 -0.10400 22.24600
H  5.35700 1.56900 21.88900
H  10.27300 1.44400 23.10300
H  9.52100 1.56700 21.62600
H  10.97800 -0.13500 20.92900
H  9.89900 -1.21000 21.86800
H  11.21100 -0.52600 22.71900
H  10.55300 -3.18700 26.47000
H  11.66500 -2.80600 27.87300
H  11.78000 -2.04100 26.21900
H  10.98000 0.57700 31.34200
H  9.17700 0.09100 35.18000
H  10.29800 -1.26900 35.10000
H  8.66500 -1.50500 34.62800
Mg -1.24200 33.93600 26.76200
C  -3.13900 32.17600 29.28200
C  -0.24000 36.07700 29.17800
C  0.25600 35.63500 24.37300
C  -2.74000 31.81000 24.29500
N  -1.60500 34.04500 28.94900
C  -2.33500 33.22200 29.77600
C  -2.14700 33.68900 31.22500
C  -1.45300 35.04700 31.14900
C  -1.01700 35.07600 29.65300
C  -2.34200 36.23000 31.64500
C  -1.47600 32.65200 32.11000
C  -2.24400 31.90300 33.26000
H  -1.68300 32.17400 34.69200
N  -0.24900 35.66500 26.70700
C  0.19800 36.32100 27.85500
C  1.02600 37.40600 27.44600
C  1.11800 37.38200 26.00000
C  0.40700 36.20300 25.64000
C  1.80000 38.33600 28.44800
C  1.91300 38.32900 25.16000
O  1.89700 38.24000 23.97100
C  2.83000 39.42500 25.81600
N  -1.42200 33.90500 24.58700
C  -0.44700 34.55600 23.93400
C  -0.30200 34.11100 22.48200
C  -1.01000 32.66200 22.58800
C  -1.79900 32.74200 23.90700
C  -1.00200 35.09200 21.49100
C  -0.03200 31.50800 22.55300
C  -0.47700 30.29000 21.64400
N  -2.64200 32.34500 26.70400
C  -3.14300 31.59500 25.63400
C  -4.03900 30.51200 26.16600
C  -4.08200 30.75600 27.59400
C  -3.23400 31.88100 27.86200
C  -4.74800 29.42400 25.37200
C  -4.63900 30.27900 28.81900
O  -5.44600 29.36300 29.03400
C  -3.98600 31.14500 30.00600
C  -5.09700 31.80100 30.69400
O  -5.61600 32.82800 30.29600
O  -5.33900 31.18500 31.90500
C  -6.44600 31.71400 32.69200
H  0.21000 36.71500 29.94100
H  0.90900 36.05900 23.60800
H  -2.97300 30.98700 23.61600
H  -3.14700 33.86700 31.62000
H  -0.50600 35.02400 31.68800
H  -3.32000 35.96600 32.04700
H  -2.41900 37.01100 30.88800
H  -1.78800 36.76700 32.41500
H  -0.63300 33.10200 32.63500
H  -1.11800 31.93800 31.36800
H  -2.30600 30.84200 33.01700
H  -3.23100 32.34300 33.40100
H  2.87500 38.17100 28.51000
H  1.54400 38.19500 29.49800
H  1.63500 39.40600 28.31500
H  2.16700 40.08900 26.37100
H  3.28900 39.95400 24.98100
H  3.65800 39.00500 26.38600
H  0.77600 34.06800 22.32800
H  -1.69800 32.55800 21.74800
H  -1.67900 35.80600 21.96100
H  -1.60700 34.60000 20.72900
H  -0.19100 35.57800 20.94900
H  0.20600 31.19900 23.57100
H  0.86600 31.84300 22.03300
H  -0.57600 29.37600 22.23000
H  0.30900 30.15300 20.90200
H  -1.45900 30.43300 21.19300
H  -4.75100 28.42900 25.81800
H  -4.19300 29.36300 24.43600
H  -5.76100 29.72000 25.09700
H  -3.43900 30.34800 30.50900
H  -6.02900 32.40100 33.43000
H  -6.92700 30.82500 33.10100
H  -7.14800 32.29400 32.09400

