158

Mg 35.82000 2.06900 29.69400
C  33.43700 3.13500 32.19200
C  38.10800 2.23400 32.27100
C  38.19600 1.75400 27.38900
C  33.25700 2.16600 27.30100
N  35.73000 2.40100 31.92100
C  34.60100 2.67700 32.75600
C  35.04000 2.79700 34.22400
C  36.57400 2.86700 34.13000
C  36.83600 2.42700 32.74200
C  37.29100 4.19600 34.52600
C  34.42500 1.61300 34.99700
C  34.29200 1.58200 36.52200
H  34.70700 2.86100 37.30700
N  37.91700 1.88700 29.82200
C  38.67600 2.01600 30.97200
C  40.03900 1.74200 30.69000
C  40.13000 1.70600 29.22700
C  38.71500 1.82900 28.71300
C  41.17400 1.58700 31.69300
C  41.39900 1.52900 28.34700
O  41.35000 1.45700 27.11300
C  42.78200 1.32400 29.04500
N  35.72900 1.89600 27.67100
C  36.85600 1.72800 26.94600
C  36.51800 1.45500 25.45600
C  34.99500 1.28700 25.52100
C  34.55000 1.73300 26.93200
C  37.00700 2.51300 24.32700
C  34.42700 -0.13500 25.19200
C  33.91500 -0.45100 23.79400
N  33.77200 2.59300 29.61500
C  32.85600 2.60400 28.60500
C  31.56500 3.16800 29.12400
C  31.75000 3.40000 30.44900
C  33.10100 2.97100 30.75300
C  30.38600 3.50100 28.31100
C  31.18200 3.82600 31.70800
O  30.00700 4.18700 31.91700
C  32.18400 3.75300 32.86400
C  32.44400 5.08500 33.42300
O  33.16500 5.92400 32.92200
O  31.73100 5.23000 34.64400
C  31.66100 6.49200 35.38600
H  38.91000 2.26400 33.01200
H  38.85000 1.47400 26.56100
H  32.45100 2.10800 26.56600
H  34.63000 3.75100 34.55700
H  36.91000 2.07600 34.80100
H  37.08900 5.01500 33.83600
H  38.34000 3.90900 34.58700
H  37.03200 4.65800 35.47900
H  34.79600 0.69600 34.54000
H  33.35200 1.52700 34.82700
H  34.87800 0.74200 36.89500
H  33.28900 1.24000 36.77700
H  41.75400 2.48500 31.48100
H  41.79600 0.70900 31.51800
H  40.70700 1.52800 32.67600
H  43.62800 1.37500 28.35900
H  42.83700 0.46900 29.71800
H  42.79800 2.20700 29.68400
H  36.92600 0.49800 25.13300
H  34.46200 2.00900 24.90200
H  37.68500 3.23700 24.77900
H  36.14800 3.04400 23.91800
H  37.67100 2.04700 23.59900
H  33.66400 -0.27900 25.95600
H  35.15100 -0.84200 25.59600
H  33.90500 0.49500 23.25400
H  32.91400 -0.87800 23.72500
H  34.57300 -1.09800 23.21400
H  30.68300 3.37400 27.27000
H  30.02100 4.50900 28.50800
H  29.51400 2.87700 28.50800
H  31.79900 3.05300 33.60500
H  30.68500 6.81200 35.75000
H  31.96200 7.30500 34.72600
H  32.26400 6.38400 36.28800
Mg 26.63000 50.55400 26.93900
C  24.46100 51.56800 29.49200
C  28.95100 49.59000 29.34700
C  28.81400 49.74500 24.45900
C  24.38000 51.83300 24.61000
N  26.62800 50.57000 29.13000
C  25.63200 51.05900 29.97300
C  25.88500 50.74600 31.47200
C  27.37600 50.38300 31.46900
C  27.68500 50.07100 29.92400
C  28.40400 51.43000 32.03500
C  25.01700 49.57300 32.13700
C  25.49300 48.78700 33.48000
H  25.98300 49.67300 34.61000
N  28.62100 49.82100 26.94000
C  29.34900 49.43300 28.03600
C  30.57200 48.83100 27.50400
C  30.65000 48.97000 26.07900
C  29.32700 49.53900 25.77100
C  31.62100 48.14500 28.34000
C  31.73700 48.45400 25.15200
O  31.67700 48.64200 23.96500
C  32.82600 47.62300 25.61600
N  26.66100 50.83800 24.90700
C  27.53700 50.22600 24.12300
C  27.13800 50.13500 22.63200
C  25.80600 50.95600 22.60000
C  25.57700 51.26700 24.10700
C  28.17200 50.65200 21.66400
C  24.51800 50.19400 21.96700
C  24.74900 49.56800 20.57100
N  24.80900 51.52000 27.00300
C  24.08100 52.02900 25.98900
C  22.85400 52.66300 26.48500
C  22.93900 52.46500 27.88300
C  24.12500 51.79000 28.14400
C  21.84800 53.33300 25.73100
C  22.23700 52.67300 29.17300
O  21.18500 53.24700 29.48700
C  23.22600 52.06100 30.28700
C  23.57100 53.23000 31.19900
O  24.50300 54.05900 31.06600
O  22.73500 53.24500 32.29600
C  23.05300 54.32800 33.25100
H  29.73500 49.28500 30.04300
H  29.37900 49.18500 23.71200
H  23.64900 52.34800 23.98300
H  25.78900 51.64000 32.08800
H  27.49200 49.48700 32.07800
H  27.95300 52.40500 32.22200
H  29.22600 51.59100 31.33700
H  28.76800 51.12900 33.01800
H  25.05700 48.80600 31.36400
H  23.98300 49.88000 32.29500
H  26.25400 48.09200 33.12600
H  24.60600 48.21400 33.75100
H  31.42500 48.19800 29.41100
H  32.62700 48.56400 28.34800
H  31.53000 47.08600 28.10000
H  33.50900 48.28900 26.14300
H  33.39300 47.34700 24.72700
H  32.63400 46.75300 26.24400
H  26.86200 49.10700 22.39800
H  25.94100 51.94000 22.15000
H  27.68300 51.38100 21.01700
H  28.61300 49.82200 21.11300
H  28.94100 51.10200 22.29300
H  23.81200 51.02000 22.05100
H  24.08000 49.42900 22.60700
H  24.43800 48.52700 20.48700
H  25.79700 49.53400 20.27300
H  24.26000 50.16700 19.80200
H  22.23300 54.20000 25.19600
H  21.08800 53.74100 26.39700
H  21.27500 52.75000 25.01000
H  22.78100 51.23600 30.84400
H  23.49500 55.25000 32.87300
H  23.74900 53.90000 33.97200
H  22.16300 54.63000 33.80300

