158

Mg 2.20800 -0.96100 43.82300
C  5.62300 -0.54600 43.28200
C  1.72300 1.90000 41.73100
C  -1.08400 -1.56600 43.75600
C  2.77800 -4.03000 45.36400
N  3.56400 0.52300 42.64000
C  4.91000 0.38100 42.47900
C  5.46800 1.41300 41.46800
C  4.18600 2.25600 41.07800
C  3.07800 1.60500 41.87700
C  4.27900 3.81600 41.41300
C  6.12800 0.82400 40.25500
C  7.59800 1.19700 40.17900
H  8.12500 1.85200 38.81300
N  0.54500 0.06100 42.99700
C  0.57600 1.26600 42.29000
C  -0.78400 1.70000 42.06600
C  -1.60900 0.70200 42.64800
C  -0.73200 -0.38500 43.10200
C  -1.04400 3.09600 41.37500
C  -3.16600 0.69100 42.71100
O  -3.73400 1.52700 42.04500
C  -3.98300 -0.26200 43.62900
N  1.01900 -2.61000 44.50000
C  -0.33600 -2.58200 44.36800
C  -0.97200 -3.87900 44.96300
C  0.30100 -4.51400 45.70700
C  1.42000 -3.73700 45.08700
C  -2.21200 -3.73600 45.86300
C  0.41900 -6.09100 45.36300
C  0.64800 -7.01800 46.59200
N  3.82000 -2.07800 44.25500
C  3.90500 -3.26800 44.90600
C  5.28500 -3.67700 44.96100
C  6.00400 -2.59400 44.45200
C  5.03600 -1.57600 44.02600
C  5.83500 -5.02700 45.51000
C  7.31300 -2.10600 44.27200
O  8.37800 -2.59700 44.63300
C  7.14000 -0.67700 43.54700
C  7.59800 0.55100 44.34300
O  7.28800 0.85900 45.47600
O  8.56900 1.24400 43.58300
C  9.08700 2.36400 44.22100
H  1.36300 2.66500 41.04000
H  -2.14000 -1.84100 43.76300
H  2.95600 -5.02400 45.78100
H  6.14000 2.08900 41.99800
H  3.94800 2.16500 40.01800
H  5.28700 4.01200 41.77800
H  3.61100 4.13000 42.21500
H  4.09200 4.30600 40.45800
H  5.74600 1.07500 39.26600
H  6.14800 -0.22700 40.54700
H  8.21100 0.30700 40.32000
H  7.83500 1.92800 40.95300
H  -2.13200 3.14400 41.42900
H  -0.85600 3.16000 40.30400
H  -0.49300 3.87100 41.90900
H  -4.96400 0.16200 43.84400
H  -3.64800 -0.45600 44.64800
H  -4.28200 -1.19000 43.14200
H  -1.38100 -4.49700 44.16400
H  0.36100 -4.32600 46.77900
H  -3.02300 -4.44800 45.70700
H  -2.61900 -2.73400 45.72900
H  -1.98900 -3.83500 46.92600
H  1.16900 -6.21100 44.58100
H  -0.52100 -6.43900 44.93600
H  -0.07100 -7.83400 46.64700
H  0.60500 -6.42400 47.50500
H  1.53200 -7.63700 46.43900
H  5.50400 -5.81500 44.83400
H  5.41000 -5.05900 46.51400
H  6.90600 -4.97900 45.70500
H  7.64500 -0.71200 42.58100
H  10.09500 2.23700 44.61600
H  8.43900 2.75600 45.00600
H  9.10400 3.13300 43.44800
Mg 6.80600 54.55000 41.68000
C  5.76800 51.29200 41.23200
C  9.89900 53.67700 40.41400
C  7.53900 57.76200 41.48400
C  3.39200 55.45200 42.56600
N  7.63400 52.73900 40.82100
C  7.07000 51.44000 40.83200
C  8.06600 50.39300 40.17500
C  9.42200 51.17400 40.32900
C  8.95000 52.66100 40.52600
C  10.33100 50.59500 41.43800
C  7.71900 50.03600 38.62300
C  7.07600 51.08900 37.78600
H  6.67600 50.65400 36.35600
N  8.50300 55.57500 41.12300
C  9.66600 55.05300 40.50900
C  10.54600 56.11600 40.19100
C  9.94200 57.31500 40.57200
C  8.59100 56.93600 41.13100
C  11.93700 55.86600 39.57100
C  10.68600 58.72300 40.52600
O  11.86100 58.83000 40.09700
C  10.07900 59.92200 41.17500
N  5.61800 56.35000 42.09100
C  6.27200 57.56200 41.99300
C  5.26200 58.72700 42.13800
C  3.85400 57.98700 42.51000
C  4.24500 56.50100 42.39900
C  5.78600 59.78600 43.14200
C  2.62200 58.32800 41.53700
C  1.34700 58.77000 42.28200
N  4.99500 53.61500 42.03900
C  3.73100 54.07900 42.43900
C  2.87800 52.91400 42.61200
C  3.65400 51.80500 42.18200
C  4.90300 52.29900 41.71400
C  1.43000 52.80200 43.06400
C  3.63600 50.41500 42.08800
O  2.78800 49.62000 42.52500
C  4.98000 49.96700 41.39400
C  4.49500 49.39600 40.11000
O  3.76400 49.84400 39.25200
O  5.02300 48.12300 40.02300
C  4.43100 47.32900 38.92000
H  10.90800 53.35700 40.14800
H  7.86200 58.79200 41.32000
H  2.38100 55.70500 42.89400
H  7.97500 49.51200 40.81000
H  10.08800 51.16700 39.46700
H  11.27600 50.27000 41.00300
H  9.75800 49.75100 41.82300
H  10.41600 51.35200 42.21700
H  7.03600 49.19000 38.69900
H  8.56300 49.61200 38.07900
H  7.78900 51.91200 37.72200
H  6.15400 51.44100 38.25000
H  12.12300 56.72100 38.92100
H  12.04100 54.96700 38.96200
H  12.69600 55.78200 40.34800
H  9.16000 60.13100 40.62900
H  10.84500 60.69600 41.12700
H  9.91400 59.66900 42.22300
H  5.24900 59.21200 41.16200
H  3.51000 58.17200 43.52800
H  6.79500 59.64900 43.53000
H  5.00800 59.85300 43.90200
H  5.84600 60.73200 42.60400
H  2.34700 57.44400 40.96100
H  2.97100 59.15300 40.91700
H  0.53500 58.06800 42.09500
H  0.99000 59.72700 41.90200
H  1.48900 58.83100 43.36100
H  1.06400 53.82700 43.12200
H  1.37600 52.31100 44.03600
H  0.94700 52.18100 42.30900
H  5.54300 49.27000 42.01400
H  4.72800 46.30800 39.16000
H  5.22100 47.55100 38.20300
H  3.41500 47.62000 38.65300

