158

Mg 17.56600 -1.13600 27.80600
C  16.60700 0.96300 30.51700
C  19.29600 -3.05100 29.80900
C  18.84100 -2.60800 24.97100
C  15.87300 1.12300 25.62900
N  18.05000 -0.93100 30.04100
C  17.45600 -0.08800 30.94300
C  17.78700 -0.62900 32.38900
C  18.71400 -1.90100 32.10900
C  18.71200 -1.95600 30.55400
C  20.13600 -1.77600 32.78500
C  16.44700 -1.10000 33.02100
C  16.37100 -0.80000 34.57300
H  17.56300 -0.26200 35.42700
N  18.84100 -2.65400 27.40500
C  19.43900 -3.35600 28.42400
C  20.25400 -4.40600 27.94000
C  20.26700 -4.17600 26.48600
C  19.27700 -3.15900 26.24700
C  21.11800 -5.33100 28.77200
C  21.05000 -4.93200 25.43800
O  20.85900 -4.80100 24.22900
C  21.91800 -6.00900 25.88600
N  17.36800 -0.79400 25.58000
C  18.04800 -1.53900 24.64300
C  17.69400 -1.03300 23.20900
C  16.42000 -0.11200 23.48300
C  16.52600 0.07300 24.99500
C  18.85700 -0.28600 22.56800
C  15.05000 -0.67200 23.02200
C  13.96700 0.30100 22.70200
N  16.49400 0.64600 28.01700
C  15.87000 1.41100 27.04100
C  15.27300 2.51800 27.71100
C  15.42100 2.35000 29.02900
C  16.17300 1.18200 29.19200
C  14.44400 3.59800 27.10000
C  15.14400 2.95100 30.33500
O  14.53400 4.03000 30.62200
C  15.79400 1.94000 31.33000
C  16.62000 2.66600 32.35800
O  17.82700 2.80600 32.29400
O  15.68500 3.16200 33.26800
C  16.28900 3.78200 34.47600
H  19.84000 -3.60100 30.58000
H  19.08000 -3.19100 24.07900
H  15.40800 1.96100 25.10600
H  18.27800 0.12900 33.00000
H  18.27200 -2.82300 32.48600
H  20.22600 -1.00200 33.54700
H  20.83600 -1.55000 31.98100
H  20.45500 -2.75400 33.14500
H  16.28500 -2.17800 33.04700
H  15.58900 -0.64400 32.52900
H  15.99300 -1.67600 35.10000
H  15.67100 0.03500 34.55900
H  22.09800 -5.44200 28.30700
H  20.65500 -6.31200 28.88700
H  21.39400 -4.93000 29.74700
H  21.40100 -6.73000 26.51800
H  22.83100 -5.61700 26.33500
H  22.31500 -6.46400 24.97800
H  17.48800 -1.86200 22.53200
H  16.52300 0.83600 22.95400
H  18.76000 0.75100 22.89200
H  18.92400 -0.35200 21.48200
H  19.80400 -0.63100 22.98200
H  14.60000 -1.29900 23.79300
H  15.26000 -1.29200 22.15100
H  13.67300 0.24900 21.65300
H  14.38800 1.30300 22.61700
H  13.09800 0.24200 23.35800
H  13.42500 3.23300 26.97100
H  14.86400 3.86800 26.13100
H  14.42700 4.54800 27.63400
H  14.91400 1.51000 31.80800
H  16.10500 3.19100 35.37300
H  15.85100 4.73900 34.75900
H  17.35800 3.98500 34.54500
Mg 30.05100 58.07000 39.75000
C  27.28700 56.02600 38.79300
C  32.05900 55.40200 38.77800
C  32.68900 60.17900 39.71900
C  27.75700 60.74800 40.03500
N  29.68800 56.02400 38.79200
C  28.48800 55.43800 38.65900
C  28.70300 53.93500 38.36500
C  30.21900 53.63100 38.71800
C  30.69500 55.08100 38.84200
C  30.49000 52.81300 39.99800
C  28.21200 53.46000 36.93800
C  28.65500 54.39600 35.84300
H  28.28000 53.82100 34.45300
N  32.08800 57.80700 39.53300
C  32.74000 56.62600 39.05400
C  34.17700 56.91300 38.99600
C  34.38400 58.28800 39.42600
C  32.98400 58.82500 39.55700
C  35.23400 55.87500 38.69500
C  35.69000 58.93400 39.63700
O  36.68700 58.35500 39.35400
C  35.82800 60.25700 40.37700
N  30.14600 60.21900 39.95100
C  31.37700 60.82500 39.83800
C  31.16800 62.36700 40.03300
C  29.62600 62.49200 40.30500
C  29.11100 61.09500 40.09100
C  32.13800 63.14000 41.04800
C  28.90500 63.71600 39.50200
C  28.13600 64.72900 40.33900
N  28.01900 58.40700 39.50000
C  27.24500 59.51500 39.68000
C  25.82900 59.18000 39.39500
C  25.83900 57.81800 39.05200
C  27.17300 57.36900 39.15400
C  24.67000 60.07800 39.46900
C  25.00200 56.67900 38.63100
O  23.81700 56.60800 38.45100
C  25.95600 55.47000 38.48900
C  25.62300 54.20000 39.14700
O  25.58800 54.11600 40.39100
O  25.17800 53.24300 38.29400
C  24.67400 51.98100 38.85000
H  32.72100 54.54100 38.89200
H  33.48200 60.89200 39.48400
H  26.98400 61.50700 40.17200
H  28.04700 53.37800 39.03400
H  30.84000 53.30000 37.88500
H  29.54900 52.60900 40.50900
H  31.19100 53.39500 40.59600
H  30.97500 51.90100 39.65100
H  27.17000 53.14000 36.93300
H  28.82000 52.60400 36.64400
H  29.74100 54.40700 35.74400
H  28.31600 55.43000 35.90300
H  34.82000 54.92800 38.34700
H  35.63400 55.45900 39.62000
H  36.07100 56.29000 38.13500
H  36.65300 60.29200 41.08800
H  34.98500 60.69100 40.91400
H  36.13200 61.03700 39.68000
H  31.45800 62.76800 39.06200
H  29.38400 62.57400 41.36400
H  32.80100 63.79800 40.48500
H  32.73500 62.39300 41.57000
H  31.54400 63.63000 41.81900
H  28.11200 63.25200 38.91400
H  29.65800 64.16600 38.85600
H  28.53800 64.67600 41.35000
H  27.06900 64.50600 40.30300
H  28.29700 65.75300 40.00000
H  24.74500 60.86400 38.71700
H  24.52900 60.57500 40.42900
H  23.84400 59.40100 39.25000
H  26.05400 55.33900 37.41100
H  24.58800 51.29100 38.01000
H  23.71000 52.09400 39.34600
H  25.41400 51.64400 39.57600

