158

Mg 25.21400 -5.37800 45.99800
C  27.48700 -3.40900 44.21700
C  22.75000 -4.38700 43.86900
C  23.33800 -8.01100 46.87000
C  27.88300 -6.50700 47.90300
N  25.16700 -4.11500 44.22400
C  26.19000 -3.37600 43.70700
C  25.62800 -2.31300 42.72000
C  24.10300 -2.42300 42.92200
C  24.00400 -3.71100 43.72200
C  23.40600 -1.32100 43.69000
C  26.05800 -2.62400 41.22400
C  26.43000 -1.37500 40.34300
H  25.74000 -1.18900 38.95000
N  23.30300 -6.11300 45.42500
C  22.40000 -5.48900 44.64800
C  21.07600 -6.01700 44.72200
C  21.11700 -7.08000 45.65400
C  22.58500 -7.14900 46.01200
C  19.88100 -5.56300 43.90300
C  20.03300 -8.15300 46.00700
O  18.84600 -8.05700 45.57500
C  20.41200 -9.35000 46.86400
N  25.50400 -7.01800 47.13200
C  24.59400 -7.96800 47.33500
C  25.14400 -9.14200 48.17800
C  26.59600 -8.58200 48.56700
C  26.68600 -7.26200 47.85200
C  24.28000 -9.49900 49.40300
C  27.83300 -9.57800 48.24300
C  28.14000 -10.58100 49.39800
N  27.36400 -5.04400 46.17600
C  28.26800 -5.46800 47.09600
C  29.50700 -4.75300 46.92500
C  29.22900 -3.93700 45.75700
C  27.96400 -4.19200 45.31000
C  30.76100 -4.93000 47.68700
C  29.84600 -2.97200 44.84000
O  30.97700 -2.49500 44.82100
C  28.63700 -2.51600 43.85100
C  28.26700 -1.08000 44.09100
O  27.88000 -0.58300 45.17400
O  28.34300 -0.28800 42.97000
C  28.14300 1.17200 43.11400
H  21.83500 -3.91500 43.50800
H  22.90300 -8.90900 47.31300
H  28.75500 -6.85500 48.46100
H  26.03600 -1.33000 42.95300
H  23.57600 -2.39300 41.96800
H  24.16000 -0.60100 44.00800
H  22.90900 -1.63000 44.61000
H  22.68900 -0.81200 43.04600
H  25.25300 -3.25800 40.85200
H  26.93200 -3.26700 41.32400
H  27.45900 -1.63200 40.09100
H  26.52200 -0.46400 40.93500
H  20.10800 -5.13500 42.92600
H  19.37600 -4.79000 44.48200
H  19.19300 -6.38000 43.68400
H  19.56800 -10.02700 46.99600
H  20.73600 -8.85100 47.77800
H  21.24500 -9.91400 46.44500
H  25.21700 -10.01000 47.52300
H  26.54300 -8.46300 49.64900
H  23.93000 -10.52200 49.27100
H  23.43900 -8.81800 49.53700
H  24.79000 -9.53800 50.36600
H  28.68700 -8.93900 48.01700
H  27.57300 -10.18800 47.37900
H  29.10900 -10.35500 49.84200
H  28.34200 -11.59600 49.05500
H  27.42700 -10.65500 50.21900
H  30.80800 -5.93900 48.09800
H  30.76700 -4.22300 48.51700
H  31.60000 -4.75200 47.01500
H  28.98500 -2.56700 42.81900
H  28.84300 1.58000 43.84200
H  27.11600 1.40700 43.39300
H  28.43600 1.62500 42.16600
Mg 16.71200 -1.17400 28.09200
C  15.46000 0.65200 30.92800
C  19.02300 -2.48400 30.16300
C  18.25700 -2.38100 25.36700
C  14.42000 0.70400 26.12900
N  17.12000 -0.91600 30.25500
C  16.50200 -0.21500 31.26600
C  17.07500 -0.54800 32.63900
C  18.44100 -1.39200 32.22600
C  18.15400 -1.64200 30.76500
C  19.79600 -0.68700 32.56100
C  16.09900 -1.30800 33.61900
C  15.74300 -0.65900 34.97300
H  16.87500 0.13800 35.71300
N  18.33800 -2.41100 27.78200
C  19.10300 -2.89000 28.78100
C  20.08400 -3.82000 28.23500
C  19.91400 -3.74700 26.81900
C  18.76000 -2.89800 26.56600
C  21.02800 -4.50700 29.04100
C  20.67000 -4.44300 25.64800
O  20.22400 -4.63200 24.52400
C  22.07300 -4.92500 25.88000
N  16.46500 -0.82700 26.14700
C  17.14600 -1.51500 25.14900
C  16.71600 -1.04600 23.76300
C  15.42800 -0.20600 23.98900
C  15.40700 -0.09900 25.48800
C  17.91600 -0.35300 23.02100
C  14.10700 -0.74400 23.35900
C  13.24200 0.02100 22.33300
N  15.17100 0.35700 28.44700
C  14.32700 1.04000 27.52400
C  13.41800 1.96400 28.22800
C  13.79000 1.77700 29.61700
C  14.91600 0.89600 29.66500
C  12.22200 2.74000 27.66100
C  13.49600 2.17900 31.00500
O  12.74700 3.01200 31.45300
C  14.56600 1.38500 31.93600
C  15.29400 2.38700 32.75500
O  16.44400 2.82900 32.53900
O  14.48100 2.82600 33.76700
C  15.10300 3.97900 34.40300
H  19.75000 -2.81400 30.90800
H  18.70200 -2.78000 24.45300
H  13.72800 1.14400 25.40800
H  17.41300 0.38300 33.09300
H  18.52400 -2.39300 32.65000
H  20.57900 -0.92100 31.84000
H  20.11200 -1.05300 33.53800
H  19.64900 0.39100 32.62500
H  16.52400 -2.29800 33.78300
H  15.31500 -1.66200 32.94900
H  15.47000 -1.43700 35.68500
H  14.91700 0.04700 34.87400
H  22.03100 -4.22700 28.71800
H  20.89700 -5.56700 28.82400
H  20.96000 -4.38300 30.12200
H  22.57100 -4.11600 26.41500
H  22.39700 -5.07400 24.85000
H  21.95500 -5.85700 26.43300
H  16.50300 -2.00300 23.28600
H  15.59300 0.82100 23.66500
H  18.89200 -0.27700 23.50100
H  17.68100 0.61100 22.56800
H  18.12300 -1.05900 22.21700
H  13.36900 -0.89800 24.14700
H  14.36400 -1.75200 23.03600
H  12.20300 -0.09300 22.64100
H  13.20600 -0.42100 21.33800
H  13.57900 1.05500 22.26400
H  11.38800 2.43800 28.29500
H  12.06000 2.47400 26.61700
H  12.48500 3.79700 27.68700
H  14.19900 0.71400 32.71300
H  15.31200 4.77900 33.69400
H  16.01800 3.73000 34.94200
H  14.34300 4.30000 35.11500

