158

Mg 17.03400 51.42500 26.28700
C  19.11400 49.93200 28.84200
C  14.77500 52.14600 28.69300
C  15.17600 52.33100 23.78300
C  19.40900 50.07000 24.07200
N  16.97600 51.07400 28.43900
C  17.95400 50.51200 29.35400
C  17.58200 50.71000 30.81300
C  16.09900 51.10500 30.65600
C  15.95500 51.52400 29.15400
C  15.04800 50.05400 31.09000
C  18.52600 51.81800 31.51500
C  18.69500 51.64000 33.05800
H  17.77000 50.62300 33.78200
N  15.29300 52.44700 26.27000
C  14.46700 52.58700 27.36500
C  13.21100 53.15700 26.89100
C  13.31800 53.20500 25.47300
C  14.63500 52.64500 25.12900
C  12.11000 53.76300 27.83800
C  12.38900 53.76100 24.38700
O  12.74600 53.84900 23.23800
C  10.99400 54.22700 24.80800
N  17.23000 51.18300 24.23400
C  16.35300 51.70800 23.41500
C  16.73700 51.49900 21.93600
C  18.21500 50.90700 22.06700
C  18.34100 50.79200 23.54600
C  15.69100 50.66500 21.11200
C  19.32500 51.69100 21.33400
C  20.34800 50.75600 20.52300
N  18.85300 50.14200 26.35900
C  19.66400 49.68400 25.40800
C  20.84900 49.00700 25.96000
C  20.73900 49.10300 27.31900
C  19.48000 49.76700 27.52900
C  21.92700 48.40600 25.15300
C  21.26600 48.74300 28.62400
O  22.24800 48.13400 28.93700
C  20.25200 49.34800 29.69500
C  19.86800 48.34300 30.66300
O  18.90200 47.59500 30.58100
O  20.61500 48.37200 31.80900
C  20.41900 47.25600 32.76000
H  13.96900 52.26400 29.42100
H  14.45800 52.55500 22.99100
H  20.21200 49.78600 23.38800
H  17.60700 49.77000 31.36500
H  15.91400 52.06300 31.14400
H  15.56200 49.27000 31.64700
H  14.55300 49.55000 30.25900
H  14.20300 50.43800 31.66100
H  18.00900 52.77100 31.40100
H  19.52300 51.75200 31.08100
H  18.65500 52.55700 33.64600
H  19.66500 51.14900 33.14400
H  12.53800 53.82100 28.83900
H  11.31500 53.01700 27.85500
H  11.68500 54.70200 27.48500
H  11.02400 55.13900 25.40500
H  10.59200 53.35200 25.31900
H  10.42800 54.40200 23.89300
H  16.75000 52.48300 21.46800
H  18.21800 49.85800 21.77100
H  16.06800 49.77000 20.61600
H  15.39200 51.30100 20.27800
H  14.82000 50.33600 21.67800
H  19.72100 52.48200 21.97100
H  18.84000 52.34100 20.60600
H  21.31500 51.07500 20.91300
H  20.25100 50.92800 19.45200
H  20.21800 49.68600 20.68600
H  22.81100 49.03700 25.05000
H  21.48400 48.33900 24.16000
H  22.19800 47.38800 25.43100
H  20.88300 50.10100 30.16800
H  21.24800 47.16000 33.46100
H  20.15000 46.29300 32.32500
H  19.64500 47.63300 33.42700
Mg -12.10600 16.40500 42.28900
C  -9.11700 14.67800 42.02700
C  -10.61300 19.06200 40.83300
C  -15.22600 17.82300 42.09700
C  -13.60100 13.30600 43.38000
N  -10.13200 16.65100 41.21100
C  -8.99300 15.91600 41.43400
C  -7.78500 16.58000 40.72900
C  -8.23600 18.05900 40.79200
C  -9.78700 17.96100 41.00700
C  -7.54200 18.95000 41.89500
C  -7.75500 16.02000 39.26500
C  -6.33200 15.65000 38.67500
H  -6.06100 16.25400 37.24500
N  -12.86300 18.17900 41.48800
C  -12.10200 19.15900 41.00400
C  -12.98400 20.28500 40.69300
C  -14.27300 19.95100 41.05000
C  -14.18500 18.62500 41.52100
C  -12.47300 21.56200 40.09100
C  -15.49600 20.86200 40.94200
O  -15.34200 22.00400 40.49300
C  -16.89900 20.38700 41.22300
N  -14.10100 15.58000 42.62100
C  -15.19400 16.46900 42.63500
C  -16.49600 15.79900 43.18100
C  -15.98600 14.38000 43.54000
C  -14.44400 14.41800 43.18600
C  -17.33700 16.53100 44.25100
C  -16.66100 13.14900 42.81100
C  -17.27800 12.10600 43.67300
N  -11.55100 14.43300 42.77900
C  -12.22800 13.25700 43.21200
C  -11.30200 12.18300 43.38500
C  -10.01200 12.72600 43.00100
C  -10.26700 14.06900 42.59200
C  -11.62300 10.73000 43.58300
C  -8.74100 12.33000 42.68200
O  -8.16900 11.22500 42.80000
C  -8.06300 13.61400 42.19200
C  -7.07700 13.94100 43.32100
O  -7.21400 13.62000 44.49000
O  -5.96300 14.51700 42.84100
C  -4.86000 14.93900 43.68700
H  -10.13900 20.02500 40.63400
H  -16.20500 18.29700 42.20000
H  -14.10800 12.42000 43.76600
H  -6.88900 16.26900 41.26600
H  -8.04700 18.63800 39.88800
H  -8.16700 19.21000 42.75000
H  -7.32300 19.86800 41.34900
H  -6.52600 18.58400 42.03900
H  -8.04000 16.82700 38.59100
H  -8.51900 15.24300 39.24400
H  -6.32400 14.56700 38.55100
H  -5.58800 15.85100 39.44600
H  -12.82300 21.62800 39.06100
H  -11.38700 21.62200 40.16500
H  -12.82500 22.47200 40.57500
H  -16.84100 19.44700 40.67400
H  -17.59500 21.12700 40.82900
H  -16.88300 20.27100 42.30700
H  -17.13300 15.69000 42.30300
H  -15.98800 14.17400 44.61100
H  -17.00100 17.56800 44.27100
H  -17.24200 16.00200 45.19900
H  -18.33500 16.68100 43.83900
H  -15.94000 12.72700 42.11100
H  -17.52800 13.54300 42.28100
H  -18.33000 12.30300 43.87900
H  -16.92900 12.11200 44.70500
H  -17.06100 11.09200 43.33700
H  -12.39500 10.66200 44.34900
H  -10.76100 10.09600 43.79100
H  -12.01200 10.32600 42.64900
H  -7.43400 13.45800 41.31600
H  -5.03100 14.86600 44.76100
H  -4.80800 15.98700 43.39400
H  -3.98100 14.39200 43.34600

