158

Mg 44.52900 4.70400 48.36600
C  42.22500 7.17200 47.60300
C  42.07400 2.23000 47.87600
C  46.92500 2.40800 48.58300
C  46.90700 7.33400 48.34100
N  42.42700 4.71500 47.76500
C  41.62000 5.86400 47.69700
C  40.11000 5.59900 47.57200
C  40.13200 3.99200 47.66000
C  41.64500 3.56600 47.83700
C  39.30200 3.36000 48.85300
C  39.24700 6.10400 46.40200
C  39.90400 6.33300 44.95700
H  39.20700 7.11100 43.83900
N  44.52500 2.58800 48.19400
C  43.45700 1.79800 47.97700
C  43.83500 0.38100 47.79800
C  45.32700 0.43000 47.93500
C  45.65100 1.87100 48.20800
C  42.92700 -0.78200 47.52200
C  46.32800 -0.77300 47.79300
O  45.88300 -1.90100 47.62900
C  47.76500 -0.54900 47.80200
N  46.58500 4.90100 48.39900
C  47.33200 3.81200 48.68000
C  48.73900 4.15100 49.05900
C  48.75000 5.67800 49.11200
C  47.38000 6.04100 48.55300
C  49.37600 3.39100 50.30700
C  49.97900 6.39600 48.62500
C  50.58000 7.47100 49.58900
N  44.59600 6.82200 48.04200
C  45.60400 7.73800 48.10600
C  45.11200 9.06600 47.86100
C  43.72400 8.89900 47.72000
C  43.50300 7.50400 47.76900
C  45.86400 10.26800 47.97800
C  42.54600 9.62300 47.53600
O  42.36800 10.80500 47.35900
C  41.47100 8.50700 47.44800
C  40.47500 8.70700 48.50100
O  40.61700 8.17200 49.58700
O  39.49600 9.52700 48.10700
C  38.34900 9.18100 48.91400
H  41.28800 1.49300 47.69900
H  47.75500 1.72500 48.77200
H  47.69900 8.07900 48.44400
H  39.73300 5.92900 48.54000
H  39.64200 3.49100 46.82500
H  40.08600 3.17200 49.58700
H  38.89800 2.36100 48.68400
H  38.56600 3.97200 49.37300
H  38.57200 6.82500 46.86300
H  38.55200 5.27200 46.28700
H  40.13800 5.37700 44.49000
H  40.89900 6.76500 45.06600
H  43.24800 -1.48400 46.75200
H  41.88200 -0.56600 47.29800
H  42.73000 -1.28300 48.47000
H  48.19900 0.18700 47.12600
H  48.14000 -1.50600 47.43800
H  47.98200 -0.59600 48.87000
H  49.41800 3.87100 48.25300
H  48.68600 5.85600 50.18500
H  48.64100 2.89400 50.94100
H  49.95500 4.11400 50.88200
H  50.18100 2.69300 50.07900
H  49.80500 6.91100 47.68000
H  50.81300 5.71000 48.47800
H  50.71100 8.39400 49.02500
H  51.56100 7.18200 49.96900
H  49.84800 7.69700 50.36400
H  46.58000 10.14500 48.79100
H  45.26200 11.16700 48.10900
H  46.46900 10.33000 47.07400
H  40.98900 8.70800 46.49100
H  38.26200 8.10300 48.77900
H  37.48100 9.73300 48.55300
H  38.56600 9.39800 49.96000
Mg -10.87100 16.83500 41.33800
C  -7.58300 15.52000 41.02900
C  -9.67400 19.96300 40.75200
C  -14.04200 17.74400 40.99800
C  -11.90000 13.39600 41.64700
N  -8.83900 17.60900 40.83600
C  -7.63100 16.92600 40.87100
C  -6.49900 17.92700 40.58400
C  -7.14800 19.31200 40.81800
C  -8.60900 18.97500 40.81100
C  -6.68100 20.06600 42.04500
C  -5.81700 17.79100 39.06500
C  -4.29000 17.52000 39.00800
H  -3.78200 16.31600 38.17400
N  -11.77800 18.62800 40.94400
C  -11.15100 19.82300 40.70900
C  -12.13200 20.85300 40.49700
C  -13.40700 20.24200 40.62300
C  -13.14100 18.80100 40.81400
C  -11.79500 22.26400 40.14100
C  -14.80300 20.96800 40.45500
O  -14.79100 22.16500 40.21200
C  -16.17500 20.30000 40.55000
N  -12.67500 15.70300 41.30700
C  -13.86400 16.34000 41.13800
C  -15.07400 15.36100 41.31900
C  -14.30600 13.98300 41.50900
C  -12.83900 14.36400 41.53500
C  -16.11800 15.69500 42.45300
C  -14.74300 12.83500 40.55500
C  -14.98800 11.55100 41.35200
N  -10.01400 14.82300 41.41500
C  -10.54300 13.53700 41.58700
C  -9.53900 12.59800 41.63600
C  -8.29900 13.30500 41.48800
C  -8.67000 14.66300 41.24300
C  -9.80500 11.12300 41.89200
C  -6.89000 13.15800 41.53200
O  -6.24200 12.15500 41.78900
C  -6.39900 14.53000 41.09000
C  -5.37000 14.89700 42.00000
O  -5.45100 15.49400 43.05900
O  -4.16900 14.42600 41.45500
C  -2.98500 14.55700 42.32500
H  -9.33100 20.99800 40.69000
H  -15.03700 18.19200 40.95600
H  -12.17400 12.42600 42.06600
H  -5.65200 17.73800 41.24300
H  -6.98500 20.00000 39.98800
H  -5.68400 19.77700 42.37800
H  -7.36100 19.73100 42.82800
H  -6.71100 21.13700 41.84400
H  -6.09500 18.71900 38.56400
H  -6.26200 16.92800 38.57000
H  -3.87600 17.36800 40.00500
H  -3.78700 18.42000 38.65400
H  -12.17500 22.46800 39.14000
H  -10.73400 22.48600 40.02200
H  -12.14800 22.94400 40.91600
H  -16.14400 19.43700 39.88600
H  -17.02300 20.94900 40.32900
H  -16.26800 19.99600 41.59200
H  -15.67800 15.47400 40.41900
H  -14.48200 13.61100 42.51800
H  -16.12900 15.03200 43.31800
H  -17.09500 15.77000 41.97600
H  -15.84000 16.73200 42.64400
H  -13.94500 12.70000 39.82500
H  -15.65700 13.21500 40.09800
H  -15.84100 11.79000 41.98800
H  -14.15300 11.50100 42.05100
H  -15.09900 10.55300 40.93000
H  -10.58400 10.78600 41.20900
H  -10.04600 10.76400 42.89200
H  -8.93000 10.56700 41.55700
H  -5.89700 14.56400 40.12300
H  -2.57800 15.56700 42.38100
H  -2.18100 13.92100 41.95600
H  -3.17400 14.18400 43.33200

