158

Mg 0.80800 7.43000 24.93000
C  1.33000 9.16400 27.87100
C  1.06300 4.47900 26.77900
C  0.63200 5.69500 21.99500
C  1.06200 10.47700 23.09700
N  1.06500 6.93500 27.07700
C  1.25100 7.80200 28.10600
C  1.27400 7.08000 29.51000
C  1.23300 5.59300 29.05600
C  1.02700 5.68400 27.46100
C  2.43800 4.75100 29.43800
C  0.05700 7.37900 30.48900
C  0.42800 7.52600 31.98700
H  1.61000 6.78000 32.55600
N  0.68000 5.37400 24.47200
C  0.88500 4.36700 25.33800
C  0.91200 3.06400 24.63700
C  0.76600 3.36700 23.23500
C  0.68100 4.90200 23.16300
C  1.04500 1.76800 25.29000
C  0.62500 2.51400 22.01300
O  0.45000 2.93500 20.83200
C  0.45000 1.00900 22.18700
N  0.90700 7.96200 22.88800
C  0.65500 7.10500 21.88500
C  0.48600 7.83700 20.50000
C  0.59200 9.33100 20.87300
C  0.90400 9.28500 22.36800
C  1.36800 7.34900 19.31200
C  -0.49500 10.28000 20.33500
C  -1.95400 10.36300 20.94600
N  1.09100 9.42400 25.32100
C  1.17400 10.53100 24.55300
C  1.18900 11.72500 25.44600
C  1.30100 11.24100 26.72200
C  1.17900 9.85400 26.62000
C  1.22000 13.13700 25.03500
C  1.49500 11.62300 28.10800
O  1.63500 12.70100 28.66700
C  1.49200 10.27900 28.88700
C  2.66900 10.26300 29.84100
O  3.75900 9.72500 29.60600
O  2.27100 10.89400 31.01300
C  3.26500 11.04600 32.12100
H  1.13100 3.58500 27.40200
H  0.49000 5.23100 21.01600
H  0.97600 11.47600 22.66300
H  2.26200 7.31300 29.90700
H  0.30000 5.11000 29.34600
H  2.10800 3.94500 30.09300
H  3.11100 5.37500 30.02600
H  3.03500 4.31500 28.63600
H  -0.80800 6.71800 30.42900
H  -0.25600 8.37900 30.18700
H  -0.35100 7.00400 32.54300
H  0.44600 8.59500 32.19700
H  0.49100 0.95400 24.82200
H  0.58700 1.73200 26.27900
H  2.08900 1.46200 25.23000
H  1.33200 0.67700 22.73600
H  0.45900 0.65800 21.15500
H  -0.48800 0.70000 22.64900
H  -0.55900 7.71100 20.21700
H  1.51200 9.72400 20.44000
H  1.86100 6.40400 19.54000
H  2.08800 8.14600 19.12400
H  0.70200 7.15000 18.47300
H  -0.55500 9.95300 19.29700
H  -0.07400 11.28500 20.33900
H  -2.00000 9.53800 21.65700
H  -2.73000 10.23000 20.19200
H  -2.15800 11.33000 21.40600
H  2.19700 13.55100 25.28300
H  0.40100 13.56600 25.61200
H  1.01300 13.32300 23.98100
H  0.60000 10.23600 29.51200
H  4.18700 11.43200 31.68600
H  3.45800 10.03900 32.49000
H  2.84300 11.60800 32.95400
Mg -2.64700 34.95400 26.95000
C  -4.08700 32.94400 29.36700
C  -1.12900 36.83300 29.43800
C  -1.20900 36.89200 24.57900
C  -4.27900 33.16800 24.51500
N  -2.69300 34.86600 29.15400
C  -3.27400 33.93100 29.96100
C  -2.84600 34.21100 31.47200
C  -2.00200 35.47600 31.42200
C  -1.98100 35.78300 29.94700
C  -2.52500 36.65200 32.28800
C  -2.10200 32.91400 32.14400
C  -2.96000 32.25000 33.25900
H  -2.33600 32.10500 34.64300
N  -1.41600 36.70600 27.00200
C  -0.87400 37.31600 28.12000
C  0.01200 38.38700 27.71900
C  -0.07100 38.46400 26.30200
C  -0.93100 37.32800 25.88300
C  0.75700 39.20500 28.71400
C  0.47500 39.51400 25.32700
O  0.06500 39.54700 24.17300
C  1.36000 40.51900 25.81200
N  -2.81400 35.07900 24.90600
C  -2.10700 35.95200 24.13500
C  -2.40000 35.72500 22.62200
C  -3.45000 34.56400 22.67600
C  -3.53600 34.20900 24.09700
C  -2.94800 36.86100 21.76400
C  -3.30000 33.49600 21.64800
C  -2.17500 32.47100 21.97900
N  -3.87000 33.40300 26.92400
C  -4.53100 32.85600 25.86600
C  -5.30200 31.70900 26.33500
C  -5.16200 31.73200 27.70800
C  -4.28200 32.79100 28.01500
C  -6.00000 30.66100 25.52800
C  -5.51800 31.10100 28.97400
O  -6.21800 30.13600 29.24900
C  -4.91600 31.96300 30.12900
C  -5.96900 32.51800 31.01300
O  -6.78600 33.43100 30.80300
O  -5.94300 31.83600 32.22500
C  -6.72600 32.42300 33.28800
H  -0.78600 37.51800 30.21600
H  -0.65000 37.47000 23.84000
H  -4.91500 32.63900 23.80100
H  -3.81300 34.31200 31.96500
H  -1.00000 35.19700 31.74600
H  -2.87000 37.50100 31.69900
H  -1.73500 36.96600 32.97000
H  -3.41400 36.47800 32.89400
H  -1.20200 33.20100 32.68900
H  -2.05400 32.17800 31.34200
H  -3.12300 31.20200 33.00800
H  -3.88300 32.79400 33.45900
H  1.78700 39.43300 28.44300
H  0.79100 38.72200 29.69100
H  0.12300 40.09200 28.71600
H  0.80800 41.20500 26.45400
H  1.76600 41.21300 25.07700
H  2.14800 39.99400 26.35300
H  -1.45900 35.44200 22.15100
H  -4.42100 35.01000 22.46300
H  -2.35500 37.76400 21.61300
H  -3.90800 37.10900 22.21600
H  -3.21000 36.51000 20.76600
H  -3.25200 33.90800 20.64000
H  -4.19400 32.88100 21.54900
H  -2.57400 31.49400 21.70700
H  -1.97300 32.35500 23.04400
H  -1.23400 32.66000 21.46400
H  -5.75400 30.69500 24.46700
H  -7.05900 30.91500 25.47800
H  -5.83300 29.68600 25.98600
H  -4.23300 31.39300 30.75900
H  -7.76900 32.54700 32.99700
H  -6.31500 33.40400 33.52400
H  -6.71100 31.77700 34.16600

