158

Mg 55.56600 24.69600 44.12800
C  52.92500 26.96800 43.13100
C  53.82700 22.27900 42.75900
C  58.27300 22.88400 44.46100
C  57.13500 27.49200 45.44900
N  53.76300 24.75600 42.77200
C  52.75900 25.71200 42.62800
C  51.42600 25.09300 42.13100
C  51.67300 23.60500 42.59300
C  53.19200 23.51700 42.67200
C  50.94000 23.13900 43.93500
C  51.11900 25.29800 40.63400
C  52.20100 25.71100 39.56000
H  51.77600 26.13600 38.19400
N  55.94300 22.81300 43.70100
C  55.13300 21.92100 43.09600
C  55.73300 20.62200 42.97100
C  57.02800 20.71200 43.54200
C  57.13100 22.18200 43.94300
C  55.08100 19.43600 42.29500
C  58.00000 19.65400 43.66400
O  57.75300 18.64100 43.04400
C  59.15100 19.79000 44.59800
N  57.44500 25.18000 44.78200
C  58.42200 24.21500 44.77800
C  59.76300 24.77800 45.23100
C  59.38000 26.25600 45.74100
C  57.93800 26.39300 45.30100
C  60.66700 23.94500 46.22100
C  60.32900 27.27600 45.12200
C  60.67800 28.60200 45.92500
N  55.14700 26.77500 44.30000
C  55.91600 27.74500 44.91800
C  55.17900 28.94800 44.85800
C  54.04300 28.70800 44.08900
C  54.05700 27.32600 43.83100
C  55.62400 30.22700 45.50900
C  52.84200 29.32000 43.56300
O  52.48400 30.49800 43.43400
C  51.94400 28.13500 43.24700
C  51.16500 28.37400 42.03300
O  51.45200 28.93200 40.97300
O  49.85800 28.02300 42.32000
C  48.94400 28.39500 41.23200
H  53.17700 21.48500 42.38500
H  59.20400 22.32800 44.59800
H  57.56900 28.38200 45.90900
H  50.58000 25.41300 42.73900
H  51.33200 22.89700 41.83700
H  51.52600 23.33600 44.83300
H  50.77600 22.06400 43.87100
H  49.87800 23.38400 43.94400
H  50.16500 25.80800 40.50300
H  50.69000 24.35400 40.29600
H  52.76100 24.77600 39.52100
H  52.95300 26.43200 39.88100
H  55.63900 19.15300 41.40200
H  54.09100 19.66500 41.90300
H  54.96600 18.71000 43.10000
H  58.74000 20.23600 45.50400
H  59.89500 20.45000 44.15100
H  59.45500 18.81600 44.98000
H  60.39900 24.80000 44.34600
H  59.41100 26.30700 46.83000
H  60.29500 22.92100 46.18600
H  60.50500 24.42300 47.18800
H  61.74500 23.94800 46.06400
H  59.92300 27.66500 44.18800
H  61.33300 26.94300 44.85900
H  60.75300 28.25100 46.95400
H  59.98000 29.39900 45.66600
H  61.67900 28.90600 45.61900
H  55.30200 30.15400 46.54800
H  55.23900 31.15200 45.07900
H  56.71200 30.21900 45.44800
H  51.30500 28.01300 44.12200
H  47.96600 28.04700 41.56300
H  49.16100 27.84800 40.31400
H  48.99800 29.48300 41.26900
Mg 6.39900 54.40300 40.99100
C  6.11200 50.95900 41.10200
C  9.54900 53.96500 39.87200
C  6.64600 57.73700 40.88800
C  3.15100 54.53200 42.23700
N  7.60800 52.58300 40.25300
C  7.32100 51.25700 40.50000
C  8.48500 50.42100 40.16600
C  9.69700 51.49500 40.17200
C  8.91200 52.78100 40.05500
C  10.56600 51.32700 41.53700
C  8.20000 49.70300 38.79700
C  8.24600 50.55300 37.51300
H  6.99600 50.81600 36.61500
N  7.87100 55.66300 40.58700
C  9.14800 55.27500 40.25600
C  9.92200 56.46600 40.05500
C  9.13400 57.62900 40.39000
C  7.82400 57.05900 40.61600
C  11.39200 56.46900 39.63900
C  9.63900 59.06100 40.37300
O  10.85300 59.27800 40.22000
C  8.67800 60.20800 40.62800
N  5.02100 55.88500 41.45700
C  5.40900 57.24500 41.23800
C  4.25300 58.13000 41.46600
C  3.01400 57.12400 41.65700
C  3.77000 55.76500 41.81200
C  4.46900 59.15600 42.62000
C  1.95400 57.25200 40.56000
C  0.47600 57.28500 40.97100
N  4.85300 53.07800 41.44200
C  3.70100 53.29600 42.17700
C  3.13000 52.08100 42.74600
C  4.05700 51.10600 42.32500
C  5.11300 51.79500 41.61500
C  1.85800 51.92600 43.45100
C  4.39600 49.70500 42.40100
O  3.98200 48.74900 43.05100
C  5.71400 49.54900 41.55100
C  5.21200 48.59400 40.50200
O  4.38500 48.87800 39.62900
O  5.87700 47.35600 40.57600
C  5.47800 46.48700 39.46900
H  10.60600 53.81000 39.64600
H  6.64100 58.82900 40.92300
H  2.14600 54.56800 42.66200
H  8.58900 49.62600 40.90500
H  10.42700 51.35100 39.37500
H  10.26400 50.34000 41.88600
H  10.19700 52.06700 42.24800
H  11.63000 51.41100 41.31200
H  7.27500 49.13000 38.85900
H  8.93400 48.93600 38.54900
H  8.95300 50.13700 36.79500
H  8.57200 51.56500 37.75100
H  12.00500 56.84600 40.45700
H  11.64800 57.11800 38.80200
H  11.87700 55.53900 39.34200
H  7.91900 60.26400 39.84700
H  9.26800 61.10500 40.81700
H  8.22900 59.99800 41.59800
H  4.07100 58.70100 40.55500
H  2.57500 57.17200 42.65400
H  4.05300 58.76100 43.54600
H  4.29800 60.20200 42.36400
H  5.53600 59.14600 42.84500
H  2.07100 56.41900 39.86700
H  2.14200 58.19500 40.04600
H  -0.01000 57.69300 40.08500
H  0.17900 57.80200 41.88400
H  0.02100 56.29500 41.01200
H  1.76200 52.58800 44.31200
H  1.71500 50.93000 43.87000
H  1.06100 52.25000 42.78100
H  6.44500 49.11300 42.23200
H  6.06400 46.69700 38.57500
H  4.41700 46.53700 39.22800
H  5.73700 45.47100 39.77000

