158

Mg 1.86200 -1.87200 43.06700
C  5.33600 -1.21700 42.64400
C  1.26900 0.95600 41.23100
C  -1.33700 -2.95500 42.89900
C  2.80600 -4.97900 44.51500
N  3.15000 -0.30000 42.14800
C  4.51900 -0.22700 42.01400
C  4.98500 0.80200 41.00500
C  3.69000 1.75600 40.91000
C  2.62200 0.80300 41.54700
C  3.68400 3.16600 41.57300
C  5.32000 0.06100 39.69400
C  6.40500 0.76700 38.83000
H  6.25000 1.05100 37.38600
N  0.11800 -1.07300 42.19400
C  0.08400 0.12300 41.51600
C  -1.33000 0.41200 41.15900
C  -2.12400 -0.69900 41.57000
C  -1.12400 -1.70300 42.21000
C  -1.72000 1.64000 40.45100
C  -3.65000 -0.92600 41.46400
O  -4.32400 -0.09100 40.87900
C  -4.31100 -2.30100 41.86600
N  0.94700 -3.78100 43.51500
C  -0.43200 -3.85500 43.49300
C  -0.92800 -5.17400 44.12600
C  0.45000 -5.76400 44.65400
C  1.46100 -4.79100 44.22100
C  -2.07900 -5.11400 45.18900
C  0.66500 -7.37400 44.46300
C  0.76400 -8.22900 45.71500
N  3.76200 -2.86200 43.63400
C  3.90600 -4.11900 44.14400
C  5.32500 -4.36200 44.34100
C  5.96600 -3.21900 43.83400
C  4.93800 -2.33800 43.34500
C  6.02700 -5.59200 44.85000
C  7.24900 -2.55200 43.53200
O  8.37000 -2.83200 43.78800
C  6.86500 -1.17000 42.75900
C  7.35600 -0.01700 43.64900
O  8.39300 0.54600 43.61000
O  6.39500 0.32500 44.55200
C  6.47800 1.56400 45.30900
H  1.13700 1.89500 40.68900
H  -2.36100 -3.33200 42.94400
H  2.99900 -5.98900 44.88400
H  5.85900 1.32600 41.39300
H  3.49100 1.88400 39.84600
H  4.62700 3.49100 42.01400
H  2.80800 3.10500 42.21900
H  3.44600 3.87300 40.77900
H  4.45300 -0.16900 39.07500
H  5.82300 -0.87700 39.92900
H  7.21200 0.03700 38.89600
H  6.76300 1.70400 39.25500
H  -1.68900 1.64800 39.36200
H  -0.98300 2.38800 40.74500
H  -2.69200 2.02100 40.76400
H  -5.31300 -2.38900 41.44400
H  -4.27100 -2.44000 42.94600
H  -3.74000 -3.06200 41.33400
H  -1.27700 -5.82300 43.32300
H  0.53100 -5.66800 45.73700
H  -2.79600 -4.30200 45.06800
H  -1.64000 -5.14600 46.18700
H  -2.64700 -6.04200 45.13600
H  1.63100 -7.47600 43.97000
H  -0.08800 -7.88000 43.85800
H  0.03000 -9.03400 45.66900
H  0.38100 -7.61800 46.53200
H  1.77600 -8.63300 45.69900
H  5.76200 -6.50500 44.31700
H  5.91700 -5.61700 45.93400
H  7.10900 -5.54600 44.72600
H  7.35700 -1.21700 41.78700
H  7.54000 1.74400 45.47600
H  5.95500 1.47300 46.26100
H  6.01900 2.39300 44.76900
Mg 52.49900 24.54300 45.57100
C  50.18500 26.89600 44.20800
C  50.80200 22.14600 43.86400
C  55.09000 22.42600 45.93800
C  54.45500 27.24800 46.55500
N  50.82700 24.60500 43.97100
C  49.94500 25.63400 43.70900
C  48.77300 25.14600 42.78200
C  48.65800 23.67500 43.31100
C  50.19400 23.42000 43.69500
C  47.73100 23.38400 44.52800
C  49.14500 25.29500 41.29200
C  47.90600 25.43400 40.34900
H  48.00900 24.52900 39.10800
N  52.81500 22.54300 45.13600
C  52.02600 21.74100 44.42500
C  52.41800 20.35000 44.56300
C  53.63400 20.41700 45.34100
C  53.87200 21.83600 45.56000
C  51.63400 19.14400 43.92200
C  54.52900 19.23800 45.75000
O  54.24300 18.12100 45.34500
C  55.59600 19.42000 46.76800
N  54.43200 24.82200 46.08400
C  55.34800 23.77200 46.25900
C  56.69600 24.28300 46.78700
C  56.44200 25.80700 47.03300
C  55.03000 25.98500 46.52500
C  57.20000 23.47700 48.02100
C  57.39700 26.77200 46.28400
C  58.93700 26.42200 45.99300
N  52.25100 26.58500 45.74600
C  53.12800 27.51100 46.18100
C  52.44800 28.75500 46.26500
C  51.28100 28.62700 45.46300
C  51.26400 27.29900 45.11100
C  53.01400 30.04100 46.93600
C  50.12800 29.28000 44.94500
O  49.82000 30.47400 44.93500
C  49.35900 28.18200 44.12200
C  49.16700 28.78600 42.73900
O  49.98700 29.07400 41.87000
O  47.81400 28.84800 42.49500
C  47.43500 29.64700 41.29400
H  50.14900 21.27700 43.76300
H  56.01100 21.84500 46.02500
H  54.92300 28.12900 47.00000
H  47.88800 25.70600 43.08400
H  48.39700 22.94900 42.54000
H  48.38200 23.15900 45.37300
H  47.06500 22.53300 44.38700
H  47.16800 24.27500 44.80400
H  49.72600 24.43900 40.94900
H  49.69400 26.23400 41.21200
H  47.85100 26.49600 40.10800
H  46.95800 25.30100 40.87000
H  50.87300 18.82300 44.63300
H  52.27900 18.30100 43.67800
H  51.07200 19.38000 43.01800
H  56.58200 19.56800 46.32900
H  55.47900 18.48800 47.32100
H  55.32000 20.24300 47.42700
H  57.45000 24.17200 46.00800
H  56.38400 26.05400 48.09300
H  58.02900 22.77800 47.91500
H  56.34000 22.84500 48.24100
H  57.37200 24.15400 48.85800
H  57.47900 27.63300 46.94600
H  56.86000 27.00700 45.36500
H  59.17800 26.54300 44.93700
H  59.09400 25.38200 46.27900
H  59.54400 27.08900 46.60600
H  52.72600 29.96500 47.98500
H  52.56000 30.88000 46.40900
H  54.09000 30.15200 46.80200
H  48.42000 28.12300 44.67200
H  46.84600 29.00200 40.64200
H  48.30900 29.90700 40.69700
H  46.80900 30.49600 41.57200

