158

Mg 36.00900 49.60100 25.19200
C  36.52100 47.55000 27.91900
C  34.71900 51.99500 27.31200
C  35.19000 51.30900 22.44100
C  36.94800 47.02100 23.12800
N  35.50900 49.66500 27.44700
C  35.96200 48.78600 28.36100
C  35.98500 49.50300 29.73900
C  35.19700 50.81600 29.54500
C  35.16300 50.87900 28.01800
C  33.76000 50.79800 30.18100
C  37.40500 49.69400 30.31400
C  37.80100 49.48700 31.76800
H  36.65200 49.56400 32.75500
N  35.10000 51.35500 24.97400
C  34.70900 52.20200 25.91400
C  34.19100 53.46900 25.22400
C  34.31500 53.31200 23.81800
C  34.85600 51.96800 23.69000
C  33.78600 54.63400 26.04200
C  33.94000 54.32800 22.77500
O  34.07900 54.09800 21.57200
C  33.24100 55.59100 23.10900
N  36.10000 49.19900 23.04100
C  35.67000 50.08900 22.08600
C  35.99700 49.54100 20.69000
C  36.91800 48.31500 20.96200
C  36.69500 48.21300 22.49600
C  34.69000 49.24000 19.90400
C  38.41400 48.66300 20.72100
C  39.40500 47.50500 20.88300
N  36.61400 47.58400 25.40400
C  37.02400 46.68200 24.54200
C  37.38900 45.40300 25.11500
C  37.27200 45.73700 26.48900
C  36.72800 47.04200 26.62200
C  37.91800 44.12200 24.42100
C  37.52800 45.31500 27.86300
O  38.05200 44.28400 28.23100
C  37.04600 46.43900 28.82900
C  36.05900 45.86500 29.78700
O  34.84100 45.79100 29.61100
O  36.70300 45.69600 31.01300
C  35.78100 45.48800 32.21900
H  34.38100 52.79300 27.97700
H  34.89000 51.72100 21.47500
H  37.44100 46.23700 22.55000
H  35.53000 48.78100 30.41700
H  35.62600 51.76600 29.86300
H  33.01700 51.10600 29.44500
H  33.86500 51.54200 30.97000
H  33.35700 49.89200 30.63300
H  37.75400 50.71200 30.13900
H  37.96400 49.01700 29.66700
H  38.45700 50.26600 32.15600
H  38.32300 48.53200 31.71500
H  34.36700 55.50800 25.74900
H  33.99300 54.52500 27.10700
H  32.75600 54.98000 25.95200
H  33.19100 56.21400 22.21600
H  33.76500 56.21300 23.83600
H  32.23200 55.32000 23.42300
H  36.56000 50.26400 20.09900
H  36.68800 47.46600 20.31800
H  33.77400 49.54200 20.41100
H  34.64400 48.15300 19.84300
H  34.77300 49.74400 18.94100
H  38.61600 49.48600 21.40600
H  38.59400 49.06000 19.72200
H  38.82900 46.59500 21.05000
H  39.90300 47.58800 21.84900
H  40.03600 47.44800 19.99600
H  37.63700 43.32000 25.10400
H  38.98800 44.18300 24.22100
H  37.32800 43.97500 23.51700
H  37.88400 46.75200 29.45200
H  35.15600 44.59700 32.15500
H  35.10300 46.31500 32.43100
H  36.36700 45.32800 33.12400
Mg -11.57300 38.69700 42.57300
C  -9.96700 35.79200 41.42000
C  -9.12300 40.51200 40.79700
C  -13.56200 41.38400 42.59600
C  -14.20300 36.67900 43.46900
N  -9.90300 38.18100 41.28300
C  -9.46600 36.95400 40.87800
C  -8.19500 37.02400 40.11600
C  -7.76200 38.51600 40.22200
C  -9.01200 39.16200 40.76400
C  -6.42400 38.75900 41.05400
C  -8.41600 36.54500 38.66900
C  -7.26700 35.45400 38.34500
H  -5.99300 35.95300 37.64500
N  -11.35200 40.65800 41.86200
C  -10.23500 41.21400 41.24300
C  -10.42100 42.67900 41.09300
C  -11.68300 42.99600 41.73800
C  -12.23400 41.68200 42.12800
C  -9.38700 43.47700 40.46700
C  -12.26000 44.45500 41.89400
O  -11.65100 45.38100 41.27600
C  -13.48200 44.80500 42.66300
N  -13.63000 39.03700 42.82000
C  -14.14600 40.25300 43.03200
C  -15.48300 40.18600 43.66500
C  -15.82600 38.71900 43.67900
C  -14.41900 38.08400 43.43600
C  -15.50500 40.80700 45.13600
C  -16.75000 38.29600 42.62200
C  -18.17800 38.23200 43.25000
N  -11.92900 36.67500 42.82800
C  -13.00000 36.01200 43.14000
C  -12.80400 34.57100 43.18600
C  -11.47300 34.42300 42.53600
C  -11.07500 35.71500 42.24600
C  -13.84900 33.61100 43.59700
C  -10.45200 33.50700 42.07500
O  -10.32700 32.28600 42.15000
C  -9.52700 34.30800 41.30400
C  -8.28800 34.21200 42.14900
O  -8.20400 34.63100 43.29900
O  -7.32800 33.51800 41.44200
C  -5.95800 33.45500 41.95200
H  -8.27700 41.04400 40.35600
H  -14.12300 42.31800 42.65900
H  -15.03200 36.03100 43.76200
H  -7.55100 36.38900 40.72400
H  -7.57000 38.92400 39.23000
H  -5.86400 37.82900 41.15700
H  -6.55700 39.23000 42.02700
H  -5.80000 39.37900 40.41000
H  -8.37300 37.42300 38.02400
H  -9.39400 36.07900 38.55200
H  -7.87100 34.92300 37.60900
H  -7.02700 34.69400 39.08800
H  -8.39800 43.12800 40.76300
H  -9.41500 44.48600 40.87800
H  -9.44600 43.54100 39.38000
H  -14.31000 44.36000 42.11200
H  -13.64600 45.88300 42.66200
H  -13.37200 44.39700 43.66800
H  -16.12300 40.71900 42.96100
H  -16.15100 38.33000 44.64400
H  -14.53000 41.04700 45.56100
H  -16.05600 40.16800 45.82700
H  -16.06100 41.74000 45.23200
H  -16.55600 37.40900 42.01900
H  -16.75600 39.13400 41.92500
H  -18.57500 37.23900 43.04100
H  -18.64600 39.06000 42.71700
H  -18.29500 38.50300 44.30000
H  -14.46700 33.95900 44.42500
H  -13.36100 32.70700 43.96200
H  -14.45700 33.42300 42.71300
H  -9.43400 33.99500 40.26400
H  -5.30600 33.07000 41.16700
H  -5.93300 32.71400 42.75000
H  -5.56800 34.41500 42.29200

