158

Mg 16.63200 -1.51300 28.01800
C  15.21800 0.41200 30.61600
C  18.56300 -3.10800 30.47500
C  18.31000 -3.12800 25.50400
C  14.78100 0.24400 25.72600
N  16.77200 -1.46000 30.32900
C  16.15200 -0.54300 31.09100
C  16.65400 -0.64000 32.54500
C  17.89600 -1.58100 32.38600
C  17.73300 -2.13100 30.98100
C  19.28800 -0.94400 32.65500
C  15.63700 -1.11100 33.58700
C  15.96600 -0.90900 35.09800
H  17.24400 -0.26200 35.55500
N  18.14800 -2.99800 27.98600
C  18.79600 -3.56800 29.10300
C  19.59200 -4.73400 28.70800
C  19.64400 -4.68200 27.22300
C  18.67200 -3.54600 26.83400
C  20.17700 -5.65600 29.70100
C  20.36600 -5.60800 26.18300
O  20.22100 -5.61100 24.97900
C  21.35400 -6.61700 26.66000
N  16.68000 -1.30000 25.88800
C  17.39300 -2.18300 25.12500
C  17.10000 -1.92800 23.63800
C  15.97600 -0.86700 23.66600
C  15.76600 -0.59300 25.20200
C  18.38700 -1.37300 22.88700
C  14.64300 -1.29800 23.03000
C  13.94500 -0.37000 22.08100
N  15.22300 0.02700 28.11200
C  14.47800 0.50700 27.07700
C  13.52800 1.45800 27.66100
C  13.81700 1.48600 29.02500
C  14.84600 0.57700 29.23700
C  12.47300 2.16300 26.81000
C  13.47200 2.11900 30.29100
O  12.69400 3.02900 30.59200
C  14.44200 1.44900 31.34300
C  15.29400 2.66200 31.81200
O  15.66700 3.56500 31.08300
O  15.43500 2.56500 33.16900
C  15.91700 3.81000 33.81100
H  19.28300 -3.59200 31.13800
H  18.84500 -3.62000 24.68800
H  14.23400 0.91500 25.06000
H  17.10900 0.32000 32.78800
H  17.81600 -2.44300 33.04900
H  19.05200 0.00300 33.14000
H  19.81700 -0.91000 31.70200
H  19.87700 -1.53800 33.35300
H  15.47900 -2.18600 33.50100
H  14.66600 -0.62000 33.51500
H  16.01500 -1.91500 35.51500
H  15.12800 -0.43500 35.60900
H  20.48700 -6.60300 29.26100
H  19.41000 -5.84700 30.45200
H  20.99400 -5.20300 30.26300
H  20.87500 -7.58100 26.83100
H  21.95500 -6.14900 27.44000
H  22.08400 -6.66900 25.85300
H  16.90000 -2.89300 23.17200
H  16.35800 0.08600 23.30000
H  19.08200 -2.20300 22.76300
H  18.78000 -0.48000 23.37400
H  18.08100 -0.89800 21.95400
H  13.88500 -1.59700 23.75300
H  14.87600 -2.28900 22.64000
H  12.97700 -0.14200 22.52800
H  13.76300 -0.92400 21.16000
H  14.53200 0.52800 21.88800
H  12.90400 3.00500 26.26800
H  11.60000 2.49900 27.36900
H  12.09600 1.50500 26.02800
H  14.04400 1.03300 32.26900
H  16.86400 4.12700 33.37400
H  16.17700 3.48700 34.81900
H  15.15100 4.58400 33.84600
Mg 26.79000 49.93300 26.67600
C  24.77700 51.27800 29.23800
C  29.08700 48.87700 29.04000
C  28.86900 49.24800 24.15000
C  24.46900 51.55600 24.37800
N  26.99600 50.15700 28.82100
C  25.95900 50.55100 29.64600
C  26.24600 50.21200 31.12800
C  27.64800 49.60900 31.08600
C  27.96600 49.46600 29.59200
C  28.78200 50.37700 31.90000
C  25.14800 49.28100 31.78100
C  24.39300 49.78800 33.01600
H  24.98600 49.55200 34.38100
N  28.70900 49.07000 26.64400
C  29.46300 48.71600 27.73200
C  30.71700 48.11000 27.23200
C  30.76100 48.33500 25.77500
C  29.39100 48.91800 25.47100
C  31.82100 47.49700 28.02800
C  31.82100 47.92100 24.76800
O  31.61300 48.02800 23.57100
C  33.12200 47.46400 25.25500
N  26.63400 50.29200 24.65300
C  27.64900 49.88200 23.75500
C  27.23200 50.18900 22.20800
C  25.84200 50.93500 22.41700
C  25.62500 50.93000 23.90900
C  28.23100 50.92800 21.34000
C  24.66300 50.27700 21.54100
C  24.29100 48.86700 22.00300
N  25.03300 51.21900 26.71400
C  24.12800 51.64700 25.71100
C  23.01400 52.33100 26.27000
C  23.23100 52.12700 27.67200
C  24.45700 51.50100 27.88900
C  21.87000 53.00500 25.58600
C  22.66300 52.36800 28.97900
O  21.58100 52.97100 29.20500
C  23.62300 51.85800 30.02200
C  24.10200 52.95700 30.93900
O  25.04000 53.80200 30.87700
O  23.31500 52.76500 32.03500
C  23.41800 53.68200 33.13800
H  29.77100 48.30900 29.67400
H  29.53800 49.22800 23.28700
H  23.80400 51.99900 23.63400
H  26.16000 51.16900 31.64300
H  27.69200 48.59600 31.48600
H  28.38400 51.24700 32.42200
H  29.63800 50.65300 31.28400
H  29.23600 49.83600 32.73100
H  25.56700 48.34800 32.15900
H  24.48600 48.98500 30.96700
H  23.31800 49.65100 32.90400
H  24.48500 50.87400 33.01400
H  31.54700 47.43700 29.08100
H  32.84100 47.88000 28.06100
H  31.93000 46.50600 27.59000
H  33.47100 48.25100 25.92400
H  33.71100 47.29100 24.35400
H  33.08900 46.50000 25.76200
H  27.05400 49.25700 21.67200
H  25.83300 51.93700 21.99000
H  29.18300 50.87600 21.86900
H  27.90400 51.91900 21.02600
H  28.26900 50.34000 20.42300
H  25.10300 50.13700 20.55300
H  23.85800 51.01000 21.49500
H  23.25900 48.71000 22.31700
H  24.89000 48.46800 22.82200
H  24.41000 48.11600 21.22200
H  22.18200 53.51500 24.67500
H  21.41500 53.76600 26.22100
H  21.14000 52.26200 25.26400
H  23.09500 51.14500 30.65500
H  24.13100 53.33900 33.88800
H  22.41400 53.71200 33.56300
H  23.60400 54.73200 32.91400

