158

Mg 2.63700 -2.85100 45.28800
C  5.64700 -1.29400 44.20900
C  0.84800 -0.35600 43.73900
C  -0.10200 -4.68600 45.63000
C  4.68700 -5.57000 46.55600
N  3.14800 -1.15600 43.96500
C  4.42800 -0.59900 43.81100
C  4.35600 0.71100 42.98000
C  2.86600 1.12100 43.18900
C  2.21200 -0.23200 43.60000
C  2.59100 2.13500 44.39200
C  4.71700 0.43200 41.44100
C  5.99700 1.15300 41.01800
H  7.04800 0.55500 40.12800
N  0.57200 -2.51800 44.86200
C  0.06200 -1.45800 44.23300
C  -1.31800 -1.60000 44.13000
C  -1.68400 -2.91000 44.61800
C  -0.44300 -3.43400 45.11200
C  -2.30300 -0.59200 43.42700
C  -3.04100 -3.48200 44.52000
O  -4.03600 -2.78800 44.09800
C  -3.26200 -4.81100 44.87000
N  2.38500 -4.69900 46.12800
C  1.12000 -5.25100 46.03700
C  1.16500 -6.74900 46.49000
C  2.64400 -6.94300 46.88600
C  3.32200 -5.70600 46.42600
C  0.25700 -7.04400 47.69000
C  3.18800 -8.27400 46.39400
C  4.04500 -8.97800 47.48700
N  4.76100 -3.36500 45.43100
C  5.39800 -4.40000 46.03800
C  6.82800 -4.19000 45.92200
C  6.94000 -3.02700 45.25200
C  5.62800 -2.56700 44.84900
C  7.92500 -5.05500 46.53400
C  7.93800 -2.07000 44.85300
O  9.16200 -2.01100 45.09100
C  7.05900 -0.86700 44.14000
C  7.25100 0.40400 44.93300
O  6.88500 0.60300 46.06100
O  7.76400 1.36600 44.08800
C  7.85500 2.71200 44.71000
H  0.34800 0.52700 43.33500
H  -0.97700 -5.33900 45.65000
H  5.24700 -6.42700 46.93600
H  5.01100 1.49900 43.35200
H  2.57800 1.62500 42.26700
H  2.10400 3.04200 44.03200
H  3.48200 2.26800 45.00700
H  1.90100 1.65100 45.08200
H  3.96300 0.88000 40.79400
H  4.89900 -0.62500 41.24400
H  6.45900 1.62900 41.88300
H  5.57900 2.06000 40.58000
H  -2.47000 -1.06500 42.45900
H  -1.93400 0.39100 43.13300
H  -3.22200 -0.32100 43.94600
H  -2.65000 -5.31600 44.12300
H  -4.30500 -5.08300 44.70500
H  -2.94000 -4.81900 45.91100
H  0.85100 -7.40500 45.67800
H  2.75000 -6.73600 47.95000
H  0.31900 -6.21300 48.39200
H  0.51100 -7.99500 48.15800
H  -0.75700 -7.06800 47.29200
H  3.82500 -8.10500 45.52600
H  2.39900 -8.98300 46.14100
H  3.60100 -9.91000 47.83500
H  4.17100 -8.29400 48.32700
H  5.10300 -9.05700 47.24000
H  8.41000 -5.60100 45.72500
H  7.60900 -5.62500 47.40800
H  8.70900 -4.36200 46.84000
H  7.47300 -0.73200 43.14100
H  7.03400 2.92100 45.39500
H  8.00700 3.41900 43.89400
H  8.79100 2.86400 45.24600
Mg 40.55600 9.85100 30.12100
C  42.41000 10.79500 32.95100
C  38.26800 8.20200 32.22000
C  39.03600 8.54100 27.45600
C  43.09700 11.09700 28.13400
N  40.47600 9.47500 32.34900
C  41.24900 10.08500 33.32300
C  40.60200 10.07500 34.74500
C  39.29800 9.10700 34.47900
C  39.36500 8.90300 32.92300
C  39.14400 7.89600 35.34500
C  40.17100 11.54600 35.03800
C  39.49800 11.76000 36.34300
H  40.13400 12.46300 37.52600
N  38.85400 8.49300 29.82000
C  38.04800 8.00300 30.82000
C  36.91500 7.20700 30.21400
C  37.16500 7.19400 28.76100
C  38.36900 8.14000 28.59600
C  35.76200 6.72900 31.08800
C  36.51600 6.49300 27.65300
O  36.81000 6.60900 26.45300
C  35.45200 5.51100 27.91700
N  40.88200 9.96800 28.03300
C  40.11400 9.34100 27.14400
C  40.77100 9.38400 25.76900
C  42.02400 10.25200 25.93900
C  42.03400 10.49300 27.44100
C  41.03400 8.01900 25.16200
C  42.05200 11.58700 25.02800
C  43.15000 11.50700 24.00100
N  42.36400 10.72200 30.42000
C  43.29500 11.21800 29.48800
C  44.42400 11.87300 30.12600
C  44.11900 11.76600 31.50400
C  42.90800 10.99600 31.63900
C  45.60100 12.40100 29.41900
C  44.57500 11.99800 32.89500
O  45.48500 12.69900 33.32500
C  43.38700 11.41900 33.84600
C  44.05900 10.35400 34.76700
O  44.46100 9.25500 34.46600
O  43.87400 10.78500 36.09200
C  44.08800 9.82100 37.20100
H  37.41900 7.92300 32.84700
H  38.49700 8.11500 26.60700
H  43.83400 11.52300 27.45000
H  41.23700 9.67800 35.53700
H  38.41400 9.72700 34.62800
H  38.08200 7.66100 35.41000
H  39.54500 8.30900 36.27100
H  39.61400 7.01700 34.90500
H  39.55100 11.99300 34.26000
H  41.12700 12.06100 35.13000
H  39.19200 10.75400 36.62800
H  38.58600 12.34900 36.25000
H  35.79800 5.64100 31.13600
H  34.85400 7.13000 30.63700
H  35.75200 7.04700 32.13000
H  34.89300 5.10100 27.07600
H  34.77000 5.91800 28.66300
H  35.93700 4.61500 28.30600
H  40.06700 9.92900 25.14000
H  42.88500 9.64700 25.65300
H  40.59600 7.28100 25.83300
H  42.08900 7.75200 25.09700
H  40.58600 7.93300 24.17100
H  42.24600 12.38000 25.75000
H  41.04500 11.69400 24.62300
H  43.03700 10.48900 23.63100
H  44.14700 11.66200 24.41300
H  42.91500 12.30100 23.29200
H  46.45100 12.69300 30.03600
H  45.32200 13.23600 28.77700
H  46.03200 11.64600 28.76100
H  43.10200 12.28100 34.44900
H  43.38900 9.94500 38.02700
H  45.10000 9.99700 37.56800
H  43.99300 8.80100 36.82800

