158

Mg 40.06700 9.31000 30.31600
C  42.13500 10.67700 32.92400
C  38.26500 7.60900 32.74900
C  38.26700 7.89700 27.77900
C  42.17500 10.74000 27.98900
N  40.17200 9.16400 32.59900
C  41.01600 9.90600 33.41500
C  40.62200 9.76900 34.87300
C  39.37200 8.76100 34.84600
C  39.19500 8.50100 33.32800
C  39.50000 7.48800 35.79000
C  40.21700 11.16300 35.53400
C  40.91800 11.63500 36.80400
H  40.01800 12.52800 37.73300
N  38.47000 8.02600 30.28900
C  37.90300 7.41000 31.36200
C  36.69100 6.69900 30.89400
C  36.73600 6.64700 29.40500
C  37.90000 7.51400 29.06900
C  35.68900 6.09500 31.99800
C  35.86200 5.85000 28.43100
O  36.09600 5.73900 27.21800
C  34.54900 5.32300 29.07400
N  40.14800 9.35000 28.20200
C  39.26800 8.77100 27.41500
C  39.46000 9.22500 25.98000
C  40.51400 10.37300 26.10600
C  40.98900 10.14500 27.48700
C  39.66900 8.28300 24.71100
C  39.84400 11.75100 25.86900
C  40.69400 12.74300 24.96500
N  41.89100 10.46600 30.40400
C  42.57400 10.88400 29.33800
C  43.73700 11.70300 29.85900
C  43.54600 11.69900 31.26800
C  42.43400 10.85900 31.55100
C  44.82100 12.18800 29.04800
C  44.08100 12.16300 32.51600
O  45.13500 12.78100 32.70400
C  43.22900 11.54200 33.66200
C  44.01700 10.67700 34.60200
O  44.52000 9.53800 34.40800
O  44.05400 11.38000 35.82500
C  44.45400 10.46100 36.92000
H  37.51100 7.20000 33.42500
H  37.60700 7.66400 26.94100
H  42.85000 11.22300 27.27800
H  41.49100 9.38900 35.41000
H  38.43400 9.27400 35.05800
H  39.18000 6.52400 35.39400
H  38.74600 7.71200 36.54400
H  40.45400 7.48700 36.31600
H  39.14400 11.18300 35.72300
H  40.28700 11.90100 34.73500
H  41.78400 12.22300 36.50000
H  41.25500 10.75500 37.35300
H  35.56400 6.75800 32.85400
H  36.01900 5.08900 32.25700
H  34.70400 5.96200 31.55200
H  33.95400 4.79100 28.33200
H  34.07100 6.21200 29.48500
H  34.75500 4.57000 29.83500
H  38.49300 9.69100 25.79300
H  41.43900 10.24800 25.54300
H  39.82900 7.27500 25.09300
H  40.55100 8.49600 24.10700
H  38.83500 8.27200 24.00900
H  39.74400 12.20000 26.85700
H  38.80900 11.64300 25.54400
H  40.96100 13.71200 25.38600
H  40.32100 12.80600 23.94300
H  41.63500 12.23300 24.75900
H  44.91400 11.77400 28.04400
H  45.73900 11.87800 29.54600
H  44.73300 13.27400 29.02500
H  42.77200 12.34800 34.23700
H  43.79300 9.59400 36.92600
H  44.42100 11.04100 37.84200
H  45.46600 10.11200 36.71500
Mg -5.58300 24.92900 26.06700
C  -3.98500 25.91600 29.16000
C  -7.30800 22.65100 28.04500
C  -6.38700 23.40400 23.25200
C  -3.25900 26.86900 24.39600
N  -5.75800 24.44800 28.46100
C  -4.99300 24.91100 29.44700
C  -5.52000 24.38500 30.81100
C  -6.55700 23.28800 30.41500
C  -6.62500 23.49000 28.90100
C  -6.10800 21.90300 30.71800
C  -6.25900 25.60300 31.60100
C  -5.91000 25.78700 33.08100
H  -5.08700 24.78600 33.79200
N  -6.77300 23.44400 25.71700
C  -7.51300 22.68500 26.60000
C  -8.41100 21.80300 25.89200
C  -8.16000 22.00200 24.49800
C  -7.04700 22.99600 24.46700
C  -9.42800 20.88500 26.58600
C  -8.85400 21.32700 23.26800
O  -8.41100 21.45400 22.14900
C  -9.92400 20.37400 23.43900
N  -4.89200 25.04500 24.16700
C  -5.33900 24.28400 23.13800
C  -4.82000 24.73500 21.81100
C  -3.97200 26.01500 22.14300
C  -4.06600 26.04600 23.67900
C  -3.91700 23.63200 21.07400
C  -4.43500 27.30800 21.46800
C  -3.38400 28.31900 21.10500
N  -3.99300 26.23400 26.62800
C  -3.21400 26.96800 25.78300
C  -2.32300 27.82000 26.61200
C  -2.60600 27.46800 27.96900
C  -3.60500 26.47500 27.91400
C  -1.57100 28.98600 26.21200
C  -2.18400 27.67200 29.35000
O  -1.21600 28.31600 29.70700
C  -3.23500 26.79600 30.21300
C  -2.34400 25.89000 31.06500
O  -1.98200 24.77100 30.72200
O  -1.97700 26.55600 32.21800
C  -0.89000 25.83200 32.89100
H  -7.99100 22.01700 28.61400
H  -6.81700 23.04700 22.31400
H  -2.60200 27.59700 23.91600
H  -4.68100 24.06100 31.42700
H  -7.52600 23.40300 30.90100
H  -5.28000 21.83400 31.42400
H  -5.72800 21.47800 29.78900
H  -6.91700 21.24200 31.02800
H  -7.34600 25.55800 31.53300
H  -5.99800 26.54200 31.11400
H  -6.81100 25.93600 33.67700
H  -5.45700 26.75900 33.27900
H  -9.44000 20.95700 27.67300
H  -9.21100 19.83400 26.39700
H  -10.37600 21.05000 26.07300
H  -10.89100 20.87000 23.51700
H  -9.60300 19.63700 24.17500
H  -10.14900 19.83100 22.52000
H  -5.69900 24.95400 21.20400
H  -2.94800 25.78600 21.84800
H  -3.85200 22.74600 21.70600
H  -2.86800 23.87300 20.90700
H  -4.38200 23.47800 20.10100
H  -5.25300 27.90100 21.87800
H  -4.81000 27.07100 20.47200
H  -2.43500 27.98200 21.52300
H  -3.44000 29.28700 21.60200
H  -3.36800 28.41100 20.01900
H  -2.20600 29.75200 25.76600
H  -0.77300 28.87100 25.47900
H  -1.22000 29.45700 27.13000
H  -3.87700 27.35200 30.89600
H  0.07800 25.95700 32.40600
H  -1.07900 24.78100 33.11300
H  -0.92300 26.22400 33.90800

