158

Mg 7.09200 2.87500 27.91900
C  8.62000 1.90000 30.75700
C  5.27800 5.24400 29.82200
C  5.40000 3.78500 25.13800
C  8.60100 0.40000 26.12000
N  6.80300 3.35100 30.05900
C  7.71100 2.93000 31.05000
C  7.56700 3.74100 32.34700
C  6.42700 4.77500 32.02000
C  6.05500 4.34100 30.56900
C  5.16000 4.79300 32.95000
C  8.80000 4.38800 33.02600
C  9.10300 3.82400 34.41100
H  8.76000 4.75000 35.56600
N  5.64400 4.36500 27.54100
C  5.08100 5.24400 28.38600
C  4.36100 6.20600 27.59100
C  4.23000 5.66500 26.30300
C  5.13800 4.56900 26.28300
C  3.58400 7.34200 28.20700
C  3.50700 6.22500 25.13700
O  3.46600 5.55700 24.13000
C  2.80900 7.48000 25.06700
N  6.95100 2.16800 25.96100
C  6.21400 2.68300 25.01400
C  6.26000 1.78400 23.69600
C  7.65300 1.07300 23.89000
C  7.73600 1.17000 25.40900
C  5.00500 0.84200 23.58000
C  8.90300 1.67200 23.04300
C  10.16000 2.11000 23.83000
N  8.34800 1.38200 28.33600
C  8.86200 0.42600 27.50800
C  9.72900 -0.48700 28.22600
C  9.67900 0.11700 29.50900
C  8.73800 1.18100 29.55500
C  10.56800 -1.60500 27.76300
C  10.28100 0.04500 30.80400
O  11.11600 -0.70800 31.23900
C  9.57100 1.18600 31.64400
C  8.87700 0.55600 32.72500
O  7.76900 0.03400 32.66400
O  9.71800 0.50000 33.83500
C  9.13800 -0.07100 35.09600
H  4.78400 6.07000 30.33800
H  5.00100 3.91900 24.13100
H  9.08100 -0.37500 25.51800
H  7.09300 3.02600 33.01900
H  6.87400 5.76900 32.00000
H  4.31900 4.34300 32.42100
H  4.83900 5.76700 33.31900
H  5.32700 4.27800 33.89600
H  8.74600 5.47700 33.01400
H  9.66300 4.11200 32.42000
H  10.18500 3.70300 34.46200
H  8.70500 2.83500 34.63900
H  2.54900 7.20000 27.89500
H  3.85700 8.36000 27.92900
H  3.61100 7.32800 29.29600
H  2.03900 7.46000 25.83900
H  2.32800 7.48900 24.08900
H  3.50900 8.30200 25.21300
H  6.37100 2.54200 22.92100
H  7.55100 0.04600 23.53900
H  4.35300 1.04100 24.43000
H  5.25600 -0.21600 23.65500
H  4.39100 0.95400 22.68600
H  8.53100 2.51600 22.46200
H  9.29100 0.84200 22.45300
H  9.80800 2.60100 24.73800
H  10.74600 2.89500 23.35200
H  10.70200 1.17200 23.94900
H  11.26600 -1.31300 26.97900
H  9.91700 -2.42600 27.46100
H  11.24200 -1.90300 28.56600
H  10.30200 1.88800 32.04300
H  8.78900 0.69200 35.79100
H  9.95900 -0.60900 35.57000
H  8.34600 -0.76300 34.80800
Mg 55.41400 24.45800 45.41000
C  52.91700 26.58000 44.22700
C  53.98100 21.84300 43.73300
C  58.26700 22.75200 45.66200
C  56.99600 27.28100 46.81800
N  53.77600 24.37400 43.84900
C  52.77600 25.30100 43.67700
C  51.47800 24.60600 43.10400
C  51.82300 23.07500 43.22300
C  53.26900 23.04800 43.64400
C  50.79600 22.31900 44.14100
C  51.23100 24.97300 41.64300
C  49.71100 24.88300 41.21500
H  49.36400 24.24700 39.82800
N  56.00100 22.49800 44.96400
C  55.26100 21.56600 44.28100
C  55.89800 20.33500 44.24500
C  57.19000 20.51500 44.90700
C  57.20500 21.98800 45.16100
C  55.20900 19.12000 43.75000
C  58.17500 19.46600 45.14400
O  58.08600 18.28700 44.73400
C  59.41900 19.73500 45.94500
N  57.33700 24.97000 46.09100
C  58.37900 24.08000 46.05300
C  59.67800 24.73700 46.66100
C  59.16600 26.12500 47.13100
C  57.78400 26.19100 46.53000
C  60.56000 23.98400 47.69400
C  60.15300 27.25500 46.69300
C  60.27800 27.69800 45.26700
N  55.00700 26.54900 45.64100
C  55.68400 27.55400 46.33200
C  54.86000 28.75000 46.30700
C  53.79300 28.42100 45.45800
C  53.95200 27.09800 45.07800
C  55.17500 30.08400 46.88600
C  52.59100 28.93000 44.87700
O  52.03600 29.97900 45.15900
C  51.99600 27.81700 44.01000
C  51.62500 28.29000 42.60900
O  52.36000 28.77400 41.69400
O  50.22700 28.30500 42.40000
C  49.82600 28.81700 41.07700
H  53.39700 20.96100 43.46600
H  59.20000 22.20700 45.81900
H  57.44900 28.18900 47.22100
H  50.68900 24.96900 43.76300
H  51.78900 22.57600 42.25500
H  51.32600 21.66700 44.83600
H  50.02300 21.76100 43.61400
H  50.24100 23.05600 44.72300
H  51.75800 24.28300 40.98400
H  51.56600 25.99700 41.47700
H  49.34900 25.88600 41.44100
H  49.23700 24.25800 41.97300
H  55.85500 18.30200 43.43100
H  54.70900 19.41200 42.82600
H  54.50100 18.61200 44.40500
H  60.15900 20.27100 45.35200
H  59.85300 18.74700 46.10100
H  59.14000 20.14600 46.91500
H  60.36400 24.91800 45.83400
H  59.05200 26.15100 48.21400
H  60.85200 24.70200 48.46100
H  61.45700 23.57200 47.23000
H  60.09100 23.11400 48.15200
H  61.15000 26.92800 46.98900
H  59.78800 28.04400 47.35000
H  59.64700 27.14500 44.57100
H  61.26200 27.57600 44.81400
H  60.04800 28.76300 45.28800
H  54.86500 30.11800 47.93100
H  54.67800 30.85500 46.29700
H  56.25300 30.24600 46.86700
H  51.03300 27.51900 44.42600
H  49.58600 29.87600 41.17000
H  49.04200 28.20500 40.63100
H  50.57700 28.64900 40.30500

