158

Mg 37.30400 50.56000 25.18900
C  37.01900 48.39600 27.85300
C  35.95400 53.07700 26.89000
C  37.09100 52.34300 22.28400
C  38.26600 47.70700 23.26800
N  36.40600 50.63600 27.14600
C  36.62400 49.76000 28.11500
C  36.37700 50.31600 29.49600
C  35.72400 51.69500 29.14300
C  36.07600 51.91300 27.63500
C  34.23200 51.80400 29.35600
C  37.45000 50.30400 30.56300
C  37.05300 49.66200 31.90400
H  35.66700 49.87000 32.50500
N  36.77100 52.55100 24.66000
C  36.28300 53.44400 25.53900
C  36.04100 54.70700 24.88400
C  36.31900 54.52800 23.47800
C  36.74000 53.11400 23.42800
C  35.61600 55.90700 25.63300
C  36.20500 55.41800 22.31700
O  36.47800 55.03700 21.20200
C  35.84900 56.86100 22.55800
N  37.54100 50.08000 23.10800
C  37.42200 50.99900 22.06600
C  37.82600 50.35600 20.71000
C  38.40200 49.00100 21.07100
C  38.05900 48.91000 22.62700
C  36.51800 50.30100 19.80300
C  39.85700 48.65500 20.68100
C  40.84900 49.67100 21.20600
N  37.54200 48.45000 25.39700
C  37.94400 47.41500 24.56900
C  38.01200 46.18600 25.29300
C  37.68600 46.53600 26.59700
C  37.33400 47.88500 26.58700
C  38.52300 44.93800 24.72700
C  37.63300 46.09500 27.94500
O  37.82500 44.98400 28.34300
C  37.32400 47.33400 28.84900
C  36.21200 46.93500 29.71900
O  35.04500 47.00600 29.39800
O  36.71300 46.42800 30.92900
C  35.71600 46.17100 31.94900
H  35.76300 53.88100 27.60400
H  37.05200 52.88500 21.33700
H  38.87300 46.96300 22.74800
H  35.56900 49.70400 29.89800
H  36.21400 52.53200 29.64100
H  33.99300 51.00700 30.06100
H  33.75700 51.69600 28.38100
H  34.07800 52.77900 29.81800
H  37.83400 51.30100 30.77700
H  38.25500 49.69400 30.15200
H  37.75000 50.05200 32.64700
H  37.39300 48.62700 31.87600
H  35.76200 55.85900 26.71200
H  34.56300 56.11400 25.44100
H  36.08300 56.82800 25.28500
H  35.02200 56.96900 23.25900
H  35.67600 57.32000 21.58400
H  36.80700 57.24200 22.91300
H  38.62100 50.82500 20.13100
H  37.76200 48.26000 20.59200
H  36.81800 50.69100 18.83000
H  35.80200 51.00400 20.22800
H  35.95300 49.38500 19.63100
H  39.96800 48.54700 19.60200
H  40.12300 47.66000 21.03900
H  40.42200 50.67100 21.27400
H  41.67600 49.70300 20.49600
H  41.38600 49.37600 22.10800
H  39.52400 45.13300 24.34300
H  37.85700 44.64300 23.91600
H  38.60400 44.12500 25.44900
H  38.26700 47.46200 29.38100
H  35.76700 45.08200 31.95700
H  34.70100 46.48500 31.70200
H  36.09000 46.49600 32.91900
Mg -10.85000 37.59900 42.51500
C  -8.23700 35.17600 42.06200
C  -8.52600 39.98800 41.40500
C  -13.24800 39.66900 42.78000
C  -13.05700 34.86400 43.12700
N  -8.67000 37.56500 41.73900
C  -7.80700 36.47800 41.79600
C  -6.45700 36.81600 41.22900
C  -6.51300 38.39900 41.20800
C  -7.97700 38.67400 41.39200
C  -5.59200 39.05000 42.28700
C  -6.07200 36.10600 39.85800
C  -4.70800 35.33900 39.83800
H  -3.85600 35.74000 38.61100
N  -10.85900 39.63300 42.16200
C  -9.86100 40.46100 41.69800
C  -10.28800 41.82900 41.77500
C  -11.68300 41.71800 42.13600
C  -12.02900 40.30500 42.41700
C  -9.41100 43.05500 41.24100
C  -12.57400 42.91000 42.20900
O  -12.23800 44.05700 41.85600
C  -13.94500 42.83000 42.77700
N  -12.90000 37.34300 42.78900
C  -13.74000 38.39300 42.96500
C  -15.16900 38.06800 43.32300
C  -15.17000 36.49600 43.33300
C  -13.60400 36.19400 43.07500
C  -15.71100 38.76900 44.58000
C  -15.93100 35.76600 42.23900
C  -17.05300 34.79500 42.82500
N  -10.73400 35.46800 42.66500
C  -11.66200 34.52600 43.00500
C  -11.01800 33.22600 43.24000
C  -9.71700 33.48600 42.87000
C  -9.56200 34.84600 42.50200
C  -11.62200 31.93200 43.75800
C  -8.40900 32.81400 42.69500
O  -7.98500 31.66500 42.78100
C  -7.54600 33.82400 41.99700
C  -6.36500 33.77100 42.91100
O  -6.33800 34.04800 44.11100
O  -5.22500 33.36700 42.21300
C  -4.09700 33.01400 43.09400
H  -7.80500 40.80700 41.36600
H  -14.07500 40.38200 42.81400
H  -13.69700 34.03500 43.43600
H  -5.73600 36.41900 41.94300
H  -6.22000 38.71200 40.20700
H  -4.94100 39.79900 41.83500
H  -5.01100 38.37500 42.91500
H  -6.35600 39.55500 42.87800
H  -6.03800 36.85500 39.06800
H  -6.85000 35.40600 39.55300
H  -4.95600 34.27900 39.86900
H  -4.10500 35.61900 40.70200
H  -9.76400 43.33600 40.24900
H  -8.36900 42.78400 41.07100
H  -9.29400 43.82300 42.00500
H  -14.40400 43.81900 42.78900
H  -13.90200 42.44000 43.79300
H  -14.58100 42.34600 42.03500
H  -15.74700 38.35100 42.44400
H  -15.39600 36.01500 44.28500
H  -14.96300 39.39500 45.06600
H  -16.02000 37.98400 45.27100
H  -16.49500 39.47900 44.31700
H  -15.29600 35.09800 41.65600
H  -16.34100 36.42100 41.47000
H  -17.21400 34.89200 43.89900
H  -16.83600 33.75800 42.56600
H  -18.01500 35.11000 42.42100
H  -12.45300 31.72400 43.08500
H  -12.01100 32.33700 44.69200
H  -10.86400 31.15400 43.85100
H  -7.29300 33.54400 40.97400
H  -3.13400 32.92700 42.59100
H  -4.19900 32.02300 43.53600
H  -4.00800 33.73800 43.90400

