158

Mg 40.81000 9.09400 29.33400
C  42.70700 10.25800 32.16400
C  38.66500 7.76900 31.72500
C  39.24500 7.80200 26.80500
C  43.48700 10.17400 27.33800
N  40.70600 8.96900 31.73600
C  41.49000 9.72700 32.56800
C  40.87700 9.61000 34.00200
C  39.51700 8.82400 33.84100
C  39.64500 8.44600 32.34700
C  39.42800 7.58300 34.81900
C  40.72800 11.07400 34.70200
C  41.03800 11.08300 36.19400
H  41.37000 12.44400 36.88800
N  39.12900 8.05200 29.23700
C  38.36300 7.57000 30.30800
C  37.18800 6.97900 29.73800
C  37.28300 7.07000 28.31100
C  38.58100 7.67000 28.05500
C  36.03900 6.49300 30.61700
C  36.30100 6.74400 27.20300
O  36.43400 6.86700 26.04000
C  34.99100 6.41900 27.70500
N  41.44500 8.89200 27.34800
C  40.53600 8.35600 26.46100
C  40.98400 8.61300 25.01100
C  42.37500 9.33500 25.15400
C  42.43800 9.56400 26.65700
C  41.11100 7.34200 24.09800
C  42.65400 10.59600 24.28300
C  42.20200 11.95500 24.80300
N  42.74100 9.98700 29.67200
C  43.66900 10.34600 28.74900
C  44.90000 10.77200 29.42100
C  44.51000 10.81000 30.72000
C  43.21000 10.31700 30.81800
C  46.16600 11.20500 28.84100
C  44.92000 11.18400 32.06300
O  45.91200 11.76900 32.36000
C  43.77400 11.00900 33.01600
C  44.18800 10.24700 34.22600
O  44.51000 9.04800 34.20300
O  44.26700 11.07600 35.35000
C  44.60900 10.37400 36.58500
H  37.90200 7.30300 32.35200
H  38.77500 7.43900 25.88800
H  44.35200 10.43900 26.72700
H  41.72600 9.02300 34.35500
H  38.65700 9.48900 33.92000
H  38.37600 7.63200 35.09700
H  40.01200 7.75600 35.72300
H  39.66600 6.62300 34.36200
H  39.70700 11.45200 34.64500
H  41.37400 11.77300 34.17000
H  41.79600 10.32200 36.38400
H  40.11400 10.79900 36.69800
H  36.30100 6.37700 31.66900
H  35.87300 5.49400 30.21300
H  35.12500 7.02000 30.34200
H  34.20700 6.44000 26.94800
H  34.86800 7.34600 28.26400
H  34.87300 5.58700 28.40000
H  40.30500 9.34800 24.57800
H  43.25300 8.70100 25.02700
H  40.42200 6.58100 24.46500
H  42.10600 6.90400 24.01500
H  40.84100 7.50500 23.05500
H  42.00100 10.48300 23.41700
H  43.66600 10.64300 23.88200
H  42.97300 12.69700 25.01400
H  41.56700 11.87800 25.68500
H  41.58400 12.38900 24.01700
H  46.26700 12.29000 28.81900
H  46.19100 10.75700 27.84700
H  46.97000 10.84100 29.48000
H  43.46200 12.02700 33.24900
H  44.56800 9.28700 36.65200
H  44.03100 10.85900 37.37200
H  45.61900 10.72400 36.80000
Mg -5.37900 26.02100 26.31200
C  -3.71400 27.18900 29.28000
C  -7.16300 23.81900 28.49700
C  -6.43200 24.25700 23.67800
C  -3.33700 27.82800 24.49600
N  -5.47300 25.65200 28.67700
C  -4.76100 26.30600 29.66800
C  -5.34400 25.92500 31.06200
C  -6.12100 24.67700 30.68400
C  -6.28700 24.69000 29.14700
C  -5.39900 23.28100 31.02100
C  -6.23900 26.99100 31.75000
C  -6.28600 27.13400 33.23300
H  -5.64300 25.96300 33.95700
N  -6.69100 24.36900 26.06700
C  -7.35600 23.66100 27.12000
C  -8.31400 22.70700 26.45100
C  -8.03100 22.75500 25.07900
C  -6.99800 23.80800 24.86600
C  -9.33200 21.90800 27.17300
C  -8.60600 21.96000 23.99600
O  -8.27800 22.01400 22.84300
C  -9.84700 21.16300 24.21600
N  -4.95000 26.03500 24.29400
C  -5.47000 25.20300 23.40900
C  -4.78900 25.38400 22.00500
C  -4.03700 26.78400 22.25600
C  -4.07000 26.87300 23.76900
C  -3.89900 24.11400 21.78400
C  -4.70400 27.93300 21.47500
C  -4.01900 28.35400 20.25500
N  -3.93500 27.33500 26.77600
C  -3.17700 28.01900 25.84900
C  -2.18900 28.81400 26.49900
C  -2.35400 28.54700 27.86800
C  -3.42700 27.63600 27.96500
C  -1.27500 29.80700 25.84200
C  -1.87600 28.92400 29.20300
O  -0.94900 29.60700 29.63600
C  -2.79900 28.07200 30.13800
C  -1.99700 27.22900 31.05200
O  -1.35500 26.26500 30.60800
O  -1.89300 27.82900 32.28700
C  -1.42100 26.75600 33.23100
H  -7.78400 23.14100 29.08600
H  -6.69100 23.74400 22.75000
H  -2.65600 28.30900 23.79000
H  -4.60300 25.62500 31.80300
H  -7.10400 24.59100 31.14800
H  -6.11500 22.63600 31.52800
H  -4.49800 23.50400 31.59200
H  -5.17800 22.75100 30.09500
H  -7.25700 26.96600 31.36300
H  -5.78900 27.86400 31.27800
H  -7.32500 27.14200 33.56400
H  -5.73500 28.01400 33.56300
H  -10.27400 22.38600 26.90300
H  -9.07000 22.04300 28.22200
H  -9.38500 20.82800 27.04200
H  -10.38500 21.09000 23.27100
H  -10.51500 21.61600 24.94800
H  -9.56700 20.14600 24.49400
H  -5.52900 25.60300 21.23600
H  -3.01900 26.62000 21.90100
H  -4.06700 23.68600 20.79600
H  -4.06100 23.30000 22.49200
H  -2.84300 24.36400 21.88200
H  -4.79500 28.81400 22.11000
H  -5.75300 27.69000 21.30700
H  -3.42200 29.23500 20.49300
H  -4.68700 28.55900 19.41900
H  -3.43500 27.63100 19.68600
H  -1.64800 30.83100 25.86900
H  -0.94000 29.39600 24.88900
H  -0.36100 29.93900 26.42100
H  -3.40900 28.80300 30.66900
H  -2.12600 25.92700 33.18300
H  -1.29400 27.09600 34.25900
H  -0.46100 26.36800 32.88900

