158

Mg 46.58600 25.27700 28.71500
C  47.88200 27.67800 31.05000
C  45.57800 23.31800 31.31000
C  45.30400 23.12800 26.43300
C  47.88400 27.17700 26.18900
N  46.79500 25.54300 30.95100
C  47.19600 26.58400 31.66000
C  46.81100 26.37300 33.15300
C  46.38500 24.88600 33.11400
C  46.25400 24.53000 31.63800
C  47.31800 24.02300 34.04600
C  45.70700 27.33300 33.65500
C  46.14200 28.33700 34.75800
H  45.24400 28.29000 36.04700
N  45.67500 23.42700 28.88600
C  45.23400 22.84200 30.05900
C  44.47300 21.62000 29.71600
C  44.36600 21.54900 28.31500
C  45.15100 22.73200 27.82300
C  43.85300 20.67700 30.77000
C  43.58200 20.64500 27.40200
O  43.59600 20.74600 26.22400
C  42.68700 19.46200 27.88900
N  46.81600 25.09800 26.62800
C  46.01400 24.22300 25.92500
C  46.04800 24.44600 24.40400
C  46.71400 25.83800 24.41200
C  47.18000 26.06100 25.79700
C  47.02600 23.44800 23.63500
C  45.75200 26.97800 24.08500
C  46.23200 28.12900 23.23000
N  47.73500 27.04000 28.60800
C  48.15100 27.74900 27.49300
C  48.68500 29.03600 27.88200
C  48.59600 29.00000 29.28300
C  48.05800 27.81900 29.65300
C  49.11400 30.02800 26.98400
C  48.91500 29.77700 30.49400
O  49.50100 30.84900 30.61900
C  48.44600 28.91300 31.64100
C  49.53300 28.54700 32.56400
O  50.55000 27.93000 32.29400
O  49.23900 28.79900 33.84900
C  50.04500 28.26600 34.95300
H  45.23800 22.77000 32.19100
H  44.84200 22.57900 25.61000
H  48.20700 27.77000 25.33100
H  47.58100 26.73000 33.83600
H  45.40300 24.76800 33.57000
H  46.65900 23.36400 34.61100
H  47.89000 24.59400 34.77700
H  47.92900 23.44500 33.35300
H  44.80900 26.82900 34.01400
H  45.42200 27.82300 32.72300
H  46.19300 29.32700 34.30500
H  47.13100 28.15100 35.17500
H  44.00200 21.01000 31.79700
H  44.41000 19.76100 30.57500
H  42.78000 20.62300 30.58500
H  41.91700 19.71700 28.61700
H  43.30100 18.62800 28.22900
H  42.08700 19.07400 27.06600
H  45.08800 24.31400 23.90500
H  47.58200 26.01500 23.77700
H  47.34900 22.66200 24.31800
H  47.90200 23.94900 23.22400
H  46.45400 23.01800 22.81300
H  45.46100 27.43400 25.03100
H  44.89700 26.46700 23.64200
H  46.11800 29.09700 23.71800
H  45.76000 28.18600 22.24900
H  47.28300 28.08400 22.94600
H  48.83700 31.00000 27.39000
H  48.46200 29.98400 26.11200
H  50.14700 30.03200 26.63600
H  47.63600 29.47100 32.11000
H  50.73600 27.47600 34.66100
H  49.42300 27.90000 35.77000
H  50.49700 29.17500 35.34900
Mg 0.78500 42.57200 26.62900
C  2.72800 42.87200 29.60900
C  -1.76200 41.42400 28.68900
C  -0.81500 41.57500 23.89600
C  3.51000 43.58800 24.80800
N  0.55400 42.31700 28.88500
C  1.40500 42.54500 29.91800
C  0.83600 42.34300 31.34000
C  -0.51600 41.62700 30.94600
C  -0.59900 41.79800 29.43400
C  -0.68400 40.09500 31.48400
C  0.57300 43.66700 32.14400
C  1.01800 43.73700 33.62400
H  0.64400 42.52200 34.48600
N  -0.98800 41.71000 26.27500
C  -1.97700 41.37800 27.27300
C  -3.12100 40.87000 26.63400
C  -2.86700 40.87000 25.22300
C  -1.46200 41.33300 25.06200
C  -4.27100 40.39800 27.46500
C  -3.85800 40.47700 24.09100
O  -3.56800 40.39800 22.88300
C  -5.24600 40.19000 24.44300
N  1.32500 42.57700 24.65700
C  0.50100 42.11900 23.70100
C  1.20400 42.25500 22.27900
C  2.46500 43.08000 22.57900
C  2.43800 43.16600 24.03000
C  1.54600 40.92400 21.59000
C  2.49700 44.56300 21.98600
C  1.46200 45.57800 22.47300
N  2.74400 43.14400 27.10100
C  3.71400 43.49600 26.23100
C  4.93000 43.76400 26.98900
C  4.61100 43.51300 28.36900
C  3.30500 43.13700 28.32100
C  6.21400 44.14600 26.31800
C  5.10800 43.43400 29.67200
O  6.27300 43.53900 30.06700
C  3.83500 43.11900 30.57900
C  4.22200 41.84400 31.22900
O  4.59300 40.88100 30.60500
O  4.02200 41.89500 32.62300
C  4.24800 40.65900 33.42500
H  -2.68600 41.24900 29.24300
H  -1.25700 41.32200 22.93000
H  4.33700 44.05200 24.26700
H  1.48900 41.76600 31.99400
H  -1.34400 42.17400 31.39600
H  -1.02300 39.35900 30.75500
H  -1.24900 39.98600 32.40900
H  0.31800 39.71500 31.68600
H  -0.44700 44.01900 31.99000
H  1.20100 44.38700 31.61900
H  0.59700 44.55600 34.20700
H  2.10500 43.73300 33.55500
H  -3.98900 39.58100 28.12900
H  -5.19000 40.23700 26.90300
H  -4.56900 41.21400 28.12300
H  -5.85900 39.99200 23.56400
H  -5.73400 41.00700 24.97600
H  -5.35400 39.29300 25.05300
H  0.53500 42.84100 21.64900
H  3.39100 42.51900 22.45400
H  2.08400 40.36200 22.35400
H  2.11700 41.18700 20.70000
H  0.62400 40.43300 21.27800
H  2.46700 44.57000 20.89600
H  3.49200 44.90400 22.27400
H  0.77900 45.96600 21.71700
H  2.06200 46.36000 22.93800
H  0.84200 45.19500 23.28400
H  6.06100 44.50000 25.29900
H  6.78200 43.21800 26.38400
H  6.72200 44.86400 26.96300
H  3.65800 43.86900 31.35000
H  5.20500 40.58900 33.94100
H  4.18800 39.74600 32.83200
H  3.39900 40.55300 34.09900

