158

Mg 17.24000 50.92400 25.90400
C  18.95000 49.78300 28.64000
C  14.95500 52.48600 28.02100
C  15.74300 52.11000 23.18100
C  19.71600 49.53400 23.80900
N  17.13400 51.30600 28.11600
C  17.87500 50.60200 29.04000
C  17.37400 50.82300 30.44700
C  16.04300 51.62000 30.23200
C  16.03800 51.83900 28.72400
C  14.83500 50.89600 30.80500
C  18.47300 51.50400 31.35500
C  18.20400 51.58600 32.87600
H  17.21600 50.64000 33.56900
N  15.51100 52.08500 25.58600
C  14.71300 52.59900 26.57600
C  13.66900 53.30700 25.93700
C  14.05300 53.47800 24.51200
C  15.09800 52.48100 24.37500
C  12.67700 54.06600 26.69700
C  13.58500 54.49000 23.44200
O  14.06000 54.55300 22.30800
C  12.58700 55.53400 23.93800
N  17.64000 50.90000 23.86000
C  16.92300 51.38700 22.86800
C  17.16100 50.85800 21.45900
C  18.59600 50.39700 21.69900
C  18.69500 50.30900 23.17500
C  16.15500 49.70000 21.19600
C  19.67100 51.36200 21.09900
C  20.56100 50.90000 19.94600
N  18.97300 49.94000 26.11300
C  19.81200 49.34600 25.19000
C  20.85200 48.62100 25.85700
C  20.50100 48.65800 27.21700
C  19.35400 49.51200 27.32700
C  22.03200 47.98500 25.30100
C  20.95000 48.31200 28.59200
O  22.00600 47.69400 28.93800
C  19.91500 48.99400 29.55400
C  19.35900 47.96000 30.41500
O  18.51000 47.16900 30.00300
O  19.99100 47.97600 31.65700
C  19.57600 46.94600 32.60300
H  14.20600 52.89100 28.70500
H  15.21300 52.47600 22.30000
H  20.41400 48.98300 23.17500
H  17.12600 49.91000 30.98800
H  16.03900 52.62500 30.65300
H  14.03500 50.74200 30.08100
H  14.48400 51.52800 31.62100
H  15.05400 49.93300 31.26600
H  18.44500 52.55100 31.05500
H  19.46100 51.10400 31.12600
H  17.89000 52.62600 32.96300
H  19.16900 51.41700 33.35300
H  12.99100 55.08800 26.91000
H  12.49600 53.53300 27.63100
H  11.72300 54.05200 26.16900
H  13.01200 56.17000 24.71400
H  11.59400 55.19500 24.23100
H  12.57700 56.27900 23.14200
H  17.15200 51.62200 20.68200
H  18.88100 49.42500 21.29800
H  15.87300 49.93200 20.17000
H  15.25500 49.60100 21.80300
H  16.54800 48.68400 21.16000
H  20.37100 51.42600 21.93100
H  19.36600 52.39600 20.93600
H  20.21600 49.90400 19.66900
H  21.59500 50.80700 20.27800
H  20.49300 51.54100 19.06700
H  22.31800 48.55600 24.41800
H  21.70900 47.03600 24.87200
H  22.82200 47.76000 26.01800
H  20.56900 49.69400 30.07200
H  20.15400 47.06600 33.51900
H  19.69300 45.94300 32.19400
H  18.56600 47.12200 32.97400
Mg -11.80800 37.81200 41.79000
C  -9.52600 35.36600 40.98000
C  -10.03700 39.84400 39.64600
C  -14.44000 39.91300 41.55000
C  -14.01100 35.40200 43.12300
N  -10.04700 37.58200 40.35000
C  -9.21600 36.48600 40.23900
C  -7.94000 36.77100 39.46400
C  -8.15000 38.26000 39.08900
C  -9.49700 38.60700 39.72500
C  -6.94600 39.14300 39.41700
C  -7.72800 35.88300 38.21900
C  -6.24100 35.29500 37.93700
H  -5.22700 36.17800 37.12800
N  -12.03500 39.72100 40.96800
C  -11.13600 40.40800 40.26400
C  -11.53600 41.76400 40.11200
C  -12.91300 41.82400 40.62900
C  -13.16800 40.43100 41.05100
C  -10.64400 42.85000 39.49500
C  -13.72000 43.09500 40.78800
O  -13.35500 44.13600 40.27100
C  -14.93200 43.08300 41.66900
N  -13.95300 37.67000 42.21000
C  -14.80200 38.71800 41.99500
C  -16.16500 38.46400 42.58500
C  -16.01000 36.93700 43.06800
C  -14.55900 36.59900 42.78600
C  -16.59700 39.41400 43.66500
C  -16.95600 35.87900 42.44900
C  -18.19200 35.43700 43.17500
N  -11.79300 35.77800 42.02800
C  -12.64600 34.95700 42.85300
C  -12.00600 33.64200 43.00200
C  -10.74200 33.79900 42.34200
C  -10.68400 35.08800 41.70800
C  -12.50100 32.42000 43.79800
C  -9.48700 33.12200 42.02900
O  -9.15500 32.00100 42.33400
C  -8.56400 34.09500 41.15800
C  -7.29500 34.23100 41.93900
O  -6.50800 33.27800 42.07700
O  -7.13900 35.55200 42.35600
C  -5.99700 35.85200 43.23800
H  -9.52600 40.51500 38.95300
H  -15.21100 40.68500 41.51400
H  -14.69800 34.77100 43.69100
H  -7.09700 36.63500 40.14200
H  -8.33300 38.42600 38.02700
H  -7.19900 39.89700 40.16300
H  -6.62900 39.63500 38.49800
H  -6.07900 38.60800 39.80200
H  -7.92000 36.56700 37.39200
H  -8.41100 35.05000 38.04900
H  -6.37700 34.30400 37.50500
H  -5.84100 35.19300 38.94600
H  -10.82800 43.77800 40.03600
H  -10.87400 43.03300 38.44600
H  -9.59600 42.66600 39.72900
H  -15.22600 44.06900 42.03000
H  -14.75900 42.48200 42.56200
H  -15.71500 42.73200 40.99700
H  -16.85800 38.44100 41.74400
H  -16.16500 36.85100 44.14300
H  -17.38700 40.09500 43.34900
H  -15.72200 39.91400 44.08100
H  -17.07100 38.84700 44.46700
H  -16.44800 34.99000 42.07400
H  -17.21300 36.25100 41.45700
H  -18.43700 36.18200 43.93200
H  -17.90700 34.54700 43.73600
H  -19.00900 35.16000 42.50900
H  -12.96100 31.69000 43.13200
H  -13.20500 32.79400 44.54200
H  -11.69200 31.86300 44.27000
H  -8.29600 33.77400 40.15100
H  -6.41800 36.47300 44.02900
H  -5.28700 36.35300 42.58000
H  -5.54400 34.97700 43.70400

