158

Mg 1.27600 6.95100 25.87600
C  1.87500 8.95600 28.69400
C  1.35400 4.25800 27.88300
C  1.47800 5.10100 23.13600
C  1.65300 9.94800 23.86300
N  1.62500 6.70600 27.94800
C  1.67100 7.66000 28.96900
C  1.44200 7.00400 30.36400
C  1.63100 5.49800 30.02800
C  1.44900 5.50700 28.54400
C  2.92300 4.81500 30.41800
C  0.01900 7.39600 30.86300
C  -0.18200 7.53300 32.40400
H  0.87700 6.79900 33.26000
N  1.16200 4.99000 25.56400
C  1.29400 4.02400 26.51700
C  1.22400 2.71600 25.88000
C  1.16400 3.00200 24.43100
C  1.20900 4.41100 24.32100
C  1.12200 1.46900 26.67300
C  1.06900 2.07100 23.30300
O  0.77900 2.38600 22.14200
C  1.25100 0.57300 23.59700
N  1.54100 7.44500 23.78700
C  1.52700 6.47300 22.87000
C  1.62600 7.10900 21.42300
C  1.40600 8.57700 21.71800
C  1.55800 8.65000 23.19700
C  3.03900 6.77500 20.90800
C  -0.04400 9.03800 21.34700
C  -0.03800 10.38000 20.38900
N  1.66500 9.09000 26.14300
C  1.78600 10.13400 25.24700
C  2.06300 11.30900 25.96900
C  2.09300 10.90100 27.31600
C  1.88500 9.53600 27.37400
C  2.27800 12.72700 25.44700
C  2.31200 11.40200 28.64900
O  2.71100 12.51200 29.03700
C  2.01300 10.24800 29.59300
C  3.12100 10.17000 30.64100
O  4.26400 9.88700 30.37300
O  2.64400 10.51200 31.87400
C  3.63300 10.50000 32.94300
H  1.17100 3.37800 28.50300
H  1.47200 4.47600 22.24100
H  1.68200 10.76600 23.14000
H  2.24200 7.45600 30.95000
H  0.86000 4.92600 30.54300
H  3.62400 5.57300 30.76900
H  3.46700 4.47400 29.53800
H  2.81300 4.09200 31.22700
H  -0.66500 6.64000 30.47800
H  -0.12000 8.34500 30.34500
H  -1.19200 7.19500 32.63700
H  -0.18300 8.59700 32.63900
H  0.10400 1.16800 26.92000
H  1.61700 1.53100 27.64200
H  1.68000 0.78800 26.03000
H  2.20800 0.51200 24.11500
H  1.30500 0.15000 22.59300
H  0.37300 0.21600 24.13500
H  0.87500 6.64500 20.78300
H  1.98800 9.26600 21.10500
H  3.67400 6.36200 21.69200
H  3.49800 7.64700 20.44400
H  3.07000 6.07600 20.07200
H  -0.52100 9.45400 22.23500
H  -0.64700 8.28300 20.84300
H  -0.13300 10.11600 19.33600
H  0.88400 10.95000 20.50400
H  -0.96300 10.88400 20.67200
H  1.34200 13.28400 25.40600
H  2.73800 12.71000 24.45900
H  2.86400 13.27500 26.18500
H  1.07700 10.51700 30.08200
H  3.61900 11.46800 33.44300
H  4.64700 10.43500 32.54700
H  3.35000 9.74600 33.67700
Mg 26.31400 -0.01300 29.46700
C  27.86800 0.10200 32.53600
C  23.18800 0.21500 31.33300
C  24.42800 -0.29200 26.64600
C  29.15400 -0.91100 27.84200
N  25.53300 0.13600 31.68200
C  26.44800 0.29600 32.73900
C  25.74900 0.55500 34.12500
C  24.28400 0.50000 33.68500
C  24.32500 0.24600 32.17000
C  23.43100 -0.54900 34.37500
C  26.07800 1.85500 34.99800
C  26.61000 1.51500 36.39500
H  26.43100 2.45500 37.54000
N  24.12600 0.04900 29.03800
C  23.10200 0.11500 29.90700
C  21.85500 0.17700 29.18200
C  22.18900 0.00400 27.80900
C  23.64100 -0.00700 27.75100
C  20.53900 0.54900 29.84800
C  21.22000 -0.02100 26.63600
O  21.62000 -0.11600 25.47300
C  19.72700 0.15700 26.80000
N  26.66800 -0.70800 27.58300
C  25.76600 -0.65400 26.55700
C  26.42200 -0.91700 25.17800
C  27.96200 -1.07600 25.54400
C  27.90900 -0.93800 27.10200
C  25.78200 -2.07500 24.37000
C  28.82100 0.07700 24.92900
C  28.85000 1.46600 25.55000
N  28.13900 -0.45100 30.01700
C  29.25100 -0.73000 29.24400
C  30.39200 -0.76000 30.06800
C  29.98500 -0.39800 31.35300
C  28.51100 -0.27300 31.34100
C  31.85500 -1.00100 29.69200
C  30.36700 -0.08500 32.70500
O  31.48600 0.13600 33.21200
C  29.08100 0.17100 33.54000
C  29.00300 -0.87200 34.64900
O  28.64900 -2.01600 34.47600
O  29.45900 -0.31600 35.78500
C  29.26400 -1.19700 36.89400
H  22.28800 0.30800 31.94300
H  23.89400 -0.34900 25.69500
H  30.03400 -1.11400 27.22700
H  26.10200 -0.39100 34.53600
H  23.84100 1.49500 33.72200
H  22.59900 -0.00200 34.81800
H  23.97900 -1.04100 35.17800
H  23.14800 -1.38900 33.74100
H  25.26100 2.56800 35.11300
H  26.75600 2.51300 34.45400
H  27.68600 1.35900 36.31900
H  26.10300 0.59500 36.68700
H  20.08200 1.35800 29.27800
H  20.73500 0.96600 30.83600
H  19.88900 -0.31300 30.00300
H  19.23200 -0.00200 25.84200
H  19.54000 1.16500 27.17100
H  19.32300 -0.56200 27.51300
H  26.20900 -0.02100 24.59500
H  28.35000 -2.06400 25.29500
H  24.74700 -2.25500 24.66100
H  26.33300 -3.01500 24.40600
H  25.68700 -1.67400 23.36100
H  28.48300 0.25900 23.90800
H  29.82000 -0.35400 24.86400
H  28.34500 1.56600 26.51000
H  28.41100 2.16400 24.83700
H  29.86900 1.72500 25.83800
H  32.15600 -1.98700 30.04600
H  32.48200 -0.33000 30.27900
H  31.95800 -0.78000 28.63000
H  29.08500 1.16300 33.99100
H  29.77200 -2.12500 36.63300
H  28.19000 -1.28600 37.05800
H  29.69100 -0.66700 37.74600

