158

Mg 47.10600 15.90100 28.60200
C  44.80500 15.77300 31.31500
C  49.12600 17.81500 30.74100
C  48.92800 16.71000 25.89700
C  44.53600 14.72000 26.52800
N  46.83700 16.89100 30.71600
C  45.95900 16.49300 31.66500
C  46.38600 16.85600 33.11900
C  47.58700 17.82300 32.75900
C  47.93600 17.46900 31.30100
C  47.36300 19.36500 32.86300
C  46.86400 15.55300 33.83200
C  46.63600 15.59800 35.36000
H  46.37900 16.98100 35.96700
N  48.87100 16.95700 28.38100
C  49.54700 17.72100 29.33500
C  50.77200 18.20700 28.79100
C  50.75900 17.88200 27.38000
C  49.56100 17.05200 27.13500
C  51.69900 19.13600 29.65500
C  51.67500 18.30600 26.28800
O  51.76100 17.76000 25.19900
C  52.80000 19.24400 26.63200
N  46.81200 15.59900 26.47300
C  47.69700 16.15400 25.58500
C  47.12400 15.97200 24.09400
C  45.79000 15.29700 24.30100
C  45.70200 15.09400 25.86600
C  47.04000 17.34300 23.46300
C  45.61900 14.00200 23.51100
C  46.20400 12.69300 23.98400
N  45.20100 15.15700 28.89200
C  44.29900 14.73200 27.91400
C  43.02900 14.39500 28.59800
C  43.21500 14.71500 29.94300
C  44.54500 15.22300 30.10400
C  41.74500 13.94700 28.02500
C  42.54100 14.84400 31.32900
O  41.39500 14.62800 31.65300
C  43.61500 15.49500 32.23200
C  43.06300 16.69500 32.92100
O  42.74700 17.76900 32.43200
O  42.96600 16.27500 34.31100
C  42.43600 17.33000 35.16000
H  49.82200 18.26000 31.45600
H  49.51400 16.96100 25.01000
H  43.67800 14.59500 25.86400
H  45.47700 17.25300 33.57200
H  48.46300 17.62500 33.37600
H  48.16500 19.95000 33.31200
H  46.42700 19.69300 33.31600
H  47.28200 19.75100 31.84700
H  47.94100 15.58200 33.67200
H  46.41000 14.63400 33.46200
H  47.54700 15.24500 35.84200
H  45.83600 14.92600 35.67200
H  52.64100 18.67200 29.94900
H  51.23800 19.25100 30.63600
H  51.95400 20.09900 29.21400
H  53.27900 19.07500 27.59600
H  52.39600 20.24800 26.50700
H  53.57300 18.93200 25.92900
H  47.87500 15.33300 23.62900
H  44.97500 15.99400 24.10800
H  45.99700 17.41000 23.15200
H  47.60900 17.44400 22.53900
H  47.40800 18.12900 24.12200
H  46.17900 14.16400 22.59000
H  44.61500 13.91700 23.09600
H  46.45900 12.01400 23.17100
H  45.42800 12.17100 24.54400
H  47.04300 12.86600 24.65900
H  41.72700 14.11000 26.94700
H  40.93300 14.46700 28.53200
H  41.68600 12.86700 28.15700
H  43.84200 14.65200 32.88500
H  42.92200 18.30200 35.07600
H  42.39100 16.93300 36.17400
H  41.42500 17.44300 34.76900
Mg 5.29100 53.92100 41.11200
C  4.97000 50.30800 40.60800
C  8.47700 53.66800 40.02100
C  5.13300 57.17600 40.84700
C  1.70300 53.82000 41.82200
N  6.51900 52.17500 40.28200
C  6.26300 50.86900 40.16900
C  7.48200 50.05600 39.80600
C  8.64900 51.14800 39.96200
C  7.82900 52.42800 40.14100
C  9.68800 50.89400 41.08400
C  7.47300 49.35500 38.35800
C  7.58900 50.15700 37.02100
H  6.55900 49.96800 35.85900
N  6.59600 55.26000 40.39000
C  7.88800 54.95500 40.05300
C  8.54000 56.20900 39.79500
C  7.64200 57.27000 40.05400
C  6.37800 56.62100 40.45100
C  10.02100 56.29100 39.62400
C  7.90900 58.82600 39.89600
O  9.00000 59.15700 39.51200
C  6.86900 60.00300 40.12400
N  3.64000 55.29400 41.34900
C  3.90100 56.58900 41.19100
C  2.67000 57.44400 41.55100
C  1.47800 56.36000 41.57400
C  2.33000 55.06700 41.54400
C  2.77800 58.23300 42.91700
C  0.51000 56.52300 40.30800
C  -1.01300 56.29200 40.45700
N  3.68700 52.45600 41.38600
C  2.30500 52.58600 41.67600
C  1.72000 51.27100 41.94200
C  2.74500 50.37400 41.44100
C  3.88500 51.10300 41.13300
C  0.22800 50.90400 42.45100
C  2.98800 48.97200 41.20800
O  2.21800 48.01600 41.28100
C  4.49400 48.81700 40.67200
C  4.53600 48.04900 39.39900
O  4.06000 48.37500 38.32200
O  5.15100 46.82700 39.52200
C  5.11600 45.91300 38.40600
H  9.56600 53.62700 39.95100
H  5.18800 58.26400 40.91400
H  0.63700 53.73100 42.04000
H  7.67900 49.16000 40.39300
H  9.21600 51.21400 39.03300
H  9.81100 49.82200 41.24000
H  9.37800 51.50100 41.93500
H  10.64600 51.33200 40.80400
H  6.54300 48.79100 38.28500
H  8.32700 48.67800 38.35100
H  8.59100 49.97300 36.63400
H  7.54900 51.23600 37.17400
H  10.34200 55.40900 39.06900
H  10.52000 56.47800 40.57400
H  10.29600 56.96900 38.81600
H  6.56900 59.99000 41.17200
H  5.97300 59.80400 39.53700
H  7.29600 60.86800 39.61600
H  2.59200 58.18700 40.75800
H  0.93900 56.40500 42.52000
H  2.36300 59.22600 42.74200
H  3.83100 58.36900 43.16300
H  2.19700 57.75300 43.70500
H  0.87300 55.79500 39.58200
H  0.63500 57.41400 39.69300
H  -1.40800 56.40300 41.46700
H  -1.45000 55.39900 40.01000
H  -1.44700 57.07100 39.82900
H  -0.44800 51.12900 41.62600
H  0.08600 51.45700 43.37900
H  0.09100 49.89400 42.83700
H  5.08800 48.25400 41.39300
H  4.68100 45.00100 38.81600
H  6.17300 45.82600 38.15300
H  4.41100 46.20100 37.62700

