158

Mg -2.43500 17.17100 26.50500
C  -2.96000 14.98500 29.31500
C  -3.03500 19.83000 28.63800
C  -2.26100 19.05700 23.81600
C  -2.39200 14.29800 24.36100
N  -2.84600 17.38200 28.74800
C  -2.99500 16.34600 29.69200
C  -3.26000 17.00200 31.06400
C  -3.06500 18.51900 30.92200
C  -3.00700 18.64000 29.35700
C  -3.99000 19.48900 31.56700
C  -2.50700 16.27400 32.31300
C  -2.35000 17.15600 33.57900
H  -1.80100 16.51000 34.82000
N  -2.61700 19.12600 26.24100
C  -2.90000 20.10800 27.19100
C  -2.80400 21.46000 26.59900
C  -2.41600 21.24200 25.22500
C  -2.42600 19.77100 25.01100
C  -3.00700 22.73200 27.35300
C  -2.10000 22.20600 24.13900
O  -1.99600 21.96400 22.94500
C  -1.88800 23.71200 24.42000
N  -2.43000 16.72400 24.35900
C  -2.24300 17.69500 23.46900
C  -2.30300 17.12800 22.00900
C  -2.11200 15.60600 22.23000
C  -2.35100 15.52800 23.76900
C  -3.44700 17.63900 21.11200
C  -0.67200 14.98500 21.86200
C  0.58500 15.58300 22.52000
N  -2.43200 15.09500 26.77500
C  -2.58900 14.04700 25.79000
C  -2.81400 12.78600 26.46400
C  -2.85300 13.18600 27.81900
C  -2.64600 14.54600 27.97100
C  -2.98000 11.37100 25.98600
C  -3.11700 12.59500 29.19200
O  -3.44000 11.48300 29.59000
C  -3.08200 13.77000 30.15400
C  -1.95500 13.49100 31.08300
O  -0.75000 13.76200 30.91000
O  -2.45200 12.83300 32.19200
C  -1.48800 12.50400 33.27900
H  -3.04700 20.67100 29.33500
H  -2.23700 19.74000 22.96400
H  -2.46200 13.32300 23.87300
H  -4.31500 16.86600 31.30100
H  -2.04600 18.77300 31.21400
H  -4.51100 20.18600 30.91000
H  -3.47000 20.12200 32.28500
H  -4.74300 18.89000 32.07900
H  -1.54400 15.90700 31.95700
H  -3.15000 15.44700 32.61400
H  -3.30900 17.62500 33.80100
H  -1.51800 17.81800 33.33900
H  -3.25600 22.49100 28.38700
H  -3.81300 23.30700 26.89600
H  -2.12400 23.37100 27.34000
H  -1.10700 23.94300 25.14500
H  -2.84600 24.03600 24.82600
H  -1.64800 24.28800 23.52700
H  -1.42300 17.51000 21.49100
H  -2.97600 15.10800 21.79000
H  -4.11200 16.83900 20.78800
H  -2.98500 18.14000 20.26200
H  -4.14700 18.21100 21.72100
H  -0.53600 15.11800 20.78800
H  -0.72800 13.91500 22.05700
H  0.22800 16.27700 23.28200
H  1.24300 16.09200 21.81600
H  1.16900 14.77900 22.96800
H  -4.00100 11.00500 26.09600
H  -2.30200 10.67500 26.47900
H  -2.73100 11.26200 24.93000
H  -3.98300 13.83700 30.76400
H  -0.96900 11.56500 33.08600
H  -2.07700 12.38000 34.18800
H  -0.80200 13.33400 33.44400
Mg 43.97500 6.11300 47.97200
C  41.94300 8.74200 47.41800
C  41.37400 3.93200 47.45800
C  46.26100 3.42200 47.95500
C  46.67400 8.34400 47.95000
N  41.90500 6.26300 47.56900
C  41.30800 7.50200 47.30800
C  39.79200 7.25000 46.94600
C  39.65600 5.68800 47.25800
C  41.04200 5.21500 47.52600
C  38.68800 5.39500 48.42800
C  39.36200 7.74100 45.46900
C  40.45400 7.76500 44.33100
H  39.96300 8.21300 42.86600
N  43.83100 3.98400 47.72900
C  42.63900 3.30100 47.56000
C  42.91500 1.93000 47.27800
C  44.32300 1.68800 47.43000
C  44.87700 3.07000 47.71000
C  41.83600 0.88800 47.00600
C  44.93300 0.38200 47.23400
O  44.31600 -0.66000 46.85300
C  46.30400 0.16000 47.60200
N  46.20900 5.93900 47.80100
C  46.87900 4.73200 48.02900
C  48.35200 4.94900 48.31000
C  48.47900 6.53500 48.19900
C  47.01100 6.99900 47.94000
C  48.72100 4.39800 49.70200
C  49.46000 6.93100 47.02200
C  50.76400 7.62700 47.41700
N  44.32000 8.13500 47.69700
C  45.42600 8.89900 47.72500
C  45.20700 10.29600 47.48300
C  43.75400 10.29100 47.36400
C  43.32100 8.96400 47.56600
C  46.25500 11.37800 47.44500
C  42.57700 11.12900 47.15600
O  42.46500 12.30200 47.02400
C  41.32800 10.14000 47.21600
C  40.39200 10.35900 48.32200
O  40.53500 10.06200 49.47400
O  39.26200 11.02300 47.86700
C  38.11700 11.29200 48.78700
H  40.59900 3.21800 47.17000
H  47.05800 2.67900 48.03000
H  47.54400 8.95500 48.19800
H  39.17800 7.78500 47.67000
H  39.30200 5.18000 46.36100
H  38.10600 6.29500 48.62800
H  39.14600 4.99200 49.33100
H  37.86200 4.72700 48.18300
H  38.99800 8.76800 45.50700
H  38.54200 7.09600 45.15200
H  40.91800 6.79100 44.17400
H  41.31700 8.40000 44.53200
H  41.96200 0.52600 45.98600
H  40.82400 1.27700 47.11300
H  41.91600 0.05500 47.70400
H  46.96100 0.70800 46.92500
H  46.66900 -0.85300 47.43400
H  46.49400 0.58300 48.58800
H  48.93400 4.36400 47.59700
H  48.87200 7.00400 49.10100
H  48.01700 4.48400 50.52900
H  49.63500 4.84000 50.09900
H  49.00000 3.35700 49.53700
H  48.89100 7.63200 46.41200
H  49.42800 6.12600 46.28900
H  51.43800 7.35200 46.60500
H  51.02200 7.25200 48.40700
H  50.59700 8.70400 47.46000
H  46.69100 11.53900 48.43100
H  45.78700 12.26300 47.01500
H  46.99400 11.07700 46.70200
H  40.84400 10.20000 46.24100
H  37.34500 10.72900 48.26200
H  37.85000 12.34500 48.69000
H  38.22600 11.10300 49.85500

