158

Mg 55.16400 23.56400 44.51900
C  52.48900 25.59100 43.41300
C  53.37000 20.81900 43.37100
C  57.95700 21.77300 44.75800
C  56.82300 26.40400 45.71600
N  53.25100 23.28700 43.36200
C  52.26400 24.26100 43.11200
C  50.98700 23.59400 42.71600
C  51.16100 22.03200 42.89500
C  52.64000 21.99300 43.27400
C  50.18100 21.34900 43.95800
C  50.58400 23.90900 41.24200
C  49.06500 23.90200 41.09500
H  48.41000 23.63400 39.72700
N  55.62300 21.57900 44.07100
C  54.76300 20.58200 43.64200
C  55.49500 19.37000 43.50400
C  56.89000 19.62700 43.70600
C  56.90200 21.00300 44.25600
C  54.90500 18.05000 43.00600
C  57.98900 18.68800 43.47700
O  57.70100 17.53300 43.23000
C  59.38200 19.01100 43.62600
N  57.14600 24.09200 45.25100
C  58.11200 23.12400 45.19300
C  59.45300 23.73800 45.63700
C  59.16200 25.22800 46.03600
C  57.65200 25.26000 45.70900
C  60.30000 22.97900 46.65100
C  60.02200 26.25600 45.25400
C  60.72000 27.36300 45.86800
N  54.78400 25.55700 44.53700
C  55.53400 26.59100 45.12700
C  54.80500 27.79100 44.95600
C  53.61700 27.39300 44.35400
C  53.66200 26.05700 44.05800
C  55.21500 29.13600 45.36500
C  52.40400 27.98400 43.89900
O  52.06600 29.16700 43.99200
C  51.61400 26.84500 43.19500
C  51.44900 27.26200 41.76000
O  52.38300 27.45600 41.00600
O  50.05300 27.20300 41.39400
C  49.77700 27.30300 39.96700
H  52.73800 19.93100 43.30400
H  58.88300 21.19500 44.76200
H  57.25900 27.37200 45.96800
H  50.10300 23.87800 43.28600
H  50.98400 21.44900 41.99100
H  50.67200 21.00500 44.86900
H  49.77700 20.44400 43.50600
H  49.51900 22.13800 44.31700
H  51.04700 23.18400 40.57300
H  50.90900 24.89500 40.90900
H  48.80900 24.92300 41.37900
H  48.58800 23.29000 41.86000
H  55.34200 17.86400 42.02500
H  53.87100 18.08300 42.66300
H  55.07100 17.21700 43.69000
H  59.75100 19.80600 42.97800
H  60.04300 18.16000 43.46200
H  59.50300 19.26400 44.67900
H  60.16100 23.60500 44.81900
H  59.28200 25.45800 47.09400
H  60.66600 23.51700 47.52500
H  61.22500 22.62500 46.19700
H  59.64900 22.21000 47.06900
H  59.34200 26.59300 44.47100
H  60.77700 25.77700 44.63200
H  61.78400 27.15700 45.75300
H  60.50400 27.40500 46.93500
H  60.48200 28.31600 45.39600
H  56.12500 29.37600 44.81600
H  55.31700 29.20800 46.44800
H  54.49700 29.93600 45.18400
H  50.61700 26.68200 43.60500
H  48.75200 26.97100 39.79800
H  50.57000 26.77900 39.43400
H  49.74300 28.36000 39.70300
Mg 36.59900 48.50500 25.83900
C  36.04700 46.50200 28.72300
C  35.97300 51.32100 27.63000
C  36.34100 50.32000 22.98300
C  36.62100 45.59400 23.98600
N  36.04100 48.81200 27.91800
C  35.95400 47.89300 28.96200
C  35.86500 48.65000 30.32100
C  35.48500 50.09000 29.85600
C  35.83500 50.12700 28.39300
C  34.06800 50.65900 30.08700
C  37.29300 48.57500 31.08400
C  37.22700 48.01100 32.49500
H  35.85300 48.27900 33.20400
N  36.44400 50.56100 25.38700
C  36.17000 51.59100 26.25900
C  36.19600 52.88500 25.63400
C  36.43700 52.58700 24.22600
C  36.47200 51.10100 24.12200
C  35.95100 54.15500 26.42900
C  36.63700 53.58000 23.09200
O  36.94400 53.24500 21.96000
C  36.45300 55.09300 23.33500
N  36.36700 48.04100 23.77300
C  36.40700 48.96400 22.78000
C  36.31900 48.27400 21.37400
C  36.73600 46.81500 21.76900
C  36.57400 46.78000 23.25200
C  34.91400 48.23900 20.66600
C  38.19700 46.65400 21.40700
C  38.67700 46.16500 20.01600
N  36.37100 46.39900 26.20900
C  36.57100 45.40400 25.33700
C  36.64700 44.15900 26.12100
C  36.46800 44.58000 27.43800
C  36.24300 45.92800 27.42700
C  36.91500 42.75100 25.60800
C  36.47600 44.04100 28.80900
O  36.67000 42.89100 29.24400
C  36.34200 45.32100 29.74500
C  35.23100 45.19400 30.65900
O  34.09200 45.55400 30.40600
O  35.63600 44.60000 31.77300
C  34.61400 44.41300 32.81600
H  35.88000 52.25600 28.18600
H  36.26700 50.84000 22.02500
H  36.82800 44.70400 23.38800
H  35.01300 48.15900 30.79300
H  36.06200 50.86300 30.36200
H  34.05500 51.57200 30.68200
H  33.49700 49.88400 30.60000
H  33.43900 50.87000 29.22300
H  37.78400 49.54400 31.17700
H  37.95000 47.98600 30.44500
H  37.99900 48.29900 33.20900
H  37.44100 46.96800 32.26400
H  35.43400 54.05500 27.38300
H  35.26900 54.77400 25.84700
H  36.93200 54.58900 26.62200
H  36.74800 55.55800 22.39500
H  37.23500 55.42200 24.02100
H  35.43000 55.37300 23.58500
H  36.97800 48.77100 20.66200
H  36.10100 46.07600 21.28200
H  34.69400 47.17400 20.59900
H  35.05000 48.73300 19.70300
H  34.02400 48.64200 21.14900
H  38.65200 46.00200 22.15300
H  38.69600 47.61800 21.49800
H  39.29100 46.95600 19.58600
H  37.85800 45.83200 19.37800
H  39.31000 45.29400 20.18400
H  37.99300 42.62200 25.51100
H  36.25900 42.48800 24.77800
H  36.55500 42.09000 26.39600
H  37.28900 45.57300 30.22300
H  34.08300 45.33100 33.07000
H  35.11200 43.96400 33.67500
H  33.86400 43.63900 32.64800

