158

Mg 9.64600 48.59200 26.06500
C  7.72200 48.70200 28.94100
C  12.12100 50.07500 27.80100
C  11.41300 48.91700 23.14400
C  6.79400 47.84100 24.17400
N  9.79200 49.44200 28.13400
C  8.99400 49.21200 29.20000
C  9.59700 49.65200 30.49100
C  10.77800 50.49600 29.94500
C  10.94300 49.99400 28.50000
C  10.43800 51.98400 30.02400
C  10.05000 48.42300 31.35800
C  10.34000 48.75800 32.83300
H  9.93800 47.64500 33.89800
N  11.54300 49.21900 25.60200
C  12.46100 49.71400 26.48600
C  13.71900 49.89900 25.79600
C  13.55700 49.32400 24.50300
C  12.09900 49.11900 24.38300
C  14.96700 50.46700 26.53500
C  14.59800 48.88000 23.49400
O  14.25900 48.40100 22.40200
C  16.06300 48.81200 23.89400
N  9.21200 48.35800 23.95000
C  10.08000 48.52300 22.94400
C  9.51200 48.17500 21.56900
C  8.12400 47.52400 21.99000
C  7.98900 47.97300 23.45600
C  9.28200 49.29600 20.58200
C  8.15700 45.94100 21.83500
C  8.74600 45.06200 22.94700
N  7.65600 48.40300 26.40800
C  6.63300 48.05500 25.53500
C  5.42000 47.82700 26.26000
C  5.84800 48.03600 27.61000
C  7.19600 48.41400 27.65600
C  4.09200 47.55500 25.70300
C  5.30900 48.12500 28.90600
O  4.19600 47.98400 29.34800
C  6.55600 48.43700 29.88900
C  6.75900 47.17100 30.67000
O  7.20000 46.08700 30.24100
O  6.35400 47.40900 31.97800
C  6.60300 46.28400 32.86300
H  12.96700 50.50900 28.33700
H  12.00500 49.04900 22.23700
H  5.95800 47.53600 23.54200
H  8.88500 50.21200 31.09800
H  11.70300 50.21800 30.45000
H  9.37000 52.18600 30.11300
H  10.91900 52.54200 29.22100
H  10.86200 52.38700 30.94300
H  11.00600 48.13900 30.91900
H  9.39100 47.57300 31.17900
H  9.91100 49.69600 33.18400
H  11.40500 48.90600 33.01100
H  15.50800 49.65100 27.01300
H  14.69100 51.16100 27.32900
H  15.70400 50.93100 25.87900
H  16.08000 48.45400 24.92300
H  16.42900 49.83900 23.86000
H  16.60400 48.13100 23.23600
H  10.17300 47.42200 21.14000
H  7.23300 47.91300 21.49800
H  9.53900 50.23800 21.06700
H  8.23800 49.39700 20.28400
H  9.94600 49.24100 19.72000
H  8.84700 45.67000 21.03600
H  7.17100 45.73100 21.42000
H  8.17700 44.18200 23.24500
H  9.07300 45.74200 23.73400
H  9.73300 44.68400 22.67900
H  3.87600 48.34400 24.98200
H  3.45200 47.73100 26.56700
H  3.98800 46.52400 25.36600
H  6.32100 49.26900 30.55200
H  7.55500 45.82600 32.59300
H  5.77200 45.58000 32.89300
H  6.59800 46.75400 33.84600
Mg -12.21100 37.49500 41.84900
C  -10.32200 34.80800 40.45500
C  -10.11900 39.61100 40.36500
C  -14.46300 39.89400 42.66500
C  -14.55900 35.01000 42.86800
N  -10.48600 37.22600 40.64100
C  -9.85600 36.06300 40.07800
C  -8.66100 36.40000 39.12500
C  -8.52000 37.91800 39.33400
C  -9.79100 38.26000 40.23200
C  -7.15900 38.47600 39.84500
C  -8.71600 35.81300 37.68600
C  -7.41200 35.18000 37.00700
H  -6.71500 35.93600 35.96900
N  -12.23500 39.49900 41.62100
C  -11.23800 40.17000 41.03200
C  -11.58000 41.58300 41.11900
C  -12.73600 41.71500 41.85300
C  -13.22500 40.36700 42.07000
C  -10.75800 42.67100 40.50200
C  -13.53900 43.03900 42.18300
O  -13.18000 44.17400 41.74800
C  -14.71800 43.00200 43.07900
N  -14.34000 37.49500 42.35000
C  -15.02700 38.57100 42.85500
C  -16.34200 38.25200 43.45800
C  -16.26100 36.72200 43.62200
C  -15.02400 36.37200 42.78800
C  -16.74700 39.07700 44.71500
C  -17.50700 35.99200 43.09800
C  -18.19600 34.85700 43.98600
N  -12.42300 35.37300 41.71600
C  -13.36300 34.47100 42.32900
C  -12.87100 33.08000 42.31500
C  -11.72300 33.20500 41.48500
C  -11.46000 34.62000 41.22100
C  -13.45800 31.77300 42.84700
C  -10.65500 32.42200 40.93600
O  -10.52600 31.23100 40.99400
C  -9.72100 33.39600 40.16500
C  -8.23600 33.27200 40.47300
O  -7.44900 32.50900 39.89900
O  -8.05800 33.99800 41.65200
C  -6.80200 33.81200 42.41800
H  -9.38300 40.28400 39.92100
H  -15.22400 40.60300 43.00000
H  -15.24200 34.33600 43.38900
H  -7.76300 36.02200 39.61400
H  -8.66100 38.43300 38.38400
H  -6.50900 37.67000 39.50500
H  -7.26300 38.71400 40.90300
H  -6.99200 39.48500 39.46900
H  -9.11300 36.55900 36.99800
H  -9.34200 34.92000 37.68000
H  -7.58800 34.18200 36.60500
H  -6.65000 35.07200 37.78000
H  -10.63400 43.46900 41.23400
H  -11.21600 42.95400 39.55400
H  -9.74000 42.34700 40.28400
H  -15.57400 42.62300 42.52200
H  -14.85300 43.95800 43.58400
H  -14.53900 42.30800 43.90100
H  -17.18000 38.48200 42.80000
H  -15.97400 36.50400 44.65100
H  -16.11100 39.87800 45.09200
H  -16.89900 38.44300 45.58800
H  -17.76400 39.46200 44.64000
H  -17.14400 35.50100 42.19500
H  -18.25900 36.75800 42.90900
H  -19.27400 34.87700 43.82200
H  -17.97800 35.05600 45.03500
H  -17.71600 33.90300 43.76700
H  -14.49900 31.77300 42.52400
H  -13.37900 31.82800 43.93300
H  -12.91000 30.88800 42.52400
H  -10.02400 32.89100 39.24700
H  -6.78400 34.64500 43.12000
H  -6.03700 33.95500 41.65500
H  -6.62400 32.93000 43.03400

