158

Mg 0.93700 7.82000 26.21200
C  1.85200 9.81100 28.88500
C  1.20200 5.03500 28.09200
C  0.19100 6.06800 23.36300
C  0.94000 10.68300 24.14700
N  1.46100 7.48400 28.27600
C  1.63900 8.46100 29.23800
C  1.50600 7.87800 30.62600
C  1.70800 6.34600 30.31500
C  1.48600 6.25500 28.76600
C  3.01300 5.69300 30.79500
C  0.15900 8.17500 31.19200
C  0.01300 7.81600 32.65000
H  1.17200 7.67200 33.55600
N  0.84500 5.81800 25.78700
C  0.97900 4.78500 26.68600
C  0.76200 3.50600 26.02300
C  0.42200 3.83500 24.65500
C  0.42700 5.33800 24.54100
C  1.00400 2.21800 26.82100
C  0.04700 2.84500 23.49600
O  -0.21500 3.21200 22.40500
C  0.00900 1.35700 23.80200
N  0.44600 8.34500 24.09600
C  0.21700 7.39200 23.15900
C  0.26700 8.01200 21.80700
C  0.18100 9.50700 22.10900
C  0.56500 9.54100 23.56000
C  1.55600 7.70100 21.02400
C  -1.28800 10.09400 22.05300
C  -1.32400 11.45300 21.20900
N  1.33300 9.84400 26.42100
C  1.28300 10.84500 25.48700
C  1.66300 12.08000 26.11600
C  1.88500 11.75800 27.43700
C  1.66200 10.37500 27.59300
C  1.75300 13.47200 25.58500
C  2.15000 12.21600 28.78400
O  2.45100 13.38400 29.08400
C  2.01800 11.01300 29.82400
C  3.20800 11.03900 30.67600
O  4.28200 10.57100 30.38400
O  3.03600 11.76600 31.87000
C  3.97400 11.64400 33.02400
H  1.20300 4.20800 28.80500
H  -0.12900 5.49800 22.48800
H  1.06500 11.45800 23.38700
H  2.32200 8.19600 31.27500
H  0.98800 5.64800 30.74200
H  2.77900 4.91100 31.51700
H  3.63600 6.40500 31.33700
H  3.54600 5.18100 29.99300
H  -0.58500 7.59300 30.64900
H  -0.11500 9.18600 30.89100
H  -0.56900 6.89600 32.71600
H  -0.65400 8.51200 33.15900
H  0.07300 1.67900 26.99800
H  1.53100 2.39200 27.75900
H  1.60600 1.59400 26.16000
H  -0.57200 1.32200 24.72300
H  1.02800 1.02900 24.00800
H  -0.26200 0.80000 22.90500
H  -0.59900 7.57500 21.31100
H  0.92100 10.00200 21.48100
H  2.17700 6.88800 21.39800
H  2.11300 8.61100 20.80000
H  1.34100 7.39300 20.00100
H  -1.78600 10.29500 23.00200
H  -1.88900 9.37600 21.49300
H  -0.73300 11.54900 20.29800
H  -0.89500 12.30100 21.74500
H  -2.37800 11.65000 21.01500
H  2.08100 14.13600 26.38400
H  0.88600 13.87000 25.05700
H  2.56800 13.55400 24.86500
H  1.10700 11.19300 30.39400
H  3.37400 11.40600 33.90200
H  4.28300 12.67500 33.19100
H  4.81300 10.99300 32.77800
Mg 23.85700 -6.48600 44.96000
C  26.05900 -4.03900 43.66400
C  21.39000 -5.25800 42.83100
C  21.82500 -9.04000 45.85500
C  26.59100 -8.11900 46.36800
N  23.73900 -4.74400 43.56400
C  24.76300 -3.91300 43.10700
C  24.27900 -3.03900 41.93000
C  22.69300 -3.28600 41.93600
C  22.62100 -4.54300 42.77900
C  21.74600 -2.21300 42.61500
C  25.09000 -3.41000 40.60700
C  25.86800 -2.34400 39.90600
H  25.31400 -2.06500 38.47300
N  21.83900 -6.97100 44.53300
C  20.99100 -6.33900 43.60100
C  19.66300 -6.91500 43.67100
C  19.76700 -7.98400 44.61600
C  21.17800 -8.03600 45.02000
C  18.47900 -6.41300 42.95100
C  18.67800 -9.02000 44.88400
O  17.63900 -8.88400 44.27200
C  18.84900 -10.17500 45.80600
N  24.21300 -8.40000 45.92500
C  23.17500 -9.24500 46.17100
C  23.69400 -10.63300 46.71100
C  25.20400 -10.29100 47.04600
C  25.40100 -8.84900 46.35900
C  23.14400 -11.32900 48.03100
C  26.22300 -11.32400 46.54800
C  27.18400 -11.94200 47.53400
N  25.93300 -6.15700 45.03900
C  26.93400 -6.86700 45.72200
C  28.21900 -6.10900 45.65700
C  27.89400 -5.00700 44.81800
C  26.50400 -5.07600 44.52700
C  29.51400 -6.62300 46.26100
C  28.49500 -3.93100 44.13200
O  29.68600 -3.60800 44.05900
C  27.30100 -3.25600 43.35300
C  27.26200 -1.82800 43.69900
O  27.38200 -1.26700 44.82000
O  27.08700 -1.20500 42.58600
C  27.13200 0.26700 42.63100
H  20.53100 -4.87200 42.27800
H  21.29000 -9.97100 46.05200
H  27.47900 -8.54000 46.84300
H  24.43000 -1.96900 42.07400
H  22.42900 -3.59800 40.92500
H  21.71100 -2.44400 43.67900
H  20.74900 -2.11100 42.18600
H  22.19000 -1.22300 42.50800
H  24.36000 -3.79100 39.89300
H  25.77700 -4.25500 40.64800
H  26.90500 -2.67900 39.93900
H  25.75900 -1.41600 40.46700
H  18.43400 -7.02700 42.05100
H  18.69600 -5.35100 42.84000
H  17.60300 -6.58100 43.57800
H  17.89500 -10.67400 45.97300
H  19.15600 -9.71800 46.74700
H  19.54200 -10.91900 45.41300
H  23.71500 -11.34600 45.88800
H  25.46900 -10.02000 48.06800
H  22.69300 -12.29700 47.81300
H  22.44000 -10.66200 48.52800
H  23.97500 -11.40200 48.73300
H  26.88000 -10.97300 45.75200
H  25.64800 -12.16700 46.16400
H  27.10200 -11.50100 48.52700
H  28.19400 -11.80100 47.15000
H  26.96100 -12.99700 47.69700
H  30.12900 -7.09500 45.49500
H  29.30500 -7.39600 47.00200
H  30.03400 -5.75200 46.65800
H  27.54700 -3.31500 42.29200
H  27.60300 0.79600 43.46000
H  26.12100 0.63000 42.44700
H  27.65600 0.42400 41.68900

