158

Mg 47.46200 14.53800 27.61700
C  45.52800 14.87100 30.45100
C  49.81500 16.55000 28.93800
C  48.95600 14.68800 24.47500
C  44.57900 13.29600 25.85200
N  47.64800 15.59400 29.50800
C  46.75800 15.56800 30.58000
C  47.41200 16.29400 31.76700
C  48.62300 17.04500 31.17800
C  48.75900 16.38000 29.80900
C  48.38100 18.54500 30.86700
C  47.72700 15.29400 32.97900
C  46.95500 15.56000 34.31100
H  47.69400 15.39400 35.63600
N  49.18800 15.33500 26.88400
C  50.00100 16.13800 27.61000
C  51.18400 16.44000 26.82700
C  51.02100 15.82700 25.53800
C  49.66800 15.24700 25.56900
C  52.36700 17.19000 27.41300
C  51.91100 15.87100 24.35500
O  51.64700 15.31300 23.33400
C  53.19300 16.75000 24.29500
N  46.86200 14.04000 25.45500
C  47.69900 14.17500 24.34000
C  47.07200 13.58500 23.00600
C  45.75700 12.98600 23.63200
C  45.69800 13.49400 25.04900
C  46.90000 14.54000 21.79600
C  45.66500 11.44200 23.39700
C  46.32900 10.65500 24.52300
N  45.48500 14.01700 28.07100
C  44.45600 13.61500 27.21800
C  43.26800 13.43600 28.11900
C  43.65900 13.84300 29.40200
C  45.04200 14.23700 29.30100
C  41.85800 13.03300 27.74400
C  43.33500 14.00900 30.80500
O  42.30700 13.56600 31.34100
C  44.49900 14.67000 31.55200
C  43.96500 15.87200 32.22500
O  44.26700 17.04400 31.85600
O  43.31300 15.55600 33.37000
C  42.80100 16.72800 34.11700
H  50.68200 17.06800 29.35400
H  49.53000 14.61100 23.55000
H  43.70900 12.82500 25.39000
H  46.76800 17.11100 32.09400
H  49.53700 16.99100 31.76900
H  48.64100 18.73000 29.82500
H  49.08700 19.14200 31.44400
H  47.35300 18.81900 31.10600
H  48.79800 15.11800 33.07400
H  47.31200 14.33700 32.66300
H  46.13600 14.84400 34.36900
H  46.58500 16.58100 34.21800
H  52.64500 16.90600 28.42800
H  52.32100 18.25500 27.18600
H  53.30800 16.83800 26.99100
H  54.07700 16.25000 24.68900
H  52.89700 17.69100 24.76000
H  53.33200 17.07600 23.26400
H  47.63400 12.68000 22.77700
H  44.85400 13.45400 23.24100
H  47.42700 14.24100 20.89000
H  47.37500 15.45700 22.14800
H  45.86300 14.58700 21.46400
H  46.03500 11.06100 22.44500
H  44.59600 11.23200 23.42700
H  46.81800 9.80700 24.04400
H  45.62500 10.30700 25.27900
H  47.15300 11.23100 24.94500
H  41.61100 13.73100 26.94400
H  41.19500 13.03300 28.61000
H  41.91600 11.98900 27.43600
H  44.94900 14.02100 32.30400
H  42.16300 17.39700 33.53800
H  43.61200 17.30200 34.56400
H  42.11100 16.31900 34.85500
Mg 16.70800 52.13900 24.65100
C  18.15900 50.81300 27.60600
C  13.99000 53.02500 26.62900
C  15.22200 52.98400 21.82400
C  19.48400 50.96700 22.94900
N  16.08000 51.87300 26.91300
C  16.93800 51.47500 27.91100
C  16.49400 52.00600 29.27500
C  15.03100 52.49900 28.89800
C  15.04900 52.54500 27.38000
C  13.88100 51.70800 29.60300
C  17.40300 53.14800 29.82900
C  17.75100 53.04100 31.34500
H  16.79100 52.36700 32.29900
N  14.82800 52.96500 24.23000
C  13.85000 53.27800 25.15800
C  12.74500 53.83900 24.48000
C  13.08900 53.93800 23.06900
C  14.43700 53.30300 22.97100
C  11.45000 54.22500 25.18100
C  12.39300 54.60900 21.87900
O  12.86600 54.66700 20.73400
C  11.14100 55.37500 22.15100
N  17.30900 52.14200 22.69700
C  16.47700 52.47300 21.69100
C  17.04400 51.88100 20.35400
C  18.61600 51.73100 20.76100
C  18.50200 51.61000 22.23900
C  16.46300 50.61400 19.88100
C  19.50200 52.86500 20.29000
C  20.37600 52.38100 19.11900
N  18.49200 51.19400 25.13700
C  19.39500 50.60800 24.28200
C  20.41900 49.89500 25.08500
C  19.92200 49.95400 26.37400
C  18.72200 50.70200 26.34000
C  21.66700 49.20300 24.58100
C  20.24400 49.54000 27.68200
O  21.13900 48.88700 28.21500
C  19.12900 50.16600 28.60200
C  18.53000 49.19600 29.44000
O  17.71000 48.39300 29.05900
O  19.05400 49.29800 30.63500
C  18.79200 48.15500 31.55100
H  13.20400 53.27600 27.34400
H  14.61300 52.93100 20.91900
H  20.32400 50.70200 22.30300
H  16.41300 51.12900 29.91700
H  14.84100 53.52900 29.20000
H  13.37500 52.41300 30.26200
H  14.24000 50.82600 30.13400
H  13.31300 51.24400 28.79600
H  16.95600 54.11800 29.61000
H  18.29400 53.05200 29.20900
H  17.73400 54.06400 31.72200
H  18.77400 52.68200 31.45700
H  11.43300 53.89300 26.21900
H  10.52900 53.84300 24.74100
H  11.29300 55.29700 25.06100
H  11.41600 56.38700 22.45000
H  10.58500 54.93600 22.98000
H  10.55700 55.42300 21.23200
H  16.91900 52.67700 19.62100
H  18.95900 50.73700 20.47200
H  17.12100 50.00400 19.26200
H  15.52800 50.92400 19.41500
H  16.15600 49.89900 20.64400
H  20.09000 53.10800 21.17400
H  18.92300 53.74400 20.00600
H  19.85100 52.57700 18.18400
H  20.62000 51.32100 19.18300
H  21.29200 52.95600 19.25400
H  21.34100 48.29000 24.08100
H  22.33600 48.95500 25.40500
H  22.08800 49.89200 23.84900
H  19.65300 50.88600 29.23100
H  18.97700 47.18800 31.08300
H  17.74600 48.27800 31.83200
H  19.43400 48.30500 32.41900

