158

Mg 55.96200 23.16600 43.32700
C  53.90700 26.11000 42.68100
C  53.15600 21.22100 42.73200
C  57.99500 20.65500 42.83400
C  58.69000 25.42300 43.33800
N  53.78600 23.63600 42.63100
C  53.16200 24.91600 42.50300
C  51.64300 24.63500 42.18300
C  51.37800 23.18400 42.68800
C  52.84600 22.59700 42.73100
C  50.74900 23.11600 44.09800
C  51.19100 24.92400 40.67100
C  52.26500 25.20200 39.56200
H  51.92500 24.83500 38.13200
N  55.65100 21.18600 42.85300
C  54.44000 20.57300 42.76200
C  54.69700 19.17600 42.62700
C  56.06200 18.90500 42.68200
C  56.68300 20.23800 42.87000
C  53.54400 18.13000 42.38800
C  56.78000 17.59400 42.55200
O  56.17300 16.54800 42.34900
C  58.21500 17.43100 42.79700
N  58.02300 23.11400 43.06700
C  58.60700 21.90800 42.85000
C  60.14800 22.08600 42.77200
C  60.39600 23.66000 42.89900
C  58.96100 24.08600 43.13400
C  60.89900 21.09400 43.68400
C  61.19700 24.39700 41.69600
C  60.37600 24.80100 40.53800
N  56.23400 25.23200 43.31700
C  57.38200 26.00400 43.33000
C  57.06700 27.41800 43.46900
C  55.67000 27.51000 43.40400
C  55.24900 26.12600 43.14800
C  58.07200 28.50100 43.75600
C  54.51800 28.33800 43.40900
O  54.40900 29.52600 43.65600
C  53.33500 27.48500 43.02800
C  52.47800 28.21200 42.07300
O  52.79100 28.52600 40.93000
O  51.30900 28.49600 42.67000
C  50.19700 29.04200 41.86900
H  52.30900 20.54900 42.88600
H  58.64200 19.79000 42.67300
H  59.57900 26.01100 43.57700
H  50.97300 25.30200 42.72500
H  50.77700 22.53000 42.05600
H  51.42700 22.61700 44.79000
H  49.72400 22.74900 44.16800
H  50.76000 24.10700 44.55100
H  50.58200 25.82700 40.68400
H  50.72000 24.04400 40.23200
H  53.24200 24.80500 39.83800
H  52.48000 26.27000 39.55100
H  52.56700 18.58200 42.55400
H  53.65400 17.22900 42.99200
H  53.48700 17.71800 41.38100
H  58.51700 16.38800 42.70900
H  58.46800 17.89300 43.75100
H  58.84300 17.82400 41.99800
H  60.48000 21.85900 41.75900
H  60.90000 23.89500 43.83700
H  60.28600 20.70700 44.49800
H  61.75800 21.64600 44.06500
H  61.29100 20.25600 43.10800
H  62.06100 23.81900 41.36900
H  61.47000 25.35300 42.14200
H  60.24800 25.88300 40.51200
H  59.35700 24.47700 40.74700
H  60.77900 24.39800 39.60800
H  58.39000 28.81400 42.76200
H  58.87700 28.03900 44.32800
H  57.54700 29.22300 44.38200
H  52.73300 27.46600 43.93600
H  49.25700 28.76400 42.34600
H  50.34000 28.65100 40.86200
H  50.31900 30.12200 41.79300
Mg 47.79400 16.80500 28.66500
C  45.93900 16.37500 31.71700
C  50.18200 18.57700 30.48000
C  48.96500 18.06600 25.79000
C  44.91200 15.67600 26.94300
N  48.01200 17.26100 30.91500
C  47.19200 16.99400 31.95800
C  47.81500 17.38700 33.25600
C  48.99500 18.39100 32.80900
C  49.10900 18.04400 31.27900
C  48.91100 19.84300 33.19700
C  48.20700 16.02100 33.97500
C  48.26600 16.02500 35.56200
H  47.94100 17.30300 36.42000
N  49.51100 17.85900 28.21500
C  50.43500 18.36600 29.14000
C  51.60000 18.89100 28.32900
C  51.23700 18.87900 26.92200
C  49.86100 18.24900 26.90600
C  52.88800 19.39500 29.02500
C  52.01100 19.38900 25.71000
O  51.53100 19.45000 24.57100
C  53.42700 19.58700 25.85600
N  46.94500 16.82700 26.64800
C  47.74900 17.33900 25.65500
C  47.09500 17.17100 24.32700
C  45.99600 16.08200 24.64600
C  45.88700 16.22200 26.17400
C  46.45200 18.51300 23.76000
C  46.47400 14.66900 24.29000
C  45.44900 13.90600 23.42600
N  45.89800 16.04800 29.24700
C  44.80300 15.73600 28.38100
C  43.65900 15.39600 29.13400
C  44.06600 15.57200 30.45000
C  45.47300 16.02500 30.49200
C  42.31200 14.83500 28.58900
C  43.60900 15.51600 31.79400
O  42.51700 15.21700 32.30400
C  44.79600 16.01300 32.69200
C  44.18600 17.11300 33.40800
O  44.06200 18.31500 33.06100
O  43.71700 16.55600 34.63200
C  42.92800 17.54300 35.36500
H  51.00500 19.10700 30.96300
H  49.35400 18.47900 24.85700
H  44.06800 15.14700 26.49500
H  47.17500 17.90200 33.97300
H  49.96100 18.10300 33.22300
H  49.74100 19.83600 33.90400
H  47.96400 20.03700 33.70000
H  49.21900 20.56900 32.44500
H  49.25900 15.77300 33.83300
H  47.60000 15.20000 33.59400
H  49.26600 15.69300 35.83800
H  47.71100 15.14600 35.88900
H  52.91000 20.48400 29.06300
H  53.77300 19.05500 28.48700
H  52.95300 18.99000 30.03500
H  53.49100 20.35400 26.62800
H  53.80500 19.90900 24.88600
H  53.91000 18.70100 26.27000
H  47.73900 16.82900 23.51600
H  45.03300 16.27500 24.17400
H  46.63700 19.24800 24.54300
H  45.39500 18.31600 23.58200
H  46.79300 18.81300 22.76900
H  46.59900 14.07300 25.19400
H  47.39500 14.66100 23.70700
H  44.99300 14.64200 22.76300
H  44.65200 13.53600 24.07000
H  45.81400 13.04900 22.86000
H  42.46800 13.78100 28.35700
H  41.92200 15.50400 27.82200
H  41.67700 14.75700 29.47100
H  45.12000 15.18200 33.31900
H  42.38500 17.13600 36.21800
H  42.08600 18.06400 34.90800
H  43.60100 18.36400 35.61000

