158

Mg 25.47600 1.83100 29.67100
C  27.71200 1.69300 32.54300
C  23.00800 2.02500 31.85800
C  23.47200 1.45000 27.07000
C  28.24700 0.74400 27.74100
N  25.35400 2.00700 31.96300
C  26.39400 2.00000 32.91800
C  25.87900 2.36600 34.30300
C  24.30700 2.32800 34.04400
C  24.14700 2.14700 32.54500
C  23.53400 1.28300 34.87500
C  26.37000 3.72100 34.86800
C  27.39000 3.73600 36.06000
H  26.93600 4.57600 37.37500
N  23.54400 1.77400 29.46800
C  22.65100 1.90100 30.51800
C  21.28900 1.77500 30.01800
C  21.39400 1.66800 28.60100
C  22.83800 1.60500 28.30000
C  20.12700 2.02800 30.94400
C  20.35800 1.49700 27.50100
O  20.58700 1.26300 26.32200
C  18.93600 1.61400 27.85900
N  25.79100 1.18500 27.65300
C  24.81700 1.35900 26.73800
C  25.38400 1.24500 25.32900
C  26.90700 1.05900 25.51900
C  27.00600 0.93300 27.07300
C  24.72000 0.24100 24.33000
C  27.65200 2.41600 24.98900
C  27.65900 3.74400 25.84200
N  27.52700 1.45600 29.99100
C  28.49800 0.94800 29.08800
C  29.79100 0.82800 29.77100
C  29.46400 0.97400 31.09200
C  28.10600 1.35100 31.21800
C  31.07400 0.54600 29.00600
C  30.09500 0.93900 32.42900
O  31.21600 0.66100 32.75300
C  28.96800 1.47700 33.39400
C  28.78600 0.50100 34.52700
O  28.08100 -0.51300 34.49100
O  29.46900 0.98200 35.64800
C  29.30900 0.05900 36.75800
H  22.17000 2.09100 32.55600
H  22.82900 1.46500 26.18800
H  29.17200 0.66100 27.16600
H  26.09200 1.51500 34.95000
H  23.77600 3.22900 34.35200
H  22.45400 1.42900 34.87000
H  24.02200 1.10100 35.83300
H  23.51000 0.35600 34.30300
H  25.55300 4.42900 35.00300
H  26.85800 4.19300 34.01500
H  28.37100 4.13400 35.80100
H  27.49900 2.71100 36.41600
H  19.93700 3.10100 30.92800
H  20.25300 1.68000 31.97000
H  19.20700 1.60100 30.54500
H  18.33300 1.27400 27.01800
H  18.75000 2.64900 28.14700
H  18.82300 0.92100 28.69300
H  25.20600 2.26600 24.99200
H  27.40900 0.19000 25.09400
H  24.02700 -0.35300 24.92500
H  25.40700 -0.44800 23.83800
H  24.20200 0.81800 23.56400
H  27.24600 2.71900 24.02400
H  28.71000 2.20000 24.83700
H  27.07000 3.52400 26.73300
H  27.23600 4.56700 25.26800
H  28.59900 4.03400 26.31100
H  31.04600 0.10700 28.00800
H  31.73600 -0.02100 29.66000
H  31.57800 1.50400 28.87200
H  29.19600 2.45800 33.81100
H  29.32200 -0.96600 36.38900
H  28.47000 0.39300 37.36900
H  30.19700 0.11400 37.38800
Mg 44.94000 5.50300 48.03000
C  43.05100 8.47900 47.57800
C  42.29900 3.68000 47.12800
C  47.02600 2.92000 47.96200
C  47.79200 7.59600 48.55500
N  42.98700 6.04000 47.31000
C  42.44200 7.28000 47.12300
C  41.14900 7.18200 46.52000
C  40.69300 5.71700 46.75700
C  41.96300 5.05200 47.20300
C  39.49300 5.46700 47.76300
C  41.13300 7.69300 45.03100
C  40.00100 8.63000 44.73200
H  39.19000 8.24300 43.49300
N  44.67700 3.51000 47.74500
C  43.45800 2.94100 47.32600
C  43.66300 1.51400 47.41000
C  45.06500 1.25100 47.62700
C  45.67300 2.57600 47.79600
C  42.45700 0.63900 47.16900
C  45.60500 -0.13300 47.67900
O  44.92300 -1.08500 47.39500
C  47.01100 -0.31200 48.21100
N  47.11100 5.35000 48.22800
C  47.71700 4.07400 48.19200
C  49.28800 4.21100 48.16700
C  49.48100 5.65600 48.64800
C  48.09100 6.28500 48.36700
C  50.07700 3.14000 49.01300
C  50.65100 6.46100 47.97400
C  51.46800 7.29600 48.93900
N  45.41300 7.62500 48.01900
C  46.58800 8.28500 48.32800
C  46.32600 9.70000 48.34700
C  44.93000 9.88000 48.03700
C  44.47400 8.55500 47.93900
C  47.30200 10.75400 48.64900
C  43.79400 10.77600 47.89100
O  43.66100 11.97400 48.13300
C  42.59900 9.93200 47.45100
C  41.44400 10.12200 48.43800
O  41.19000 9.49400 49.44000
O  40.57400 11.03800 47.87900
C  39.40700 11.33000 48.68700
H  41.33400 3.22500 46.89700
H  47.78400 2.15900 47.76600
H  48.57900 8.26200 48.91600
H  40.44000 7.85100 47.00900
H  40.50600 5.28800 45.77200
H  39.15900 6.44700 48.10400
H  39.83100 4.87000 48.61000
H  38.70700 4.92400 47.23900
H  41.15600 6.90600 44.27800
H  42.02700 8.30300 44.89900
H  40.42700 9.59900 44.47100
H  39.29100 8.75800 45.55000
H  42.40900 -0.21400 47.84600
H  42.51600 0.37900 46.11200
H  41.52800 1.18200 47.34300
H  46.95500 -1.16200 48.89100
H  47.24600 0.50300 48.89500
H  47.79100 -0.32100 47.45000
H  49.62900 4.17200 47.13200
H  49.66200 5.61400 49.72300
H  49.34400 2.53100 49.54100
H  50.76600 3.58500 49.73200
H  50.71300 2.55600 48.34700
H  50.16900 7.20200 47.33700
H  51.34800 5.81700 47.43800
H  51.09100 7.32800 49.96100
H  51.55900 8.32300 48.58500
H  52.46100 6.87200 49.08600
H  46.91300 11.77100 48.60000
H  48.15200 10.63800 47.97600
H  47.54000 10.70600 49.71100
H  42.18900 10.29500 46.50900
H  39.19900 12.35000 49.01000
H  39.34000 10.77700 49.62400
H  38.58300 11.00500 48.05200

