158

Mg 35.84200 1.50000 29.46600
C  33.64500 2.50200 32.07200
C  38.39600 1.67800 31.73200
C  37.88500 0.86300 26.91800
C  33.06900 1.63500 27.26200
N  36.00300 2.08700 31.60700
C  34.95500 2.40900 32.52600
C  35.43400 2.43600 33.89200
C  36.99900 2.29100 33.75000
C  37.21500 2.06700 32.28500
C  37.75500 3.55900 34.32500
C  34.89400 1.17500 34.65400
C  34.54100 1.47900 36.13700
H  35.25500 2.60100 36.82300
N  37.82100 1.25000 29.36300
C  38.73200 1.26400 30.44000
C  40.08000 0.98700 29.90000
C  40.00200 0.94100 28.50300
C  38.54100 1.03200 28.17200
C  41.35600 0.65300 30.81400
C  41.02400 0.63700 27.46700
O  40.81800 0.52600 26.28500
C  42.50300 0.64100 27.95600
N  35.49000 1.08000 27.35700
C  36.54100 0.89400 26.50800
C  36.05700 0.86100 25.04000
C  34.54700 0.97300 25.17500
C  34.28600 1.24500 26.66900
C  36.65600 1.99100 24.11700
C  33.73200 -0.21400 24.61000
C  32.66100 0.04800 23.56100
N  33.79500 1.89900 29.60600
C  32.80500 1.95700 28.61900
C  31.51300 2.36100 29.17900
C  31.83000 2.49700 30.51800
C  33.17200 2.26900 30.73000
C  30.15400 2.62700 28.53900
C  31.14700 2.80200 31.81000
O  29.96600 2.92900 32.06000
C  32.32900 2.84300 32.81200
C  32.30400 4.13200 33.51200
O  32.88800 5.12800 33.19700
O  31.60100 4.00100 34.75300
C  31.33200 5.14700 35.63300
H  39.18100 1.93100 32.44800
H  38.52100 0.82900 26.03000
H  32.24400 1.63100 26.54600
H  35.14000 3.40000 34.30700
H  37.34600 1.37800 34.23300
H  38.35600 3.18600 35.15500
H  37.09900 4.41100 34.50500
H  38.49000 4.02600 33.67100
H  35.45800 0.25400 34.50400
H  33.89600 0.99600 34.25500
H  34.62300 0.54300 36.69000
H  33.51600 1.83100 36.25900
H  42.11600 1.40100 30.58800
H  41.78200 -0.33100 30.61800
H  41.12900 0.63100 31.88000
H  42.61200 1.53100 28.57600
H  43.17600 0.59800 27.09900
H  42.59900 -0.28000 28.53000
H  36.54300 0.02500 24.53600
H  34.18900 1.89700 24.72000
H  37.13800 2.67300 24.81900
H  35.84100 2.47300 23.57600
H  37.36700 1.55700 23.41400
H  33.46800 -0.91000 25.40600
H  34.47900 -0.82700 24.10500
H  33.15300 -0.34200 22.67000
H  32.44300 1.08300 23.29700
H  31.78000 -0.56200 23.76200
H  29.68500 1.67600 28.28800
H  30.24600 3.24400 27.64500
H  29.48100 3.15800 29.21200
H  32.04700 2.08200 33.53900
H  31.69000 4.91600 36.63600
H  30.32800 5.57200 35.62100
H  31.89300 5.97800 35.20600
Mg -5.89900 25.51800 25.92000
C  -4.39100 26.86200 28.58000
C  -7.11300 23.00500 28.10900
C  -7.29300 23.85800 23.35600
C  -4.33400 27.62300 23.77000
N  -5.80000 25.03800 28.09000
C  -5.27100 25.85000 29.04000
C  -5.73400 25.46000 30.48400
C  -6.25900 24.04600 30.25600
C  -6.40300 23.98600 28.74500
C  -5.44400 22.93200 30.81200
C  -6.77500 26.43300 31.06400
C  -6.63800 26.75100 32.52400
H  -7.62200 26.09800 33.48900
N  -7.11800 23.76900 25.75200
C  -7.47700 22.88800 26.78400
C  -8.38700 21.81500 26.20100
C  -8.52500 22.12300 24.82100
C  -7.67000 23.29900 24.54600
C  -8.84600 20.57800 26.93900
C  -9.30400 21.32600 23.69500
O  -9.15300 21.49400 22.48800
C  -10.29400 20.22800 24.10600
N  -5.64700 25.51600 23.81600
C  -6.36800 24.84400 22.99200
C  -6.13200 25.24100 21.49000
C  -5.28800 26.53300 21.67800
C  -5.02900 26.54200 23.16500
C  -5.45000 24.30900 20.54700
C  -6.02600 27.77800 21.19500
C  -5.17200 28.64300 20.33700
N  -4.59700 26.95200 26.05600
C  -4.07700 27.87100 25.12900
C  -3.20500 28.77700 25.79800
C  -3.23900 28.42100 27.13500
C  -4.13200 27.29400 27.27300
C  -2.40200 29.94300 25.14900
C  -2.79100 28.78400 28.46300
O  -1.94200 29.55600 28.94100
C  -3.63300 27.80100 29.43600
C  -2.71000 27.09800 30.34200
O  -1.83500 26.26700 30.03100
O  -2.97900 27.46100 31.64500
C  -1.93000 27.00800 32.63900
H  -7.58100 22.26700 28.76300
H  -7.69300 23.51300 22.40000
H  -3.96300 28.32300 23.01900
H  -4.89900 25.31300 31.16900
H  -7.23700 23.99000 30.73400
H  -5.64300 22.71200 31.86100
H  -4.41400 23.27900 30.88400
H  -5.53700 22.03200 30.20400
H  -7.81100 26.15600 30.86500
H  -6.66000 27.38200 30.54200
H  -6.80000 27.81600 32.68800
H  -5.66400 26.44600 32.90700
H  -9.93300 20.57500 26.85400
H  -8.59800 20.68900 27.99500
H  -8.44200 19.65100 26.53300
H  -9.73200 19.35000 24.42500
H  -10.80100 19.95700 23.18000
H  -11.08900 20.61700 24.74300
H  -7.03900 25.49800 20.94400
H  -4.25500 26.42700 21.34500
H  -4.85400 23.60100 21.12300
H  -4.64600 24.63400 19.88700
H  -6.18600 23.68800 20.03800
H  -6.48100 28.30800 22.03100
H  -6.89400 27.48900 20.60300
H  -5.35200 28.84200 19.28100
H  -4.13800 28.31200 20.44000
H  -5.21700 29.65200 20.74600
H  -2.93400 30.53400 24.40300
H  -1.47100 29.60200 24.69500
H  -2.17700 30.63500 25.96100
H  -4.36800 28.33000 30.04300
H  -2.24400 26.02900 33.00000
H  -2.07800 27.55600 33.56900
H  -0.89500 27.13500 32.32100

