158

Mg 41.80300 9.94500 29.65100
C  43.63100 11.13300 32.24900
C  39.41800 8.73800 31.92100
C  39.96700 8.86400 27.09300
C  44.35500 10.84400 27.57100
N  41.70600 9.64700 31.90000
C  42.52500 10.37300 32.78300
C  41.86900 10.34200 34.17000
C  40.58100 9.50300 34.07200
C  40.54000 9.28900 32.55900
C  40.60300 8.14700 34.85300
C  41.40000 11.79300 34.73200
C  40.70900 11.79800 36.06300
H  41.22000 12.79500 37.11800
N  40.01100 8.81900 29.52800
C  39.12100 8.48000 30.56000
C  37.91100 7.93300 30.00900
C  38.04900 7.91000 28.61600
C  39.41000 8.51400 28.37500
C  36.78200 7.34700 30.87700
C  37.13500 7.34000 27.60000
O  37.38400 7.28700 26.42500
C  35.74000 6.86500 27.96700
N  42.16700 9.78400 27.62600
C  41.24500 9.41700 26.72000
C  41.56800 9.63100 25.22600
C  42.85500 10.43000 25.41300
C  43.18800 10.34100 26.98200
C  41.64400 8.29200 24.43700
C  42.76200 11.92300 24.92700
C  42.06600 12.96200 25.79100
N  43.63500 10.70200 29.83200
C  44.53800 11.09600 28.92700
C  45.65500 11.73200 29.56400
C  45.21600 11.93600 30.84300
C  44.12900 11.14900 30.93300
C  46.79200 12.32700 28.89900
C  45.61300 12.53100 32.08800
O  46.54600 13.27700 32.44500
C  44.48600 12.10100 33.05300
C  45.05000 11.50700 34.25900
O  45.53500 10.41200 34.33600
O  44.84800 12.42400 35.27500
C  45.39800 11.87200 36.52100
H  38.63100 8.54500 32.65200
H  39.23900 8.63600 26.31100
H  45.07600 11.23200 26.84800
H  42.58000 9.96800 34.90600
H  39.70600 10.13200 34.23700
H  39.79100 7.97500 35.55900
H  41.53200 8.05200 35.41500
H  40.47300 7.28000 34.20500
H  40.79100 12.19400 33.92200
H  42.34000 12.33200 34.84500
H  40.71200 10.80900 36.52100
H  39.64700 11.95800 35.87600
H  36.66900 6.27000 30.75000
H  35.85500 7.86000 30.62300
H  36.93500 7.51200 31.94400
H  35.25800 6.39200 27.11100
H  35.18500 7.75500 28.26200
H  35.74500 6.06100 28.70400
H  40.85800 10.25800 24.68700
H  43.63500 9.82400 24.95100
H  41.48900 7.44500 25.10600
H  42.54500 8.04800 23.87500
H  40.95400 8.21500 23.59700
H  42.27500 11.95300 23.95200
H  43.73900 12.33900 24.68400
H  42.93700 13.47800 26.19500
H  41.46700 12.52000 26.58700
H  41.50600 13.64000 25.14700
H  46.34600 13.08400 28.25400
H  47.36200 11.59500 28.32600
H  47.48200 12.90200 29.51600
H  43.94900 13.01500 33.30400
H  45.04000 10.85700 36.69400
H  45.12500 12.52000 37.35400
H  46.48000 11.88300 36.39100
Mg 30.97600 57.60100 39.01800
C  28.37600 55.59900 38.12600
C  33.21300 55.12900 38.25100
C  33.69100 59.80800 39.59500
C  28.83800 60.14300 39.98000
N  30.80200 55.71400 38.01700
C  29.59100 54.99600 37.92900
C  29.80900 53.52400 37.55600
C  31.38800 53.34100 37.78200
C  31.83800 54.83400 38.02400
C  31.94500 52.21700 38.73400
C  29.30800 52.99000 36.18400
C  29.67200 53.73100 34.87300
H  28.60600 54.35600 34.09100
N  33.18100 57.45600 38.89200
C  33.86300 56.36500 38.52900
C  35.25800 56.61900 38.60900
C  35.43500 57.94900 38.97900
C  34.08600 58.48800 39.14200
C  36.29600 55.67500 38.14000
C  36.78700 58.63500 39.06300
O  37.81900 58.04000 38.73200
C  36.85400 60.09600 39.42300
N  31.25900 59.67300 39.53300
C  32.38900 60.37400 39.74400
C  32.20600 61.81700 40.18900
C  30.62400 61.81000 40.54400
C  30.17000 60.49800 39.97100
C  33.09100 62.24200 41.41600
C  29.88300 63.16400 40.11300
C  29.14900 63.83300 41.26200
N  29.05700 57.89900 39.04800
C  28.24700 58.93400 39.53300
C  26.85200 58.51000 39.44800
C  26.83600 57.29700 38.85100
C  28.18800 56.87900 38.65500
C  25.65500 59.31500 39.72800
C  26.00700 56.26500 38.23700
O  24.80000 56.27000 38.08800
C  27.00000 55.10600 37.85500
C  26.68600 54.01500 38.78100
O  27.16300 53.82500 39.90800
O  25.55800 53.37000 38.25400
C  24.76100 52.46600 39.13400
H  33.93100 54.30800 38.18700
H  34.50300 60.46500 39.91500
H  28.11100 60.82300 40.43000
H  29.31400 52.97100 38.35500
H  31.83900 52.95600 36.86800
H  31.15000 51.47300 38.78700
H  32.37200 52.59600 39.66200
H  32.74000 51.67400 38.22400
H  28.22500 53.03200 36.30100
H  29.54600 51.93200 36.06700
H  30.09800 52.99300 34.19400
H  30.44300 54.46100 35.11900
H  36.62800 56.03300 37.16600
H  35.96000 54.64200 38.04600
H  37.09900 55.75800 38.87300
H  37.83200 60.48700 39.14400
H  36.61500 60.18700 40.48300
H  36.16400 60.65200 38.78800
H  32.33200 62.47300 39.32800
H  30.63100 61.63900 41.62000
H  32.58100 62.97800 42.03800
H  33.97300 62.79900 41.10000
H  33.21900 61.35600 42.03800
H  29.12400 63.02900 39.34300
H  30.60200 63.78700 39.58100
H  29.95900 64.10600 41.93800
H  28.40700 63.11400 41.60700
H  28.73000 64.79300 40.95800
H  24.76100 58.94500 39.22600
H  25.86800 60.31100 39.34000
H  25.48200 59.28900 40.80400
H  26.80300 54.89000 36.80500
H  24.68300 51.56000 38.53400
H  23.78400 52.90100 39.34400
H  25.40400 52.18800 39.96900

