158

Mg 43.84600 3.46400 47.02800
C  41.94200 6.42400 46.76400
C  40.98500 1.53200 46.66600
C  45.77900 0.69400 47.05800
C  46.72800 5.39800 46.19300
N  41.72500 3.95100 46.64600
C  41.14700 5.26500 46.91700
C  39.61600 5.08900 47.03100
C  39.36100 3.53900 46.83200
C  40.78800 2.94200 46.68700
C  38.60400 2.88100 48.01100
C  38.78200 5.92400 46.01300
C  39.32500 6.29500 44.57800
H  38.76300 5.49200 43.38100
N  43.44500 1.40000 46.92000
C  42.18000 0.80000 46.78100
C  42.31700 -0.58100 46.65100
C  43.66800 -0.96200 46.80500
C  44.38100 0.41200 46.92300
C  41.12800 -1.58000 46.46800
C  44.21800 -2.41200 46.82400
O  43.56100 -3.47100 46.87400
C  45.64200 -2.60300 46.95900
N  45.97200 3.06700 46.62700
C  46.53900 1.87400 46.95000
C  48.10700 1.98500 46.84500
C  48.32600 3.43000 46.37500
C  46.88000 4.00000 46.38700
C  48.64000 1.75800 48.31500
C  49.08400 3.49600 45.03100
C  50.50600 3.92400 45.12400
N  44.33400 5.49000 46.66400
C  45.47800 6.08800 46.25600
C  45.33100 7.51700 46.15500
C  43.96900 7.73300 46.33000
C  43.37400 6.43500 46.65000
C  46.32900 8.60500 45.94200
C  42.93200 8.77000 46.44100
O  42.98900 9.95400 46.30200
C  41.52400 7.94400 46.65500
C  40.82600 8.56800 47.84200
O  41.16100 8.43100 49.02400
O  39.66600 9.18300 47.43500
C  38.72400 9.51800 48.53000
H  40.01200 1.03800 46.63300
H  46.33100 -0.19600 47.36900
H  47.49800 6.04800 45.77300
H  39.38800 5.48200 48.02100
H  38.74500 3.29700 45.96500
H  38.26500 3.47900 48.85700
H  39.31000 2.18700 48.46800
H  37.74300 2.31900 47.64700
H  38.50800 6.81400 46.57900
H  37.85500 5.40200 45.77600
H  40.37600 6.00700 44.55600
H  39.19400 7.36700 44.43300
H  41.20300 -1.87400 45.42100
H  40.20200 -1.06400 46.71900
H  41.16100 -2.51800 47.02200
H  46.13000 -2.21800 47.85500
H  46.17300 -1.95700 46.26100
H  45.89800 -3.62100 46.66700
H  48.22600 1.14700 46.15900
H  48.94200 3.90000 47.14200
H  47.89200 1.67400 49.10400
H  49.37300 2.51800 48.58400
H  49.11100 0.77500 48.33400
H  48.52800 4.16000 44.36800
H  48.98800 2.50300 44.59200
H  50.75700 4.43200 46.05500
H  50.77400 4.63500 44.34200
H  51.03400 2.97700 45.01900
H  46.72200 8.83200 44.95100
H  47.21200 8.29000 46.49900
H  46.08100 9.46000 46.57200
H  40.91000 8.09100 45.76700
H  38.83400 8.68000 49.21900
H  37.69900 9.50500 48.15800
H  39.03600 10.36600 49.13900
Mg 47.08200 35.55800 28.45200
C  45.47300 33.70500 30.92400
C  47.30500 38.13100 30.73200
C  48.00600 37.59700 25.99500
C  46.32800 33.02100 26.15400
N  46.55400 35.83800 30.56400
C  45.97100 34.90300 31.41200
C  46.03800 35.42800 32.88500
C  46.12800 36.94800 32.71700
C  46.65000 36.99600 31.25700
C  44.84500 37.76700 33.01600
C  47.32100 34.80400 33.58200
C  46.99700 34.40700 35.03700
H  47.45500 35.47600 36.09300
N  47.80300 37.50800 28.45100
C  47.86800 38.37500 29.49600
C  48.50000 39.59900 28.92900
C  48.74200 39.39600 27.52600
C  48.18900 38.14000 27.27300
C  48.77400 40.73700 29.82100
C  49.45400 40.33300 26.50600
O  49.79600 40.04200 25.35600
C  49.79300 41.68300 26.89600
N  47.20500 35.38700 26.41700
C  47.55700 36.37300 25.57200
C  47.46300 35.82000 24.08600
C  47.00500 34.37800 24.18500
C  46.73800 34.25100 25.71400
C  46.69700 36.79800 23.08100
C  47.97100 33.36000 23.55600
C  47.35900 32.44600 22.54000
N  46.15500 33.68200 28.47200
C  46.01000 32.65800 27.51800
C  45.53000 31.44900 28.08800
C  45.24700 31.83700 29.40300
C  45.66500 33.19100 29.58000
C  45.20600 30.13600 27.42500
C  44.64200 31.37900 30.65600
O  44.16900 30.23900 30.92300
C  44.59700 32.66200 31.56800
C  45.03800 32.29500 32.98700
O  46.17900 31.82800 33.22300
O  43.92700 32.50200 33.81600
C  43.96800 31.90100 35.11800
H  47.39600 38.93500 31.46600
H  48.38100 38.23800 25.19300
H  46.23100 32.17400 25.47200
H  45.10800 35.15800 33.38500
H  46.79100 37.31400 33.50100
H  44.73400 38.51500 32.23100
H  44.97600 38.28100 33.96800
H  43.98300 37.10700 33.11700
H  48.00200 35.65200 33.50600
H  47.78400 33.96700 33.06000
H  47.56000 33.50300 35.26800
H  45.95000 34.14400 35.18900
H  49.86200 40.67900 29.85000
H  48.41500 40.59400 30.84000
H  48.56800 41.70000 29.35400
H  48.91600 42.14000 27.35500
H  50.11400 42.25700 26.02700
H  50.66200 41.73400 27.55100
H  48.47800 35.66200 23.72000
H  46.03700 34.26900 23.69700
H  46.08500 37.57300 23.54200
H  45.97400 36.23100 22.49400
H  47.40300 37.28900 22.41200
H  48.45600 32.75000 24.31800
H  48.75200 33.83500 22.96200
H  48.18000 32.25200 21.85000
H  46.45200 32.80300 22.05100
H  47.01900 31.53400 23.03000
H  44.33100 30.36400 26.81600
H  45.14500 29.35300 28.18000
H  46.04100 29.98600 26.74100
H  43.57200 33.00900 31.70400
H  43.68700 32.66500 35.84400
H  44.94500 31.46300 35.31900
H  43.18700 31.14100 35.10200

