158

Mg 40.57800 9.31800 28.82800
C  42.36500 10.02800 31.85400
C  38.27300 7.60700 30.82500
C  39.03400 8.40500 26.11600
C  43.41600 10.24300 27.16800
N  40.28800 8.88400 31.03100
C  41.11500 9.32900 32.03900
C  40.52500 9.05000 33.40400
C  39.50000 7.92200 33.07600
C  39.30800 8.11300 31.55700
C  40.06200 6.57700 33.40500
C  39.85800 10.30300 34.14300
C  40.39900 10.47300 35.54400
H  40.66300 11.92400 36.10200
N  38.78100 8.43600 28.54100
C  37.97200 7.75400 29.43400
C  36.74700 7.23400 28.74100
C  36.95800 7.54900 27.33200
C  38.32900 8.11900 27.26300
C  35.59800 6.35500 29.40400
C  36.03300 7.29100 26.13600
O  36.31600 7.49200 24.96200
C  34.73800 6.71900 26.54800
N  41.23700 9.05000 26.90800
C  40.35600 8.75900 25.88500
C  41.07700 8.90800 24.47500
C  42.33500 9.65200 24.87400
C  42.39500 9.64800 26.39800
C  41.23900 7.58000 23.63500
C  42.59700 11.02500 24.26400
C  41.96200 12.22000 24.91200
N  42.52700 10.06500 29.36700
C  43.53200 10.45500 28.56400
C  44.62600 10.94000 29.30800
C  44.16400 10.92600 30.64000
C  42.88700 10.30400 30.57200
C  45.87100 11.54100 28.73500
C  44.43600 11.28100 32.13700
O  45.39300 11.79100 32.68900
C  43.31500 10.66300 32.91400
C  43.91600 9.64700 33.87500
O  44.26900 8.47100 33.60100
O  43.90300 10.09400 35.20100
C  44.36200 9.30100 36.28400
H  37.58200 6.93900 31.34300
H  38.52200 8.32700 25.15500
H  44.24100 10.65900 26.58600
H  41.34300 8.65300 34.00600
H  38.54200 8.14100 33.54800
H  39.54600 6.17800 34.27900
H  41.14800 6.48600 33.39600
H  39.87700 5.86500 32.60100
H  38.76900 10.25000 34.14400
H  40.09800 11.20000 33.57100
H  41.27700 9.84100 35.67200
H  39.62600 10.07500 36.20100
H  34.71500 6.99000 29.47500
H  35.98000 6.01300 30.36600
H  35.39300 5.42500 28.87300
H  34.90400 5.69600 26.88500
H  34.08800 6.59100 25.68300
H  34.14900 7.31500 27.24500
H  40.52900 9.53500 23.77100
H  43.26900 9.12800 24.67200
H  41.63800 6.86400 24.35300
H  42.01400 7.69300 22.87700
H  40.28200 7.16500 23.31900
H  42.27600 11.10700 23.22500
H  43.68100 11.10800 24.33900
H  41.26400 11.92600 25.69600
H  41.38100 12.75400 24.15900
H  42.76000 12.86300 25.28300
H  45.55300 12.36500 28.09600
H  46.44100 10.81700 28.15300
H  46.60900 11.90000 29.45300
H  42.81200 11.41900 33.51600
H  44.65400 9.98000 37.08600
H  45.23500 8.85200 35.81200
H  43.62800 8.55600 36.59100
Mg 36.35400 48.85300 25.05900
C  36.72500 47.05700 28.15800
C  35.14200 51.61500 26.74500
C  35.62700 50.24000 22.07900
C  37.65500 46.01700 23.49600
N  35.97200 49.24100 27.12500
C  36.26400 48.41700 28.27800
C  36.05100 49.18200 29.58900
C  35.20100 50.41400 29.12700
C  35.54500 50.46900 27.56500
C  33.67500 50.33300 29.54800
C  37.38200 49.37000 30.53200
C  37.22100 48.84300 31.97000
H  35.94500 49.18200 32.74700
N  35.59100 50.66500 24.53700
C  35.24900 51.64500 25.37900
C  34.93600 52.86000 24.58100
C  34.93700 52.46400 23.18100
C  35.38600 51.06900 23.20100
C  34.76100 54.22600 25.29800
C  34.66700 53.34000 21.91300
O  34.67500 52.83100 20.75000
C  34.13200 54.73600 22.08700
N  36.53400 48.13900 23.11900
C  36.16000 48.94700 22.03000
C  36.55300 48.36500 20.70500
C  37.56200 47.16500 21.12800
C  37.25200 47.05500 22.65300
C  35.44300 47.96000 19.70800
C  39.03600 47.39000 20.73100
C  39.90500 46.22600 20.34200
N  36.97700 46.90300 25.61100
C  37.47900 45.87200 24.85400
C  37.70700 44.74800 25.66100
C  37.45400 45.19200 26.98000
C  37.04000 46.48300 26.87500
C  38.13100 43.33700 25.11300
C  37.41400 44.75500 28.33800
O  37.68400 43.69400 28.81900
C  37.01800 46.00900 29.20000
C  35.93600 45.69300 30.15500
O  34.71800 45.68300 29.96600
O  36.39800 45.33100 31.37200
C  35.46700 45.15800 32.52300
H  34.64800 52.37200 27.35800
H  35.48000 50.71100 21.10500
H  37.97300 45.17600 22.87600
H  35.37100 48.43800 30.00400
H  35.62300 51.34000 29.51600
H  33.08500 50.30300 28.63200
H  33.27600 51.27300 29.93000
H  33.39900 49.57100 30.27700
H  37.80100 50.37600 30.50100
H  38.11300 48.74400 30.02100
H  38.09400 49.27400 32.46000
H  37.63900 47.84300 32.08500
H  35.44600 54.92500 24.81800
H  35.12200 54.13500 26.32200
H  33.73600 54.58200 25.18900
H  34.94800 55.35800 22.45300
H  33.30300 54.75800 22.79400
H  33.85200 55.33900 21.22300
H  37.09100 49.18700 20.23200
H  37.19200 46.20400 20.77100
H  35.47700 46.97300 19.24700
H  35.51100 48.68200 18.89500
H  34.43000 47.93900 20.11100
H  39.55000 47.70200 21.64000
H  39.07500 48.16100 19.96200
H  40.28700 45.71800 21.22700
H  40.69000 46.81900 19.87500
H  39.39700 45.59900 19.60900
H  38.04500 43.27500 24.02800
H  37.67300 42.48100 25.60800
H  39.18800 43.37800 25.37600
H  37.91900 46.24700 29.76700
H  35.67900 44.16300 32.91300
H  34.39200 45.21200 32.34600
H  35.80900 45.90000 33.24400

