158

Mg 48.27400 16.36200 29.25900
C  46.17400 15.91200 32.18900
C  50.40000 18.17600 31.33000
C  50.12100 16.86700 26.62000
C  45.76900 14.94200 27.41300
N  48.23900 17.01600 31.56500
C  47.32900 16.67200 32.52900
C  47.74700 17.16100 33.84900
C  49.01300 18.06800 33.55700
C  49.24200 17.83600 32.07200
C  48.73900 19.46900 33.94800
C  48.00300 15.90200 34.70900
C  48.29100 16.23400 36.20500
H  47.99500 17.61500 36.76700
N  50.10500 17.35800 29.02900
C  50.88900 17.96600 29.99500
C  52.18500 18.28900 29.34100
C  52.07200 18.00500 27.94500
C  50.72300 17.42600 27.77200
C  53.32000 18.78500 30.13500
C  53.12000 18.25100 26.78000
O  52.96800 17.83100 25.63800
C  54.41700 18.92700 27.17700
N  47.95400 16.02700 27.38000
C  48.89300 16.31800 26.42300
C  48.44000 15.99700 24.98400
C  47.12900 15.14100 25.21900
C  46.93500 15.34500 26.76600
C  48.16800 17.17100 24.04800
C  47.17500 13.66900 24.81900
C  46.38600 13.33600 23.51900
N  46.31800 15.61700 29.63200
C  45.48300 15.06800 28.78200
C  44.33100 14.59000 29.42400
C  44.59300 14.87100 30.81700
C  45.81700 15.54200 30.88200
C  43.10100 13.99000 28.73600
C  44.06200 14.73300 32.18000
O  43.10900 14.09300 32.60000
C  45.07800 15.35600 33.10600
C  44.29600 16.42200 33.93600
O  43.84300 17.46500 33.44800
O  44.10500 16.01800 35.19900
C  43.26600 16.93300 36.04700
H  51.23100 18.72100 31.78400
H  50.66700 17.12000 25.70800
H  45.07600 14.24100 26.94200
H  46.87000 17.57000 34.34900
H  49.94800 17.73900 34.01100
H  47.81300 19.59900 34.50700
H  48.62700 19.99600 33.00000
H  49.57000 19.97700 34.43700
H  48.86400 15.35200 34.33000
H  47.11900 15.26900 34.63300
H  49.35400 16.04600 36.35600
H  47.62800 15.64600 36.84000
H  53.47700 18.19900 31.04100
H  53.06200 19.80000 30.44000
H  54.33000 18.79900 29.72500
H  54.17200 19.92900 27.53100
H  54.95900 19.10000 26.24700
H  55.08100 18.30600 27.77800
H  49.38000 15.52800 24.69300
H  46.24000 15.60600 24.79400
H  48.16500 18.09100 24.63200
H  47.24300 17.05100 23.48600
H  48.98800 17.05200 23.33900
H  46.65300 13.13900 25.61500
H  48.19200 13.32800 24.62500
H  46.07500 14.21900 22.96100
H  45.47800 12.79500 23.78700
H  46.97600 12.76700 22.80100
H  43.41900 13.34400 27.91700
H  42.66800 14.85100 28.22700
H  42.47100 13.42600 29.42300
H  45.35100 14.51700 33.74600
H  43.63500 17.95400 35.94300
H  43.55800 16.62500 37.05100
H  42.20000 16.78900 35.87200
Mg 9.71800 48.69500 25.32700
C  7.49700 49.45300 27.92700
C  12.20000 50.07000 27.37700
C  11.71300 47.77900 23.04600
C  6.97800 47.80300 23.45100
N  9.82700 49.59700 27.46300
C  8.82600 49.78300 28.31300
C  9.28400 50.36700 29.59500
C  10.51300 51.19800 29.08300
C  10.91300 50.24800 27.89000
C  10.26800 52.62900 28.58700
C  9.67900 49.18600 30.64100
C  9.47900 49.52800 32.08100
H  9.00000 48.37600 33.01400
N  11.66200 48.90200 25.24300
C  12.58300 49.33000 26.18100
C  13.91800 49.06700 25.73700
C  13.83600 48.45800 24.44700
C  12.34900 48.31900 24.22600
C  15.15000 49.65800 26.38500
C  14.90800 47.91100 23.51800
O  14.63400 47.35700 22.46400
C  16.34300 47.94900 23.91200
N  9.33600 48.09700 23.35200
C  10.40600 47.66300 22.58700
C  10.01100 46.95300 21.28100
C  8.43600 47.14800 21.31800
C  8.20100 47.67600 22.80200
C  10.66200 47.48700 19.98400
C  7.60600 45.89500 21.02100
C  6.34000 46.06700 20.21000
N  7.57900 48.72100 25.49400
C  6.60300 48.21000 24.72300
C  5.34400 48.17000 25.40800
C  5.65800 48.64100 26.68500
C  7.01400 48.93300 26.68300
C  3.96600 47.75800 24.83800
C  5.05300 49.03300 27.92000
O  3.92100 48.93000 28.27900
C  6.27100 49.48000 28.81000
C  6.28600 48.78900 30.06800
O  6.67500 47.66000 30.24500
O  5.73900 49.60700 31.04800
C  5.47500 48.92400 32.34300
H  12.94600 50.56700 28.00100
H  12.38400 47.27800 22.34500
H  6.19500 47.29000 22.88900
H  8.48600 51.03700 29.91500
H  11.33000 51.12000 29.80100
H  9.19600 52.82200 28.56300
H  10.70800 52.67800 27.59100
H  10.73700 53.40200 29.19500
H  10.69700 48.81100 30.54300
H  9.12000 48.31400 30.30100
H  8.89800 50.43900 32.22300
H  10.45300 49.86000 32.44100
H  15.68000 48.76400 26.71200
H  14.98700 50.38600 27.18000
H  15.78400 50.18200 25.67000
H  16.85800 48.90700 23.98400
H  16.85800 47.45900 23.08500
H  16.43200 47.34400 24.81500
H  10.21400 45.90500 21.49900
H  8.15000 47.99100 20.69100
H  10.36800 46.77900 19.20800
H  11.71800 47.43700 20.24800
H  10.28900 48.49500 19.80400
H  7.32200 45.40400 21.95200
H  8.18400 45.13100 20.50200
H  6.49700 45.58300 19.24600
H  6.15600 47.14000 20.14900
H  5.40900 45.68100 20.62400
H  4.02800 46.67900 24.69500
H  3.76300 48.39400 23.97600
H  3.23100 47.90700 25.62900
H  6.16300 50.53600 29.05900
H  5.59100 47.84300 32.42800
H  4.47700 49.20200 32.68200
H  6.02200 49.39500 33.15900

