158

Mg 17.11900 -1.36800 27.72700
C  16.20200 0.49700 30.57700
C  19.05800 -3.47500 29.81400
C  18.42300 -2.79900 24.99100
C  15.80200 1.17900 25.71500
N  17.62100 -1.43000 29.89900
C  17.13700 -0.54900 30.83500
C  17.60000 -0.93700 32.25600
C  18.66400 -2.07100 31.97600
C  18.45000 -2.38500 30.46200
C  20.17800 -1.66700 32.39000
C  16.35500 -1.25800 33.15700
C  16.41300 -0.86500 34.66100
H  17.83900 -0.37000 35.14600
N  18.48900 -2.92500 27.44100
C  19.13400 -3.67800 28.42300
C  19.72100 -4.85200 27.86100
C  19.60800 -4.67400 26.41200
C  18.78000 -3.41600 26.25100
C  20.34900 -5.99500 28.53900
C  20.31400 -5.41500 25.27300
O  19.99900 -5.35500 24.07500
C  21.28800 -6.56900 25.57600
N  16.94600 -0.95800 25.67800
C  17.65600 -1.62500 24.70500
C  17.62800 -1.03900 23.29600
C  16.63200 0.17000 23.51700
C  16.36500 0.12100 25.04600
C  18.94300 -0.77100 22.55400
C  15.32000 0.04800 22.68200
C  15.11900 1.30600 21.70300
N  16.00000 0.29000 28.02100
C  15.60400 1.24600 27.12500
C  14.90700 2.25800 27.81800
C  15.09900 1.95400 29.13100
C  15.83600 0.78800 29.25200
C  14.19000 3.41500 27.26400
C  14.85500 2.52900 30.42700
O  14.20300 3.53900 30.71600
C  15.54200 1.58100 31.37900
C  16.54900 2.44200 32.07600
O  17.73800 2.55300 31.71800
O  15.96600 2.83400 33.23600
C  16.79200 3.68000 34.13100
H  19.55500 -4.18100 30.48300
H  18.73600 -3.22400 24.03500
H  15.39800 2.02000 25.14600
H  18.16600 -0.07300 32.60300
H  18.45100 -2.84800 32.70900
H  20.91000 -1.86600 31.60700
H  20.45300 -2.28900 33.24200
H  20.35100 -0.65400 32.75100
H  16.08300 -2.30600 33.02900
H  15.52900 -0.71800 32.69400
H  16.11100 -1.68500 35.31300
H  15.62800 -0.11100 34.72700
H  20.06700 -6.98700 28.18400
H  20.17200 -5.98600 29.61400
H  21.43300 -5.87800 28.53100
H  21.95900 -6.32400 26.40000
H  21.96700 -6.63000 24.72500
H  20.78900 -7.44800 25.98400
H  17.14900 -1.77100 22.64500
H  17.10300 1.14700 23.41300
H  18.93200 0.27500 22.24700
H  19.06200 -1.41800 21.68400
H  19.75200 -0.98900 23.25200
H  14.43300 0.25400 23.28200
H  15.23100 -0.93400 22.21700
H  14.85000 0.92500 20.71800
H  16.06000 1.84700 21.80700
H  14.30300 1.88100 22.14000
H  13.54900 3.07600 26.45000
H  14.80400 4.22300 26.86800
H  13.50700 3.78800 28.02800
H  14.79900 1.22800 32.09400
H  17.58000 4.19100 33.57800
H  17.08300 3.11300 35.01500
H  16.08600 4.37500 34.58500
Mg 47.34600 34.47400 26.89000
C  45.32400 33.06800 29.42300
C  47.58000 37.22700 28.66800
C  48.97700 35.80100 24.25500
C  46.72900 31.58400 24.92300
N  46.59300 34.99300 28.82000
C  45.85200 34.27300 29.74100
C  46.12700 34.88000 31.16700
C  46.44500 36.43100 30.84400
C  46.86600 36.24700 29.34000
C  45.38000 37.39900 31.19900
C  47.31200 34.20200 31.80500
C  47.67200 34.48100 33.25800
H  46.70100 35.21700 34.21400
N  48.15800 36.23500 26.46900
C  48.16900 37.27900 27.37600
C  48.91000 38.37200 26.83600
C  49.18200 38.00200 25.50800
C  48.75000 36.65500 25.37600
C  49.26500 39.63300 27.57900
C  49.72100 38.83400 24.29600
O  49.73800 38.34000 23.15600
C  50.07100 40.30100 24.39000
N  47.67200 33.83200 24.79000
C  48.37700 34.63700 23.93200
C  48.59900 34.02500 22.58200
C  48.10800 32.52900 22.88500
C  47.47400 32.60700 24.26600
C  47.95300 34.79000 21.41700
C  49.20000 31.44300 22.79800
C  48.82100 30.35200 21.75300
N  46.21800 32.71000 27.05200
C  46.14400 31.56500 26.19700
C  45.42300 30.48800 26.90400
C  44.99800 31.05400 28.09400
C  45.52400 32.42500 28.14500
C  45.15900 29.05000 26.42000
C  44.29700 30.83500 29.32800
O  43.72700 29.80200 29.70000
C  44.30000 32.16800 30.08800
C  44.53900 31.80200 31.53800
O  45.45800 31.12100 31.99500
O  43.59000 32.40600 32.29200
C  43.61800 32.13600 33.68200
H  47.62700 38.16300 29.22800
H  49.67600 36.10000 23.47100
H  46.60700 30.66100 24.35300
H  45.24300 34.75500 31.79200
H  47.28800 36.73700 31.46400
H  45.30500 38.12600 30.39000
H  45.61400 37.79200 32.18800
H  44.41900 36.88600 31.24400
H  48.17000 34.32100 31.14400
H  47.07900 33.13900 31.87300
H  48.46700 35.18600 33.01600
H  48.08600 33.57100 33.69300
H  50.32700 39.87800 27.57900
H  49.03000 39.59700 28.64200
H  48.72000 40.53600 27.30300
H  49.62500 40.75700 25.27400
H  49.43900 40.61600 23.55900
H  51.11800 40.50000 24.16100
H  49.66700 34.02400 22.36100
H  47.33100 32.27800 22.16200
H  48.67200 35.43200 20.90900
H  47.00500 35.31000 21.55700
H  47.82600 34.04100 20.63500
H  49.28200 30.91100 23.74600
H  50.12500 31.89700 22.44200
H  47.86100 30.47900 21.25400
H  48.72100 29.50300 22.42900
H  49.63000 30.12100 21.06000
H  45.82100 28.87100 25.57300
H  44.09400 28.94700 26.20900
H  45.30900 28.47500 27.33300
H  43.27900 32.54700 30.13300
H  42.68900 32.53800 34.08600
H  44.43500 32.70600 34.12500
H  43.81400 31.10100 33.96400

