158

Mg 48.16800 15.82800 29.02700
C  46.09900 15.79700 31.67800
C  50.55400 17.65700 30.69700
C  50.08300 15.71500 26.20800
C  45.58200 14.16000 27.11600
N  48.27900 16.55000 30.99000
C  47.28600 16.39900 31.95200
C  47.89500 16.82800 33.32200
C  49.09700 17.69200 32.90700
C  49.37300 17.31600 31.39900
C  48.95700 19.24100 33.11100
C  48.27800 15.54500 34.20700
C  48.04500 15.69000 35.74800
H  47.74600 17.10600 36.29500
N  50.12600 16.47500 28.56700
C  50.92100 17.19700 29.46500
C  52.16800 17.47500 28.72800
C  52.09700 16.76700 27.46700
C  50.73600 16.37400 27.35200
C  53.41100 18.04000 29.45000
C  53.10500 16.46400 26.46400
O  52.84500 15.84400 25.43500
C  54.58000 16.79600 26.83300
N  47.88600 15.10700 27.00800
C  48.76000 15.26800 26.05100
C  48.16100 14.95900 24.62100
C  46.92800 14.24000 24.94900
C  46.75900 14.47900 26.46400
C  48.12900 16.21400 23.70600
C  46.95700 12.73800 24.53600
C  46.16900 12.19400 23.42500
N  46.26700 15.10900 29.28400
C  45.37800 14.43000 28.48500
C  44.19400 14.01000 29.16000
C  44.39800 14.51300 30.44200
C  45.68000 15.20000 30.46400
C  43.11900 13.09400 28.62100
C  43.85700 14.54300 31.77900
O  42.79600 14.15600 32.20800
C  45.02700 15.31600 32.69400
C  44.40900 16.44800 33.47900
O  44.05100 17.51100 33.09700
O  44.11800 15.93200 34.74000
C  43.16200 16.65500 35.59000
H  51.35800 18.13600 31.26000
H  50.57800 15.83800 25.24200
H  44.73000 13.80300 26.53300
H  47.15900 17.35600 33.92700
H  50.07200 17.48000 33.34600
H  47.99500 19.55300 33.51800
H  48.91400 19.68100 32.11500
H  49.73300 19.69700 33.72700
H  49.34600 15.59100 33.99600
H  47.85900 14.61100 33.83200
H  48.88400 15.38600 36.37300
H  47.25100 15.04000 36.11500
H  53.06000 18.85800 30.07900
H  54.04600 18.61900 28.78000
H  53.85200 17.20400 29.99300
H  55.02300 16.32900 27.71300
H  54.58800 17.87900 26.94900
H  55.13500 16.56900 25.92300
H  48.77500 14.23700 24.08300
H  46.08600 14.64900 24.38900
H  48.53200 17.04900 24.28000
H  47.11300 16.49400 23.42800
H  48.73800 15.99300 22.82900
H  46.52100 12.17400 25.36100
H  47.96700 12.34100 24.43200
H  46.57800 11.23100 23.12000
H  46.22500 12.94000 22.63200
H  45.11900 12.14300 23.71100
H  43.25000 12.70200 27.61200
H  42.17700 13.62400 28.48300
H  43.02700 12.21300 29.25600
H  45.42300 14.56700 33.38000
H  43.72500 17.41600 36.13000
H  42.73700 16.12500 36.44300
H  42.38600 17.06400 34.94300
Mg 4.96700 54.84500 40.38900
C  4.47700 51.47200 41.05100
C  7.69200 54.21000 38.55500
C  4.76100 57.99600 39.24100
C  1.67600 55.34800 41.75200
N  5.85400 53.00800 39.70700
C  5.60800 51.73900 40.25100
C  6.58600 50.73100 39.70500
C  7.84100 51.69700 39.36600
C  7.09600 53.03700 39.19000
C  8.93100 51.70000 40.46900
C  6.13700 49.86400 38.49000
C  4.83000 50.20300 37.74100
H  4.94500 49.76500 36.25800
N  6.11700 56.04400 39.08000
C  7.21200 55.56100 38.45600
C  7.82100 56.68800 37.81300
C  7.03700 57.78000 38.00100
C  5.92100 57.34200 38.80100
C  9.16800 56.52700 37.07700
C  7.35400 59.15200 37.40700
O  8.21000 59.35500 36.50000
C  6.69700 60.35900 37.94800
N  3.32500 56.35100 40.36500
C  3.61300 57.56100 39.87500
C  2.49100 58.57500 40.21100
C  1.37600 57.73600 40.74800
C  2.14700 56.40700 40.94600
C  2.90400 59.75600 41.09900
C  0.12600 57.62200 39.74900
C  -1.27600 58.04300 40.40600
N  3.46600 53.73900 41.44400
C  2.26900 54.06500 41.99300
C  1.78000 52.95900 42.81000
C  2.73600 51.94600 42.52100
C  3.64100 52.42700 41.64200
C  0.47000 52.93900 43.74600
C  3.02100 50.52900 42.81900
O  2.59100 49.75400 43.56600
C  4.14900 50.19500 41.76800
C  3.58100 49.13100 40.89200
O  2.62100 49.34100 40.13200
O  4.32200 47.95400 41.03700
C  3.87400 46.72700 40.34400
H  8.70900 54.01800 38.20600
H  4.61000 59.01600 38.88300
H  0.71100 55.51700 42.23300
H  6.72900 50.10200 40.58400
H  8.25600 51.26400 38.45500
H  8.76700 50.86500 41.15000
H  8.93400 52.64800 41.00500
H  9.90300 51.64100 39.97900
H  5.92000 48.91400 38.97800
H  6.94000 49.63600 37.79000
H  4.68000 51.28000 37.80600
H  3.99900 49.61200 38.12800
H  9.80300 57.38700 36.86300
H  9.17300 55.94700 36.15500
H  9.74100 55.94100 37.79600
H  7.29700 61.24100 37.72100
H  6.46100 60.27500 39.00900
H  5.80600 60.40100 37.32200
H  2.20200 59.04200 39.27000
H  0.99500 58.13000 41.69000
H  2.30500 59.92300 41.99400
H  2.61000 60.69100 40.62100
H  3.98000 59.67200 41.25400
H  0.03700 56.61400 39.34200
H  0.20800 58.31100 38.90900
H  -1.15500 58.66700 41.29200
H  -1.74700 57.16500 40.84800
H  -1.90600 58.57500 39.69400
H  0.68800 52.69400 44.78500
H  -0.32100 52.30400 43.34800
H  -0.01800 53.91400 43.75900
H  5.00600 49.69600 42.22200
H  3.87500 45.86800 41.01500
H  4.55500 46.41200 39.55300
H  2.89500 46.77100 39.86600

