158

Mg 48.76000 34.62400 25.76700
C  46.78100 33.24200 28.27300
C  48.96900 37.48600 27.63000
C  50.40300 36.01500 23.27600
C  48.15200 31.72900 23.90300
N  47.92100 35.29300 27.73400
C  47.25900 34.52500 28.59500
C  47.11100 35.22600 29.98000
C  47.54400 36.68100 29.59800
C  48.13800 36.55700 28.20100
C  46.41100 37.78300 29.67300
C  48.13800 34.60000 31.04400
C  47.70400 34.41100 32.42400
H  46.49600 35.24900 32.92000
N  49.75600 36.44900 25.56200
C  49.69400 37.54700 26.38000
C  50.61000 38.55900 25.90900
C  51.10100 38.08200 24.68900
C  50.36500 36.81300 24.44900
C  51.00200 39.74700 26.83400
C  52.28100 38.52200 23.88400
O  52.72000 37.85300 23.02800
C  52.81800 39.89200 24.18800
N  49.22200 33.98600 23.83500
C  49.80800 34.76200 22.95600
C  50.16400 33.96100 21.66200
C  49.51600 32.53700 21.91200
C  48.89300 32.74600 23.33200
C  49.92600 34.65700 20.24900
C  50.44100 31.35500 21.85900
C  51.70100 31.40700 22.74400
N  47.60000 32.87900 25.89200
C  47.54400 31.73800 25.12800
C  46.64400 30.76600 25.71800
C  46.33100 31.30700 26.96800
C  46.86000 32.62100 26.97200
C  46.31700 29.48000 25.18600
C  45.72600 31.03000 28.20700
O  45.16800 30.06500 28.59200
C  46.09600 32.25400 29.09800
C  46.65000 31.70200 30.32600
O  47.78300 31.31900 30.41100
O  45.65800 31.50800 31.27300
C  46.11300 30.60600 32.32300
H  49.05300 38.38300 28.24700
H  51.06100 36.46700 22.53100
H  48.04000 30.89400 23.20800
H  46.11000 35.19700 30.41000
H  48.33400 37.05900 30.24600
H  46.16200 38.41000 28.81700
H  46.79000 38.48400 30.41700
H  45.49400 37.27200 29.96800
H  49.01800 35.24200 31.07000
H  48.47100 33.63500 30.66100
H  48.56800 34.46600 33.08700
H  47.43700 33.37100 32.61400
H  50.54700 39.82100 27.82200
H  50.70000 40.61700 26.25000
H  52.07200 39.83700 27.02100
H  53.62300 39.71300 24.90000
H  52.17700 40.66900 24.60400
H  53.24400 40.33400 23.28700
H  51.23100 33.84700 21.85600
H  48.75200 32.32500 21.16500
H  49.26500 35.51800 20.34200
H  49.52200 33.98400 19.49300
H  50.90300 34.97600 19.88600
H  50.77200 31.26200 20.82500
H  49.98300 30.37200 21.97400
H  51.74100 32.40400 23.18300
H  52.59800 31.25400 22.14400
H  51.90000 30.65400 23.50600
H  46.71100 28.71900 25.86000
H  46.78900 29.36200 24.21100
H  45.23200 29.44500 25.08500
H  45.10900 32.67800 29.28200
H  45.36200 30.72900 33.10300
H  47.01000 30.96000 32.83100
H  46.16300 29.57700 31.96700
Mg -5.80400 24.98300 25.56800
C  -4.66500 26.64800 28.59300
C  -7.52700 22.91800 27.51100
C  -6.31100 23.15600 22.91100
C  -3.65800 27.06300 23.78700
N  -6.07800 24.79900 27.77800
C  -5.57800 25.64900 28.81000
C  -6.18000 25.12900 30.18700
C  -6.83500 23.73800 29.76400
C  -6.79000 23.79400 28.24200
C  -6.23800 22.46200 30.40700
C  -7.25000 26.21300 30.73300
C  -7.11800 26.66100 32.24200
H  -6.20600 25.77300 33.12400
N  -6.74100 23.27200 25.24200
C  -7.52400 22.63300 26.14200
C  -8.34800 21.63300 25.49500
C  -7.96600 21.63000 24.13100
C  -6.93000 22.67100 24.04000
C  -9.33700 20.78300 26.24200
C  -8.35300 20.64100 23.00100
O  -7.82600 20.68000 21.89300
C  -9.35200 19.55400 23.14300
N  -4.94500 25.01100 23.60800
C  -5.48200 24.28300 22.66800
C  -4.84600 24.50600 21.26900
C  -4.01500 25.83600 21.48300
C  -4.24400 26.04100 23.00300
C  -3.96600 23.32100 20.61600
C  -4.25000 27.07800 20.51200
C  -3.12100 27.29600 19.46700
N  -4.45500 26.57100 26.05700
C  -3.71000 27.35100 25.20100
C  -3.01700 28.37800 25.93900
C  -3.35000 28.16700 27.26400
C  -4.24700 27.07000 27.30600
C  -2.23900 29.50500 25.28000
C  -3.13700 28.58200 28.64800
O  -2.45800 29.54900 29.02100
C  -4.09400 27.73700 29.55300
C  -3.28700 27.23200 30.73800
O  -2.79700 26.13200 30.91500
O  -3.24900 28.29000 31.59200
C  -2.36400 28.13800 32.67500
H  -8.05800 22.19400 28.13300
H  -6.50200 22.63600 21.97000
H  -3.02900 27.78000 23.25500
H  -5.49000 24.81800 30.97100
H  -7.88400 23.71900 30.05800
H  -5.90700 21.77900 29.62500
H  -7.00400 22.03400 31.05400
H  -5.42200 22.65700 31.10400
H  -8.22700 25.77700 30.52300
H  -7.15200 27.13800 30.16400
H  -8.03900 26.86400 32.78800
H  -6.69300 27.65900 32.35000
H  -8.89000 19.78900 26.22500
H  -10.22800 20.74500 25.61600
H  -9.63100 21.06300 27.25400
H  -10.27700 20.12300 23.05500
H  -9.24300 19.07800 24.11800
H  -9.43000 18.79200 22.36700
H  -5.65600 24.85600 20.62900
H  -2.96800 25.57000 21.34100
H  -2.91600 23.56000 20.44800
H  -4.31500 23.08800 19.61000
H  -3.95300 22.42400 21.23500
H  -4.31800 27.90300 21.22000
H  -5.24500 26.93800 20.08800
H  -2.23400 27.40500 20.09100
H  -3.21200 28.25900 18.96500
H  -2.98500 26.52800 18.70600
H  -1.90600 30.17200 26.07600
H  -2.90300 30.10900 24.66200
H  -1.37300 29.12800 24.73600
H  -4.87900 28.35800 29.98300
H  -1.41700 27.91900 32.18200
H  -2.71100 27.51900 33.50300
H  -2.25700 29.14700 33.07200

