158

Mg 24.52000 -6.94800 47.79000
C  27.04200 -4.76500 46.81100
C  22.44000 -5.68100 45.27200
C  22.37000 -9.45300 48.26900
C  26.88600 -8.64100 49.80500
N  24.76000 -5.45400 46.15400
C  25.92400 -4.69600 45.95000
C  25.64900 -3.67600 44.84900
C  24.10400 -3.92000 44.53200
C  23.74300 -5.16800 45.30900
C  23.22700 -2.64100 44.61800
C  26.55300 -3.96900 43.59600
C  27.31000 -2.83000 43.03700
H  27.17000 -2.36600 41.52900
N  22.56000 -7.38900 47.04200
C  21.88600 -6.71300 46.06400
C  20.58100 -7.34300 45.88300
C  20.47400 -8.41500 46.80400
C  21.80000 -8.46600 47.46500
C  19.58000 -6.85800 44.88900
C  19.22600 -9.28800 47.06200
O  18.14200 -8.94600 46.50600
C  19.29400 -10.49900 47.87900
N  24.66900 -8.74200 48.92900
C  23.50800 -9.51800 49.03200
C  23.82900 -10.77500 49.90900
C  25.22900 -10.51700 50.42000
C  25.65600 -9.18800 49.68800
C  22.73900 -11.23600 50.95600
C  26.29300 -11.67600 50.32200
C  27.30400 -11.57600 51.43400
N  26.60100 -6.76300 48.27800
C  27.39400 -7.47600 49.17300
C  28.67100 -6.85000 49.35800
C  28.61700 -5.75300 48.41500
C  27.28700 -5.77900 47.80400
C  29.85200 -7.25800 50.29500
C  29.28400 -4.63300 47.84200
O  30.37800 -4.22500 48.11500
C  28.30900 -3.94100 46.79300
C  28.24800 -2.42600 47.18800
O  28.12800 -1.86400 48.31000
O  28.31400 -1.72300 46.02900
C  28.08200 -0.26400 46.19700
H  21.82600 -5.17300 44.52600
H  21.64900 -10.25800 48.42400
H  27.63100 -9.00500 50.51600
H  25.93300 -2.65800 45.11400
H  23.98100 -4.22900 43.49400
H  23.84300 -1.75200 44.75000
H  22.45700 -2.76100 45.38100
H  22.66600 -2.47700 43.69800
H  25.94100 -4.38800 42.79800
H  27.21100 -4.80600 43.83200
H  28.34100 -3.17400 43.11400
H  27.35700 -1.95700 43.68800
H  19.51200 -7.75900 44.27900
H  19.87700 -5.94800 44.36700
H  18.62300 -6.57300 45.32500
H  19.36600 -10.33600 48.95400
H  20.15700 -11.03200 47.48100
H  18.36600 -10.97700 47.56500
H  23.81600 -11.56600 49.15900
H  24.98700 -10.38800 51.47500
H  21.74000 -10.90000 50.67700
H  22.98100 -10.70100 51.87400
H  22.72900 -12.31500 51.11200
H  26.76100 -11.75500 49.34000
H  25.79800 -12.63100 50.49600
H  27.28600 -12.47000 52.05800
H  27.38400 -10.63700 51.98100
H  28.25200 -11.64100 50.90100
H  30.31500 -8.14400 49.85900
H  29.46400 -7.48200 51.28800
H  30.52700 -6.40300 50.29000
H  28.85200 -3.92500 45.84800
H  28.26500 0.18800 45.22200
H  28.65400 0.20200 46.99900
H  27.06100 -0.08800 46.53600
Mg 47.77100 15.16300 28.36800
C  45.86500 15.26400 31.34200
C  49.93600 17.35300 29.82100
C  49.32600 15.30800 25.47900
C  45.16500 13.19700 26.87500
N  47.89300 16.19300 30.42100
C  47.07000 16.06300 31.48200
C  47.68100 16.73500 32.70300
C  48.89500 17.51000 32.11600
C  48.87400 17.06500 30.67100
C  48.82500 19.01500 32.34600
C  47.88700 15.83900 33.86100
C  47.14900 16.08000 35.23500
H  47.02500 17.49000 35.76500
N  49.35000 16.16600 27.72300
C  50.12200 17.06300 28.43800
C  51.29000 17.43500 27.65100
C  51.18400 16.79600 26.39700
C  49.92000 16.01900 26.50500
C  52.34100 18.36300 28.14500
C  51.99800 16.99600 25.16100
O  51.81900 16.36500 24.12500
C  53.22600 17.86400 25.25000
N  47.32400 14.31700 26.46400
C  48.12600 14.50700 25.41500
C  47.59700 13.95700 24.10500
C  46.32300 13.26600 24.57000
C  46.27500 13.58300 26.06300
C  47.36200 15.12200 22.97800
C  46.18300 11.67400 24.28600
C  46.87600 10.66900 25.23100
N  45.98000 14.37800 28.95200
C  45.00700 13.60800 28.22800
C  43.85600 13.31000 29.05300
C  44.22100 13.96400 30.26700
C  45.46600 14.56600 30.14000
C  42.66300 12.42400 28.69300
C  43.70800 14.16300 31.62200
O  42.65800 13.65700 32.08300
C  44.82400 14.96300 32.44400
C  44.02100 16.13900 32.94700
O  43.82800 17.17400 32.33900
O  43.55100 15.89700 34.24000
C  42.75800 16.98000 34.85100
H  50.64500 18.07400 30.23200
H  49.92000 15.27600 24.56400
H  44.29500 12.64200 26.51800
H  46.86600 17.39300 33.00700
H  49.75000 17.01700 32.57900
H  48.10900 19.24800 33.13400
H  48.56800 19.61100 31.47100
H  49.77700 19.43400 32.67400
H  48.93100 15.82800 34.17300
H  47.51500 14.89300 33.46500
H  47.72800 15.37000 35.82600
H  46.09700 15.81300 35.13200
H  52.07200 19.40400 27.96200
H  53.36700 18.16100 27.83700
H  52.45500 18.36300 29.22900
H  53.17100 18.85000 25.71000
H  53.39300 18.06000 24.19100
H  54.05800 17.34900 25.72900
H  48.39000 13.26800 23.81500
H  45.45400 13.68000 24.05800
H  46.49600 14.85900 22.37000
H  48.21200 15.04500 22.30000
H  47.36300 16.10400 23.45100
H  46.49400 11.54000 23.25000
H  45.14600 11.36800 24.42800
H  47.39200 11.11800 26.07900
H  47.63900 10.10800 24.69100
H  46.19200 9.90300 25.59600
H  42.99900 11.56300 28.11600
H  42.05500 13.07500 28.06400
H  42.06100 12.03500 29.51500
H  45.11800 14.51200 33.39200
H  41.74300 16.67500 35.10700
H  42.60100 17.90000 34.28800
H  43.25300 17.31000 35.76400

