158

Mg 25.67600 -7.37500 47.90200
C  27.74300 -4.75300 46.85900
C  23.35500 -6.60700 45.58400
C  23.71200 -9.79700 49.33900
C  28.39900 -8.71400 49.84400
N  25.71300 -5.92800 46.26300
C  26.58300 -4.87800 46.05000
C  26.00300 -3.81500 45.10500
C  24.62100 -4.47000 44.68700
C  24.47700 -5.72600 45.62300
C  23.43100 -3.47200 44.66300
C  26.93000 -3.47600 43.89000
C  27.05900 -2.03300 43.58300
H  26.63300 -1.67000 42.20300
N  23.75900 -8.14600 47.46500
C  23.01800 -7.75400 46.42100
C  21.89400 -8.63000 46.35000
C  21.86900 -9.40900 47.48700
C  23.16000 -9.08900 48.20700
C  20.96800 -8.67600 45.17400
C  20.68300 -10.38000 47.94900
O  19.61400 -10.52400 47.35500
C  20.75100 -11.16000 49.28000
N  26.05400 -9.04500 49.32300
C  25.03800 -9.86100 49.76500
C  25.55900 -11.02400 50.64200
C  27.03200 -10.58700 50.85700
C  27.20900 -9.38000 49.93100
C  24.74800 -11.17200 51.99700
C  28.01100 -11.80400 50.58000
C  29.06600 -12.00000 51.67800
N  27.67000 -6.88000 48.32600
C  28.61900 -7.48700 49.08400
C  29.72900 -6.55100 49.11000
C  29.42700 -5.44900 48.32500
C  28.17300 -5.72000 47.80400
C  31.16700 -6.76700 49.62200
C  30.01000 -4.21400 47.74100
O  31.03800 -3.64300 47.93400
C  28.81500 -3.66200 46.90200
C  28.26100 -2.34300 47.57500
O  27.74000 -2.25000 48.66900
O  28.42700 -1.29100 46.66600
C  27.87900 0.04400 46.94300
H  22.60000 -6.40300 44.82200
H  23.04900 -10.44500 49.91600
H  29.36500 -9.00300 50.26300
H  25.89500 -2.90600 45.69700
H  24.65900 -4.81300 43.65300
H  22.53600 -3.95500 45.05400
H  23.34200 -3.18200 43.61600
H  23.62100 -2.53600 45.18900
H  26.48600 -3.97600 43.02800
H  27.88800 -3.96200 44.07200
H  28.12900 -1.82500 43.57300
H  26.40700 -1.49500 44.27100
H  21.43100 -8.07100 44.39400
H  19.97500 -8.29800 45.41900
H  20.92400 -9.73400 44.91700
H  21.60100 -11.84100 49.24300
H  19.86600 -11.78500 49.39300
H  20.84600 -10.57000 50.19200
H  25.54400 -11.97500 50.11000
H  27.17000 -10.10700 51.82600
H  24.20000 -12.11300 52.03100
H  24.04500 -10.38300 52.26600
H  25.44200 -11.26900 52.83300
H  28.55300 -11.58300 49.66100
H  27.50600 -12.75600 50.41900
H  30.04100 -11.86000 51.21200
H  29.04600 -13.03600 52.01700
H  28.85000 -11.40400 52.56500
H  31.78600 -7.20600 48.83900
H  31.26900 -7.43300 50.47800
H  31.51600 -5.81600 50.02400
H  29.14900 -3.35900 45.91000
H  26.82000 0.04300 47.20300
H  28.00900 0.66500 46.05700
H  28.46500 0.28000 47.83100
Mg 47.11100 24.53400 28.73800
C  47.82200 26.73800 31.29900
C  45.84300 22.33300 31.28600
C  46.66000 22.22400 26.46500
C  48.30200 26.84100 26.42500
N  46.64100 24.64400 30.98400
C  47.08900 25.64700 31.79600
C  46.80200 25.37500 33.25500
C  46.32200 23.94800 33.27300
C  46.26600 23.57200 31.76300
C  47.14500 22.92000 34.16900
C  45.85300 26.49800 33.76400
C  45.93600 26.97300 35.20900
H  46.58800 26.14000 36.41000
N  46.34300 22.54100 28.83800
C  45.93600 21.81900 29.95600
C  45.59200 20.46200 29.55100
C  45.80300 20.38700 28.14200
C  46.25900 21.73700 27.76800
C  44.89100 19.40300 30.49200
C  45.51100 19.24300 27.19700
O  45.83700 19.22800 26.01100
C  44.72300 18.08300 27.58200
N  47.31100 24.60600 26.70800
C  47.08300 23.46200 25.97100
C  47.35400 23.75800 24.51000
C  47.63900 25.29900 24.46000
C  47.75300 25.66500 25.92800
C  48.52800 22.94000 23.80500
C  46.45000 26.04600 23.83700
C  45.05700 25.82200 24.38700
N  47.93800 26.32800 28.75500
C  48.42700 27.11000 27.75200
C  49.13800 28.25200 28.34100
C  48.91200 28.10400 29.67900
C  48.17400 26.93400 29.90800
C  49.90800 29.25700 27.63900
C  49.12500 28.79500 30.93300
O  49.65500 29.87200 31.23200
C  48.42900 27.92900 32.02400
C  49.32600 27.51400 33.13700
O  50.01900 26.49200 33.04100
O  49.32100 28.40600 34.17900
C  50.03500 28.08700 35.45200
H  45.60300 21.69200 32.13600
H  46.66100 21.49600 25.65100
H  48.64200 27.60400 25.72100
H  47.69300 25.54300 33.86100
H  45.29800 23.85500 33.63700
H  46.46100 22.55800 34.93700
H  48.06200 23.25500 34.65300
H  47.34500 21.99800 33.62400
H  44.83100 26.21100 33.51600
H  45.98800 27.36700 33.12000
H  44.89800 27.06300 35.52900
H  46.20100 28.02900 35.15400
H  43.99300 18.94100 30.08300
H  44.56900 19.77000 31.46700
H  45.59800 18.57300 30.50200
H  43.74900 18.41600 27.94200
H  45.30800 17.49900 28.29200
H  44.47500 17.42300 26.75000
H  46.45400 23.41000 24.00300
H  48.53500 25.71600 24.00000
H  49.18900 23.68000 23.35400
H  48.05800 22.20100 23.15700
H  49.04400 22.42200 24.61400
H  46.56000 25.73900 22.79700
H  46.58700 27.12600 23.88600
H  44.54100 26.76700 24.55500
H  45.14400 25.19000 25.27000
H  44.45900 25.26700 23.66500
H  49.42500 30.22400 27.49800
H  50.39500 28.93000 26.72000
H  50.72900 29.59800 28.27000
H  47.58800 28.52900 32.37000
H  49.28300 27.92900 36.22500
H  50.55200 28.99900 35.75000
H  50.72100 27.28300 35.18700

