158

Mg -2.03000 17.02800 25.82800
C  -2.15000 14.75200 28.47100
C  -2.12700 19.63200 28.13500
C  -2.33200 19.11500 23.32100
C  -2.12200 14.28200 23.64100
N  -2.27700 17.16000 28.00000
C  -2.30300 16.07100 28.88200
C  -2.61300 16.53000 30.29800
C  -2.55300 18.12400 30.15000
C  -2.33500 18.37700 28.69400
C  -3.82400 18.94400 30.65000
C  -1.54200 16.09300 31.29700
C  -1.51100 16.83300 32.65800
H  -1.22400 16.06200 33.97100
N  -2.24800 19.16600 25.74700
C  -2.08800 20.01900 26.77300
C  -2.22900 21.39400 26.25500
C  -2.25600 21.31900 24.84500
C  -2.28000 19.86200 24.55000
C  -2.45200 22.62100 27.07900
C  -2.30900 22.35500 23.79000
O  -2.47000 22.12800 22.62300
C  -2.10100 23.73400 24.17300
N  -2.20500 16.76300 23.83600
C  -2.28000 17.82300 22.92000
C  -2.24700 17.27600 21.49200
C  -2.01300 15.72300 21.64200
C  -2.17000 15.54700 23.12100
C  -3.54700 17.59300 20.73600
C  -0.59300 15.23000 21.09000
C  -0.57700 14.23500 19.92800
N  -2.07100 14.94500 25.97500
C  -2.00900 14.03900 25.00700
C  -1.95800 12.74900 25.56400
C  -2.03300 12.99500 26.91200
C  -2.02300 14.36200 27.15100
C  -1.77100 11.44800 24.86800
C  -1.89600 12.38300 28.16000
O  -1.76600 11.22400 28.44700
C  -1.99100 13.45200 29.26500
C  -0.86000 13.29900 30.24100
O  0.23600 13.82900 30.11000
O  -1.26400 12.51600 31.29400
C  -0.25100 12.21900 32.26500
H  -1.85300 20.43800 28.81900
H  -2.44100 19.75900 22.44500
H  -2.18200 13.43300 22.95600
H  -3.58700 16.23900 30.69200
H  -1.69600 18.57800 30.64800
H  -4.21400 19.46900 29.77900
H  -3.57600 19.66700 31.42800
H  -4.66200 18.28300 30.87200
H  -0.58600 16.24100 30.79500
H  -1.71700 15.07300 31.64200
H  -2.43800 17.39900 32.74700
H  -0.61900 17.44000 32.50800
H  -3.44400 22.97500 26.79500
H  -1.67600 23.38600 27.04100
H  -2.49800 22.33300 28.12900
H  -1.16200 23.91700 24.69400
H  -2.91600 24.06900 24.81600
H  -2.02200 24.40300 23.31700
H  -1.44400 17.74200 20.92100
H  -2.73100 15.10300 21.10500
H  -4.35000 18.21100 21.14000
H  -4.05000 16.64500 20.54600
H  -3.19900 17.97700 19.77700
H  -0.06000 14.86900 21.97000
H  -0.10400 16.18400 20.89800
H  0.17600 13.45600 20.05000
H  -0.35500 14.69700 18.96600
H  -1.52800 13.72500 19.78100
H  -1.36900 10.70600 25.55600
H  -1.09800 11.60900 24.02500
H  -2.79900 11.17100 24.63200
H  -2.94100 13.27400 29.76800
H  -0.65900 12.05100 33.26100
H  0.54900 12.95900 32.29500
H  0.36400 11.35300 32.01900
Mg 30.51100 57.97800 40.10000
C  27.71300 56.12100 39.15700
C  32.51000 55.53700 38.53500
C  33.11300 60.11400 40.07800
C  28.47100 60.48600 41.15000
N  30.10000 56.03300 38.98200
C  28.87900 55.49000 38.83900
C  28.98000 54.06900 38.14300
C  30.53600 53.75600 38.50100
C  31.12800 55.21100 38.65900
C  30.69400 52.93600 39.80300
C  28.85100 54.12800 36.61000
C  27.78800 53.37200 35.93800
H  26.85700 54.16700 35.02600
N  32.59400 57.82000 39.45600
C  33.15300 56.74900 38.75000
C  34.51100 57.08300 38.55300
C  34.74300 58.36800 39.00400
C  33.46600 58.87300 39.49600
C  35.56600 56.20300 37.81100
C  36.13800 59.09000 38.89100
O  37.05100 58.54300 38.24200
C  36.42700 60.49400 39.46500
N  30.71300 59.96200 40.52400
C  31.91100 60.63000 40.53200
C  31.74900 62.06200 41.05000
C  30.20300 62.21000 41.39300
C  29.75500 60.78900 40.97300
C  32.76200 62.39600 42.17600
C  29.39300 63.35700 40.65700
C  28.33300 64.18500 41.40700
N  28.42800 58.29000 40.26000
C  27.75300 59.33800 40.73100
C  26.33300 59.03100 40.64500
C  26.25000 57.76200 40.09100
C  27.55400 57.37200 39.84400
C  25.23200 59.88200 41.16300
C  25.37400 56.69800 39.76900
O  24.16600 56.52600 39.83300
C  26.31200 55.59900 39.16000
C  26.28900 54.40700 40.07500
O  26.76500 54.42300 41.19700
O  25.73000 53.36600 39.38100
C  25.48500 52.06700 40.09300
H  33.09000 54.64600 38.28800
H  33.94300 60.82300 40.10100
H  27.79100 61.27900 41.46600
H  28.27300 53.36300 38.57600
H  31.03800 53.11500 37.77700
H  29.76800 52.98100 40.37600
H  31.52000 53.33000 40.39500
H  30.86800 51.87200 39.64100
H  29.82000 53.97100 36.13500
H  28.66600 55.16600 36.33500
H  27.15100 52.93400 36.70600
H  28.12000 52.52600 35.33600
H  35.99200 56.78400 36.99300
H  34.97000 55.44900 37.29800
H  36.23400 55.70000 38.51100
H  36.11200 60.54300 40.50800
H  35.70500 61.14400 38.97100
H  37.48100 60.75800 39.37800
H  32.03200 62.64500 40.17300
H  30.15500 62.25700 42.48100
H  33.42300 61.54700 42.34900
H  32.23700 62.62700 43.10200
H  33.36600 63.21900 41.79300
H  28.81500 62.90900 39.84800
H  30.04400 64.09800 40.19200
H  28.68100 65.20400 41.57400
H  28.11400 63.64000 42.32600
H  27.38900 64.23700 40.86500
H  25.54400 60.92600 41.18100
H  24.80700 59.71800 42.15400
H  24.50300 59.74400 40.36500
H  25.96300 55.19700 38.20900
H  24.80400 52.33100 40.90200
H  26.38100 51.55700 40.44900
H  24.95900 51.46600 39.35100

