158

Mg 17.17400 51.48500 26.40600
C  19.04900 50.33500 29.16100
C  14.63900 52.31600 28.51800
C  15.45500 52.39100 23.71200
C  19.79700 50.27600 24.23600
N  16.83000 51.30400 28.55700
C  17.80200 50.95800 29.55400
C  17.29500 51.14200 30.96700
C  15.81100 51.64400 30.67400
C  15.74300 51.79500 29.14900
C  14.66200 50.79200 31.24800
C  17.97900 52.16200 31.82300
C  17.97500 51.90100 33.38400
H  17.48400 53.06800 34.31400
N  15.27800 52.22800 26.14000
C  14.39100 52.50600 27.13300
C  13.20800 52.95800 26.49600
C  13.32200 52.89800 25.09500
C  14.75300 52.51400 24.95400
C  11.96600 53.30500 27.34600
C  12.31400 53.22300 24.09300
O  12.58400 53.09100 22.90400
C  10.97200 53.90100 24.43400
N  17.55300 51.28400 24.24500
C  16.72600 51.90200 23.40000
C  17.30400 51.89000 21.97000
C  18.81600 51.46400 22.22100
C  18.72900 50.94300 23.62700
C  16.65100 50.95800 20.93100
C  19.98400 52.38500 22.02600
C  20.80000 51.97900 20.78400
N  18.97000 50.41700 26.58500
C  19.91200 50.03600 25.62800
C  21.04300 49.38900 26.30000
C  20.70700 49.43800 27.69600
C  19.47400 50.05100 27.81300
C  22.25900 48.86900 25.61000
C  21.08100 49.11100 29.05900
O  22.08000 48.53300 29.41400
C  20.09500 49.69600 30.09400
C  19.69100 48.69900 31.06800
O  19.16400 47.60400 30.84600
O  20.11800 49.14300 32.31100
C  19.80600 48.45800 33.57300
H  13.85300 52.50600 29.25100
H  14.93800 52.89600 22.89300
H  20.65500 50.02400 23.61000
H  17.32600 50.17700 31.47200
H  15.61500 52.64700 31.05300
H  15.06000 50.03400 31.92400
H  14.25300 50.14600 30.47200
H  13.87300 51.30800 31.79600
H  17.58000 53.17300 31.73900
H  19.00100 52.23800 31.45100
H  18.95900 51.51500 33.65100
H  17.20000 51.14400 33.51000
H  12.03300 54.26400 27.86000
H  11.84300 52.58000 28.15100
H  10.96900 53.33700 26.90600
H  11.14400 54.76700 25.07400
H  10.28700 53.19300 24.90000
H  10.45900 54.19600 23.51800
H  17.28000 52.89000 21.53700
H  19.02100 50.65200 21.52300
H  15.86800 51.33300 20.27100
H  16.22600 50.07400 21.40800
H  17.42300 50.63500 20.23200
H  20.57400 52.37400 22.94300
H  19.63500 53.40800 21.88200
H  20.40400 51.14800 20.20000
H  21.81800 51.83200 21.14500
H  20.83900 52.83400 20.10900
H  22.66700 49.54700 24.86000
H  21.85300 47.93200 25.22800
H  23.06900 48.72100 26.32400
H  20.59200 50.51000 30.62300
H  18.90900 48.93600 33.96600
H  20.61300 48.52500 34.30300
H  19.63500 47.39200 33.42600
Mg -11.45500 37.69800 42.72800
C  -8.81700 35.44600 41.91900
C  -9.57600 40.22200 41.34300
C  -14.03800 39.69200 42.63900
C  -13.54900 34.87100 43.34800
N  -9.57200 37.71400 41.53600
C  -8.56400 36.70000 41.43400
C  -7.38300 37.23300 40.78100
C  -7.49400 38.73600 41.06400
C  -8.96300 38.93800 41.30100
C  -6.70400 39.13500 42.31500
C  -7.60900 36.86400 39.24200
C  -6.40800 36.90100 38.25000
H  -6.25900 35.81500 37.15200
N  -11.72500 39.81400 42.23500
C  -10.85200 40.70700 41.65400
C  -11.40500 42.02900 41.44000
C  -12.75600 41.88700 41.99900
C  -12.91600 40.47900 42.37200
C  -10.59100 43.21700 40.87800
C  -13.67600 43.10800 42.12600
O  -13.44200 44.19800 41.66100
C  -15.09400 42.89500 42.75000
N  -13.47500 37.37200 42.89100
C  -14.39900 38.32000 42.89200
C  -15.83600 37.91600 43.04400
C  -15.54800 36.39200 43.47800
C  -14.14900 36.16800 43.15300
C  -16.53300 38.67500 44.13100
C  -16.52100 35.39200 42.92000
C  -17.01900 34.26500 43.90900
N  -11.30000 35.60500 42.82600
C  -12.19400 34.57000 43.13700
C  -11.43200 33.30600 43.10500
C  -10.22100 33.65000 42.59200
C  -10.12600 35.05600 42.44700
C  -12.04800 32.00700 43.33300
C  -8.95300 33.04300 42.16100
O  -8.59600 31.84300 42.15800
C  -7.96200 34.19400 41.74800
C  -6.83000 34.25200 42.70900
O  -5.64800 34.14800 42.38900
O  -7.28700 34.30400 44.00800
C  -6.29100 34.37000 45.08300
H  -8.91500 40.93600 40.84700
H  -14.98000 40.20600 42.43400
H  -14.24100 34.08400 43.65400
H  -6.38100 36.86200 40.99600
H  -7.19900 39.34500 40.21000
H  -7.41700 39.32200 43.11700
H  -6.17100 40.06300 42.11000
H  -6.01900 38.38900 42.71700
H  -8.39500 37.56200 38.95400
H  -8.07900 35.88300 39.16800
H  -5.45000 36.89600 38.77000
H  -6.40700 37.86000 37.73100
H  -10.95900 43.46400 39.88200
H  -9.58200 42.81200 40.80900
H  -10.59700 44.12300 41.48500
H  -15.56100 43.77700 43.18900
H  -15.12000 42.27200 43.64400
H  -15.75300 42.37800 42.05300
H  -16.35800 38.08100 42.10100
H  -15.60500 36.45900 44.56500
H  -15.84600 39.22700 44.77200
H  -17.12500 37.90600 44.62700
H  -17.14700 39.41300 43.61400
H  -16.06700 34.95700 42.02900
H  -17.37000 36.00500 42.62000
H  -16.40600 34.17100 44.80500
H  -16.93100 33.26200 43.49200
H  -18.03400 34.54300 44.19300
H  -11.54100 31.52100 44.16700
H  -11.92600 31.37600 42.45300
H  -13.09600 32.09000 43.61900
H  -7.74700 34.08400 40.68500
H  -6.78800 34.65600 46.01100
H  -5.44800 35.02700 44.87000
H  -5.90100 33.36300 45.23000

