158

Mg 47.12900 24.27700 28.21700
C  48.20400 26.67300 30.54300
C  46.71000 22.14000 30.71200
C  46.54200 22.05800 25.81400
C  48.52300 26.54600 25.72700
N  47.09200 24.53600 30.39000
C  47.56200 25.56500 31.09800
C  47.59400 25.25400 32.60400
C  47.30200 23.67500 32.63200
C  46.92900 23.43500 31.15000
C  48.41100 22.67300 33.15700
C  46.66300 26.23800 33.38900
C  47.30800 26.86800 34.66000
H  46.49500 26.85400 36.03100
N  46.50300 22.47700 28.23400
C  46.39600 21.68800 29.37700
C  45.96300 20.36100 29.00800
C  45.87000 20.33800 27.56300
C  46.23900 21.67700 27.10200
C  45.74100 19.23900 30.03400
C  45.45200 19.22800 26.68800
O  45.29200 19.35600 25.49900
C  45.10800 17.86800 27.20100
N  47.46300 24.34600 26.06900
C  47.12800 23.24400 25.36000
C  47.22800 23.49300 23.88000
C  47.86100 24.91100 23.80100
C  47.94100 25.33300 25.28300
C  47.86600 22.40200 23.02200
C  47.15700 25.99400 22.90700
C  48.07800 26.36300 21.65800
N  48.10700 26.30200 28.11100
C  48.67500 27.01000 27.05600
C  49.16800 28.29400 27.54600
C  49.17800 28.14700 28.89700
C  48.45900 26.93500 29.17500
C  49.60000 29.49200 26.76500
C  49.57200 28.69300 30.14600
O  50.24100 29.70000 30.36000
C  49.01900 27.71700 31.23900
C  50.22800 27.14900 32.02000
O  51.00400 26.32200 31.55500
O  50.24100 27.64600 33.21800
C  51.55500 27.38500 33.92900
H  46.58100 21.38600 31.49200
H  46.34900 21.30300 25.05000
H  48.84200 27.29200 24.99600
H  48.63800 25.25600 32.91900
H  46.47100 23.49000 33.31300
H  48.82600 22.03300 32.38000
H  47.94900 22.06200 33.93300
H  49.22900 23.23400 33.60900
H  45.73000 25.71800 33.60600
H  46.35500 27.07800 32.76600
H  47.48100 27.92100 34.44000
H  48.24700 26.35700 34.87300
H  45.22900 18.35300 29.66000
H  45.07900 19.66500 30.78800
H  46.68000 19.02000 30.54200
H  44.25300 17.85700 27.87800
H  45.96800 17.39600 27.67600
H  44.87700 17.35400 26.26800
H  46.18700 23.65300 23.59700
H  48.89000 24.89800 23.44100
H  47.68400 21.34200 23.19600
H  48.93400 22.54600 23.18700
H  47.47200 22.47500 22.00900
H  47.10700 26.89900 23.51200
H  46.17500 25.58900 22.66200
H  48.61800 27.29000 21.84800
H  47.36500 26.61000 20.87200
H  48.82600 25.65400 21.30400
H  49.15800 30.42400 27.11600
H  49.33600 29.41300 25.71100
H  50.68900 29.51700 26.81600
H  48.51000 28.35100 31.96400
H  51.74500 26.31200 33.94400
H  51.69000 27.76600 34.94100
H  52.33200 27.84600 33.32100
Mg 50.70200 44.54400 41.88800
C  47.79900 46.15200 40.86500
C  49.51800 41.57500 40.86800
C  53.88100 43.33700 41.91600
C  51.88500 47.66200 42.79400
N  48.87700 44.01400 40.83200
C  47.76200 44.74200 40.74800
C  46.54500 43.87800 40.18000
C  47.09900 42.48800 40.59000
C  48.60500 42.68400 40.76700
C  46.31000 41.67100 41.68900
C  46.30700 44.13000 38.63300
C  44.98600 43.91500 37.99700
H  44.85400 43.07100 36.74600
N  51.53500 42.68900 41.52800
C  50.86300 41.60400 41.15000
C  51.74300 40.42400 41.23200
C  53.02600 40.93900 41.43300
C  52.85100 42.39200 41.59000
C  51.37300 39.03200 40.96600
C  54.25300 40.09300 41.40600
O  54.19800 38.87100 41.28300
C  55.63500 40.65700 41.58200
N  52.57400 45.42100 42.35000
C  53.69700 44.69800 42.32300
C  54.86100 45.45500 42.87800
C  54.29500 46.93600 43.07600
C  52.83900 46.68800 42.70100
C  55.51900 44.81400 44.23000
C  54.81400 48.00200 41.98700
C  55.49500 49.29900 42.58700
N  49.98900 46.54300 41.87800
C  50.57400 47.68800 42.25000
C  49.64100 48.79000 42.12500
C  48.51200 48.23200 41.57000
C  48.77100 46.86100 41.41100
C  49.90600 50.16900 42.60100
C  47.24200 48.54600 41.01300
O  46.68800 49.63200 40.95600
C  46.66100 47.13500 40.63600
C  45.35800 46.93300 41.27900
O  45.19400 46.15000 42.22700
O  44.30700 47.65300 40.70400
C  43.10400 47.61400 41.55200
H  49.02700 40.60300 40.78000
H  54.92200 43.00800 41.89700
H  52.31400 48.60500 43.14000
H  45.54100 43.89800 40.60400
H  47.10800 41.82700 39.72300
H  45.66900 42.27600 42.33100
H  47.00800 41.20500 42.38400
H  45.68000 40.84800 41.35100
H  46.94800 43.45100 38.07100
H  46.61600 45.16200 38.46700
H  44.64000 44.90900 37.71300
H  44.40900 43.41100 38.77200
H  51.87800 38.72600 40.05000
H  50.30800 38.87200 40.80100
H  51.72200 38.32300 41.71700
H  55.80800 40.84100 42.64300
H  55.80000 41.55100 40.98200
H  56.38600 39.90300 41.34400
H  55.56500 45.42800 42.04600
H  54.33100 47.27100 44.11200
H  56.59800 44.77200 44.08300
H  55.34800 43.73800 44.24200
H  55.13900 45.33500 45.11000
H  53.92900 48.21600 41.38700
H  55.53400 47.51600 41.32900
H  54.84300 50.10500 42.25100
H  56.45600 49.33100 42.07300
H  55.54200 49.27600 43.67500
H  50.74900 50.68400 42.13900
H  50.04700 50.15600 43.68200
H  49.02000 50.78400 42.44300
H  46.34700 47.14800 39.59200
H  42.74600 46.58500 41.54800
H  42.34800 48.25500 41.09800
H  43.41300 47.98500 42.52900

