158

Mg 34.55300 2.71800 28.61500
C  32.88500 3.51500 31.50700
C  37.52600 2.36300 30.51500
C  36.30400 2.54300 25.78500
C  31.61000 3.54200 26.73800
N  35.12000 2.85800 30.75600
C  34.24300 3.18600 31.80600
C  34.93700 3.13200 33.18800
C  36.43900 2.82400 32.79900
C  36.38400 2.65500 31.22800
C  37.56000 3.85600 33.15400
C  34.25600 2.12600 34.16700
C  33.79300 2.61600 35.51600
H  34.49400 3.84700 36.20000
N  36.62600 2.36100 28.24300
C  37.67900 2.28300 29.14900
C  38.85600 1.96300 28.42700
C  38.48000 2.01500 27.00300
C  37.11400 2.33500 26.94400
C  40.26000 1.83300 29.06500
C  39.40300 1.90700 25.73300
O  38.96100 1.93700 24.58700
C  40.82700 1.59900 25.84300
N  34.03700 3.06500 26.57000
C  34.98000 2.89500 25.60200
C  34.35400 2.99900 24.28400
C  32.83400 2.85000 24.52800
C  32.81500 3.23300 26.07200
C  34.83200 4.36400 23.62300
C  32.27700 1.42400 24.29400
C  30.73000 1.37700 24.15100
N  32.64900 3.41800 28.93500
C  31.52800 3.58100 28.14600
C  30.35300 3.76800 29.01200
C  30.87800 3.84300 30.30800
C  32.22700 3.56400 30.23700
C  28.91700 4.07600 28.56600
C  30.48900 3.98600 31.69300
O  29.43500 4.13500 32.24000
C  31.76100 3.93700 32.46300
C  32.07700 5.15300 33.26100
O  32.81900 6.07500 32.98500
O  31.29000 5.24600 34.43000
C  31.08200 6.59900 34.92300
H  38.38900 2.16200 31.15400
H  36.68500 2.34800 24.78000
H  30.65700 3.61100 26.20900
H  34.99100 4.07400 33.73400
H  36.64700 1.83800 33.21500
H  37.28700 4.50500 33.98700
H  37.78200 4.31400 32.19000
H  38.43400 3.32200 33.52900
H  34.90100 1.28000 34.40600
H  33.40800 1.74400 33.59800
H  33.89800 1.79900 36.23000
H  32.74100 2.86200 35.37000
H  40.96400 2.42200 28.47800
H  40.65000 0.81700 29.01200
H  40.29100 2.20400 30.08900
H  40.94100 0.59800 26.26000
H  41.37400 2.38600 26.36200
H  41.11500 1.41800 24.80800
H  34.82100 2.21200 23.69200
H  32.35200 3.65200 23.96900
H  34.01500 5.03000 23.34400
H  35.27900 4.07300 22.67200
H  35.55100 4.97700 24.16500
H  32.50800 0.91900 25.23200
H  32.81700 0.94300 23.47900
H  30.47900 0.84100 23.23600
H  30.28500 2.36400 24.02300
H  30.16400 0.85200 24.92000
H  28.40100 4.47300 29.44100
H  28.41000 3.18000 28.20900
H  28.90800 4.77300 27.72900
H  31.62300 3.13400 33.18700
H  31.00200 7.39100 34.17800
H  31.80700 6.93700 35.66300
H  30.10200 6.47200 35.38200
Mg 16.63400 51.30400 26.41200
C  18.89900 49.94800 28.76500
C  14.53500 52.10400 28.99200
C  14.69800 52.43900 24.12500
C  19.05600 50.28800 23.99200
N  16.64600 50.95900 28.56900
C  17.78300 50.58100 29.32800
C  17.61500 50.96000 30.76700
C  16.05800 51.23400 30.83000
C  15.66700 51.48000 29.38100
C  15.23000 50.10700 31.37400
C  18.51800 52.08900 31.30600
C  18.84700 51.98900 32.82800
H  17.87100 51.31200 33.79800
N  14.75900 52.06200 26.54600
C  14.04200 52.36300 27.71600
C  12.80100 52.92200 27.32400
C  12.80200 53.07200 25.93700
C  14.10300 52.50700 25.46900
C  11.64400 53.18100 28.38100
C  11.75100 53.54900 24.91900
O  11.98800 53.59000 23.72400
C  10.38900 53.94900 25.38400
N  16.75900 51.15200 24.31200
C  15.81100 51.82300 23.59700
C  16.25900 51.95400 22.13300
C  17.74500 51.35600 22.11400
C  17.84700 50.83100 23.55400
C  15.28200 51.14100 21.15800
C  18.80700 52.42100 21.72200
C  19.53800 52.17800 20.48700
N  18.52300 50.28100 26.27900
C  19.41200 49.91300 25.27000
C  20.53600 49.22600 25.75500
C  20.41200 49.30600 27.09900
C  19.10700 49.84600 27.37300
C  21.75800 48.63700 25.00400
C  21.02700 48.85500 28.33400
O  22.03300 48.18000 28.60500
C  20.14300 49.39000 29.44400
C  19.84200 48.40500 30.55100
O  19.44500 47.25400 30.38100
O  20.45400 48.88300 31.67100
C  20.65400 47.82000 32.64400
H  13.93900 52.54000 29.79600
H  14.13400 53.07500 23.43900
H  19.84200 50.01800 23.28300
H  17.83300 49.98500 31.20300
H  15.86400 52.16700 31.35900
H  15.85200 49.28100 31.71900
H  14.63100 49.66600 30.57700
H  14.67900 50.44700 32.25100
H  17.99800 53.03800 31.17900
H  19.41100 52.02400 30.68500
H  19.14400 53.00300 33.09300
H  19.74900 51.37900 32.86500
H  11.33400 54.22600 28.35800
H  12.04400 52.87900 29.34900
H  10.71400 52.63600 28.22000
H  9.71000 54.01300 24.53300
H  10.51100 54.96000 25.77200
H  10.01300 53.20900 26.09100
H  16.09400 53.02600 22.03100
H  17.73100 50.50500 21.43300
H  15.01300 50.23200 21.69600
H  15.91300 50.90700 20.30100
H  14.42000 51.73600 20.85500
H  19.47300 52.80400 22.49500
H  18.23300 53.34300 21.61700
H  19.39700 52.97000 19.75100
H  19.22200 51.23500 20.04100
H  20.58700 52.07800 20.76400
H  21.70800 47.63100 24.58800
H  22.66700 48.68500 25.60400
H  21.85600 49.31400 24.15600
H  20.71900 50.19200 29.90600
H  21.18500 48.14000 33.54000
H  21.18300 46.98800 32.17800
H  19.71900 47.42500 33.04100

