158

Mg 9.35900 48.54600 25.32700
C  7.31700 48.02500 28.09700
C  11.92700 49.35300 27.43200
C  11.23600 48.94300 22.64700
C  6.54000 48.18300 23.27700
N  9.56600 48.63000 27.52400
C  8.61700 48.36100 28.42500
C  9.06200 48.74200 29.87600
C  10.54400 49.21400 29.62800
C  10.72500 49.03900 28.10300
C  10.80100 50.65900 30.14200
C  9.01100 47.66300 30.96400
C  10.07900 47.73200 32.15800
H  9.74900 46.96300 33.48100
N  11.29700 49.03000 25.07500
C  12.22800 49.31300 26.03900
C  13.56600 49.35400 25.47900
C  13.42100 48.91300 24.09600
C  11.95800 48.93100 23.86300
C  14.79900 49.78500 26.25300
C  14.45700 48.84400 23.04000
O  14.17600 48.56100 21.87000
C  15.93000 49.05100 23.34600
N  8.99500 48.53200 23.30900
C  9.91500 48.85100 22.41600
C  9.29900 48.99500 20.99100
C  7.85000 48.43000 21.13100
C  7.75500 48.42100 22.65100
C  9.29400 50.42100 20.51200
C  7.62000 46.99500 20.57600
C  6.70100 46.80300 19.41600
N  7.33900 48.11800 25.60400
C  6.29600 47.89400 24.65000
C  5.05800 47.67500 25.36500
C  5.44500 47.68400 26.71000
C  6.81000 47.94300 26.78100
C  3.78000 47.61800 24.73000
C  4.99300 47.59100 28.07900
O  3.82900 47.46800 28.45000
C  6.17600 47.81000 29.04400
C  6.33900 46.44800 29.72700
O  6.83900 45.44600 29.31400
O  5.88800 46.46100 31.04500
C  6.08500 45.23200 31.89300
H  12.71700 49.62900 28.13400
H  11.86100 49.23300 21.80000
H  5.70400 48.01800 22.59400
H  8.43300 49.57400 30.19000
H  11.33500 48.53500 29.94600
H  10.97600 51.44200 29.40400
H  11.65700 50.62700 30.81700
H  9.90700 51.01500 30.65400
H  9.11600 46.66300 30.54300
H  8.00500 47.83200 31.34700
H  10.39300 48.75200 32.38000
H  10.87300 47.14700 31.69500
H  14.65100 49.88400 27.32800
H  15.16100 50.72000 25.82400
H  15.57400 49.02300 26.16600
H  16.30400 48.22400 23.94900
H  16.10000 50.01800 23.81800
H  16.57100 48.91000 22.47600
H  9.92200 48.29600 20.43400
H  7.03100 49.03200 20.73600
H  9.71200 51.00700 21.33100
H  8.37200 50.87700 20.15400
H  9.99600 50.38300 19.68000
H  7.29600 46.30100 21.35100
H  8.57700 46.60000 20.23800
H  7.22100 46.16300 18.70300
H  6.71700 47.78800 18.94800
H  5.74600 46.35700 19.69400
H  3.67100 46.77200 24.05200
H  3.67900 48.59800 24.26500
H  3.03500 47.58700 25.52500
H  5.95400 48.57600 29.78600
H  7.12800 45.33300 32.19100
H  5.92300 44.34000 31.28700
H  5.34600 45.10200 32.68300
Mg -4.71000 24.88500 25.89800
C  -2.89500 26.44500 28.51000
C  -5.74400 22.63400 28.13800
C  -6.36400 23.56000 23.47800
C  -3.11000 27.13100 23.59900
N  -4.38200 24.69000 28.05300
C  -3.73700 25.46100 28.90800
C  -4.07600 25.15900 30.39300
C  -4.71200 23.78900 30.22100
C  -5.03000 23.67700 28.69900
C  -3.79800 22.64000 30.70000
C  -5.09600 26.25700 30.88800
C  -5.02300 26.43000 32.44500
H  -4.62300 25.24700 33.33500
N  -5.95700 23.33100 25.82300
C  -6.18600 22.45900 26.80500
C  -6.88600 21.29000 26.27300
C  -7.15200 21.52100 24.88800
C  -6.50300 22.84300 24.68500
C  -7.47300 20.16700 27.20700
C  -7.97400 20.77300 23.87000
O  -8.26500 21.27700 22.79500
C  -8.54000 19.38100 24.18300
N  -4.89400 25.48400 23.85500
C  -5.60800 24.67200 23.08000
C  -5.41300 24.85400 21.57000
C  -4.45400 26.09600 21.58900
C  -4.14200 26.31500 23.10200
C  -4.76600 23.59500 20.95100
C  -5.03800 27.31400 20.89200
C  -4.20500 27.76200 19.70800
N  -3.25400 26.41700 25.96600
C  -2.73200 27.24400 24.96000
C  -1.81700 28.22400 25.60100
C  -1.89100 27.99400 26.96000
C  -2.70600 26.81700 27.16700
C  -1.15400 29.33600 24.90500
C  -1.31900 28.43300 28.27200
O  -0.48100 29.30400 28.51300
C  -2.11000 27.48400 29.37200
C  -1.12500 26.79200 30.22600
O  -0.24700 26.06900 29.92100
O  -1.44600 27.11700 31.52900
C  -0.58300 26.72300 32.66100
H  -6.19400 21.91500 28.82500
H  -6.88100 23.15500 22.60600
H  -2.74800 27.77800 22.79800
H  -3.20600 25.19000 31.04900
H  -5.58100 23.72400 30.87500
H  -4.41900 22.01600 31.34300
H  -3.02700 22.96900 31.39700
H  -3.37200 22.06800 29.87500
H  -6.11700 26.03300 30.57900
H  -4.87600 27.24400 30.48100
H  -5.99400 26.69100 32.86800
H  -4.25600 27.17400 32.65800
H  -6.79500 19.31400 27.22400
H  -8.48300 20.06100 26.81200
H  -7.56900 20.64600 28.18100
H  -7.72700 18.71800 24.47700
H  -8.98600 19.06900 23.23800
H  -9.25800 19.37500 25.00300
H  -6.42100 24.99700 21.18000
H  -3.50400 25.85900 21.10900
H  -4.70600 22.74900 21.63600
H  -3.78200 23.71000 20.49700
H  -5.38900 23.37600 20.08400
H  -5.10600 28.16900 21.56400
H  -6.06800 27.18200 20.56000
H  -4.82600 28.36900 19.04900
H  -3.96900 26.88800 19.10000
H  -3.36100 28.31900 20.11500
H  -0.08400 29.24000 25.08800
H  -1.34700 30.35600 25.23800
H  -1.28700 29.15600 23.83800
H  -2.73100 28.17300 29.94600
H  0.22300 27.45300 32.73700
H  -0.05100 25.81200 32.38400
H  -0.98800 26.68500 33.67200

