158

Mg 24.13300 -5.01400 45.33800
C  26.17300 -2.64600 43.71300
C  21.70700 -4.22600 43.19000
C  22.38800 -7.73500 46.53300
C  26.96000 -6.19000 47.12100
N  24.07100 -3.58900 43.62000
C  24.97400 -2.73500 43.16300
C  24.49900 -1.99800 41.90300
C  23.00100 -2.26200 42.04800
C  22.85100 -3.42000 42.96000
C  22.18100 -1.06200 42.62600
C  25.14200 -2.65600 40.59500
C  25.88600 -1.70800 39.68500
H  25.81400 -1.93000 38.19800
N  22.15900 -5.87700 45.02900
C  21.35000 -5.35100 44.04600
C  20.17800 -6.15000 44.10700
C  20.32700 -7.22900 45.00800
C  21.65900 -7.02300 45.59700
C  19.05700 -5.82900 43.16600
C  19.29700 -8.25600 45.42900
O  18.15600 -8.18100 44.91600
C  19.60700 -9.34200 46.46600
N  24.67400 -6.75600 46.54800
C  23.71500 -7.63800 46.99300
C  24.23400 -8.74100 47.92800
C  25.57900 -8.12400 48.26500
C  25.77600 -6.92900 47.28300
C  23.36600 -9.05200 49.17800
C  26.78100 -9.01900 48.42200
C  27.54300 -8.88800 49.82300
N  26.15400 -4.56200 45.49200
C  27.16300 -5.07500 46.25300
C  28.34100 -4.18900 46.19900
C  27.97000 -3.27200 45.13900
C  26.66000 -3.46700 44.76400
C  29.56200 -4.30700 47.06100
C  28.44900 -2.09600 44.41300
O  29.47400 -1.47700 44.64000
C  27.37100 -1.84300 43.32900
C  27.13500 -0.40400 43.44300
O  26.35300 0.09100 44.18700
O  27.92900 0.36200 42.66600
C  27.84700 1.90400 42.74400
H  20.90700 -3.96000 42.49600
H  21.84800 -8.53500 47.04400
H  27.81600 -6.51100 47.71900
H  24.81300 -0.95900 42.00100
H  22.62000 -2.64700 41.10200
H  22.81700 -0.18500 42.50300
H  21.91600 -1.07600 43.68300
H  21.21700 -0.83600 42.16900
H  24.35200 -3.09000 39.98200
H  25.93200 -3.40300 40.66700
H  26.91300 -1.69500 40.05000
H  25.63700 -0.65400 39.80700
H  18.68700 -6.76600 42.74800
H  19.19900 -5.09700 42.37100
H  18.21700 -5.41100 43.72000
H  18.85900 -10.13000 46.37800
H  19.51100 -9.05900 47.51400
H  20.57500 -9.82000 46.31700
H  24.27600 -9.71200 47.43500
H  25.37500 -7.63900 49.21900
H  23.85600 -9.56100 50.00800
H  22.56700 -9.69700 48.81200
H  22.92400 -8.08900 49.43400
H  27.45500 -8.85800 47.58100
H  26.45200 -10.05800 48.38500
H  28.56900 -8.77900 49.47100
H  27.46500 -9.73900 50.49900
H  27.36800 -7.89000 50.22400
H  29.91800 -5.33600 47.02200
H  29.42000 -3.87000 48.04900
H  30.35000 -3.69400 46.62200
H  27.78900 -2.15300 42.37200
H  28.77600 2.34000 43.11000
H  27.10700 2.28300 43.44800
H  27.66100 2.33200 41.75900
Mg 45.99300 17.05800 28.41700
C  44.52900 16.63000 31.70000
C  48.54500 18.58900 29.94000
C  47.11800 17.56600 25.33700
C  43.14600 15.34000 27.10300
N  46.40200 17.59500 30.56500
C  45.79000 17.30900 31.72700
C  46.52000 17.73800 32.94600
C  47.69200 18.49300 32.36700
C  47.54600 18.25300 30.84400
C  47.75200 20.04100 32.54200
C  47.05400 16.43100 33.73200
C  47.05100 16.46200 35.22600
H  46.90900 17.73900 36.03700
N  47.59100 17.98000 27.74400
C  48.56800 18.61800 28.55500
C  49.61300 19.10900 27.64900
C  49.19400 18.75200 26.28100
C  47.98100 18.05300 26.38100
C  50.75600 20.02600 27.95900
C  49.93700 19.00500 24.93400
O  49.45700 18.72900 23.86000
C  51.31700 19.63600 24.93600
N  45.18300 16.54500 26.60600
C  45.90400 16.90100 25.46700
C  45.12000 16.52600 24.17300
C  43.94600 15.66300 24.75400
C  44.06000 15.89800 26.21000
C  44.53000 17.78500 23.46200
C  44.00700 14.11600 24.44900
C  44.98600 13.29800 25.25300
N  44.19700 16.19300 29.20400
C  43.19100 15.52100 28.50700
C  42.12800 15.15700 29.45200
C  42.64700 15.50800 30.75000
C  43.89400 16.17100 30.55300
C  40.86800 14.39700 29.01300
C  42.34800 15.53300 32.12600
O  41.32400 15.16600 32.67600
C  43.55000 16.28700 32.86100
C  42.99600 17.45800 33.51800
O  42.58700 18.45500 32.90200
O  42.98300 17.27600 34.88600
C  42.38100 18.28600 35.68400
H  49.37900 19.17700 30.32900
H  47.47800 17.59500 24.30600
H  42.38700 14.65000 26.72800
H  45.89900 18.32900 33.61900
H  48.65100 18.16100 32.76300
H  47.52300 20.48500 31.57300
H  48.78900 20.22800 32.82200
H  47.04100 20.32100 33.31900
H  48.04000 16.08900 33.41700
H  46.32700 15.67100 33.44700
H  47.95900 15.96800 35.57300
H  46.19900 15.89300 35.59800
H  50.46300 21.02300 27.63000
H  51.68800 19.68600 27.50800
H  50.89100 20.08800 29.03900
H  52.08900 19.23400 25.59100
H  51.28900 20.67700 25.25800
H  51.54800 19.65600 23.87100
H  45.79900 16.01600 23.48900
H  42.98200 16.09100 24.48100
H  43.47500 17.87200 23.20300
H  45.10700 17.86300 22.54000
H  44.85000 18.62700 24.07600
H  44.28500 14.06000 23.39700
H  43.02400 13.66200 24.57400
H  44.55000 12.83800 26.13900
H  45.85200 13.89300 25.54300
H  45.36700 12.49600 24.61900
H  40.44500 14.87000 28.12600
H  40.17400 14.63200 29.81900
H  40.92800 13.34100 28.74900
H  44.04200 15.60800 33.55600
H  42.55500 19.25000 35.20700
H  42.93600 18.31600 36.62100
H  41.34500 17.96300 35.79200

