158

Mg 35.15200 2.13000 29.52300
C  32.94500 3.28800 31.98800
C  37.74000 2.37800 31.81000
C  37.26400 1.40800 26.97700
C  32.53400 2.50300 27.05300
N  35.26100 2.91500 31.67700
C  34.22400 3.02200 32.47300
C  34.67900 3.20400 33.91900
C  36.25200 3.18100 33.83700
C  36.45800 2.79900 32.31200
C  36.93600 4.49400 34.24800
C  34.03100 2.05500 34.76300
C  33.25800 2.51900 35.95500
H  33.97500 3.55800 36.84800
N  37.17200 1.86800 29.42300
C  38.07000 1.97300 30.50600
C  39.37700 1.74800 30.07400
C  39.29000 1.48800 28.61700
C  37.84900 1.52500 28.28500
C  40.60800 1.75100 30.96100
C  40.34000 1.30200 27.57700
O  40.07800 1.03800 26.43500
C  41.76900 1.22600 27.96200
N  34.95200 2.11400 27.31600
C  35.94200 1.66100 26.53500
C  35.39100 1.29000 25.10600
C  33.91600 1.30700 25.21400
C  33.79700 2.03000 26.60500
C  35.89000 2.27600 24.05000
C  33.21000 -0.04900 25.13000
C  33.42000 -0.91500 23.88400
N  33.14300 2.74800 29.49800
C  32.22400 2.87200 28.42200
C  31.02400 3.41500 28.96600
C  31.25900 3.69500 30.29600
C  32.56800 3.20600 30.58800
C  29.79100 3.59900 28.18900
C  30.67500 4.16500 31.56800
O  29.51400 4.53600 31.72700
C  31.73700 3.93200 32.68400
C  32.03200 5.35400 33.07000
O  32.93600 6.07800 32.59300
O  31.15900 5.76600 33.97700
C  31.40100 7.02300 34.56500
H  38.53800 2.36200 32.55600
H  37.83900 0.88000 26.21300
H  31.77100 2.36800 26.28300
H  34.28200 4.17700 34.20800
H  36.66000 2.42600 34.51000
H  37.81700 4.73000 33.65100
H  37.29800 4.51200 35.27600
H  36.15100 5.24600 34.17100
H  34.84000 1.41100 35.10800
H  33.37400 1.48900 34.10300
H  33.07900 1.68600 36.63400
H  32.30100 2.92700 35.63100
H  41.36500 1.10500 30.51800
H  40.47200 1.33200 31.95800
H  40.77400 2.82800 30.98100
H  41.84400 0.22200 28.37800
H  42.13500 1.91600 28.72300
H  42.39600 1.34200 27.07800
H  35.82800 0.32400 24.85800
H  33.48000 1.97700 24.47400
H  36.19700 3.19800 24.54400
H  35.13600 2.49300 23.29400
H  36.75000 1.96400 23.45800
H  32.15200 0.21100 25.13500
H  33.48900 -0.59500 26.03100
H  33.68700 -1.90500 24.25600
H  34.21800 -0.74800 23.16100
H  32.47600 -0.95200 23.34000
H  29.99700 3.27400 27.17000
H  29.40000 4.61500 28.24400
H  28.97600 2.93800 28.48300
H  31.19900 3.35600 33.43600
H  31.43900 7.86900 33.87900
H  32.41100 6.95800 34.96800
H  30.78000 7.31900 35.41000
Mg 47.78000 34.66800 27.12800
C  46.02300 33.30700 29.71200
C  48.26000 37.51300 29.21000
C  48.80300 36.57300 24.53200
C  46.62800 32.33100 24.92700
N  47.07600 35.34800 29.05100
C  46.70400 34.45200 30.02600
C  46.92900 34.91700 31.47600
C  47.20100 36.45400 31.22500
C  47.51600 36.47100 29.76400
C  45.95900 37.43400 31.55000
C  48.22500 34.23400 32.06200
C  48.41400 34.28100 33.61100
H  47.75800 35.41500 34.45500
N  48.49800 36.70100 26.96300
C  48.69500 37.62000 27.89800
C  49.37900 38.77800 27.38200
C  49.72300 38.47200 26.03100
C  49.00200 37.21300 25.74500
C  49.57300 40.01800 28.24400
C  50.53700 39.27200 24.99100
O  50.67400 38.94200 23.77000
C  51.34300 40.45300 25.52500
N  47.42300 34.64700 24.96200
C  48.13900 35.43200 24.16400
C  48.33500 34.79400 22.68200
C  47.70400 33.40200 22.90900
C  47.20200 33.42200 24.38700
C  47.64400 35.65600 21.61900
C  48.71700 32.17200 22.70600
C  49.72800 31.72500 23.86000
N  46.63200 33.07400 27.24900
C  46.25500 32.21000 26.25200
C  45.51300 31.11600 26.91600
C  45.26000 31.59400 28.21800
C  45.99700 32.73700 28.41500
C  45.01700 29.84900 26.37300
C  44.60900 31.27400 29.43600
O  43.95700 30.32900 29.76900
C  44.94300 32.47600 30.41100
C  45.26500 31.92500 31.81300
O  46.03100 31.03300 32.10700
O  44.39900 32.44800 32.70900
C  44.39200 32.11700 34.13700
H  48.56500 38.27100 29.93500
H  49.22900 36.98600 23.61500
H  46.32600 31.43900 24.37300
H  46.02800 34.76200 32.07000
H  48.06600 36.83400 31.76900
H  45.22700 37.46700 30.74300
H  46.22900 38.48600 31.64700
H  45.33100 37.06600 32.36200
H  49.14500 34.65400 31.65600
H  48.14400 33.19400 31.74400
H  49.48400 34.27500 33.82000
H  47.97800 33.38500 34.05300
H  48.90700 40.03600 29.10700
H  49.57100 40.99000 27.75000
H  50.44800 39.93200 28.88800
H  52.06200 40.70600 24.74500
H  51.82300 40.18100 26.46500
H  50.62100 41.25900 25.65500
H  49.41000 34.71700 22.51400
H  46.86000 33.15000 22.26700
H  47.10800 36.52200 22.00800
H  46.95800 35.05100 21.02500
H  48.38500 36.12400 20.97200
H  49.42300 32.41500 21.91200
H  48.01300 31.37900 22.45400
H  49.66800 30.63700 23.84300
H  49.54000 32.14300 24.85000
H  50.77400 31.96100 23.66600
H  44.85200 28.99700 27.03300
H  45.70200 29.59000 25.56600
H  44.05500 30.06800 25.91200
H  44.03900 33.08500 30.45500
H  45.39900 32.35000 34.48400
H  44.03700 31.11200 34.36600
H  43.76200 32.87500 34.60200

