158

Mg 26.69500 50.86400 25.92200
C  24.65000 51.94200 28.66200
C  28.92100 49.60200 28.19600
C  28.74700 50.14300 23.43300
C  24.65100 52.67200 23.77600
N  26.67800 50.75200 28.20300
C  25.80500 51.24600 29.11500
C  26.22700 50.91500 30.51300
C  27.66100 50.27800 30.28300
C  27.83200 50.27800 28.78400
C  28.76600 51.10400 31.03100
C  25.23100 50.05300 31.25100
C  24.53900 50.83700 32.48400
H  24.55100 50.12200 33.85200
N  28.54800 49.93700 25.82200
C  29.22300 49.40300 26.85500
C  30.36100 48.64000 26.37200
C  30.39700 48.89300 24.99800
C  29.21900 49.69000 24.65400
C  31.22900 47.77700 27.24700
C  31.32500 48.31200 24.01300
O  31.21100 48.56400 22.85900
C  32.41400 47.35100 24.42400
N  26.70800 51.33400 23.88800
C  27.63200 50.91000 23.05200
C  27.25000 51.20400 21.62100
C  25.78500 51.84700 21.74500
C  25.71500 51.94300 23.20600
C  28.24600 52.14200 20.81400
C  24.58800 51.07800 21.12600
C  23.99300 51.60600 19.84500
N  24.88900 51.95000 26.08400
C  24.25400 52.69900 25.16300
C  23.14100 53.46100 25.79000
C  23.23500 53.13200 27.19200
C  24.24600 52.10500 27.25600
C  22.16700 54.41200 25.05300
C  22.65500 53.43900 28.48800
O  21.70900 54.10800 28.79600
C  23.56900 52.65600 29.48900
C  24.06600 53.70800 30.47300
O  25.07800 54.29800 30.29800
O  23.30300 53.79300 31.60400
C  23.85400 54.62900 32.75000
H  29.54700 49.09600 28.93300
H  29.44500 49.95700 22.61500
H  24.00400 53.23300 23.09900
H  26.32700 51.84700 31.07000
H  27.72200 49.31300 30.78500
H  28.36600 52.07400 31.32600
H  29.61300 51.34500 30.38900
H  29.18300 50.53000 31.85900
H  25.59000 49.05700 31.51000
H  24.42400 49.87500 30.54100
H  23.50000 50.98400 32.19000
H  24.97600 51.81800 32.66900
H  31.32800 46.76500 26.85500
H  30.92000 47.57400 28.27300
H  32.24000 48.18600 27.23400
H  32.92000 47.76900 25.29500
H  33.11300 47.06700 23.63800
H  32.07800 46.36800 24.75200
H  27.13300 50.26200 21.08500
H  25.87300 52.84400 21.31300
H  29.17200 52.16200 21.38800
H  27.89100 53.17100 20.76900
H  28.40300 51.67400 19.84200
H  23.78700 51.03000 21.86400
H  24.77700 50.01500 20.98300
H  22.96700 51.90100 20.06300
H  24.08500 50.94500 18.98300
H  24.46600 52.47900 19.39500
H  22.67500 54.76900 24.15700
H  21.82600 55.14000 25.78900
H  21.31300 53.86800 24.65000
H  23.01000 52.00100 30.15800
H  22.97100 54.68300 33.38700
H  24.07600 55.64500 32.42500
H  24.62500 54.06500 33.27600
Mg 0.79000 42.81500 25.35800
C  2.16000 43.04800 28.68600
C  -2.22300 42.26200 26.66400
C  -0.35600 42.35100 22.23000
C  3.88700 43.36100 24.16400
N  0.14400 42.60200 27.53000
C  0.75400 42.77100 28.70400
C  -0.22000 42.68300 29.82000
C  -1.57400 42.28400 29.09100
C  -1.18900 42.41700 27.61900
C  -2.05100 40.86100 29.47300
C  -0.40700 44.03400 30.50700
C  -1.28800 44.00600 31.82900
H  -2.26200 42.83600 32.09800
N  -1.10900 42.34700 24.57800
C  -2.22000 42.15300 25.24600
C  -3.30300 41.90200 24.27500
C  -2.65800 41.89400 22.97900
C  -1.27800 42.21700 23.23500
C  -4.74300 41.64700 24.78800
C  -3.27900 41.65400 21.66400
O  -2.67800 41.65500 20.56000
C  -4.72800 41.37300 21.62500
N  1.60900 42.79700 23.48000
C  0.95700 42.59400 22.35300
C  1.88500 42.65400 21.12200
C  3.12100 43.29500 21.75300
C  2.90000 43.06200 23.22400
C  2.11400 41.40000 20.26100
C  3.40100 44.78600 21.39300
C  2.94300 45.98500 22.28600
N  2.59800 43.25900 26.20500
C  3.77500 43.49600 25.58000
C  4.88900 43.81300 26.54700
C  4.25700 43.61700 27.76100
C  2.88800 43.30900 27.51900
C  6.40000 44.18100 26.20500
C  4.45300 43.61100 29.19600
O  5.42800 43.77700 29.92200
C  3.06400 43.22400 29.83600
C  3.24500 41.99500 30.57100
O  3.88700 41.00600 30.20500
O  2.55700 42.12000 31.75100
C  2.44200 40.89100 32.58700
H  -3.18500 42.00900 27.11600
H  -0.58800 42.26600 21.16700
H  4.82500 43.73600 23.75000
H  0.06800 41.97700 30.59900
H  -2.32900 43.03200 29.33100
H  -3.12200 40.89100 29.67300
H  -1.46500 40.34100 30.23000
H  -1.82800 40.26000 28.59100
H  -0.92300 44.71700 29.83300
H  0.60200 44.35500 30.76700
H  -2.05400 44.76800 31.68800
H  -0.75300 44.27700 32.73900
H  -5.40300 42.42900 24.41100
H  -4.75900 41.62400 25.87800
H  -5.02600 40.67000 24.39800
H  -4.95200 40.46900 22.19200
H  -5.02000 41.11000 20.60800
H  -5.35600 42.16300 22.03600
H  1.30900 43.35200 20.51500
H  4.01500 42.73200 21.48600
H  3.15000 41.19000 19.99600
H  1.54800 41.52000 19.33700
H  1.85300 40.51100 20.83500
H  3.09500 45.00700 20.37000
H  4.49000 44.78200 21.36300
H  2.54800 45.74300 23.27300
H  2.25200 46.57700 21.68500
H  3.76300 46.68700 22.43500
H  7.22600 43.50100 26.41400
H  6.54300 45.17400 26.63000
H  6.56300 44.40500 25.15100
H  2.73300 43.97400 30.55300
H  2.56300 41.24400 33.61100
H  3.12400 40.05900 32.41000
H  1.39200 40.61200 32.50900

