158

Mg 44.88800 5.49200 48.63600
C  42.89300 8.15100 47.88700
C  42.10000 3.35800 47.47900
C  46.79000 2.67200 48.67100
C  47.64000 7.47800 48.84600
N  42.68000 5.70900 47.96600
C  42.23700 6.95900 47.60200
C  40.99200 6.86100 46.80500
C  40.62200 5.36500 47.02700
C  41.81900 4.73700 47.56500
C  39.28000 5.10600 47.78600
C  41.06900 7.40200 45.34400
C  39.94800 8.41200 44.99100
H  39.31500 8.31700 43.59900
N  44.45700 3.35600 48.23300
C  43.31400 2.75400 47.81100
C  43.51800 1.33600 47.83000
C  44.89600 0.99000 48.24400
C  45.47300 2.33400 48.39900
C  42.40300 0.35300 47.41900
C  45.51100 -0.38800 48.30400
O  44.75100 -1.29700 48.15600
C  46.95100 -0.57900 48.66400
N  46.92900 5.12700 48.78600
C  47.49700 3.91700 48.75100
C  49.02200 4.04900 49.07600
C  49.28000 5.56400 48.99000
C  47.87000 6.14100 48.88100
C  49.58200 3.36500 50.39600
C  50.29600 5.92800 47.87200
C  51.37200 7.03500 48.25900
N  45.25500 7.38300 48.48500
C  46.42600 8.09500 48.57200
C  46.07300 9.51000 48.30600
C  44.69000 9.60100 48.14900
C  44.25700 8.24700 48.15000
C  47.05900 10.66400 48.25500
C  43.58800 10.52200 47.97900
O  43.50200 11.74700 47.99700
C  42.30600 9.55100 47.66700
C  41.19900 9.94700 48.52200
O  40.92200 9.56200 49.67100
O  40.42700 10.91900 48.00100
C  39.16900 11.37100 48.57400
H  41.23800 2.76200 47.17300
H  47.45700 1.84300 48.91800
H  48.55400 8.06500 48.95600
H  40.30700 7.46800 47.39700
H  40.41900 4.81600 46.10700
H  38.73300 6.03700 47.93400
H  39.62700 4.78100 48.76700
H  38.58900 4.44300 47.26600
H  41.06900 6.55000 44.66400
H  42.01400 7.93900 45.26000
H  40.32100 9.41700 45.18700
H  39.07100 8.16200 45.58800
H  42.84300 -0.17700 46.57500
H  41.47600 0.87400 47.18000
H  42.20700 -0.26600 48.29500
H  47.59200 -0.12000 47.91100
H  47.21100 -1.62700 48.80900
H  47.11300 -0.04500 49.60100
H  49.46200 3.43700 48.28800
H  49.62400 6.02600 49.91500
H  48.77300 2.72100 50.74000
H  49.82600 4.14200 51.12000
H  50.40100 2.75100 50.02200
H  49.79700 6.26500 46.96400
H  50.91900 5.06900 47.62500
H  51.30400 7.32800 49.30700
H  51.17900 7.85000 47.56200
H  52.39300 6.72700 48.03200
H  46.57500 11.60300 47.98800
H  47.97700 10.52700 47.68300
H  47.42200 10.87500 49.26100
H  42.09800 9.83500 46.63500
H  38.75800 12.14900 47.93100
H  39.30900 11.65800 49.61600
H  38.54700 10.47700 48.62400
Mg -3.00000 34.22700 26.42800
C  -4.76900 32.73800 29.11900
C  -2.18500 36.79700 28.67500
C  -1.20300 35.45700 24.10300
C  -4.23200 31.75900 24.30100
N  -3.55200 34.71500 28.64700
C  -4.15600 33.92000 29.53000
C  -4.13600 34.54900 30.92800
C  -3.43200 35.92900 30.69300
C  -3.07800 35.88300 29.21700
C  -4.16400 37.24900 31.17500
C  -3.35600 33.65800 32.04700
C  -3.18300 34.34800 33.35300
H  -3.49300 33.67900 34.69600
N  -1.79000 35.86700 26.43700
C  -1.61800 36.78400 27.36300
C  -0.71400 37.71000 26.89000
C  -0.30800 37.33500 25.61400
C  -1.15500 36.16600 25.33600
C  -0.26800 38.84300 27.71100
C  0.77600 38.04000 24.73700
O  1.03500 37.63700 23.65300
C  1.51700 39.24400 25.26700
N  -2.63600 33.66400 24.56300
C  -1.82000 34.25900 23.74400
C  -1.65200 33.60300 22.33600
C  -2.71600 32.53100 22.34700
C  -3.21400 32.61800 23.88800
C  -1.65400 34.63200 21.14800
C  -2.24000 31.18600 21.82400
C  -3.13600 30.56800 20.73200
N  -4.23200 32.64300 26.64500
C  -4.71600 31.71300 25.63700
C  -5.63600 30.76800 26.26000
C  -5.63800 31.15000 27.61300
C  -4.78500 32.29900 27.75800
C  -6.48200 29.68800 25.61100
C  -6.20200 30.74100 28.93300
O  -6.99300 29.88000 29.26100
C  -5.58400 31.75500 29.94400
C  -6.70400 32.36200 30.66400
O  -7.57600 32.99400 30.14100
O  -6.47900 32.34100 32.01800
C  -7.36800 33.05100 32.96100
H  -1.73800 37.38700 29.47800
H  -0.48000 35.86700 23.39500
H  -4.73300 31.08000 23.60900
H  -5.15800 34.80500 31.20700
H  -2.47500 35.95800 31.21300
H  -5.17100 37.01000 31.51600
H  -4.31000 37.93900 30.34400
H  -3.55800 37.77300 31.91400
H  -2.39400 33.34400 31.64200
H  -3.86600 32.71000 32.21900
H  -3.68100 35.31700 33.38900
H  -2.12100 34.57900 33.44300
H  -0.48600 39.73200 27.11800
H  0.77600 38.77900 28.01800
H  -0.75600 39.03100 28.66700
H  2.27100 39.49900 24.52300
H  1.94800 39.00800 26.24000
H  0.85300 40.10900 25.25200
H  -0.66600 33.15900 22.47400
H  -3.53900 32.80400 21.68700
H  -2.19000 35.49100 21.55000
H  -2.22100 34.24300 20.30100
H  -0.63400 34.95200 20.93200
H  -2.26600 30.45300 22.63000
H  -1.19300 31.20500 21.52400
H  -3.20300 29.48700 20.85500
H  -2.83600 30.76500 19.70300
H  -4.12300 31.01200 20.86200
H  -5.98400 29.25100 24.74600
H  -7.41000 30.13500 25.25700
H  -6.71900 28.90700 26.33400
H  -4.90300 31.16500 30.55500
H  -6.99600 34.06400 33.11200
H  -7.38200 32.46000 33.87700
H  -8.41900 33.06700 32.67300

