158

Mg 23.47600 -6.92500 46.95900
C  25.87000 -4.64800 45.70700
C  21.11200 -5.33400 44.98200
C  21.37600 -9.20900 47.88100
C  26.08300 -8.26500 49.03100
N  23.53000 -5.21700 45.46000
C  24.66600 -4.51100 45.07100
C  24.27300 -3.42700 44.08600
C  22.68200 -3.37900 44.15000
C  22.37300 -4.75800 44.91500
C  21.98900 -2.10400 44.69800
C  24.91100 -3.72400 42.69700
C  26.03500 -2.79900 42.24600
H  25.64000 -1.82000 41.23000
N  21.46400 -7.28800 46.55400
C  20.72500 -6.50000 45.67100
C  19.39500 -6.99300 45.63300
C  19.40000 -8.15100 46.46500
C  20.79900 -8.26000 47.07000
C  18.26800 -6.34100 44.78800
C  18.17100 -9.10800 46.72500
O  17.10900 -9.08000 46.11100
C  18.36100 -10.21600 47.74400
N  23.77700 -8.67100 48.19700
C  22.63400 -9.42500 48.50300
C  23.02900 -10.60300 49.43100
C  24.52100 -10.15600 49.95000
C  24.83700 -8.99800 49.02400
C  21.99600 -10.97400 50.53300
C  25.62900 -11.22300 49.84200
C  26.63500 -11.27700 50.99900
N  25.62600 -6.58000 47.38100
C  26.51400 -7.16000 48.27500
C  27.82000 -6.55900 48.16800
C  27.61600 -5.57400 47.15200
C  26.26500 -5.61800 46.70000
C  29.04600 -7.00700 48.82000
C  28.32600 -4.58400 46.32600
O  29.49200 -4.20800 46.43400
C  27.18600 -3.81500 45.52400
C  26.97500 -2.53400 46.23200
O  26.08100 -2.27900 47.03100
O  27.92800 -1.62800 45.77100
C  27.80800 -0.21100 46.05900
H  20.33000 -4.71700 44.53700
H  20.77700 -10.05100 48.23700
H  26.91200 -8.52700 49.69300
H  24.66500 -2.47500 44.44300
H  22.19900 -3.51200 43.18200
H  22.69100 -1.41000 45.16000
H  21.40700 -2.40700 45.56800
H  21.36600 -1.59400 43.96300
H  24.15700 -3.73800 41.91000
H  25.23600 -4.76400 42.65500
H  26.81900 -3.35800 41.73500
H  26.37500 -2.33600 43.17200
H  17.38400 -6.88800 45.11600
H  18.45000 -6.51900 43.72800
H  18.12300 -5.28200 45.00500
H  17.42300 -10.68500 48.04000
H  18.72200 -9.71500 48.64300
H  18.96100 -11.04400 47.36600
H  23.13400 -11.43500 48.73500
H  24.46500 -9.76200 50.96400
H  22.48900 -11.05100 51.50200
H  21.48700 -11.91800 50.33500
H  21.34000 -10.11700 50.68500
H  26.23700 -11.19900 48.93700
H  25.10300 -12.17600 49.79000
H  26.44200 -10.57700 51.81200
H  27.66400 -11.04400 50.72400
H  26.65600 -12.23500 51.51800
H  29.48200 -7.89300 48.35600
H  28.99500 -7.04300 49.90800
H  29.90200 -6.34800 48.67700
H  27.60500 -3.56700 44.54800
H  27.92100 -0.10000 47.13800
H  26.88100 0.26700 45.74200
H  28.68700 0.27900 45.64100
Mg 47.18700 25.90800 29.16800
C  48.12700 27.95400 31.83400
C  45.87100 23.62600 31.52800
C  46.64000 23.60400 26.80800
C  48.71400 28.02100 26.99300
N  46.90500 25.85800 31.51100
C  47.34000 26.90600 32.34000
C  46.79400 26.62200 33.75000
C  46.28700 25.09100 33.73100
C  46.30700 24.84400 32.20400
C  47.07000 24.03300 34.64700
C  45.60800 27.62700 34.14300
C  45.75100 28.44800 35.49600
H  46.33200 27.65100 36.70500
N  46.36000 23.85800 29.18900
C  45.91400 23.14800 30.23300
C  45.33600 21.91800 29.74200
C  45.43000 21.85900 28.33900
C  46.15500 23.12900 28.03800
C  44.63600 20.89500 30.59300
C  44.96500 20.84000 27.26400
O  45.12200 21.02400 26.06100
C  44.24900 19.49700 27.65200
N  47.74400 25.80500 27.18800
C  47.35700 24.74500 26.37400
C  47.55900 25.11800 24.90900
C  48.16800 26.57400 24.89300
C  48.19900 26.89400 26.40400
C  48.41800 24.16700 24.07300
C  47.32000 27.57100 24.05300
C  48.08800 28.21000 22.87500
N  48.26200 27.54400 29.35700
C  48.78900 28.36600 28.38100
C  49.35200 29.53300 28.98500
C  49.13500 29.41200 30.34500
C  48.42900 28.18300 30.52200
C  50.20000 30.50600 28.14200
C  49.36600 30.08000 31.62000
O  50.02900 31.07100 31.85400
C  48.69200 29.12100 32.67500
C  49.74300 28.75600 33.67200
O  50.30500 27.66500 33.85200
O  49.70900 29.81800 34.60500
C  50.42300 29.53600 35.91800
H  45.34400 22.94100 32.19600
H  46.43100 23.02100 25.90900
H  48.99900 28.86300 26.35900
H  47.68600 26.67200 34.37500
H  45.25100 25.01400 34.05800
H  46.45300 23.51000 35.37900
H  47.93900 24.41500 35.18200
H  47.61400 23.33100 34.01400
H  44.62500 27.17300 34.01800
H  45.66400 28.34000 33.32100
H  44.77300 28.74400 35.87700
H  46.29500 29.37000 35.29300
H  43.58300 20.89200 30.31100
H  44.74600 21.18400 31.63800
H  45.04500 19.89100 30.48000
H  43.31600 19.83500 28.10400
H  44.91100 19.07200 28.40600
H  44.01100 18.85600 26.80300
H  46.54500 25.12800 24.50900
H  49.18200 26.50600 24.50000
H  48.08100 23.13300 24.14200
H  49.45700 24.27100 24.38800
H  48.31200 24.46400 23.03000
H  46.94200 28.33800 24.72900
H  46.44300 27.11900 23.58800
H  47.41100 28.40100 22.04200
H  48.79100 27.47900 22.47400
H  48.65900 29.11600 23.07900
H  49.64900 31.21500 27.52500
H  50.96800 29.92200 27.63500
H  50.71100 31.25100 28.75100
H  47.91300 29.71400 33.15500
H  50.66400 30.44700 36.46500
H  51.38200 29.02800 35.81400
H  49.75900 28.87900 36.47900

