158

Mg 25.26500 1.31100 29.68400
C  27.26100 1.00700 32.54500
C  22.58000 1.62400 31.66200
C  23.47500 1.23200 26.80700
C  28.10600 0.11800 27.84100
N  24.96300 1.40400 31.88500
C  25.91500 1.27400 32.84600
C  25.25800 1.33000 34.30700
C  23.71900 1.28100 33.98600
C  23.72700 1.46600 32.43800
C  23.02500 -0.08100 34.38000
C  25.81600 2.51000 35.17000
C  26.62600 2.18300 36.42900
H  26.45800 3.18400 37.54800
N  23.28200 1.55300 29.30100
C  22.29900 1.71700 30.28200
C  21.01500 1.90600 29.59300
C  21.28500 1.68600 28.15600
C  22.74200 1.54000 28.06500
C  19.69000 1.99100 30.36300
C  20.32300 1.65500 26.93900
O  20.62700 1.40900 25.77500
C  18.89100 1.88400 27.29100
N  25.70900 0.61200 27.69000
C  24.80100 0.86400 26.69900
C  25.45700 0.91800 25.29400
C  26.90100 0.69200 25.60200
C  26.98900 0.49900 27.16300
C  24.97400 -0.19200 24.35600
C  27.85800 1.77300 25.09300
C  27.92100 3.01000 25.93900
N  27.28400 0.68000 30.10100
C  28.27000 0.13900 29.27000
C  29.48300 -0.03600 30.07600
C  29.13900 0.37100 31.36900
C  27.82300 0.71300 31.29300
C  30.75700 -0.61400 29.53700
C  29.66600 0.57900 32.70700
O  30.78200 0.37400 33.19100
C  28.41400 0.94600 33.54100
C  28.26000 -0.11100 34.60300
O  27.64400 -1.14100 34.46300
O  29.00500 0.14600 35.73100
C  28.72100 -0.70600 36.88000
H  21.65500 1.61300 32.24300
H  22.93000 1.29200 25.86300
H  29.01600 -0.14700 27.29800
H  25.38800 0.35800 34.78200
H  23.16000 2.13800 34.36200
H  23.67900 -0.47100 35.16000
H  22.94100 -0.77600 33.54400
H  22.07700 0.17400 34.85400
H  24.90800 2.97500 35.55500
H  26.38000 3.31200 34.69500
H  27.67900 2.19000 36.14800
H  26.34300 1.19300 36.78500
H  19.27200 2.96000 30.08900
H  19.69900 1.73600 31.42300
H  18.98400 1.24400 30.00100
H  18.53900 0.98500 27.79900
H  18.25600 2.02700 26.41700
H  18.87500 2.79900 27.88200
H  25.31900 1.93200 24.91800
H  27.29800 -0.24800 25.21800
H  24.09800 0.26800 23.89900
H  24.73900 -1.17900 24.75300
H  25.67100 -0.41200 23.54800
H  27.52400 2.14100 24.12300
H  28.85000 1.32200 25.07500
H  27.27100 3.00400 26.81400
H  27.51700 3.84000 25.36100
H  28.92900 3.30000 26.23700
H  31.37800 0.24500 29.28200
H  30.63100 -1.26900 28.67500
H  31.14400 -1.29800 30.29200
H  28.81700 1.84800 34.00200
H  28.91100 -1.76600 36.71100
H  27.72100 -0.68600 37.31400
H  29.31700 -0.36100 37.72500
Mg 36.46200 48.73100 24.90000
C  36.19300 46.84000 27.72200
C  34.81200 51.43100 26.65000
C  35.83900 50.24200 21.92000
C  37.53900 45.89900 23.16400
N  35.61400 49.10700 26.96700
C  35.73100 48.19000 27.98500
C  35.39400 48.82200 29.38100
C  34.80700 50.17800 28.95800
C  35.06800 50.26900 27.41900
C  33.37500 50.46300 29.44200
C  36.47600 48.96800 30.47100
C  36.22600 48.99600 31.95400
H  34.80400 48.93700 32.46200
N  35.60900 50.62300 24.35900
C  35.07600 51.57700 25.24900
C  34.71400 52.79000 24.47300
C  34.95100 52.51500 23.09600
C  35.41700 51.04400 23.02500
C  34.11900 54.05500 25.03900
C  34.76300 53.40700 21.83800
O  35.13700 53.06400 20.69700
C  34.10600 54.75300 21.96700
N  36.60700 48.13300 22.83200
C  36.42800 48.98500 21.79000
C  36.75600 48.31300 20.44400
C  37.65400 47.15600 20.98700
C  37.17700 47.04200 22.39400
C  35.51800 47.88900 19.69700
C  39.21400 47.32900 20.73900
C  39.88200 48.72200 20.64100
N  36.74900 46.75100 25.26100
C  37.24600 45.68600 24.49400
C  37.36700 44.44300 25.25200
C  36.91400 44.86700 26.53300
C  36.57800 46.25800 26.46300
C  37.87600 43.02800 24.85500
C  36.64400 44.44500 27.87700
O  36.80200 43.29600 28.39200
C  36.20400 45.74000 28.69300
C  34.96300 45.45500 29.42600
O  33.80600 45.59200 29.02300
O  35.30800 44.99600 30.67500
C  34.29800 44.76300 31.69500
H  34.47500 52.29100 27.23200
H  35.62400 50.81600 21.01600
H  37.95500 45.05000 22.61800
H  34.57500 48.20000 29.74100
H  35.39400 51.00300 29.36100
H  32.65800 50.65700 28.64400
H  33.48900 51.27900 30.15500
H  32.89200 49.66500 30.00700
H  37.07200 49.86100 30.28400
H  37.33400 48.31300 30.31900
H  36.57900 49.96100 32.31800
H  36.87600 48.32600 32.51800
H  34.61900 54.91500 24.59200
H  34.44400 54.17900 26.07200
H  33.04800 54.02100 24.83800
H  33.16400 54.68700 22.51000
H  33.63500 55.05800 21.03300
H  34.83800 55.42600 22.41500
H  37.28700 48.98200 19.76700
H  37.33600 46.20000 20.57100
H  35.80800 47.05100 19.06300
H  35.09100 48.73300 19.15500
H  34.90400 47.50800 20.51300
H  39.44100 46.94700 19.74400
H  39.75000 46.65800 21.41000
H  40.52300 48.79800 19.76200
H  40.50400 48.83000 21.52900
H  39.17700 49.54300 20.77100
H  38.79500 42.67800 25.32500
H  37.96700 43.00300 23.76900
H  37.14700 42.26200 25.11900
H  36.99300 45.87200 29.43300
H  34.21900 43.68800 31.85500
H  33.30400 45.14900 31.46800
H  34.58400 45.09700 32.69200

