158

Mg 1.40100 8.58700 27.02200
C  2.06100 10.66000 29.82600
C  1.66500 5.92000 29.29700
C  1.49100 6.50800 24.49500
C  1.50600 11.34200 24.99800
N  1.76600 8.34900 29.27300
C  1.86800 9.35800 30.21700
C  1.95100 8.80800 31.65900
C  2.19700 7.22800 31.38300
C  1.79600 7.12200 29.90000
C  3.56300 6.61200 31.73300
C  0.69600 8.99200 32.52400
C  0.66000 8.94300 34.04700
H  1.85300 8.33400 34.67700
N  1.36900 6.49900 26.87000
C  1.51500 5.59900 27.90900
C  1.29600 4.25700 27.40300
C  1.24200 4.43100 25.92600
C  1.40000 5.85000 25.74500
C  1.34100 2.98500 28.24000
C  1.03200 3.33500 24.83200
O  0.79200 3.67400 23.69300
C  1.27600 1.87700 25.15200
N  1.40100 8.89200 25.07700
C  1.44400 7.84500 24.19300
C  1.49200 8.41200 22.75900
C  1.03100 9.88700 22.92300
C  1.33600 10.05900 24.42400
C  2.92900 8.23000 22.13200
C  -0.53900 10.15300 22.57500
C  -0.77500 11.15100 21.53300
N  1.65100 10.66900 27.27800
C  1.63300 11.70600 26.35400
C  2.00200 12.93200 27.00300
C  2.11300 12.59100 28.35800
C  1.90500 11.20300 28.46800
C  2.19300 14.17900 26.17700
C  2.38600 13.12500 29.70800
O  2.61700 14.25100 30.04800
C  2.14200 11.84900 30.68000
C  3.20800 11.84300 31.77200
O  4.37600 11.66600 31.55200
O  2.60500 12.21300 32.95600
C  3.52900 12.22800 34.10200
H  1.67300 5.10700 30.02600
H  1.69400 5.92500 23.59500
H  1.55500 12.22200 24.35400
H  2.81400 9.17300 32.21500
H  1.46200 6.59500 31.88100
H  3.46300 5.73900 32.37900
H  4.23400 7.36700 32.14300
H  4.05500 6.21300 30.84700
H  0.01900 8.24400 32.11200
H  0.18700 9.92600 32.28800
H  -0.23000 8.34900 34.25500
H  0.37300 9.91700 34.44200
H  0.74900 2.16700 27.82800
H  0.90200 3.30000 29.18700
H  2.36900 2.67500 28.42400
H  1.54900 1.37000 24.22700
H  0.31100 1.52200 25.51500
H  1.97500 1.75200 25.97800
H  0.76900 7.80600 22.21300
H  1.57100 10.60000 22.29900
H  3.51300 7.66600 22.86000
H  3.38300 9.21100 21.99500
H  2.81700 7.74100 21.16400
H  -1.20700 10.48100 23.37100
H  -0.91700 9.22200 22.15300
H  -0.51100 10.74000 20.55800
H  -0.32900 12.10400 21.81500
H  -1.85200 11.31700 21.48900
H  1.30200 14.80400 26.10100
H  2.27400 13.93100 25.11900
H  3.12500 14.60900 26.54500
H  1.24600 12.05800 31.26400
H  3.71500 13.26400 34.38500
H  4.52300 11.78600 34.03100
H  3.09300 11.64800 34.91400
Mg 8.73500 48.14300 25.30700
C  6.62100 48.60400 28.06700
C  11.37400 49.15500 27.21000
C  10.62300 47.56000 22.73000
C  5.82900 47.89100 23.19800
N  8.95300 48.75200 27.40800
C  7.95700 48.91100 28.42200
C  8.56700 49.10700 29.78700
C  9.85500 49.86500 29.23600
C  10.11600 49.18600 27.85700
C  9.58100 51.40900 29.15500
C  8.76400 47.88600 30.65000
C  8.31400 48.11000 32.12800
H  8.23000 46.78300 32.99600
N  10.66900 48.32900 24.99700
C  11.62500 48.72400 25.87600
C  12.95000 48.60700 25.32600
C  12.81400 48.04100 24.03000
C  11.32700 47.96800 23.80100
C  14.26800 48.75800 26.15700
C  13.82000 47.65500 22.94500
O  13.53400 47.25000 21.80500
C  15.25900 47.99400 23.11400
N  8.20200 47.90200 23.23300
C  9.26500 47.52500 22.45100
C  8.74700 47.09300 21.04200
C  7.18300 47.00400 21.20200
C  7.02500 47.67800 22.60600
C  9.34900 47.89200 19.83900
C  6.59900 45.52400 21.16600
C  5.43700 45.17900 20.28400
N  6.71800 48.34600 25.54500
C  5.70000 48.19000 24.59200
C  4.44500 48.06800 25.37800
C  4.86200 48.22600 26.72000
C  6.17200 48.45300 26.76000
C  3.07900 47.67700 24.86100
C  4.31900 48.22400 27.98800
O  3.13500 48.07500 28.30800
C  5.43800 48.56300 28.96300
C  5.56000 47.35200 29.86600
O  6.12200 46.27900 29.62900
O  4.94400 47.66700 30.99500
C  4.67400 46.66000 32.05500
H  12.22300 49.35700 27.86700
H  11.23100 47.15600 21.91800
H  4.97900 47.55200 22.60200
H  7.81800 49.74600 30.25500
H  10.70200 49.68100 29.89700
H  9.97200 51.80200 28.21600
H  10.23100 51.79100 29.94200
H  8.55000 51.70000 29.35400
H  9.82700 47.64800 30.70000
H  8.26900 47.05600 30.14600
H  7.33900 48.59300 32.06600
H  8.99400 48.81700 32.60300
H  14.15000 48.49100 27.20800
H  14.62300 49.78800 26.12200
H  15.02300 48.03000 25.86200
H  15.79400 47.26200 23.71900
H  15.23900 48.99500 23.54400
H  15.84400 47.92200 22.19800
H  9.08500 46.06400 20.91900
H  6.72200 47.63600 20.44300
H  10.27500 48.40100 20.10500
H  8.59700 48.61800 19.53100
H  9.55000 47.20800 19.01400
H  6.48900 45.15100 22.18500
H  7.38700 44.95300 20.67500
H  5.65000 44.35200 19.60700
H  5.12200 45.96600 19.59800
H  4.56200 44.93100 20.88400
H  2.88500 47.86200 23.80400
H  2.45400 48.27000 25.52800
H  2.83000 46.68000 25.22600
H  5.34500 49.40900 29.64500
H  4.99700 47.09200 33.00200
H  5.13800 45.69200 31.86700
H  3.58900 46.56800 32.11100

