158

Mg 16.59000 -2.53900 28.18500
C  16.04800 -0.39700 30.78600
C  18.52400 -4.54000 30.26800
C  17.55000 -4.45700 25.44000
C  15.13500 -0.23000 25.98900
N  17.31300 -2.36100 30.30400
C  16.74000 -1.54500 31.22800
C  17.21700 -1.98200 32.67400
C  17.91900 -3.36000 32.45300
C  17.92400 -3.44700 30.92900
C  19.41000 -3.41400 32.91700
C  15.99300 -2.14800 33.65600
C  15.91200 -1.29300 34.93200
H  17.31900 -0.84500 35.51000
N  17.81200 -4.38200 27.94400
C  18.45200 -4.95900 28.94300
C  19.30400 -5.99500 28.38600
C  18.88500 -6.21800 27.01500
C  18.04700 -5.00600 26.74500
C  20.21900 -6.87100 29.12800
C  19.19400 -7.35400 26.02500
O  18.78300 -7.38900 24.89400
C  20.06300 -8.43200 26.37100
N  16.53700 -2.33300 25.95200
C  16.91800 -3.28300 25.06500
C  16.93000 -2.72200 23.64900
C  15.72200 -1.63800 23.84000
C  15.80500 -1.32600 25.33600
C  18.26200 -2.26500 23.05800
C  14.31800 -2.19700 23.52900
C  13.89600 -2.41800 22.03900
N  15.68700 -0.75500 28.28900
C  15.11800 0.07100 27.36300
C  14.56300 1.26300 27.95700
C  14.90000 1.16800 29.34500
C  15.53100 -0.06800 29.48200
C  13.66300 2.18500 27.25800
C  14.78500 1.76100 30.64000
O  14.35000 2.85600 30.97900
C  15.44200 0.69500 31.66600
C  16.34200 1.66100 32.44200
O  17.48800 1.93500 32.13500
O  15.68700 2.11700 33.55300
C  16.42000 3.12400 34.34700
H  19.00800 -5.25600 30.93500
H  17.75600 -5.07000 24.55900
H  14.60000 0.42600 25.30000
H  17.96800 -1.25100 32.97300
H  17.36800 -4.21600 32.84400
H  19.64600 -2.72400 33.72700
H  20.15000 -3.26600 32.13100
H  19.64700 -4.37300 33.37800
H  16.03200 -3.17100 34.03000
H  15.07500 -1.97600 33.09500
H  15.42700 -1.81900 35.75500
H  15.26900 -0.45400 34.66700
H  19.87200 -7.89200 28.96900
H  20.13200 -6.69800 30.20100
H  21.20300 -6.75800 28.67400
H  20.99400 -7.99300 26.73100
H  20.25500 -9.03800 25.48600
H  19.40000 -8.95500 27.06000
H  16.56200 -3.55800 23.05300
H  15.92400 -0.74000 23.25700
H  18.19800 -1.30000 22.55500
H  18.51800 -2.94800 22.24800
H  19.06000 -2.29600 23.79900
H  13.48200 -1.72100 24.04100
H  14.36600 -3.17800 24.00300
H  13.51400 -1.54800 21.50300
H  13.07200 -3.13000 22.00000
H  14.72000 -2.83300 21.45900
H  13.30900 1.86100 26.27900
H  14.33000 3.04300 27.16900
H  12.86800 2.41700 27.96700
H  14.53700 0.48500 32.23500
H  17.47800 2.88800 34.46600
H  15.82400 3.07600 35.25800
H  16.38300 4.13300 33.93500
Mg 35.55800 0.51600 29.02200
C  33.41400 1.77800 31.57900
C  38.13100 0.80300 31.30900
C  37.58500 -0.15000 26.51600
C  32.83500 0.98800 26.80100
N  35.76400 1.24200 31.23600
C  34.76600 1.53600 32.09500
C  35.21000 1.65800 33.55400
C  36.79000 1.48200 33.45000
C  36.91300 1.18300 31.91300
C  37.50500 2.81900 33.71800
C  34.51400 0.57900 34.50000
C  34.56000 0.76600 36.06400
H  35.23200 2.07200 36.54200
N  37.59900 0.36700 28.90000
C  38.46800 0.50600 29.92100
C  39.85200 0.09800 29.43200
C  39.70500 -0.20900 27.98000
C  38.26200 0.04600 27.74900
C  40.98800 -0.00600 30.43200
C  40.63100 -0.68300 26.89200
O  40.28900 -1.08200 25.79900
C  42.01500 -0.90200 27.28900
N  35.17700 0.37900 26.93900
C  36.23500 0.11700 26.15000
C  35.82100 0.12800 24.63300
C  34.26600 0.48300 24.78500
C  34.04600 0.60900 26.29400
C  36.70700 1.18600 23.79700
C  33.33600 -0.57900 24.05700
C  33.05400 -1.89200 24.76500
N  33.51400 1.09200 29.14000
C  32.50600 1.22100 28.14000
C  31.20400 1.62200 28.69800
C  31.53200 1.88800 30.07400
C  32.93300 1.59300 30.24000
C  30.01700 1.81800 27.84300
C  31.01200 2.36900 31.32400
O  29.92000 2.71100 31.62900
C  32.16600 2.23600 32.36600
C  32.33500 3.45000 33.25500
O  33.03600 4.34200 32.90100
O  31.62100 3.27400 34.44800
C  31.73400 4.40300 35.40500
H  38.98600 0.80000 31.98800
H  38.13400 -0.45600 25.62300
H  32.10800 1.22500 26.02200
H  34.98200 2.66100 33.91500
H  37.01100 0.68500 34.15900
H  36.82900 3.67300 33.66300
H  38.31000 2.98400 33.00100
H  38.10000 2.94100 34.62400
H  35.14200 -0.24100 34.15400
H  33.46400 0.41400 34.25900
H  34.97600 -0.07500 36.62000
H  33.51300 0.86600 36.35200
H  41.94800 -0.29300 30.00400
H  40.70600 -0.77800 31.14700
H  41.06600 1.00600 30.82900
H  42.54800 -0.10100 27.80100
H  42.64500 -1.33800 26.51400
H  41.85000 -1.74400 27.96200
H  35.93700 -0.90300 24.29900
H  33.92900 1.45700 24.43000
H  37.07800 0.70500 22.89200
H  37.54900 1.52400 24.40200
H  36.05700 2.03800 23.60100
H  33.64300 -0.76200 23.02700
H  32.43700 0.03600 24.08800
H  32.03300 -1.92500 25.14600
H  33.67500 -2.02600 25.65000
H  33.31600 -2.65900 24.03600
H  30.14300 1.81500 26.76000
H  29.53200 2.74400 28.15200
H  29.23800 1.09100 28.07200
H  31.87000 1.48800 33.10200
H  31.23300 5.24000 34.91900
H  32.75300 4.78900 35.45000
H  31.16900 4.15900 36.30400

