158

Mg 40.72300 8.36900 29.49400
C  42.34500 9.74200 32.22800
C  38.59300 6.71300 31.67900
C  39.36900 6.90000 26.77900
C  43.24800 9.56300 27.50500
N  40.50100 8.31500 31.67600
C  41.30000 8.99600 32.62000
C  40.58300 8.99000 34.00400
C  39.49200 7.82700 33.77700
C  39.51900 7.60000 32.27100
C  39.63700 6.49800 34.50400
C  39.93900 10.28100 34.44900
C  39.47400 10.39600 35.96000
H  40.10300 11.59400 36.72800
N  39.29500 6.97000 29.28000
C  38.49200 6.43300 30.28100
C  37.52100 5.55000 29.69900
C  37.53600 5.76100 28.32300
C  38.75000 6.62700 28.05800
C  36.78000 4.53600 30.51200
C  36.66500 5.03900 27.35400
O  37.03900 4.92300 26.22200
C  35.40000 4.40500 27.66100
N  41.18900 8.24400 27.35100
C  40.47300 7.65000 26.44000
C  41.01700 7.87700 24.99100
C  42.30200 8.68700 25.28100
C  42.27900 8.84800 26.81200
C  41.27600 6.51400 24.44600
C  42.36100 10.07400 24.59800
C  41.44900 10.32300 23.38900
N  42.49600 9.44300 29.75600
C  43.46800 9.75500 28.87500
C  44.46500 10.59800 29.55500
C  44.06500 10.69200 30.85300
C  42.89700 9.88200 30.93200
C  45.67500 11.18600 28.89800
C  44.38800 11.21700 32.17600
O  45.32000 11.90900 32.53400
C  43.21200 10.72800 33.10200
C  43.85500 10.10300 34.25000
O  44.86300 9.42700 34.34000
O  43.03100 10.38800 35.37700
C  43.37200 9.62700 36.63000
H  37.86400 6.19900 32.30900
H  38.78700 6.56800 25.91700
H  44.07200 9.89300 26.86700
H  41.23300 8.78500 34.85400
H  38.50900 8.15000 34.12000
H  39.09000 6.61200 35.43900
H  40.67300 6.42700 34.83600
H  39.42100 5.60800 33.91200
H  39.06400 10.56500 33.86500
H  40.75400 11.00400 34.42200
H  39.72300 9.42300 36.38400
H  38.39900 10.50000 35.81700
H  35.74000 4.80700 30.69200
H  37.16100 4.33800 31.51400
H  36.91800 3.60000 29.97200
H  35.61400 3.43600 28.11100
H  34.84700 4.28100 26.73100
H  34.85500 5.05000 28.35000
H  40.23500 8.42000 24.45900
H  43.25500 8.21100 25.05100
H  42.18900 6.49100 23.85200
H  40.48800 6.22200 23.75100
H  41.45700 5.78400 25.23400
H  43.37400 10.41600 24.38500
H  42.01800 10.83100 25.30400
H  41.29000 9.43800 22.77200
H  41.90400 11.04600 22.71200
H  40.50300 10.76400 23.70400
H  45.72600 12.16300 29.37900
H  45.59600 11.27900 27.81500
H  46.48300 10.60100 29.33800
H  42.56800 11.55700 33.39600
H  43.06600 8.58800 36.51000
H  42.80700 10.05000 37.46100
H  44.44700 9.72100 36.78200
Mg 15.62600 52.24400 26.00800
C  17.66700 51.22400 28.58500
C  13.01700 52.64100 28.02700
C  13.73200 52.72300 23.28900
C  18.34300 51.13400 23.79200
N  15.35600 51.90400 28.04500
C  16.33400 51.70500 28.95100
C  15.80400 51.96000 30.38300
C  14.26100 52.10200 30.15900
C  14.16700 52.25400 28.69200
C  13.47500 50.91400 30.58800
C  16.42700 53.20100 30.99300
C  16.65200 53.13900 32.60700
H  16.03200 52.07700 33.40600
N  13.67200 52.76300 25.74800
C  12.71900 52.88900 26.67700
C  11.49500 53.41400 26.14000
C  11.59100 53.36100 24.74300
C  13.08800 52.94700 24.48900
C  10.27300 53.69600 27.01300
C  10.46100 53.50900 23.66700
O  10.58500 53.26300 22.50400
C  9.05600 53.93200 24.07500
N  15.99900 52.02900 23.81700
C  15.02300 52.36200 22.95700
C  15.52800 52.26100 21.51500
C  17.04400 51.86600 21.66400
C  17.16400 51.72700 23.21000
C  14.73400 51.30700 20.54100
C  18.05500 52.89300 21.05700
C  19.26100 52.27700 20.22400
N  17.55300 51.25500 26.09900
C  18.59400 51.01700 25.16400
C  19.75800 50.49300 25.82300
C  19.43500 50.53200 27.19300
C  18.08700 51.00100 27.29300
C  21.03500 50.10400 25.07900
C  19.91000 50.27400 28.52100
O  21.06800 49.98200 28.87200
C  18.77100 50.72600 29.47800
C  18.41100 49.49800 30.24200
O  17.90900 48.49200 29.72500
O  18.66500 49.66300 31.56400
C  18.20300 48.63800 32.48600
H  12.22800 53.00100 28.69100
H  13.13200 52.91900 22.39800
H  19.20100 51.04600 23.12300
H  15.99900 51.10700 31.03300
H  13.89300 53.03100 30.59600
H  12.72200 51.16900 31.33400
H  14.09600 50.09100 30.94200
H  12.89700 50.48300 29.77000
H  15.88300 54.11800 30.76600
H  17.43300 53.18500 30.57500
H  16.31800 54.10700 32.98100
H  17.73100 53.06100 32.74000
H  10.41300 53.68500 28.09400
H  9.50000 52.93300 26.92000
H  9.87500 54.66100 26.70000
H  9.05500 54.99900 24.29400
H  8.61400 53.38900 24.91000
H  8.52400 53.70200 23.15100
H  15.46900 53.29400 21.17100
H  17.20800 50.94300 21.10800
H  13.80500 51.02800 21.03900
H  15.36600 50.45900 20.27600
H  14.49300 51.86700 19.63800
H  18.43900 53.56100 21.82700
H  17.54100 53.44600 20.27100
H  19.35900 51.19700 20.32800
H  20.12600 52.69200 20.74100
H  19.34100 52.63000 19.19600
H  21.16700 50.63700 24.13800
H  21.02000 49.02500 24.92500
H  21.84800 50.30500 25.77600
H  19.22000 51.36300 30.24000
H  18.81000 47.73300 32.50500
H  17.23400 48.30200 32.11600
H  17.96400 49.01000 33.48200

