158

Mg 1.50700 -2.63800 45.68000
C  4.91900 -1.94100 45.46700
C  0.85800 0.26800 43.98400
C  -1.75400 -3.68300 45.33700
C  2.25300 -5.61700 47.20600
N  2.75700 -1.15300 44.57000
C  4.12600 -1.04800 44.68500
C  4.65500 0.18600 43.92100
C  3.35700 1.01700 43.92900
C  2.23600 0.02800 44.14000
C  3.35200 2.26700 44.89700
C  5.25600 -0.14300 42.59500
C  6.41200 0.81100 42.18400
H  6.40100 1.31700 40.74900
N  -0.16300 -1.79000 44.75500
C  -0.23500 -0.49500 44.22400
C  -1.60700 -0.23100 43.97100
C  -2.47000 -1.32600 44.38900
C  -1.45200 -2.38200 44.87300
C  -2.01100 1.15200 43.37000
C  -3.94100 -1.40100 44.24100
O  -4.50900 -0.32200 43.95900
C  -4.73100 -2.61100 44.58700
N  0.32000 -4.53400 46.10500
C  -0.94200 -4.75000 45.83800
C  -1.39500 -6.06100 46.33100
C  -0.00500 -6.78800 46.73700
C  0.91300 -5.53600 46.76200
C  -2.28800 -5.98700 47.62300
C  0.47700 -7.71900 45.51900
C  1.12000 -9.07600 45.86600
N  3.20800 -3.59100 46.23900
C  3.36400 -4.77500 46.94300
C  4.75000 -4.94600 47.35200
C  5.40300 -3.82700 46.76200
C  4.42600 -3.06800 46.08600
C  5.22600 -6.04200 48.21100
C  6.67000 -3.14800 46.61200
O  7.77900 -3.34700 47.11900
C  6.42700 -1.95200 45.63900
C  6.89600 -0.69200 46.32500
O  6.59800 -0.41200 47.50500
O  7.67900 0.10200 45.56900
C  8.03100 1.49900 45.97100
H  0.63100 1.30800 43.73900
H  -2.81200 -3.94600 45.28000
H  2.48200 -6.55400 47.71800
H  5.39600 0.69000 44.54000
H  3.05800 1.53600 43.01800
H  2.63400 2.17200 45.71200
H  3.07100 3.18400 44.38000
H  4.38300 2.51400 45.14900
H  4.44200 -0.12700 41.87000
H  5.73300 -1.12300 42.59500
H  7.39400 0.36500 42.33800
H  6.29000 1.67000 42.84300
H  -2.68700 1.60100 44.09800
H  -2.42400 1.21300 42.36300
H  -1.17300 1.84900 43.37800
H  -4.55100 -2.92600 45.61400
H  -4.46600 -3.32500 43.80700
H  -5.80200 -2.50100 44.41800
H  -1.97600 -6.50500 45.52300
H  -0.13400 -7.19900 47.73800
H  -2.48800 -4.93500 47.82300
H  -1.79300 -6.40400 48.50000
H  -3.26100 -6.46500 47.51200
H  1.18900 -7.17100 44.90300
H  -0.37000 -8.08500 44.93900
H  2.14900 -9.13100 45.51000
H  0.75200 -9.88000 45.22900
H  1.05800 -9.36000 46.91600
H  5.27600 -6.87800 47.51300
H  4.53400 -6.29000 49.01600
H  6.26600 -5.88400 48.49800
H  7.06000 -2.16900 44.77900
H  7.94200 2.19200 45.13500
H  9.04800 1.54900 46.36000
H  7.33000 1.91000 46.69700
Mg 23.73300 -5.28400 45.86200
C  25.77100 -2.98000 44.36000
C  21.08900 -4.10900 43.99400
C  21.93500 -8.12000 46.61800
C  26.47700 -6.72100 47.54200
N  23.54300 -3.68300 44.25400
C  24.44100 -2.78400 43.92600
C  23.83200 -1.70900 42.92200
C  22.31100 -1.95900 43.27600
C  22.26400 -3.31900 43.88700
C  21.53200 -1.04000 44.30300
C  24.40400 -2.25300 41.49800
C  25.02300 -1.24400 40.46300
H  24.36000 -1.16800 39.13700
N  21.73900 -5.99600 45.39000
C  20.85600 -5.33500 44.52300
C  19.72700 -6.13500 44.36100
C  19.85500 -7.27500 45.29500
C  21.24200 -7.17200 45.77900
C  18.49000 -5.77100 43.49200
C  18.76600 -8.31200 45.62400
O  17.62300 -8.12300 45.18200
C  19.00500 -9.49100 46.53400
N  24.12600 -7.21900 46.97200
C  23.21000 -8.15100 47.07800
C  23.82400 -9.42500 47.76500
C  25.16800 -8.87400 48.40100
C  25.28300 -7.54400 47.55900
C  22.96200 -10.13000 48.80700
C  26.37300 -9.80700 48.23300
C  27.40400 -9.92400 49.36900
N  25.72800 -4.91800 46.05100
C  26.72300 -5.53800 46.77000
C  27.95500 -4.79100 46.62600
C  27.64600 -3.74000 45.69600
C  26.28500 -3.90900 45.33200
C  29.22400 -5.13700 47.21300
C  28.09600 -2.58100 44.95500
O  29.21500 -2.12300 45.00100
C  27.02500 -2.10100 44.04800
C  26.83400 -0.62100 44.27600
O  26.04400 -0.06900 45.07000
O  27.71800 0.11600 43.47500
C  27.56000 1.52500 43.62800
H  20.26800 -3.72700 43.38300
H  21.31900 -9.01400 46.73900
H  27.31700 -7.07000 48.14600
H  24.24300 -0.72900 43.16400
H  21.74900 -1.99300 42.34300
H  20.73500 -0.61200 43.69500
H  22.20500 -0.28300 44.70500
H  21.12300 -1.53400 45.18400
H  23.61100 -2.87600 41.08400
H  25.24500 -2.94400 41.55700
H  26.03800 -1.61500 40.32000
H  24.90600 -0.29000 40.97800
H  18.18400 -6.57900 42.82800
H  18.66700 -4.99500 42.74700
H  17.70800 -5.30200 44.08800
H  18.15100 -10.16900 46.55100
H  19.37200 -9.08800 47.47800
H  19.79600 -10.02200 46.00300
H  24.24400 -10.14200 47.05900
H  25.15600 -8.54800 49.44100
H  23.01900 -9.66500 49.79100
H  23.12300 -11.20100 48.92500
H  21.89600 -10.13600 48.57600
H  26.92400 -9.36700 47.40200
H  26.04700 -10.84600 48.19100
H  27.29000 -10.80400 50.00200
H  27.21200 -9.11100 50.06900
H  28.41700 -9.80600 48.98400
H  29.94700 -5.44900 46.45900
H  29.18200 -5.95200 47.93500
H  29.65300 -4.31700 47.78900
H  27.38200 -2.22100 43.02500
H  27.74800 1.78400 44.67000
H  26.63300 1.92600 43.21900
H  28.38200 1.98800 43.08100

