158

Mg -0.28700 7.32000 25.23200
C  0.56800 9.47700 27.91200
C  0.21100 4.69600 27.48400
C  -0.80900 5.36200 22.63200
C  0.51600 9.92900 23.03900
N  0.15400 7.16000 27.45700
C  0.26400 8.16200 28.33300
C  0.48900 7.63800 29.81000
C  0.64800 6.09100 29.59900
C  0.31300 5.98900 28.07200
C  2.07100 5.52900 29.79200
C  -0.70300 8.00600 30.64200
C  -0.61500 7.64500 32.10900
H  0.77600 7.86200 32.69100
N  -0.32500 5.30900 25.06400
C  -0.07900 4.38800 26.07700
C  -0.23300 3.07100 25.42500
C  -0.57300 3.22600 24.06200
C  -0.60400 4.65800 23.90900
C  0.07700 1.86700 26.22400
C  -0.98000 2.21000 23.03300
O  -1.26200 2.50100 21.83900
C  -0.93300 0.80800 23.31900
N  -0.19700 7.62900 23.07100
C  -0.53400 6.66700 22.21900
C  -0.78800 7.19000 20.82500
C  -0.39200 8.74800 20.91100
C  0.06200 8.78500 22.39300
C  0.03600 6.45400 19.67200
C  -1.47400 9.83700 20.53200
C  -2.65700 9.82800 21.43800
N  0.28700 9.29700 25.38500
C  0.52700 10.24800 24.38100
C  0.91000 11.58700 24.99800
C  0.91200 11.26900 26.37400
C  0.54900 9.95100 26.54000
C  1.14700 12.95500 24.33900
C  1.10500 11.83600 27.66100
O  1.40900 12.97500 28.00700
C  0.88200 10.69200 28.75000
C  2.10400 10.54400 29.49000
O  3.20200 10.26100 28.99200
O  1.83900 10.77100 30.80800
C  2.98400 11.03600 31.67200
H  0.26200 3.85600 28.18000
H  -0.92000 4.84500 21.67700
H  0.62800 10.81500 22.41000
H  1.38400 8.11900 30.20400
H  0.04700 5.52100 30.30800
H  2.64500 6.16400 30.46700
H  2.60600 5.48700 28.84400
H  2.02000 4.54900 30.26700
H  -1.58300 7.52200 30.21800
H  -0.90900 9.07500 30.57700
H  -0.90900 6.62000 32.33500
H  -1.11800 8.35300 32.76600
H  0.96700 2.08500 26.81500
H  0.38300 1.08500 25.53100
H  -0.63300 1.48900 26.96000
H  -1.55700 0.47700 24.15000
H  0.11100 0.54400 23.48500
H  -1.28000 0.18600 22.49400
H  -1.85700 7.07600 20.64400
H  0.46800 8.82800 20.24700
H  0.39200 7.17700 18.93800
H  -0.62200 5.75400 19.15700
H  0.88700 5.90800 20.07800
H  -1.76300 9.79400 19.48200
H  -1.15000 10.87800 20.53800
H  -2.43300 9.38700 22.41000
H  -3.54900 9.39500 20.98500
H  -2.84300 10.88600 21.62100
H  0.34300 13.68100 24.46300
H  1.26100 12.84700 23.26100
H  2.07300 13.39200 24.71500
H  0.03900 10.87200 29.41700
H  3.77300 11.63400 31.21600
H  3.30700 10.12300 32.17200
H  2.61000 11.63000 32.50500
Mg 42.93400 4.49600 47.89900
C  40.99300 7.42300 48.01100
C  40.08000 2.56700 47.73100
C  44.80800 1.86200 47.07600
C  45.79200 6.56500 47.63000
N  40.83300 5.03300 47.64900
C  40.25300 6.29500 47.81000
C  38.75000 6.22200 47.91700
C  38.57300 4.70700 48.16400
C  39.89700 4.02600 47.71500
C  38.36100 4.37800 49.63400
C  37.99300 6.72000 46.66100
C  38.73500 6.62400 45.26900
H  38.98900 7.67500 44.28300
N  42.47500 2.51600 47.49000
C  41.32000 1.89800 47.60600
C  41.42600 0.45100 47.43200
C  42.82200 0.19900 47.23500
C  43.44100 1.57900 47.25000
C  40.22900 -0.42000 47.46400
C  43.41700 -1.14800 47.10000
O  42.69600 -2.14100 47.16700
C  44.92700 -1.39400 46.85100
N  45.01600 4.29000 47.42100
C  45.49900 3.07100 47.04500
C  46.99600 3.11000 46.93200
C  47.37000 4.59500 47.23400
C  45.99500 5.21300 47.43100
C  47.70100 2.07900 47.85300
C  48.28500 5.25700 46.13700
C  49.60700 5.81400 46.60000
N  43.38500 6.54600 47.92100
C  44.62100 7.24900 47.86000
C  44.30800 8.69100 47.95600
C  42.94500 8.76000 47.97100
C  42.42900 7.49000 47.98200
C  45.41700 9.78200 47.99900
C  41.89500 9.74000 48.17300
O  41.92200 10.97300 48.32900
C  40.58500 8.86900 48.11100
C  39.78100 9.10500 49.28900
O  40.09900 8.71700 50.40600
O  38.75600 9.94400 48.98100
C  37.94900 10.32700 50.15100
H  39.19800 1.93400 47.85100
H  45.47100 1.02200 46.85700
H  46.69200 7.18200 47.58000
H  38.54400 6.94400 48.70600
H  37.75200 4.17300 47.68400
H  37.76200 5.14000 50.13300
H  39.31100 4.27300 50.15800
H  37.70600 3.50800 49.68700
H  37.85300 7.79700 46.75600
H  37.00200 6.27300 46.73200
H  38.18400 5.82000 44.78200
H  39.77400 6.30100 45.33200
H  39.48300 -0.15600 46.71400
H  39.65100 -0.32100 48.38300
H  40.38100 -1.48600 47.29700
H  45.59300 -1.05500 47.64400
H  45.21700 -0.83500 45.96100
H  44.93300 -2.46000 46.62000
H  47.25900 2.78400 45.92500
H  47.81100 4.72500 48.22200
H  47.03000 1.45900 48.44700
H  48.37600 2.70500 48.43700
H  48.29700 1.38200 47.26300
H  47.70200 6.09100 45.74600
H  48.41500 4.51600 45.34800
H  49.61700 6.81000 46.15700
H  50.49600 5.38900 46.13400
H  49.66800 5.88200 47.68700
H  46.42500 9.38200 47.88500
H  45.34000 10.35900 48.92000
H  45.33000 10.40500 47.10900
H  39.99200 9.08800 47.22400
H  36.89600 10.04900 50.12200
H  37.82100 11.40700 50.22200
H  38.30800 10.01800 51.13300

