158

Mg 40.49900 9.34700 29.61900
C  42.16100 10.45800 32.37000
C  38.27000 7.52300 31.65300
C  38.90900 8.17700 26.90600
C  43.03200 10.61800 27.57500
N  40.29900 8.94300 31.76900
C  41.04200 9.66600 32.65100
C  40.54700 9.38500 34.08000
C  39.42000 8.30000 33.81900
C  39.29100 8.25300 32.33500
C  39.67900 6.84700 34.41100
C  39.90100 10.71500 34.77700
C  39.41800 10.49100 36.26700
H  39.99400 11.29000 37.41800
N  38.82100 8.03200 29.29900
C  38.00300 7.52000 30.22000
C  36.88700 6.85100 29.61500
C  37.00100 7.14800 28.19800
C  38.29400 7.78400 28.07900
C  35.84800 6.17400 30.43900
C  36.00000 6.90300 27.06600
O  36.14800 7.22600 25.89400
C  34.56700 6.27700 27.44700
N  41.07200 9.07200 27.55900
C  40.19000 8.76400 26.63300
C  40.70000 9.04400 25.26500
C  41.78100 10.14800 25.51900
C  41.96600 9.95800 27.02900
C  41.27100 7.77400 24.54000
C  41.32000 11.49600 24.99600
C  40.70800 12.55900 25.91700
N  42.34100 10.25700 29.85500
C  43.21500 10.73700 28.95800
C  44.26300 11.51500 29.67700
C  43.89100 11.35500 30.97400
C  42.72700 10.58800 31.06000
C  45.29600 12.39400 29.02200
C  44.21000 11.85300 32.30800
O  45.02600 12.72200 32.68100
C  43.11600 11.19700 33.24200
C  43.78500 10.42600 34.27400
O  44.68400 9.65600 34.06700
O  43.09800 10.69900 35.48900
C  43.75300 10.12300 36.65400
H  37.56700 7.09600 32.37100
H  38.44100 7.82400 25.98500
H  43.83500 11.07000 26.98900
H  41.30100 8.94900 34.73500
H  38.43200 8.52600 34.21900
H  38.83700 6.59600 35.05700
H  40.54000 6.92900 35.07500
H  39.73200 6.06200 33.65700
H  39.00700 10.93700 34.19400
H  40.63000 11.51400 34.64100
H  39.43200 9.41800 36.46100
H  38.36400 10.76600 36.22700
H  35.30000 5.41100 29.88700
H  35.06300 6.83900 30.79800
H  36.38100 5.64600 31.23000
H  33.83700 6.62300 26.71600
H  34.31300 6.81800 28.35800
H  34.61400 5.22700 27.73800
H  39.89600 9.49200 24.68000
H  42.81800 10.03100 25.20500
H  40.93000 6.83800 24.98200
H  42.35900 7.72400 24.58800
H  40.89100 7.76900 23.51800
H  40.58400 11.31600 24.21200
H  42.19200 11.96800 24.54400
H  40.88200 12.34700 26.97200
H  39.63000 12.70900 25.85300
H  41.15000 13.54800 25.79800
H  45.04100 12.89500 28.08800
H  46.11200 11.72600 28.74700
H  45.65400 13.15300 29.71700
H  42.48100 12.01500 33.58300
H  43.53700 9.05500 36.64100
H  43.58200 10.64200 37.59800
H  44.84100 10.17500 36.62100
Mg 6.59200 54.03900 41.64700
C  5.53300 50.59700 41.05400
C  9.76200 53.04600 40.54500
C  7.35500 57.27700 41.65600
C  3.26700 54.67500 42.55200
N  7.44600 52.17600 40.63000
C  6.84600 50.93400 40.61800
C  7.73200 49.85900 40.08200
C  9.08500 50.51800 40.26600
C  8.76300 52.02700 40.44600
C  10.05300 49.97300 41.35900
C  7.53100 49.37400 38.55600
C  6.82400 50.35400 37.65100
H  7.66000 51.03100 36.52900
N  8.33800 55.04000 41.08400
C  9.57100 54.41300 40.72200
C  10.52100 55.47900 40.57700
C  9.84200 56.76200 40.76800
C  8.45800 56.41800 41.15600
C  11.93800 55.22400 40.13600
C  10.55300 58.08500 40.59400
O  11.72600 58.18600 40.30400
C  9.78200 59.39200 40.65800
N  5.38400 55.75800 41.85400
C  6.00900 56.95900 42.08300
C  4.91800 58.00100 42.40400
C  3.65400 57.19000 42.71600
C  4.07300 55.77900 42.38900
C  5.44700 59.08300 43.51000
C  2.36100 57.58300 41.94000
C  1.08400 57.75900 42.73300
N  4.76900 52.87000 41.78100
C  3.54100 53.29100 42.25300
C  2.57000 52.22800 42.34600
C  3.33600 51.13600 41.90400
C  4.66100 51.57500 41.53200
C  1.21900 52.33000 42.94200
C  3.40200 49.67400 41.69500
O  2.56100 48.78700 41.97700
C  4.81300 49.29600 41.16700
C  4.64900 48.43900 39.93800
O  4.24000 48.71100 38.86400
O  5.20600 47.21500 40.31200
C  5.23900 46.16600 39.36800
H  10.75100 52.89200 40.11000
H  7.61900 58.33700 41.66000
H  2.20500 54.79600 42.77900
H  7.72700 48.98500 40.73300
H  9.66300 50.46700 39.34200
H  9.69000 49.14500 41.96900
H  10.31800 50.69900 42.12700
H  10.93300 49.59800 40.83800
H  6.99500 48.42500 38.56100
H  8.49500 49.05700 38.15900
H  6.29900 51.18800 38.11600
H  6.06700 49.73400 37.17000
H  12.00100 55.80400 39.21500
H  12.16100 54.18500 39.89700
H  12.61300 55.68400 40.85800
H  10.48000 60.20400 40.45800
H  9.27600 59.48100 41.62000
H  9.02900 59.31400 39.87400
H  4.85800 58.64400 41.52600
H  3.40500 57.13100 43.77600
H  5.59900 60.05400 43.03800
H  6.38100 58.67900 43.90000
H  4.70900 59.13900 44.31000
H  2.08100 56.75400 41.28900
H  2.49900 58.48400 41.34300
H  1.34500 57.74500 43.79100
H  0.35100 56.96500 42.58600
H  0.63100 58.73300 42.54900
H  0.65700 53.04500 42.34000
H  1.25500 52.63500 43.98800
H  0.77400 51.35200 43.12100
H  5.36300 48.76600 41.94500
H  5.87600 45.44700 39.88500
H  5.56900 46.43700 38.36600
H  4.20400 45.82300 39.34300

