158

Mg -2.10800 17.58600 26.94000
C  -2.48300 15.29900 29.55600
C  -2.89100 20.19200 28.94000
C  -2.22000 19.50400 24.19200
C  -2.11200 14.65300 24.74800
N  -2.60100 17.72000 28.95300
C  -2.51600 16.65500 29.89200
C  -2.79100 17.04600 31.30300
C  -3.24200 18.49400 31.04700
C  -2.97600 18.89600 29.50700
C  -4.62000 19.01100 31.58300
C  -1.71900 16.66400 32.37300
C  -1.46300 17.56000 33.61900
H  -1.35500 16.86600 35.01400
N  -2.35300 19.67500 26.60600
C  -2.56500 20.55000 27.60900
C  -2.38000 21.87900 27.02700
C  -2.25300 21.74100 25.59800
C  -2.31200 20.29100 25.39400
C  -2.57400 23.12500 27.91500
C  -2.12700 22.78600 24.44400
O  -2.14200 22.47300 23.25800
C  -1.97200 24.21000 24.76900
N  -2.44200 17.15600 24.78500
C  -2.28900 18.16500 23.92900
C  -2.21300 17.69000 22.50800
C  -2.32100 16.16300 22.65100
C  -2.20200 15.98200 24.16800
C  -3.24700 18.31800 21.46900
C  -1.24600 15.30100 21.84400
C  0.22800 15.46900 22.17900
N  -2.18200 15.40000 27.03700
C  -2.15700 14.35800 26.07100
C  -2.36500 13.07400 26.72400
C  -2.40000 13.36600 28.13400
C  -2.30400 14.76300 28.24700
C  -2.43500 11.77600 26.09300
C  -2.52600 12.83800 29.47100
O  -2.55000 11.66400 29.81400
C  -2.63700 14.02500 30.46600
C  -1.47700 13.77800 31.29500
O  -0.30600 14.16900 31.15700
O  -1.94200 12.99900 32.28800
C  -0.91800 12.73900 33.32700
H  -3.01100 20.94100 29.72600
H  -2.02000 20.13000 23.31900
H  -2.05500 13.76600 24.11400
H  -3.71800 16.58300 31.64200
H  -2.47400 19.12100 31.50000
H  -5.26500 19.26800 30.74200
H  -4.54100 19.95400 32.12400
H  -5.03300 18.34200 32.33800
H  -0.77800 16.56800 31.83100
H  -1.89900 15.69600 32.84100
H  -2.31300 18.24200 33.61600
H  -0.51600 18.07600 33.46700
H  -3.18100 22.82100 28.76800
H  -3.16300 23.81000 27.30500
H  -1.74000 23.74500 28.24500
H  -1.13500 24.46600 25.41900
H  -2.82600 24.47700 25.39200
H  -1.81400 24.83100 23.88800
H  -1.20700 17.80900 22.10500
H  -3.29600 15.75800 22.38100
H  -3.90000 17.51500 21.12900
H  -2.66300 18.53200 20.57400
H  -3.79800 19.21400 21.75500
H  -1.46900 15.52700 20.80100
H  -1.50900 14.26400 22.05100
H  0.51800 16.09100 21.33200
H  0.83600 14.57900 22.01700
H  0.45000 15.95200 23.13000
H  -3.50900 11.65600 25.95500
H  -2.07900 11.09100 26.86200
H  -1.78900 11.85900 25.21900
H  -3.58800 14.00800 30.99800
H  0.03900 13.19700 33.08000
H  -0.78800 11.66200 33.43500
H  -1.32000 13.23900 34.20800
Mg 0.29600 8.08400 26.03200
C  1.00400 10.05900 28.96200
C  0.65600 5.27200 28.11100
C  -0.11800 6.18300 23.34200
C  0.74700 10.94100 24.02900
N  0.68600 7.67500 28.37600
C  0.71000 8.66400 29.26900
C  0.54400 8.10400 30.67600
C  0.81200 6.57700 30.37800
C  0.75700 6.46300 28.84500
C  2.18300 5.90700 30.88200
C  -0.85500 8.48000 31.33500
C  -1.09800 8.53300 32.83900
H  0.02400 8.30300 33.79800
N  0.22200 5.98400 25.76600
C  0.40800 4.99600 26.72200
C  0.35400 3.66400 26.09400
C  0.03600 3.91600 24.70700
C  0.08100 5.39200 24.50000
C  0.52700 2.35600 26.78900
C  -0.37600 2.98500 23.62500
O  -0.62600 3.35900 22.48900
C  -0.38000 1.49100 23.92200
N  0.14400 8.54700 24.02000
C  -0.10000 7.58100 23.09900
C  -0.05200 8.20600 21.65300
C  -0.12800 9.71600 21.92300
C  0.26600 9.76200 23.43200
C  1.11000 7.80700 20.72900
C  -1.51000 10.36100 21.59400
C  -1.41500 11.53500 20.71800
N  0.88500 10.12800 26.31100
C  1.04100 11.11000 25.42400
C  1.40900 12.31500 26.20300
C  1.33300 11.94700 27.56900
C  0.99500 10.61200 27.59300
C  1.59000 13.64800 25.57800
C  1.41100 12.44700 28.90200
O  1.65600 13.59500 29.29400
C  1.20100 11.27400 29.90100
C  2.36200 11.18800 30.79900
O  3.51100 10.91200 30.47500
O  1.94500 11.50900 32.08000
C  2.85200 11.62100 33.25200
H  0.92600 4.36500 28.65700
H  -0.35600 5.64800 22.42000
H  0.75900 11.89400 23.49600
H  1.36800 8.53000 31.24900
H  0.00200 5.97400 30.78800
H  2.86900 6.51200 31.47500
H  2.72700 5.54900 30.00800
H  1.93100 5.06200 31.52300
H  -1.57600 7.81000 30.86800
H  -1.04500 9.51600 31.05300
H  -1.93500 7.85800 33.02000
H  -1.47600 9.52500 33.08600
H  0.98600 2.45900 27.77300
H  1.23000 1.77200 26.19500
H  -0.39100 1.80200 26.98500
H  0.66400 1.17800 23.96200
H  -0.80100 0.99100 23.05000
H  -1.15500 1.24800 24.64800
H  -0.96600 7.85700 21.17300
H  0.62500 10.27400 21.36600
H  2.05000 7.85400 21.27900
H  1.17200 8.59300 19.97700
H  0.86900 6.80100 20.38700
H  -2.18100 10.47600 22.44500
H  -2.04900 9.58700 21.04700
H  -1.45600 11.35300 19.64400
H  -0.45500 11.98500 20.97200
H  -2.27100 12.15500 20.98100
H  0.65900 13.92900 25.08700
H  2.23900 13.57600 24.70500
H  1.87000 14.46300 26.24500
H  0.34400 11.40500 30.56100
H  3.18100 12.65700 33.32900
H  3.68700 10.94000 33.08900
H  2.31300 11.34100 34.15700

