158

Mg -2.19800 17.40200 27.10000
C  -2.75700 15.24400 29.78600
C  -3.18500 20.04400 28.94500
C  -2.02500 19.38700 24.31100
C  -2.24600 14.54700 25.03600
N  -2.78900 17.52600 29.07200
C  -2.89700 16.58800 30.12600
C  -3.11100 17.23200 31.55200
C  -3.41700 18.71800 31.10500
C  -3.10700 18.79000 29.65100
C  -4.89500 19.14800 31.51500
C  -1.83700 17.14200 32.46000
C  -2.00100 17.78500 33.84700
H  -1.38100 17.07400 35.05700
N  -2.32700 19.45400 26.75100
C  -2.79500 20.37600 27.63400
C  -2.69700 21.70100 27.10300
C  -2.25700 21.54900 25.71100
C  -2.21400 20.09500 25.55100
C  -3.04600 22.95900 27.87100
C  -1.90600 22.62400 24.69700
O  -1.65800 22.37900 23.50500
C  -1.81300 23.98600 25.14500
N  -2.08100 17.02000 24.89800
C  -1.96200 17.97900 24.00800
C  -1.87100 17.39000 22.59800
C  -1.71200 15.83700 22.94400
C  -2.08700 15.75600 24.37000
C  -3.08200 17.67800 21.77300
C  -0.25500 15.32000 22.52900
C  0.93600 15.85300 23.35500
N  -2.28600 15.36400 27.32700
C  -2.27600 14.37000 26.39500
C  -2.50500 13.14000 27.04000
C  -2.70100 13.41100 28.41300
C  -2.55200 14.74300 28.49300
C  -2.70300 11.72400 26.35800
C  -2.93900 12.84300 29.71000
O  -3.11900 11.69000 30.01500
C  -3.02400 14.06200 30.71100
C  -2.05100 13.72000 31.75300
O  -0.82600 13.59900 31.60400
O  -2.81200 13.52200 32.91900
C  -2.08400 12.81700 33.92900
H  -3.42000 20.80100 29.69600
H  -1.86900 20.02700 23.44000
H  -2.36500 13.71000 24.34400
H  -3.98700 16.74900 31.98600
H  -2.75800 19.42900 31.60400
H  -5.34700 18.23000 31.89100
H  -5.44700 19.56300 30.67200
H  -4.85600 19.92500 32.27800
H  -1.08900 17.65900 31.86000
H  -1.57000 16.09400 32.59700
H  -3.07100 17.69800 34.03500
H  -1.69500 18.83100 33.84300
H  -3.52600 22.82500 28.84100
H  -3.73000 23.48300 27.20400
H  -2.16900 23.57000 28.08400
H  -0.95200 24.00000 25.81300
H  -2.71500 24.33500 25.64800
H  -1.62500 24.58900 24.25700
H  -0.94400 17.72800 22.13400
H  -2.43300 15.17700 22.46200
H  -3.98800 17.86700 22.34900
H  -3.38300 17.00700 20.96800
H  -2.70400 18.55700 21.25100
H  -0.18200 15.63900 21.48900
H  -0.21200 14.23200 22.59200
H  0.57600 16.31200 24.27600
H  1.47700 16.61900 22.79900
H  1.61800 15.01900 23.52200
H  -2.45500 10.89500 27.02200
H  -1.88200 11.81400 25.64600
H  -3.72800 11.58500 26.01600
H  -4.07000 14.01100 31.01200
H  -1.55600 11.96000 33.51100
H  -2.82200 12.46000 34.64800
H  -1.36900 13.49500 34.39500
Mg 29.67800 57.24600 40.19000
C  27.11800 54.78700 39.25600
C  32.09300 54.83100 39.25400
C  31.84000 59.68400 40.11900
C  26.98200 59.47600 40.63000
N  29.58200 55.02000 39.35200
C  28.42800 54.34800 39.06000
C  28.84800 53.07600 38.33800
C  30.38800 52.98500 38.71400
C  30.75900 54.34200 39.11300
C  30.72800 51.92100 39.73500
C  28.51000 53.15400 36.79300
C  27.29700 52.33500 36.25100
H  26.44300 53.09400 35.19400
N  31.74400 57.29800 39.89300
C  32.47500 56.17700 39.54600
C  33.84400 56.62900 39.42100
C  33.87900 58.03700 39.70400
C  32.44900 58.39800 39.95300
C  34.95300 55.63800 39.06400
C  35.13100 58.98100 39.66500
O  36.20900 58.50100 39.46200
C  35.00300 60.44500 39.98400
N  29.41400 59.26400 40.19300
C  30.52500 60.10700 40.31500
C  30.08400 61.58400 40.39200
C  28.53600 61.48100 40.74500
C  28.28400 59.99700 40.52400
C  30.93500 62.44100 41.36500
C  27.59000 62.46600 39.94400
C  26.71300 63.35200 40.75800
N  27.48200 57.14800 40.05600
C  26.61500 58.17300 40.31000
C  25.24100 57.66400 40.27400
C  25.40500 56.33800 39.74700
C  26.80500 56.07800 39.71300
C  23.95300 58.39300 40.75100
C  24.71700 55.12900 39.31300
O  23.50600 55.00900 39.03900
C  25.82800 54.08400 38.94500
C  25.50700 52.98700 39.78700
O  26.25700 52.61500 40.64400
O  24.33100 52.37400 39.51300
C  24.04100 51.17500 40.31600
H  32.81100 54.07600 38.92600
H  32.58400 60.48400 40.13300
H  26.20200 60.19100 40.89900
H  28.32400 52.19100 38.69900
H  30.89700 52.80800 37.76700
H  31.52100 52.41600 40.29600
H  31.17800 51.09700 39.18300
H  29.85400 51.57300 40.28500
H  29.35400 52.66200 36.31000
H  28.46900 54.16000 36.37400
H  26.73400 51.90200 37.07900
H  27.75800 51.44100 35.83300
H  35.89300 56.07200 38.72500
H  34.59200 55.01700 38.24400
H  35.22100 55.09700 39.97200
H  34.55400 60.40400 40.97600
H  34.49300 60.97000 39.17700
H  35.99900 60.88700 40.03200
H  30.17000 61.95400 39.37000
H  28.47600 61.77800 41.79200
H  31.45200 63.11700 40.68300
H  31.69200 61.87200 41.90500
H  30.41600 63.05500 42.10100
H  26.84800 61.76200 39.56800
H  27.98800 63.07700 39.13500
H  26.42800 64.18900 40.12000
H  27.18600 63.78300 41.64100
H  25.82200 62.93300 41.22600
H  23.97500 58.24200 41.83000
H  23.02200 58.03900 40.30800
H  23.91400 59.45100 40.49400
H  25.73700 53.73800 37.91600
H  23.34600 51.39400 41.12600
H  24.89700 50.78500 40.86800
H  23.64100 50.38500 39.68100

