158

Mg 43.92400 2.67200 47.88500
C  41.85400 5.32400 46.96800
C  41.11500 0.67800 47.91400
C  45.89300 -0.08600 47.97400
C  46.71000 4.54700 47.19000
N  41.69300 2.99600 47.34800
C  41.08100 4.16700 47.09600
C  39.57500 3.88700 46.80700
C  39.34900 2.48500 47.43200
C  40.82300 1.98500 47.53200
C  38.47800 2.47400 48.74100
C  39.17300 4.00300 45.30200
C  38.26100 5.27100 45.01700
H  38.76000 6.23500 43.89200
N  43.56100 0.61400 48.02200
C  42.33100 0.01900 48.07700
C  42.52900 -1.38400 48.33600
C  43.94400 -1.73300 48.19200
C  44.50800 -0.36400 47.99600
C  41.35000 -2.32200 48.55100
C  44.54500 -3.10600 48.35500
O  43.79500 -4.09000 48.63100
C  45.99100 -3.37000 48.20100
N  46.03900 2.16700 47.37400
C  46.61600 1.01200 47.75800
C  48.17900 1.17100 47.66400
C  48.37600 2.69300 47.40000
C  46.94300 3.16300 47.26400
C  49.02300 0.75700 48.85800
C  49.34500 3.03000 46.21400
C  50.32700 4.22900 46.51600
N  44.24000 4.51900 47.31000
C  45.39700 5.18900 47.11500
C  45.15200 6.55200 46.92600
C  43.75300 6.65800 46.83600
C  43.23000 5.43700 47.07500
C  46.15800 7.65400 46.64400
C  42.64900 7.60200 46.54900
O  42.64900 8.82000 46.32400
C  41.32800 6.73100 46.65300
C  40.39400 7.29000 47.53600
O  40.06900 6.79500 48.60200
O  39.92600 8.47200 47.06100
C  38.97100 9.24100 47.86200
H  40.24900 0.05300 48.14100
H  46.55900 -0.91400 48.22500
H  47.56800 5.20800 47.05500
H  38.94100 4.54600 47.39900
H  38.89800 1.77700 46.73600
H  37.67400 1.74100 48.81500
H  38.01800 3.44200 48.94100
H  39.13700 2.38300 49.60300
H  38.54700 3.17400 44.97200
H  40.12300 3.98600 44.76600
H  37.99000 5.81600 45.92200
H  37.33200 4.87900 44.60300
H  40.43800 -1.78000 48.29900
H  41.26700 -2.54400 49.61500
H  41.14500 -3.29100 48.09500
H  46.27400 -2.90300 47.25800
H  46.33900 -4.40000 48.27800
H  46.51500 -2.81300 48.97900
H  48.48300 0.71500 46.72200
H  48.70200 3.25600 48.27400
H  49.84400 1.45700 49.01300
H  49.45900 -0.22800 48.69000
H  48.49900 0.62100 49.80400
H  48.80900 3.29000 45.30100
H  49.76000 2.05300 45.97000
H  51.33700 3.95800 46.20800
H  50.29700 4.43300 47.58600
H  50.00000 5.15800 46.04800
H  46.84100 7.80500 47.47900
H  45.64600 8.61600 46.68200
H  46.72700 7.52500 45.72200
H  40.86400 6.70100 45.66700
H  38.33500 9.82800 47.19900
H  39.55900 9.87300 48.52800
H  38.32200 8.68600 48.53900
Mg -4.75500 24.87900 25.85700
C  -3.03800 26.58200 28.35400
C  -6.18000 22.90000 28.27000
C  -6.51100 23.37900 23.41500
C  -3.10500 26.92500 23.53500
N  -4.52500 24.65500 28.07000
C  -3.84300 25.54500 28.88900
C  -4.11800 25.24400 30.35200
C  -5.17100 24.04100 30.29400
C  -5.31300 23.84200 28.80700
C  -4.75100 22.71700 31.08200
C  -4.67700 26.50100 31.07100
C  -4.18000 26.74500 32.44900
H  -3.95000 25.51600 33.34300
N  -6.17100 23.33300 25.86100
C  -6.54200 22.60900 26.93400
C  -7.48000 21.53100 26.50900
C  -7.57300 21.70400 25.12400
C  -6.77600 22.87700 24.69600
C  -8.09900 20.54200 27.50400
C  -8.44800 20.92700 24.12900
O  -8.39000 21.16500 22.92600
C  -9.52100 19.86600 24.60600
N  -4.44400 24.87200 23.67300
C  -5.58900 24.39000 23.03400
C  -5.76500 25.00500 21.67200
C  -4.61700 26.08600 21.59600
C  -3.98100 25.96100 23.00800
C  -5.70200 23.91200 20.51500
C  -5.16500 27.49300 21.31900
C  -4.65100 28.18700 20.02600
N  -3.24100 26.23800 25.83800
C  -2.72600 27.10100 24.85700
C  -1.97600 28.19500 25.37600
C  -1.97700 27.92100 26.76100
C  -2.77800 26.83700 27.00400
C  -1.28300 29.29500 24.65800
C  -1.38600 28.39000 28.00200
O  -0.53100 29.20500 28.29300
C  -2.14600 27.55000 29.08100
C  -1.15800 26.79600 29.97900
O  -0.45400 25.89500 29.61600
O  -1.10300 27.28000 31.29400
C  -0.23300 26.64400 32.24600
H  -6.79800 22.42700 29.03600
H  -7.23800 23.15100 22.63300
H  -2.79900 27.71700 22.84800
H  -3.17000 25.00800 30.83600
H  -6.15900 24.32200 30.65700
H  -4.54500 21.93500 30.35200
H  -5.56200 22.28900 31.67000
H  -3.92600 22.92200 31.76400
H  -5.75400 26.37400 31.18200
H  -4.49500 27.27200 30.32200
H  -4.91000 27.25800 33.07500
H  -3.37600 27.45800 32.26400
H  -7.57400 20.57700 28.45800
H  -8.02000 19.53200 27.10100
H  -9.14100 20.82000 27.66300
H  -9.03500 19.08200 25.18700
H  -9.82100 19.39600 23.67000
H  -10.27500 20.44200 25.14300
H  -6.79600 25.35800 21.69100
H  -4.04200 25.83000 20.70600
H  -5.35400 22.96200 20.92100
H  -5.12800 24.12200 19.61200
H  -6.71300 23.65000 20.20100
H  -5.08100 28.17500 22.16500
H  -6.23700 27.48300 21.12100
H  -5.39900 28.14100 19.23400
H  -3.67200 27.85700 19.68000
H  -4.46100 29.25400 20.14300
H  -1.10800 30.14100 25.32200
H  -1.91600 29.69000 23.86300
H  -0.30000 29.17300 24.20300
H  -2.81000 28.20800 29.64100
H  0.78000 27.04600 32.28200
H  -0.23900 25.55700 32.17100
H  -0.46300 27.02000 33.24300

