158

Mg -1.82200 16.92200 25.85600
C  -2.31600 14.59600 28.54700
C  -2.43600 19.41100 28.19300
C  -1.57400 19.02100 23.40300
C  -1.67200 14.09700 23.72800
N  -2.54400 17.01000 28.10100
C  -2.41100 15.95800 28.94500
C  -2.55800 16.40700 30.43300
C  -2.69000 17.98500 30.20500
C  -2.64900 18.14200 28.76300
C  -3.87900 18.66000 30.89300
C  -1.56200 16.06600 31.51700
C  -1.34300 16.91000 32.77700
H  -1.89800 16.36100 34.15900
N  -1.94300 18.95300 25.83100
C  -2.18000 19.81400 26.88700
C  -2.00000 21.14200 26.39000
C  -1.71000 21.01800 24.99300
C  -1.62300 19.59900 24.68600
C  -2.19800 22.39500 27.23600
C  -1.55700 22.16900 23.98100
O  -1.35400 21.90400 22.83600
C  -1.60200 23.57200 24.35300
N  -1.74000 16.59700 23.87800
C  -1.55500 17.68100 23.00500
C  -1.51200 17.23900 21.59000
C  -1.14300 15.73200 21.78800
C  -1.58900 15.42900 23.20700
C  -2.81900 17.63700 20.82400
C  0.30800 15.26300 21.41700
C  1.50200 15.43800 22.49000
N  -2.13800 14.79200 26.00700
C  -1.94900 13.77100 25.09600
C  -2.10300 12.49500 25.69000
C  -2.27900 12.76500 27.09400
C  -2.27200 14.17700 27.16100
C  -2.11900 11.16400 25.06700
C  -2.30900 12.13900 28.35000
O  -2.30200 10.97200 28.72100
C  -2.37700 13.29900 29.36500
C  -1.20300 13.09600 30.26400
O  -0.05900 13.52200 30.04500
O  -1.68800 12.46300 31.43400
C  -0.79800 12.31800 32.50600
H  -2.58000 20.21600 28.91600
H  -1.47200 19.73800 22.58600
H  -1.60500 13.30500 22.97800
H  -3.54600 16.04500 30.71900
H  -1.77800 18.49100 30.52200
H  -4.50100 19.13900 30.13800
H  -3.61200 19.43400 31.61300
H  -4.53300 17.90800 31.33400
H  -0.61000 15.89100 31.01500
H  -1.88200 15.13100 31.97800
H  -1.89500 17.83000 32.58500
H  -0.28500 17.12200 32.93300
H  -2.50600 22.38200 28.28100
H  -2.91200 23.07000 26.76100
H  -1.21400 22.85600 27.15200
H  -2.60100 23.82200 24.71000
H  -1.34000 24.18300 23.49000
H  -0.80100 23.65900 25.08700
H  -0.66400 17.75800 21.14500
H  -1.79000 15.14200 21.13800
H  -3.43000 16.74300 20.69500
H  -2.72700 17.97400 19.79100
H  -3.41900 18.32300 21.42300
H  0.66400 15.65700 20.46500
H  0.11700 14.20900 21.21900
H  2.33700 15.96300 22.02500
H  1.84400 14.46500 22.84300
H  1.20000 16.03100 23.35300
H  -2.80200 10.57400 25.67800
H  -1.11300 10.74400 25.06900
H  -2.54200 11.31200 24.07400
H  -3.32100 13.26500 29.90900
H  0.01500 13.03300 32.63300
H  -0.25000 11.37600 32.53800
H  -1.45300 12.37700 33.37500
Mg -0.23800 44.63400 25.58200
C  1.59600 43.92100 28.34700
C  -2.87000 42.87800 26.94400
C  -1.66300 44.60700 22.56400
C  2.65300 45.97300 24.13500
N  -0.49000 43.18000 27.36900
C  0.24900 43.43000 28.44500
C  -0.47900 42.98200 29.77300
C  -1.83800 42.45000 29.15400
C  -1.78600 42.84300 27.69300
C  -2.07000 40.84900 29.33100
C  -0.73400 44.22800 30.76400
C  -0.88000 43.82300 32.27500
H  -1.46900 42.42900 32.67400
N  -2.07300 43.87400 24.86600
C  -3.00400 43.22200 25.60400
C  -4.21200 43.17700 24.76300
C  -3.89600 43.74000 23.49100
C  -2.47500 44.12200 23.57500
C  -5.54900 42.49200 25.21500
C  -4.77100 43.97600 22.23800
O  -4.32900 44.31800 21.15800
C  -6.26600 43.71600 22.26900
N  0.28800 45.38600 23.73800
C  -0.40700 45.26900 22.60300
C  0.14500 46.06200 21.45500
C  1.34900 46.69200 22.09500
C  1.47300 45.95000 23.41300
C  0.43200 45.17400 20.18500
C  1.24900 48.17500 22.48200
C  0.26500 49.07300 21.74200
N  1.75400 44.86000 26.03200
C  2.82900 45.36000 25.36300
C  3.98300 45.34900 26.17000
C  3.61200 44.77000 27.37900
C  2.19700 44.48600 27.22000
C  5.40200 45.87500 25.75200
C  4.03400 44.30600 28.64100
O  5.10000 44.26600 29.24500
C  2.71000 43.89200 29.33500
C  2.86100 42.50300 29.94000
O  3.33900 41.48700 29.40500
O  2.40700 42.57800 31.24100
C  2.51400 41.26000 31.96600
H  -3.72300 42.49600 27.50900
H  -2.06700 44.60200 21.54900
H  3.40100 46.60700 23.65400
H  0.09300 42.24700 30.33800
H  -2.78700 42.84500 29.51700
H  -3.01800 40.58300 29.79900
H  -1.46300 40.33500 30.07600
H  -1.78300 40.32900 28.41700
H  -1.72000 44.53600 30.41500
H  0.04300 44.98400 30.65400
H  -1.51300 44.52700 32.81600
H  0.12500 43.91100 32.68700
H  -6.33600 43.24100 25.12800
H  -5.46700 42.15000 26.24700
H  -5.62100 41.58800 24.61000
H  -6.79800 44.04900 21.37800
H  -6.64300 44.28500 23.12000
H  -6.47000 42.66500 22.47100
H  -0.67500 46.77800 21.39000
H  2.29500 46.57200 21.56800
H  0.20900 44.13800 20.44000
H  1.50400 45.22100 19.98900
H  -0.13600 45.48100 19.30700
H  2.19900 48.68000 22.30800
H  1.06600 48.22000 23.55600
H  0.14400 48.69900 20.72500
H  0.75600 50.04500 21.71000
H  -0.68900 49.09700 22.27000
H  5.81100 45.43500 24.84300
H  6.08500 45.73800 26.59100
H  5.28200 46.94100 25.55900
H  2.54100 44.67000 30.08000
H  2.15700 40.42500 31.36300
H  2.11300 41.22600 32.97900
H  3.59000 41.11900 32.07000

