158

Mg 35.49600 50.25400 25.27000
C  35.17700 48.23300 28.13300
C  33.95100 52.80200 27.06200
C  35.52400 52.00900 22.45100
C  36.25500 47.31600 23.35100
N  34.65000 50.47900 27.32000
C  34.75900 49.53200 28.34800
C  34.55800 50.22300 29.68400
C  33.90100 51.58900 29.33600
C  34.18900 51.63300 27.80500
C  32.41200 51.77300 29.76700
C  35.85100 50.33500 30.56400
C  35.57700 50.30300 32.13200
H  34.12200 50.22500 32.60200
N  34.96300 52.12400 24.87400
C  34.41800 53.04500 25.75200
C  34.29200 54.33000 25.12700
C  34.61900 54.10800 23.75100
C  35.08400 52.73500 23.66700
C  33.72300 55.59000 25.84800
C  34.52600 55.05800 22.60200
O  34.69900 54.67600 21.42000
C  34.14200 56.56700 22.60300
N  35.57000 49.71100 23.15300
C  35.66800 50.65100 22.19400
C  36.16600 50.02300 20.86800
C  36.37900 48.52900 21.13700
C  36.08600 48.52400 22.70200
C  35.30200 50.41100 19.70700
C  37.75400 47.93500 20.76300
C  38.97000 48.58500 21.46800
N  35.63500 48.14500 25.59300
C  36.09300 47.16800 24.77600
C  36.32500 45.99400 25.61600
C  36.01700 46.32200 26.96600
C  35.54300 47.65500 26.90400
C  36.93800 44.67500 25.15300
C  35.96700 45.83900 28.30900
O  36.34100 44.80600 28.85800
C  35.32300 47.11200 29.16700
C  34.10500 46.63100 29.93300
O  33.00700 46.49100 29.43100
O  34.39500 46.48000 31.27000
C  33.50200 45.67800 32.10000
H  33.57900 53.56200 27.75200
H  35.60400 52.66100 21.57900
H  36.61900 46.49900 22.72500
H  33.85700 49.64500 30.28600
H  34.49900 52.36000 29.82100
H  31.92700 52.02300 28.82400
H  32.30200 52.65000 30.40600
H  31.87100 50.93900 30.21400
H  36.34800 51.29400 30.42100
H  36.54700 49.55500 30.25800
H  35.89400 51.26500 32.53500
H  36.14900 49.47100 32.54200
H  33.11100 56.13200 25.12600
H  34.50500 56.27400 26.17600
H  33.12800 55.50300 26.75700
H  34.79000 57.12800 23.27700
H  33.09000 56.73000 22.83700
H  34.45500 57.11000 21.71200
H  37.07600 50.56600 20.61600
H  35.49800 48.04500 20.71400
H  35.74600 51.19400 19.09200
H  34.31200 50.69900 20.06100
H  35.07200 49.59000 19.02700
H  37.83100 48.14500 19.69600
H  37.75500 46.85700 20.92700
H  39.44400 47.77500 22.02200
H  38.57400 49.35600 22.12900
H  39.64500 49.11900 20.79900
H  37.67500 44.28600 25.85500
H  37.52900 44.80600 24.24700
H  36.12400 43.98800 24.92000
H  36.09300 47.35400 29.90000
H  32.48700 45.91500 31.78000
H  33.56400 45.88200 33.16900
H  33.81500 44.64500 31.94800
Mg -9.05100 41.13500 42.30500
C  -8.30500 37.72200 41.48700
C  -6.39500 41.95900 40.06300
C  -10.13500 44.30600 42.06300
C  -11.94600 40.07300 43.78400
N  -7.59700 39.95400 40.94500
C  -7.46300 38.60400 40.80000
C  -6.30700 38.23500 39.80600
C  -5.51300 39.62600 39.73200
C  -6.60000 40.57800 40.20500
C  -4.30400 39.71300 40.63500
C  -6.79900 37.60800 38.51200
C  -6.03200 36.37000 37.97900
H  -4.96500 36.51100 36.79600
N  -8.29800 42.98100 41.27000
C  -7.13300 43.08000 40.48100
C  -6.94700 44.48300 40.09100
C  -8.03900 45.19400 40.72800
C  -8.91000 44.19100 41.30200
C  -5.89600 45.03300 39.20200
C  -8.19100 46.69400 40.76500
O  -7.26900 47.37100 40.36900
C  -9.41600 47.41600 41.27700
N  -10.80500 41.95700 42.74100
C  -10.93600 43.34200 42.69200
C  -12.32300 43.68900 43.23800
C  -12.78500 42.37500 43.96800
C  -11.75000 41.40700 43.50300
C  -12.48200 45.00600 44.08300
C  -14.25700 41.90100 43.76600
C  -15.09300 41.67300 44.98300
N  -9.92100 39.32400 42.71000
C  -11.08300 39.02100 43.39800
C  -11.16100 37.57500 43.68200
C  -10.08800 37.04400 42.86600
C  -9.41700 38.14200 42.31900
C  -12.14700 36.79800 44.51400
C  -9.42300 35.76800 42.46900
O  -9.72600 34.63000 42.68900
C  -8.33800 36.19100 41.48400
C  -7.03500 35.63000 41.97000
O  -6.57500 36.04000 43.01400
O  -6.38300 34.71100 41.09400
C  -4.99400 34.30500 41.46700
H  -5.55800 42.25300 39.42600
H  -10.61600 45.28500 42.09600
H  -12.77900 39.78900 44.43000
H  -5.57300 37.57400 40.26600
H  -5.28500 39.90000 38.70200
H  -4.64500 39.94800 41.64300
H  -3.63900 40.46300 40.20700
H  -3.69100 38.82300 40.78100
H  -6.68900 38.37600 37.74700
H  -7.87800 37.47800 38.59500
H  -6.83500 35.70800 37.65400
H  -5.48300 35.83500 38.75400
H  -5.12500 45.43600 39.85800
H  -6.29100 45.90400 38.67900
H  -5.42500 44.40000 38.44900
H  -9.41600 48.49600 41.13100
H  -9.43700 47.22500 42.35000
H  -10.40300 47.09200 40.94900
H  -12.86200 43.92500 42.32000
H  -12.52900 42.46800 45.02300
H  -11.51700 45.33200 44.47200
H  -13.22300 44.86700 44.87000
H  -12.90400 45.79900 43.46600
H  -14.25100 40.98200 43.18000
H  -14.72900 42.61100 43.08700
H  -15.22400 40.60100 45.12900
H  -16.08000 42.11100 44.83500
H  -14.72100 42.06100 45.93100
H  -11.73100 35.83800 44.81900
H  -13.03600 36.66900 43.89600
H  -12.46300 37.43800 45.33800
H  -8.66000 35.87700 40.49100
H  -5.04200 33.54700 42.24900
H  -4.44500 35.14400 41.89400
H  -4.44900 33.94400 40.59500

