158

Mg -2.35800 17.52500 26.40000
C  -2.87800 15.05500 29.03600
C  -2.84800 19.91400 28.74800
C  -2.44500 19.73400 23.90600
C  -2.72400 14.85800 24.02900
N  -2.78200 17.36000 28.68200
C  -2.82600 16.34700 29.59500
C  -2.76500 16.87600 30.99900
C  -2.85000 18.42800 30.84800
C  -2.86900 18.59700 29.31800
C  -3.94900 19.21400 31.63900
C  -1.57800 16.18700 31.84000
C  -0.79500 17.01100 32.91000
H  -0.53400 16.37100 34.25300
N  -2.50200 19.52900 26.35200
C  -2.66100 20.41500 27.41400
C  -2.56300 21.78000 26.96800
C  -2.31900 21.69800 25.52200
C  -2.43100 20.28700 25.20800
C  -2.69200 22.98900 27.83400
C  -2.03700 22.74800 24.58800
O  -1.99400 22.68900 23.35200
C  -1.62700 24.10700 25.13000
N  -2.60400 17.34800 24.32300
C  -2.49800 18.37200 23.47600
C  -2.41400 17.98900 22.00100
C  -2.75700 16.48400 22.09200
C  -2.62900 16.18000 23.55700
C  -3.33900 18.69000 20.90400
C  -1.86900 15.54800 21.19600
C  -2.73100 14.34400 20.67700
N  -2.68800 15.44900 26.47200
C  -2.79800 14.53900 25.42000
C  -3.02200 13.24800 25.95900
C  -2.98100 13.36200 27.37600
C  -2.80400 14.76100 27.62400
C  -3.28900 11.97100 25.08600
C  -3.08100 12.62300 28.58300
O  -3.25900 11.43500 28.75200
C  -2.98700 13.68100 29.77300
C  -1.65700 13.35300 30.47000
O  -0.51300 13.52300 29.93900
O  -1.83000 12.78800 31.68000
C  -0.70800 12.37600 32.42700
H  -3.04600 20.76400 29.40400
H  -2.53400 20.46700 23.10100
H  -2.69400 13.99700 23.35800
H  -3.68900 16.51600 31.45300
H  -1.90500 18.84200 31.19900
H  -4.47900 19.93600 31.01800
H  -3.53300 19.76000 32.48500
H  -4.54400 18.49300 32.20000
H  -0.80400 16.03600 31.08800
H  -1.96800 15.26100 32.26400
H  -1.25500 17.99700 32.97700
H  0.20300 17.18600 32.50800
H  -3.11700 22.77200 28.81400
H  -3.41500 23.65100 27.35700
H  -1.80600 23.62300 27.79800
H  -2.53700 24.61900 25.44300
H  -1.26800 24.69100 24.28200
H  -0.90800 24.06300 25.94800
H  -1.36400 18.05300 21.71500
H  -3.84500 16.47400 22.01900
H  -4.09200 18.01200 20.50300
H  -2.67800 19.02200 20.10400
H  -3.83600 19.48000 21.46800
H  -0.99800 15.14300 21.71000
H  -1.54700 16.18000 20.36800
H  -2.62100 14.22400 19.60000
H  -3.78900 14.42400 20.92800
H  -2.40300 13.37900 21.06200
H  -4.08900 12.19200 24.37900
H  -3.50000 11.02300 25.58100
H  -2.40500 11.82900 24.46400
H  -3.72900 13.68000 30.57200
H  -1.13700 11.80800 33.25300
H  -0.21500 13.29900 32.73300
H  -0.03200 11.82000 31.77800
Mg 23.60300 -5.23300 45.80900
C  25.75100 -2.85900 44.36400
C  21.20000 -4.21600 43.48800
C  21.79700 -8.18400 46.21800
C  26.33300 -6.60000 47.30700
N  23.50100 -3.63700 44.23100
C  24.46400 -2.84700 43.75900
C  24.08200 -1.94000 42.56900
C  22.58900 -2.32600 42.51000
C  22.37500 -3.41700 43.49400
C  21.65600 -1.07200 42.79800
C  24.75800 -2.35700 41.26200
C  24.95200 -1.23000 40.20900
H  25.47600 -1.60100 38.72400
N  21.66800 -5.99000 45.15700
C  20.82500 -5.38700 44.25500
C  19.60900 -6.08800 44.18100
C  19.77100 -7.25700 44.95300
C  21.11400 -7.19800 45.51100
C  18.50600 -5.53300 43.29400
C  18.67800 -8.31000 45.13800
O  17.59600 -8.28700 44.52600
C  18.84500 -9.57600 45.89200
N  23.96800 -7.11300 46.52800
C  23.15300 -8.16200 46.66100
C  23.78700 -9.24800 47.47200
C  25.24400 -8.85700 47.61500
C  25.19600 -7.38900 47.16400
C  23.06600 -9.69500 48.74400
C  26.17300 -9.67400 46.66800
C  26.79100 -10.91100 47.28300
N  25.60400 -4.70300 46.12100
C  26.56300 -5.30400 46.80700
C  27.80700 -4.63700 46.71900
C  27.55500 -3.55800 45.78000
C  26.15500 -3.70800 45.45700
C  29.06100 -5.07900 47.34300
C  28.14300 -2.48200 45.02800
O  29.20900 -1.92200 45.05300
C  26.96500 -2.02100 44.05500
C  26.83700 -0.54700 44.29600
O  26.15400 -0.01700 45.18900
O  27.78000 0.18900 43.50700
C  27.85300 1.65300 43.62300
H  20.47200 -3.91400 42.73100
H  21.29300 -9.09200 46.55300
H  27.15300 -7.15600 47.76600
H  24.15600 -0.87800 42.80600
H  22.32100 -2.69500 41.52100
H  20.73500 -1.39600 43.28300
H  21.38400 -0.63900 41.83500
H  22.05800 -0.27700 43.42700
H  24.26100 -3.20500 40.79100
H  25.78600 -2.65100 41.47100
H  25.70600 -0.58500 40.66200
H  24.00900 -0.68700 40.13600
H  18.82800 -5.02300 42.38600
H  17.74000 -4.95500 43.80900
H  17.86300 -6.30600 42.87400
H  17.96900 -10.22400 45.93800
H  19.01100 -9.32500 46.93900
H  19.60100 -10.17700 45.38600
H  23.68300 -10.17000 46.90000
H  25.50100 -8.93800 48.67100
H  23.61400 -9.38900 49.63600
H  22.93000 -10.77500 48.79800
H  22.12400 -9.14700 48.73100
H  26.92800 -9.02800 46.22000
H  25.56400 -9.96300 45.81200
H  27.85300 -11.04100 47.07700
H  26.26900 -11.79600 46.91800
H  26.65200 -11.05100 48.35500
H  29.12000 -4.96900 48.42600
H  29.85600 -4.55300 46.81500
H  29.20600 -6.13600 47.11900
H  27.30800 -2.09500 43.02300
H  27.07900 2.13500 43.02600
H  28.82400 1.99800 43.26800
H  27.65700 2.02200 44.62900

