158

Mg 44.90700 4.77200 47.22600
C  42.82800 7.50200 47.21100
C  42.04700 2.75400 46.73100
C  46.88300 2.05500 46.55400
C  47.56300 6.84000 47.02700
N  42.62700 5.07600 47.04200
C  42.10200 6.29800 47.06200
C  40.59600 6.23300 46.78600
C  40.30400 4.69500 46.58500
C  41.76500 4.10600 46.72600
C  39.28800 3.83100 47.41800
C  39.97300 7.10000 45.62700
C  40.74300 7.04200 44.28300
H  39.98600 6.45500 43.09200
N  44.47900 2.69300 46.79800
C  43.26000 2.09800 46.71700
C  43.46100 0.70700 46.49100
C  44.85700 0.47200 46.57200
C  45.50300 1.76800 46.62000
C  42.42000 -0.36500 46.21300
C  45.42900 -0.89900 46.58400
O  44.79600 -1.95000 46.69500
C  46.84000 -1.10300 46.66500
N  46.94300 4.46700 46.80000
C  47.58100 3.28300 46.60000
C  49.10400 3.45800 46.47500
C  49.23400 4.95200 46.82800
C  47.81700 5.48000 46.82300
C  49.83700 2.50300 47.43600
C  50.25600 5.70500 45.94300
C  49.85200 5.89900 44.57200
N  45.21800 6.73700 47.22700
C  46.34800 7.49500 47.14900
C  46.05500 8.87900 47.15500
C  44.70200 8.90900 47.30200
C  44.23500 7.62000 47.27300
C  47.06200 10.01600 47.00000
C  43.56600 9.79500 47.47500
O  43.55900 11.02600 47.44100
C  42.29900 8.91100 47.36000
C  41.36500 8.97600 48.52400
O  41.45800 8.39100 49.58300
O  40.27700 9.73200 48.14400
C  39.33700 10.05900 49.20300
H  41.14200 2.14400 46.70500
H  47.54300 1.19900 46.39500
H  48.42300 7.50600 47.12600
H  40.19000 6.55100 47.74600
H  40.18800 4.48100 45.52300
H  38.47500 4.44300 47.80700
H  39.80900 3.44400 48.29400
H  38.86500 2.99400 46.86300
H  39.95000 8.12700 45.99300
H  38.90600 6.91200 45.50500
H  41.64300 6.43900 44.39900
H  41.06200 8.07400 44.13900
H  42.68500 -0.87100 45.28400
H  41.43600 0.10100 46.25700
H  42.46200 -1.03700 47.07000
H  47.23800 -0.47700 47.46400
H  47.32100 -0.72500 45.76300
H  47.10600 -2.13400 46.89800
H  49.44800 3.30700 45.45200
H  49.57700 5.19200 47.83500
H  50.76500 2.95800 47.78400
H  49.86900 1.44700 47.16800
H  49.23400 2.32100 48.32500
H  51.18700 5.16300 46.11200
H  50.25100 6.71200 46.35900
H  50.66400 5.66100 43.88500
H  49.40200 6.86500 44.34600
H  49.06000 5.20800 44.28400
H  48.05500 9.82400 47.40800
H  46.69300 10.86700 47.57200
H  47.16900 10.15500 45.92400
H  41.77700 9.20500 46.45000
H  38.59600 9.26400 49.12600
H  39.02800 11.07600 48.96100
H  39.80000 9.94700 50.18300
Mg 7.02500 53.92100 40.30900
C  6.63900 50.37100 39.94600
C  10.38800 53.41700 39.86700
C  7.17800 57.10900 39.53900
C  3.51800 54.06300 40.26400
N  8.32700 52.06300 39.76400
C  7.94500 50.77300 39.70200
C  9.17400 49.87900 39.63000
C  10.34400 50.85900 40.05600
C  9.67500 52.18500 39.95200
C  11.05400 50.57900 41.43800
C  9.41900 49.25300 38.17700
C  9.24700 50.34000 36.95100
H  7.98200 50.21500 36.06100
N  8.61900 55.12600 39.91100
C  9.92000 54.75500 39.84000
C  10.72100 55.89100 39.58600
C  9.83900 57.00400 39.36900
C  8.46700 56.49100 39.60500
C  12.16200 55.86600 39.64700
C  10.20200 58.45500 39.00800
O  11.40400 58.80200 39.04100
C  9.17000 59.49700 38.68500
N  5.57400 55.36000 39.81500
C  5.91700 56.66600 39.73900
C  4.68300 57.52400 39.54200
C  3.45700 56.53300 39.70500
C  4.20100 55.23700 39.93700
C  4.54600 58.77200 40.46800
C  2.39700 56.59200 38.45000
C  0.87500 56.59800 38.85500
N  5.43100 52.55600 40.25600
C  4.10800 52.78900 40.43000
C  3.32600 51.52400 40.61800
C  4.29100 50.54200 40.51900
C  5.57100 51.23700 40.18000
C  1.75500 51.37200 40.78300
C  4.60500 49.11700 40.53500
O  3.91400 48.16800 40.88400
C  6.14400 48.93800 40.16900
C  6.11200 48.16500 38.97600
O  5.77400 48.58200 37.87300
O  6.51200 46.83800 39.24000
C  6.16900 45.88300 38.18000
H  11.47300 53.29700 39.87400
H  7.17400 58.19200 39.39800
H  2.42700 54.09600 40.23000
H  9.11200 48.97900 40.24300
H  11.02800 50.83100 39.20800
H  10.75200 51.21800 42.26900
H  12.13500 50.71500 41.45900
H  10.73500 49.58600 41.75400
H  8.69900 48.50500 37.84400
H  10.44600 48.92400 38.02500
H  10.19900 50.28900 36.42300
H  9.29500 51.34600 37.36900
H  12.59100 56.72600 39.13300
H  12.56800 54.93700 39.24700
H  12.57300 55.81300 40.65500
H  9.72100 60.31900 38.22900
H  8.47700 59.81200 39.46600
H  8.56600 59.05700 37.89200
H  4.74200 57.89000 38.51700
H  2.97700 56.72300 40.66500
H  3.65600 58.77700 41.09700
H  4.44700 59.69300 39.89300
H  5.39200 58.92700 41.13700
H  2.65900 55.77500 37.77700
H  2.53400 57.41200 37.74500
H  0.32800 55.93700 38.18300
H  0.53800 57.63400 38.88600
H  0.74600 56.14800 39.83900
H  1.21300 51.67600 39.88700
H  1.27600 52.01300 41.52400
H  1.46200 50.34200 40.98700
H  6.70600 48.41200 40.94100
H  5.10800 45.84200 37.93700
H  6.36000 44.87000 38.53200
H  6.70500 46.13400 37.26400

