158

Mg -2.20100 17.15500 25.88300
C  -2.39500 14.74900 28.39700
C  -2.74000 19.60100 28.21500
C  -2.52200 19.27500 23.39000
C  -1.93300 14.47900 23.60500
N  -2.57700 17.15600 28.09600
C  -2.45400 16.05400 28.92500
C  -2.67400 16.48500 30.39200
C  -2.79600 18.06200 30.29700
C  -2.67500 18.31500 28.78700
C  -4.17500 18.52700 30.89700
C  -1.63500 15.96000 31.36900
C  -1.48200 16.56000 32.72400
H  -1.91300 15.98100 34.12100
N  -2.63200 19.19600 25.81700
C  -2.72200 20.07900 26.84500
C  -2.70700 21.45500 26.31900
C  -2.61800 21.33900 24.90600
C  -2.65300 19.89600 24.66700
C  -2.88400 22.60400 27.23100
C  -2.61200 22.38400 23.86500
O  -2.56100 22.18700 22.65600
C  -2.44800 23.82600 24.25700
N  -2.13800 16.95100 23.76800
C  -2.26200 17.97300 22.93700
C  -2.06100 17.53900 21.52900
C  -1.69700 15.99500 21.62500
C  -1.90300 15.79200 23.10500
C  -3.26200 17.85800 20.59200
C  -0.34900 15.64900 21.15100
C  0.80400 16.22400 21.88100
N  -2.10100 15.07600 25.89900
C  -2.02900 14.11400 24.89500
C  -1.91300 12.79800 25.45300
C  -2.02700 13.00000 26.81600
C  -2.17800 14.40600 27.03900
C  -1.89300 11.45000 24.84600
C  -2.06000 12.33900 28.07200
O  -2.04600 11.11500 28.34900
C  -2.26600 13.51400 29.14600
C  -1.00500 13.41900 29.85800
O  -0.00800 14.05600 29.53200
O  -1.16300 12.56200 30.94600
C  -0.00800 12.58300 31.88100
H  -2.92800 20.43900 28.89000
H  -2.70600 19.88300 22.50200
H  -1.84700 13.77500 22.77500
H  -3.54900 15.88300 30.64100
H  -1.97900 18.57800 30.80000
H  -4.51600 17.67700 31.48800
H  -5.01800 18.78600 30.25600
H  -4.06600 19.37200 31.57600
H  -0.69500 15.94400 30.81800
H  -1.96900 14.94300 31.57500
H  -2.13000 17.43600 32.70700
H  -0.48700 16.99900 32.78900
H  -1.99000 23.07700 27.63800
H  -3.52200 22.38500 28.08600
H  -3.47500 23.33900 26.68400
H  -1.72600 23.90600 25.07000
H  -3.46900 24.13700 24.47900
H  -2.02500 24.39200 23.42700
H  -1.17200 17.99400 21.09100
H  -2.48800 15.39100 21.17900
H  -2.92300 18.41900 19.72100
H  -4.11100 18.30600 21.11000
H  -3.63900 16.96200 20.10000
H  -0.30600 16.19100 20.20600
H  -0.19500 14.58800 20.95600
H  0.64500 16.24500 22.95900
H  1.12700 17.15000 21.40500
H  1.65400 15.54700 21.79700
H  -1.37100 11.34100 23.89500
H  -2.88600 11.02300 24.70700
H  -1.38300 10.76100 25.51800
H  -3.13200 13.31200 29.77700
H  -0.32800 11.92900 32.69200
H  0.31900 13.53100 32.31000
H  0.91000 12.25600 31.39300
Mg 47.60900 34.67200 27.03300
C  45.65100 33.28500 29.71200
C  47.83500 37.48700 28.91700
C  48.64200 36.03000 24.34700
C  46.44200 31.79000 25.14900
N  46.85500 35.27800 29.07200
C  46.24400 34.52700 29.99600
C  46.57400 35.09300 31.41300
C  47.00500 36.53700 31.14100
C  47.22700 36.48900 29.62300
C  46.01900 37.60700 31.61600
C  47.64800 34.32400 32.24200
C  47.39000 34.25200 33.73700
H  46.58600 35.26100 34.43500
N  48.40600 36.43100 26.77600
C  48.42400 37.46900 27.62000
C  49.06900 38.56200 26.95200
C  49.54300 38.09000 25.69600
C  48.87800 36.79100 25.54800
C  49.17100 39.82300 27.70700
C  50.34700 38.88000 24.57400
O  50.49400 38.37400 23.46400
C  51.06900 40.18500 24.94700
N  47.39100 34.05000 24.91500
C  48.06100 34.76400 24.04600
C  48.21800 34.12700 22.67600
C  47.43500 32.76800 22.92700
C  47.05600 32.85100 24.40500
C  47.78900 35.02000 21.41500
C  48.15300 31.37100 22.75600
C  49.21000 31.06200 23.76000
N  46.29800 32.86700 27.24000
C  45.92700 31.85400 26.45500
C  45.12500 30.87200 27.08100
C  44.95400 31.43000 28.37300
C  45.70300 32.61700 28.45900
C  44.70800 29.54400 26.51900
C  44.26000 31.23400 29.63900
O  43.40700 30.39700 29.94900
C  44.62800 32.46100 30.62200
C  44.95000 31.91300 32.01600
O  46.03700 31.50300 32.40100
O  43.85200 31.92400 32.78200
C  44.02600 31.50800 34.20000
H  48.02100 38.39000 29.50200
H  49.11800 36.56200 23.52100
H  46.07100 30.85900 24.71400
H  45.65400 35.19100 31.98900
H  47.98400 36.77500 31.55700
H  46.49500 38.40800 32.18100
H  45.20000 37.32400 32.27700
H  45.46200 38.02800 30.77900
H  48.56000 34.89500 32.07100
H  47.87500 33.30900 31.91400
H  48.40000 34.30800 34.14200
H  46.97000 33.26300 33.92100
H  49.55000 40.65300 27.11200
H  49.68500 39.70900 28.66100
H  48.17300 40.16800 27.97600
H  51.65200 40.60000 24.12500
H  51.69700 40.04100 25.82600
H  50.23800 40.87800 25.08300
H  49.29000 33.95400 22.58200
H  46.49000 32.76700 22.38300
H  47.10800 34.51900 20.72700
H  48.78300 35.12600 20.98000
H  47.40100 36.00900 21.66000
H  48.64800 31.47800 21.79000
H  47.35800 30.63900 22.61200
H  49.12700 30.07100 24.20600
H  49.26400 31.81200 24.54900
H  50.16800 31.13600 23.24600
H  45.54800 28.85000 26.54100
H  44.36300 29.64500 25.48900
H  43.94900 29.04500 27.12100
H  43.66400 32.94500 30.78400
H  43.41500 30.66400 34.52000
H  43.78800 32.25200 34.96100
H  45.01000 31.13100 34.47700

