158

Mg 49.19600 46.47600 42.73200
C  45.87200 47.00500 41.57600
C  49.12700 43.38200 41.26200
C  52.51500 46.32200 43.35300
C  49.16500 49.92900 43.68800
N  47.74600 45.40600 41.45400
C  46.47200 45.80200 41.13800
C  45.75900 44.70200 40.31800
C  46.57300 43.44600 40.63600
C  47.92000 44.06500 41.13200
C  45.94700 42.57600 41.72000
C  45.66100 45.13100 38.77700
C  44.44200 44.79100 37.91300
H  44.63300 44.12500 36.56000
N  50.65400 45.05300 42.38200
C  50.37500 43.78300 41.78400
C  51.60700 43.05100 41.75300
C  52.57500 43.86400 42.42500
C  51.90200 45.10700 42.79500
C  51.74300 41.70000 41.12400
C  54.03100 43.48800 42.73000
O  54.45300 42.41300 42.36200
C  55.05800 44.39200 43.43300
N  50.60700 47.99900 43.41800
C  51.93500 47.67500 43.62900
C  52.70700 48.90000 44.06000
C  51.61000 50.00400 44.18300
C  50.34900 49.24900 43.80900
C  53.46800 48.63100 45.36300
C  51.84100 51.29900 43.23700
C  51.98900 52.54700 44.05300
N  47.79900 48.10000 42.82900
C  47.94200 49.39300 43.22600
C  46.65500 50.09700 43.22800
C  45.79000 49.15700 42.57400
C  46.54100 47.94300 42.32300
C  46.39500 51.43500 43.67500
C  44.45900 48.95400 42.08200
O  43.45300 49.66800 42.17600
C  44.46600 47.53700 41.33000
C  43.33700 46.66300 41.81000
O  43.35300 45.86700 42.72600
O  42.19300 46.99900 41.10900
C  41.00300 46.43300 41.65100
H  48.98800 42.33700 40.97800
H  53.56600 46.43000 43.62700
H  49.28600 50.94200 44.07900
H  44.73500 44.53500 40.65300
H  46.80800 42.88900 39.73000
H  44.97600 42.92100 42.07700
H  46.58200 42.68300 42.59900
H  45.96800 41.50000 41.55000
H  46.58500 44.75500 38.33700
H  45.76800 46.21300 38.70000
H  43.86000 45.70600 37.80400
H  43.86400 44.00600 38.39900
H  52.49100 41.06000 41.59100
H  51.95800 41.78800 40.05900
H  50.76400 41.22000 41.12800
H  54.65600 44.81100 44.35600
H  55.30600 45.19600 42.74000
H  55.91300 43.73000 43.56800
H  53.48400 49.18600 43.35100
H  51.43900 50.35700 45.20000
H  54.54800 48.66700 45.21400
H  53.18400 47.63800 45.70900
H  53.12900 49.34800 46.11100
H  50.96900 51.48700 42.61100
H  52.69800 51.23100 42.56800
H  52.55900 52.30700 44.95100
H  51.04400 53.01000 44.33800
H  52.55000 53.25500 43.44400
H  47.11200 52.09300 43.18400
H  46.56900 51.43400 44.75100
H  45.35300 51.69900 43.49600
H  44.25700 47.74700 40.28100
H  40.47700 46.09000 40.75900
H  40.40200 47.10700 42.26100
H  41.11400 45.57600 42.31600
Mg 16.68000 52.49500 26.00300
C  18.51200 50.86800 28.64100
C  14.18500 52.97800 28.21700
C  14.99900 53.81700 23.50000
C  18.87600 50.97000 23.70400
N  16.46100 52.16800 28.24600
C  17.24100 51.39100 29.08100
C  16.72100 51.38500 30.51100
C  15.27400 51.82700 30.36700
C  15.29900 52.35500 28.86300
C  14.18800 50.77700 30.68100
C  17.57100 52.23100 31.37400
C  17.64600 51.84900 32.86700
H  16.91900 52.80400 33.82300
N  14.92700 53.41400 25.90000
C  14.06600 53.56700 26.96500
C  13.00900 54.48900 26.60000
C  13.16300 54.69300 25.19600
C  14.43500 53.98500 24.83100
C  12.00800 54.95200 27.63100
C  12.31600 55.51300 24.31100
O  12.57400 55.64200 23.09600
C  11.04900 56.18500 24.79200
N  16.93400 52.43900 23.83700
C  16.10200 53.16700 23.03300
C  16.58500 53.15700 21.54200
C  17.87400 52.22300 21.66000
C  17.97900 51.85100 23.15200
C  15.54300 52.55400 20.55800
C  19.29500 52.86100 21.32600
C  19.96200 53.67300 22.46800
N  18.46600 51.30400 26.06900
C  19.17100 50.74900 25.03600
C  20.15800 49.87900 25.59000
C  20.05100 49.98600 26.97500
C  18.92400 50.88900 27.25200
C  21.13800 49.01500 24.79700
C  20.55000 49.52500 28.24600
O  21.52200 48.80300 28.40400
C  19.54800 50.08900 29.37600
C  19.02500 48.88300 30.07100
O  18.06600 48.20800 29.74700
O  19.80600 48.71500 31.21600
C  19.09700 47.86500 32.26200
H  13.23000 52.97400 28.74600
H  14.43100 54.29600 22.70000
H  19.40800 50.45600 22.90100
H  16.70100 50.35000 30.85000
H  15.00500 52.65500 31.02200
H  13.55800 51.13800 31.49300
H  14.68300 49.90400 31.10600
H  13.71500 50.49200 29.74100
H  17.29300 53.27800 31.25000
H  18.59500 52.13000 31.01400
H  18.72000 51.74200 33.02000
H  17.25400 50.84300 33.01400
H  11.94200 56.03300 27.50700
H  12.16700 54.72000 28.68400
H  11.00700 54.57300 27.42600
H  10.45600 56.65400 24.00700
H  11.42000 56.98800 25.42900
H  10.38300 55.44100 25.22900
H  16.97600 54.11400 21.19700
H  17.78900 51.30500 21.07900
H  15.32400 53.33700 19.83300
H  14.59000 52.18600 20.93800
H  15.92000 51.65200 20.07600
H  19.17200 53.57400 20.51000
H  20.05200 52.11500 21.08600
H  20.78500 52.99500 22.69500
H  19.32300 53.87100 23.32900
H  20.48300 54.54900 22.08000
H  21.57900 48.22200 25.40100
H  21.85600 49.65600 24.28700
H  20.55000 48.52500 24.02100
H  20.23600 50.72300 29.93600
H  19.69800 46.98500 32.49100
H  18.13900 47.44500 31.95700
H  18.97400 48.29300 33.25700

