158

Mg 35.16600 3.33400 29.44400
C  33.11100 4.39400 31.86400
C  37.93500 3.20800 31.41000
C  37.10100 2.65000 26.75800
C  32.45500 3.91400 27.08700
N  35.54700 3.97000 31.34400
C  34.48600 4.11100 32.23700
C  35.02000 4.12800 33.66000
C  36.61000 3.98200 33.41700
C  36.75400 3.70300 31.95500
C  37.42900 5.23300 33.88100
C  34.28700 3.03600 34.49600
C  33.98800 3.36200 35.98500
H  34.99000 4.29800 36.72200
N  37.14600 2.77000 29.16800
C  38.10900 2.72800 30.13400
C  39.24300 2.05800 29.64400
C  39.07300 1.94600 28.25000
C  37.74700 2.47500 28.00400
C  40.45900 1.71600 30.44600
C  40.09200 1.51000 27.16800
O  39.74700 1.45600 25.95600
C  41.53100 1.34600 27.58500
N  34.83300 3.38300 27.27000
C  35.81800 3.02100 26.41000
C  35.36100 2.88900 24.97200
C  33.85900 3.32000 25.08000
C  33.64200 3.54000 26.58700
C  36.10000 3.77000 23.99100
C  32.82800 2.25600 24.47400
C  32.45100 0.98200 25.25400
N  33.13400 4.01300 29.44300
C  32.18000 4.20700 28.45800
C  30.93300 4.58700 29.06400
C  31.24700 4.71200 30.44800
C  32.60800 4.37200 30.56500
C  29.64200 4.61700 28.36400
C  30.65600 5.04900 31.71300
O  29.52100 5.40300 32.02500
C  31.82900 4.65700 32.69600
C  31.94500 5.68400 33.74100
O  32.69700 6.64000 33.69700
O  31.19100 5.40900 34.86100
C  31.19500 6.46100 35.88200
H  38.73300 3.09400 32.14700
H  37.59600 2.33600 25.83700
H  31.72200 4.25400 26.35200
H  34.75700 5.03500 34.20500
H  37.06700 3.12600 33.91300
H  36.86400 6.04500 34.33800
H  38.04200 5.74400 33.13800
H  38.18900 4.81300 34.53900
H  34.73100 2.04100 34.53000
H  33.27800 2.94300 34.09500
H  33.79300 2.49400 36.61600
H  33.05800 3.92600 35.92100
H  41.38500 2.20400 30.14100
H  40.59900 0.63600 30.39000
H  40.28900 1.99700 31.48500
H  42.18300 0.96000 26.80200
H  41.69500 0.66200 28.41800
H  41.82800 2.33000 27.94800
H  35.48200 1.82500 24.77100
H  33.67500 4.31700 24.67900
H  36.33700 4.75500 24.39400
H  35.46400 3.85600 23.11000
H  37.07000 3.33900 23.74300
H  33.16600 1.92600 23.49200
H  31.92200 2.82300 24.26000
H  31.37500 0.82000 25.31600
H  32.95100 0.87800 26.21700
H  32.77400 0.14000 24.64300
H  29.71000 4.90200 27.31400
H  28.98900 5.32900 28.86900
H  29.10700 3.67800 28.50500
H  31.65900 3.73500 33.25300
H  32.09800 6.33800 36.48000
H  30.34800 6.29400 36.54800
H  31.10700 7.43100 35.39400
Mg 54.29500 24.59900 44.29200
C  51.57600 26.90700 43.73800
C  52.29000 22.23000 43.44400
C  57.01400 22.59400 44.10300
C  56.25000 27.45400 44.69900
N  52.16600 24.62600 43.57600
C  51.21100 25.54600 43.46200
C  49.87700 24.97500 42.93600
C  50.10200 23.48300 43.17100
C  51.61100 23.40300 43.44800
C  49.29800 22.73100 44.30500
C  49.69100 25.21200 41.42700
C  48.16500 25.14900 40.99000
H  47.95400 24.71100 39.55900
N  54.61200 22.65900 43.86000
C  53.64300 21.78500 43.55900
C  54.14800 20.47300 43.46500
C  55.55600 20.63000 43.58000
C  55.83000 22.03100 43.81400
C  53.26000 19.23500 43.24200
C  56.59800 19.49900 43.48300
O  56.21800 18.36500 43.26500
C  58.14400 19.63400 43.59700
N  56.42500 25.00600 44.30800
C  57.33700 23.96000 44.39100
C  58.76200 24.49400 44.54700
C  58.40300 26.06500 44.80100
C  56.92000 26.21500 44.60700
C  59.44200 23.84200 45.77900
C  59.16100 27.05100 43.85500
C  59.77600 28.30500 44.59400
N  54.04400 26.78200 44.30700
C  54.92700 27.73400 44.48900
C  54.33600 29.04400 44.42200
C  53.00700 28.74100 44.14300
C  52.90800 27.38700 44.06600
C  54.86700 30.36700 44.69700
C  51.67700 29.30500 43.95300
O  51.24600 30.43700 44.04500
C  50.69000 28.20000 43.79500
C  50.08400 28.54400 42.50700
O  50.69500 28.39600 41.44100
O  48.78000 28.88200 42.58400
C  48.21600 29.49700 41.38900
H  51.67900 21.32600 43.45900
H  57.84300 21.89300 44.21800
H  56.94400 28.27200 44.90500
H  49.00300 25.44600 43.38700
H  49.96600 22.94100 42.23500
H  49.88200 22.23500 45.08100
H  48.65700 22.03500 43.76300
H  48.69900 23.44500 44.87000
H  50.17800 24.43100 40.84400
H  50.13300 26.14700 41.08100
H  47.85600 26.18400 41.13400
H  47.61200 24.39600 41.55200
H  53.02500 19.09500 42.18600
H  52.34600 19.36800 43.82000
H  53.82200 18.39000 43.63800
H  58.45500 20.37900 42.86500
H  58.59500 18.66000 43.40600
H  58.39600 19.85800 44.63300
H  59.21700 24.42300 43.55900
H  58.66800 26.22100 45.84600
H  58.75500 23.08400 46.15300
H  59.54900 24.58300 46.57200
H  60.38300 23.34600 45.54000
H  58.49900 27.44300 43.08300
H  59.98100 26.47600 43.42400
H  59.45100 29.20200 44.06700
H  60.84900 28.18000 44.44700
H  59.60300 28.26500 45.67000
H  55.19300 30.59500 45.71200
H  54.06600 31.06900 44.46400
H  55.72000 30.58700 44.05500
H  50.00200 28.18800 44.64000
H  47.25500 29.94000 41.65000
H  48.04100 28.69800 40.66800
H  48.87000 30.25900 40.96600

