158

Mg 1.87500 -1.80000 43.95400
C  5.23500 -1.40100 43.40900
C  1.32200 1.12700 42.38400
C  -1.37800 -2.58500 44.10100
C  2.53700 -5.06700 45.14500
N  3.17800 -0.36900 42.83200
C  4.51700 -0.36100 42.85400
C  5.05300 0.82700 42.08400
C  3.79700 1.78400 41.85800
C  2.68700 0.79700 42.40000
C  3.82000 3.19100 42.60800
C  5.70400 0.51200 40.73000
C  6.87000 1.40700 40.41200
H  6.73800 2.24400 39.18000
N  0.18800 -0.80900 43.34000
C  0.12100 0.46400 42.81400
C  -1.20800 0.78900 42.63200
C  -2.06200 -0.22500 43.20900
C  -1.07600 -1.30100 43.61400
C  -1.74100 2.06600 42.08600
C  -3.62400 -0.22800 43.42400
O  -4.29700 0.56500 42.81000
C  -4.28400 -1.13600 44.35500
N  0.73200 -3.59300 44.56200
C  -0.57200 -3.67600 44.55200
C  -1.15900 -5.05700 44.91600
C  0.08300 -5.88100 45.09700
C  1.20200 -4.78200 44.91700
C  -2.16000 -4.98400 46.04700
C  0.38800 -7.05800 44.01900
C  0.15600 -8.50700 44.46900
N  3.55900 -3.03500 44.33100
C  3.69000 -4.29800 44.84700
C  5.12900 -4.60100 44.92200
C  5.78400 -3.48700 44.39000
C  4.78300 -2.55200 44.07900
C  5.77400 -5.79200 45.51500
C  6.96200 -2.96200 44.06800
O  8.09300 -3.44000 44.23000
C  6.72600 -1.52000 43.43700
C  7.45000 -0.45000 44.23900
O  7.57200 -0.34100 45.46500
O  8.01000 0.48600 43.43300
C  8.80000 1.54000 44.23500
H  1.04400 2.02900 41.83500
H  -2.41000 -2.93900 44.15000
H  2.74500 -6.10800 45.40300
H  5.73500 1.35200 42.75300
H  3.61800 1.98300 40.80200
H  3.90100 4.03900 41.92800
H  4.72300 3.27400 43.21200
H  3.03200 3.25800 43.35900
H  4.96000 0.67100 39.95000
H  5.89300 -0.53800 40.50600
H  7.81900 0.88800 40.28000
H  7.15900 2.10700 41.19700
H  -2.61600 1.85400 41.47200
H  -1.09000 2.58600 41.38300
H  -1.86300 2.93900 42.72800
H  -5.25800 -0.67400 44.51900
H  -3.57700 -1.36700 45.15100
H  -4.43000 -2.03200 43.75300
H  -1.71200 -5.36400 44.02900
H  0.25400 -6.13100 46.14400
H  -1.84800 -5.75700 46.75000
H  -3.18800 -5.07900 45.69800
H  -2.08600 -4.00400 46.51800
H  1.45000 -7.03900 43.77400
H  -0.14000 -6.73800 43.12100
H  -0.50800 -9.05800 43.80300
H  -0.44700 -8.59200 45.37300
H  1.09500 -9.04100 44.61900
H  6.40700 -6.34000 44.81800
H  4.96500 -6.43800 45.85900
H  6.32000 -5.35900 46.35300
H  7.29800 -1.53300 42.50900
H  8.01700 2.23100 44.54700
H  9.57200 1.99100 43.61300
H  9.45500 1.10400 44.98900
Mg 29.40400 59.08500 40.48200
C  26.78800 56.94200 39.30100
C  31.64300 56.92500 38.95400
C  31.70100 61.48600 41.12600
C  26.91300 61.28000 41.63300
N  29.16400 57.18900 39.21800
C  28.00400 56.56100 38.82800
C  28.38500 55.29700 37.98200
C  29.96700 55.19900 38.20800
C  30.31700 56.50800 38.84900
C  30.25100 54.04200 39.11000
C  27.93100 55.54700 36.48800
C  26.99900 54.52600 35.82000
H  27.24200 54.35100 34.31200
N  31.41100 59.14100 40.15800
C  32.13700 58.14600 39.50500
C  33.50900 58.53300 39.41400
C  33.55500 59.90600 40.00100
C  32.21000 60.23800 40.50600
C  34.55300 57.76500 38.80500
C  34.84900 60.58800 40.12100
O  35.93600 60.13400 39.66000
C  34.89900 61.90000 41.03100
N  29.33600 61.08200 41.39100
C  30.43100 61.86400 41.53500
C  30.04600 63.32100 41.93700
C  28.48400 63.15500 42.30900
C  28.20800 61.78800 41.69400
C  30.69900 63.84000 43.25600
C  27.66600 64.31300 41.75900
C  26.69300 65.01300 42.74500
N  27.29200 59.14400 40.48400
C  26.43700 60.10200 41.03200
C  25.06300 59.66800 40.96900
C  25.13500 58.41300 40.19300
C  26.54000 58.16200 39.97700
C  24.02100 60.37800 41.53300
C  24.34600 57.38300 39.50200
O  23.13400 57.23000 39.40400
C  25.43700 56.36400 38.92100
C  25.26700 54.96200 39.49800
O  25.72400 54.66900 40.57800
O  24.65600 54.06300 38.68700
C  24.46900 52.72400 39.19200
H  32.39600 56.25200 38.53800
H  32.38000 62.30900 41.35700
H  26.11500 61.95600 41.94600
H  27.80300 54.46600 38.38000
H  30.41500 55.12000 37.21800
H  30.24700 54.42900 40.12900
H  31.25900 53.65300 38.96500
H  29.61700 53.16900 38.95300
H  28.83200 55.71600 35.89900
H  27.44400 56.51200 36.34700
H  25.95300 54.81200 35.92400
H  27.14500 53.52700 36.23100
H  35.54600 57.94300 39.21900
H  34.54200 57.91800 37.72500
H  34.42200 56.68300 38.82400
H  34.26200 61.89900 41.91600
H  34.60500 62.79700 40.48700
H  35.93400 62.04500 41.34100
H  30.23500 64.02300 41.12500
H  28.31700 62.99300 43.37400
H  30.19300 63.75500 44.21800
H  30.97800 64.88900 43.14800
H  31.68700 63.38000 43.27200
H  27.05900 63.91500 40.94600
H  28.28900 65.11500 41.36400
H  26.71700 64.36600 43.62200
H  25.66200 64.99700 42.39100
H  26.95000 66.04900 42.96200
H  24.14900 60.58300 42.59500
H  23.12300 59.76600 41.45800
H  23.88600 61.28600 40.94500
H  25.33500 56.21200 37.84600
H  24.22200 52.69600 40.25300
H  25.37000 52.18000 38.90600
H  23.67100 52.14300 38.73100

