158

Mg 26.08000 1.47600 28.99900
C  27.71000 0.85800 31.94300
C  23.08300 1.55400 30.90600
C  24.38900 2.05500 26.18500
C  28.95600 1.07300 27.21100
N  25.48100 1.20500 31.23300
C  26.37900 1.03900 32.27600
C  25.67800 1.16200 33.59800
C  24.13800 0.96100 33.17300
C  24.22200 1.16600 31.67400
C  23.43600 -0.37200 33.57000
C  26.02000 2.46300 34.37200
C  26.45700 2.28000 35.85200
H  26.15000 3.31100 36.97400
N  23.99100 1.83600 28.54700
C  23.00000 1.80500 29.46900
C  21.74100 2.08300 28.81600
C  22.03200 2.34800 27.45700
C  23.53300 2.06200 27.29900
C  20.46200 2.24500 29.59600
C  21.10100 2.75300 26.25300
O  21.53300 2.92900 25.13800
C  19.60100 2.93900 26.56100
N  26.63900 1.51000 26.97100
C  25.76000 1.78400 25.96400
C  26.47100 1.79100 24.65600
C  28.02000 1.57500 25.00400
C  27.91000 1.45800 26.48500
C  25.89100 0.71900 23.60600
C  28.92700 2.76900 24.49000
C  29.92600 2.48300 23.41000
N  27.91500 0.81300 29.37400
C  28.95700 0.73600 28.57400
C  30.14100 0.33700 29.37900
C  29.66900 0.44500 30.65400
C  28.32400 0.77900 30.63700
C  31.47900 -0.01600 28.94000
C  30.13500 0.42500 32.03600
O  31.21400 0.24200 32.58400
C  28.84000 0.65900 32.92400
C  28.68500 -0.46300 33.81400
O  28.23900 -1.54200 33.40200
O  29.08800 -0.20900 35.11200
C  28.86900 -1.25800 36.15500
H  22.13300 1.56800 31.44400
H  23.89700 2.27900 25.23700
H  29.91000 0.91900 26.70300
H  25.89800 0.27000 34.18500
H  23.62600 1.77300 33.69100
H  22.39400 -0.11400 33.75800
H  23.81900 -0.78500 34.50300
H  23.46400 -0.97400 32.66200
H  25.11800 3.07400 34.34300
H  26.81200 3.01400 33.86600
H  27.53500 2.19700 35.71400
H  26.09200 1.32200 36.22200
H  19.85300 1.34900 29.47300
H  19.74100 3.01700 29.32600
H  20.52400 2.58000 30.63100
H  18.99100 3.15200 25.68300
H  19.54100 3.69400 27.34500
H  19.20800 2.05200 27.05700
H  26.40800 2.73800 24.12000
H  28.37400 0.64700 24.55600
H  24.98600 0.23600 23.97400
H  26.59100 -0.07500 23.34600
H  25.75400 1.28900 22.68700
H  29.43300 3.25000 25.32700
H  28.32300 3.57300 24.06900
H  29.79900 1.43300 23.14900
H  30.95400 2.65300 23.72700
H  29.71400 3.09600 22.53300
H  31.88200 0.86100 28.43300
H  31.26900 -0.82800 28.24400
H  32.07200 -0.30900 29.80600
H  29.13900 1.50100 33.54800
H  28.07600 -0.82700 36.76700
H  29.76200 -1.25400 36.78000
H  28.71500 -2.26700 35.77400
Mg 41.78800 41.27200 26.53000
C  41.16500 43.82400 29.09800
C  42.47300 39.08800 29.13400
C  42.72700 39.23500 24.34200
C  41.28200 43.82100 24.11100
N  42.03200 41.47400 28.82300
C  41.65900 42.62000 29.61500
C  41.54800 42.11300 31.11600
C  41.94900 40.63600 31.12300
C  42.16000 40.37500 29.62700
C  43.29900 40.25900 31.85300
C  40.04500 42.27900 31.70500
C  39.91400 42.98800 33.00000
H  39.18200 42.37300 34.20400
N  42.54500 39.41600 26.66800
C  42.62700 38.60300 27.83400
C  42.90300 37.24400 27.40700
C  43.11500 37.27600 26.00500
C  42.78800 38.67500 25.60500
C  43.32300 36.22300 28.46100
C  43.58700 36.23700 25.05100
O  43.85400 36.44400 23.86000
C  43.61700 34.74000 25.60300
N  42.04100 41.56800 24.50800
C  42.33200 40.47200 23.80200
C  42.08900 40.66000 22.28200
C  41.50400 42.16600 22.17200
C  41.70100 42.56500 23.66800
C  43.27200 40.36900 21.30700
C  40.08700 42.24600 21.62600
C  39.02400 41.54300 22.44800
N  41.35500 43.35800 26.52400
C  41.20900 44.23200 25.43700
C  40.75900 45.51200 25.93400
C  40.76200 45.37400 27.36900
C  41.07900 44.05100 27.66400
C  40.27500 46.67900 25.06900
C  40.53800 46.16400 28.59100
O  40.39400 47.36400 28.70700
C  40.76500 45.16700 29.73700
C  41.82800 45.68700 30.62500
O  43.01400 45.92100 30.36100
O  41.26100 45.98800 31.84400
C  42.15400 46.73100 32.74100
H  42.45200 38.39700 29.97900
H  42.81200 38.50800 23.53200
H  40.87900 44.44900 23.31300
H  42.28500 42.80800 31.52000
H  41.13200 40.05800 31.55600
H  43.54000 41.06400 32.54700
H  44.09800 40.15000 31.12000
H  43.07600 39.35500 32.41900
H  39.43100 41.37900 31.69900
H  39.50800 42.85500 30.95100
H  39.44500 43.95500 32.81500
H  40.89200 43.27600 33.38700
H  44.36900 35.95500 28.31100
H  42.80300 35.28200 28.27900
H  43.20900 36.51100 29.50600
H  44.53000 34.59300 26.18000
H  43.63100 34.05700 24.75300
H  42.69500 34.46900 26.11700
H  41.19700 40.05500 22.12200
H  42.25400 42.81800 21.72500
H  43.48900 41.25500 20.71000
H  43.08700 39.51200 20.65900
H  44.16300 40.04100 21.84200
H  40.00200 41.72200 20.67400
H  39.75100 43.27300 21.48100
H  39.32900 41.15300 23.41900
H  38.71800 40.68600 21.84700
H  38.17100 42.21300 22.55200
H  40.54400 46.60800 24.01500
H  40.76600 47.53600 25.53100
H  39.20500 46.87500 25.14700
H  39.83300 45.03800 30.28600
H  42.94300 47.28500 32.23200
H  42.54300 46.00200 33.45200
H  41.64300 47.49000 33.33300

