158

Mg 1.80800 -1.55000 44.24400
C  5.23900 -0.95200 43.57600
C  1.02900 0.96000 42.28400
C  -1.41100 -2.66300 44.38300
C  2.89900 -4.57200 45.87700
N  3.01800 -0.25100 43.10000
C  4.36400 -0.10200 42.93700
C  4.81400 0.93300 41.92700
C  3.43000 1.74100 41.73200
C  2.40600 0.78200 42.40400
C  3.42800 3.13500 42.28500
C  5.46800 0.39700 40.62800
C  6.73200 1.21800 40.29400
H  7.04700 1.41900 38.80500
N  -0.06100 -0.86300 43.59300
C  -0.11200 0.22100 42.79900
C  -1.49200 0.47300 42.48800
C  -2.23700 -0.50500 43.20200
C  -1.25900 -1.36900 43.85500
C  -2.07400 1.63900 41.59400
C  -3.77100 -0.60700 43.19600
O  -4.39800 0.23300 42.59700
C  -4.43200 -1.84500 43.92500
N  0.95600 -3.47400 44.89000
C  -0.42300 -3.59300 44.87700
C  -0.85200 -4.87600 45.54700
C  0.48400 -5.31400 46.26800
C  1.53300 -4.43700 45.65900
C  -2.00900 -4.79100 46.57500
C  0.76900 -6.88200 46.30500
C  1.04100 -7.63800 47.65700
N  3.70300 -2.62500 44.70400
C  4.01000 -3.77400 45.34800
C  5.40000 -3.98400 45.48800
C  5.94100 -2.88000 44.79100
C  4.90600 -2.09100 44.31900
C  6.11700 -5.19200 46.15600
C  7.16700 -2.23600 44.41400
O  8.36400 -2.53500 44.61900
C  6.77000 -0.93400 43.64100
C  7.21200 0.23800 44.51100
O  6.68600 0.65200 45.58200
O  8.32800 0.72000 43.82600
C  8.71500 2.01700 44.30100
H  0.77200 1.80600 41.64300
H  -2.38500 -3.12700 44.55400
H  3.15400 -5.34900 46.60100
H  5.56500 1.56200 42.40500
H  3.25300 1.82500 40.66000
H  2.44600 3.61000 42.28800
H  4.16800 3.77400 41.80200
H  3.71700 3.19500 43.33400
H  4.85200 0.64800 39.76500
H  5.75700 -0.65000 40.72100
H  7.62000 0.70100 40.65700
H  6.71400 2.23300 40.69200
H  -2.73900 1.27800 40.81000
H  -1.30700 2.30100 41.19200
H  -2.70300 2.23200 42.25900
H  -5.50000 -1.63100 43.90000
H  -3.99100 -1.92800 44.91900
H  -4.26600 -2.76100 43.35900
H  -1.16300 -5.63200 44.82700
H  0.44400 -4.92600 47.28600
H  -2.86800 -5.21400 46.05500
H  -2.28700 -3.79200 46.91200
H  -1.70800 -5.37200 47.44700
H  1.60700 -7.06300 45.63200
H  -0.06800 -7.40100 45.83800
H  0.62600 -8.64500 47.71000
H  0.71400 -6.97800 48.46100
H  2.10700 -7.79600 47.81900
H  6.08900 -5.04500 47.23500
H  7.18700 -5.27500 45.96400
H  5.56300 -6.10600 45.94400
H  7.14900 -0.83400 42.62400
H  8.02500 2.80800 44.00700
H  9.69200 2.22800 43.86500
H  8.80200 2.12900 45.38200
Mg 1.53100 41.99300 25.24000
C  2.82900 42.03100 28.62400
C  -1.33900 40.52300 26.45700
C  0.66200 41.51500 22.07200
C  4.80000 42.84000 24.29600
N  0.71000 41.67700 27.37700
C  1.45000 41.59600 28.56200
C  0.56000 41.16500 29.75400
C  -0.71500 40.69100 28.99000
C  -0.43200 40.95400 27.48300
C  -1.09400 39.20100 29.25900
C  0.24000 42.23800 30.83300
C  -0.14200 41.83700 32.22500
H  -1.19800 40.69500 32.41400
N  -0.08100 41.27900 24.32100
C  -1.21300 40.76700 24.99100
C  -2.14100 40.21600 24.03300
C  -1.64500 40.52100 22.72900
C  -0.30200 41.17700 23.00100
C  -3.39900 39.56000 24.49100
C  -2.10200 40.10500 21.35400
O  -1.47700 40.36700 20.29600
C  -3.36100 39.34600 21.22600
N  2.64800 42.05900 23.48300
C  2.02500 41.87800 22.23200
C  2.95100 42.18000 21.07500
C  4.11900 42.85600 21.82600
C  3.86400 42.56700 23.29300
C  3.30700 40.86600 20.24800
C  4.19600 44.34800 21.55300
C  3.04500 45.22400 21.97100
N  3.45100 42.33100 26.22700
C  4.65800 42.68200 25.66800
C  5.72100 42.75900 26.70000
C  5.00300 42.55400 27.91600
C  3.64100 42.26500 27.56100
C  7.18400 42.93600 26.55900
C  5.20600 42.37500 29.30400
O  6.17800 42.49900 30.02800
C  3.75300 42.03200 29.88700
C  3.74200 40.69400 30.55600
O  4.43800 39.71000 30.21200
O  2.90500 40.69600 31.65000
C  2.94400 39.47800 32.45200
H  -2.23600 40.02400 26.83200
H  0.38300 41.23100 21.05500
H  5.72900 43.25300 23.89800
H  0.98200 40.21600 30.08400
H  -1.50700 41.43600 29.06800
H  -0.37700 38.76700 29.95500
H  -0.93300 38.52200 28.42200
H  -2.06900 39.06600 29.72700
H  -0.56500 42.87600 30.47000
H  1.13400 42.85700 30.91100
H  -0.38500 42.73000 32.80000
H  0.79200 41.50800 32.68000
H  -3.66600 39.77600 25.52600
H  -3.28100 38.48200 24.38000
H  -4.27700 39.84500 23.91100
H  -3.25000 38.39700 21.75000
H  -3.39900 39.15600 20.15300
H  -4.26800 39.87500 21.51700
H  2.43100 42.75600 20.30900
H  5.03100 42.32900 21.54800
H  4.31000 40.51100 20.48400
H  3.27800 41.26500 19.23400
H  2.61800 40.03500 20.40300
H  4.45800 44.62400 20.53200
H  5.09200 44.71300 22.05700
H  2.63300 45.69900 21.08100
H  3.39700 45.93400 22.71900
H  2.24000 44.70200 22.48800
H  7.75800 42.12400 27.00600
H  7.38700 43.82100 27.16200
H  7.42200 43.07400 25.50400
H  3.43500 42.84700 30.53800
H  3.61400 38.70100 32.08200
H  1.91400 39.12900 32.51200
H  3.30300 39.64200 33.46800

