158

Mg -0.96800 17.80700 27.37000
C  -1.85900 15.56600 29.85100
C  -1.84000 20.37000 29.37900
C  -0.85500 19.67800 24.60900
C  -0.62900 14.90900 25.15200
N  -1.72800 17.92200 29.44600
C  -1.79400 16.88100 30.32700
C  -2.22000 17.41100 31.75700
C  -2.14000 19.00800 31.53500
C  -1.87700 19.16500 30.00600
C  -3.44400 19.72900 32.02000
C  -1.63200 16.96000 33.07900
C  -2.56200 16.85600 34.31500
H  -1.96100 16.29200 35.58300
N  -1.23000 19.75800 27.00200
C  -1.45900 20.67100 28.00000
C  -1.40700 21.98800 27.45600
C  -1.31500 21.81500 25.99400
C  -1.13300 20.33700 25.79800
C  -1.37700 23.23100 28.31000
C  -1.17200 22.85400 24.84700
O  -1.01500 22.58200 23.65500
C  -1.08000 24.30000 25.29700
N  -0.80000 17.27900 25.18400
C  -0.67000 18.28500 24.26200
C  -0.64000 17.76200 22.84000
C  -0.21300 16.30800 23.05700
C  -0.57500 16.15500 24.54400
C  -1.92300 18.05400 21.99000
C  1.27500 15.97900 22.72200
C  2.42600 16.24600 23.71300
N  -1.15900 15.73700 27.39300
C  -0.97100 14.69200 26.46000
C  -1.25000 13.46100 27.09700
C  -1.66700 13.71300 28.38500
C  -1.55100 15.14300 28.54600
C  -1.27900 12.13100 26.44700
C  -2.06400 13.14100 29.66500
O  -2.05400 11.95700 30.04800
C  -2.30000 14.36100 30.63200
C  -1.44000 14.01600 31.91200
O  -0.21700 14.18200 32.05200
O  -2.26500 13.37400 32.87200
C  -1.45200 12.79600 33.96400
H  -1.84400 21.14500 30.14800
H  -0.88200 20.27500 23.69500
H  -0.30300 14.12700 24.46300
H  -3.23800 17.02200 31.80100
H  -1.29300 19.46300 32.04700
H  -3.15800 20.59800 32.61400
H  -4.08400 19.09600 32.63500
H  -4.11200 20.08500 31.23600
H  -0.95300 17.77600 33.32400
H  -1.01100 16.06400 33.10900
H  -3.21000 16.03000 34.02200
H  -3.12300 17.78100 34.44900
H  -0.54100 23.90700 28.13200
H  -1.37300 23.10700 29.39300
H  -2.32200 23.74800 28.14800
H  -1.00300 24.96700 24.43900
H  -0.11500 24.57500 25.72300
H  -1.91000 24.68600 25.88900
H  0.21700 18.19400 22.32400
H  -0.76500 15.57900 22.46400
H  -2.32100 17.07400 21.72800
H  -1.68600 18.64800 21.10700
H  -2.70200 18.59100 22.53200
H  1.61900 16.60100 21.89600
H  1.42800 14.93100 22.46300
H  2.06400 16.71600 24.62700
H  3.24600 16.87700 23.37000
H  2.93300 15.29500 23.87700
H  -0.71400 11.43700 27.06900
H  -0.83300 12.04800 25.45500
H  -2.31500 11.79300 26.46500
H  -3.37900 14.37400 30.78700
H  -0.53100 13.29500 34.26700
H  -1.21300 11.77000 33.68600
H  -2.08800 12.62400 34.83200
Mg 17.18100 53.23900 26.92900
C  19.12600 51.65700 29.28400
C  15.04100 54.17800 29.45800
C  14.97900 54.32900 24.62700
C  19.11000 51.70600 24.39400
N  17.04500 52.76400 29.07100
C  17.93300 52.13300 29.86500
C  17.53800 52.28800 31.26900
C  16.02800 52.69900 31.18100
C  16.02200 53.30800 29.79100
C  15.04300 51.54300 31.27200
C  18.53700 53.35100 31.90100
C  18.91800 53.11700 33.30700
H  17.87100 52.44200 34.14700
N  15.36800 54.18900 26.98900
C  14.67400 54.59800 28.15000
C  13.50600 55.27000 27.81600
C  13.33600 55.21900 26.37400
C  14.62900 54.53000 25.88200
C  12.70800 55.94100 28.86100
C  12.19400 55.62300 25.52600
O  12.08800 55.37900 24.33800
C  11.14000 56.50300 26.16500
N  17.12500 53.02800 24.92400
C  16.08200 53.65500 24.14700
C  16.39600 53.53500 22.58200
C  17.86200 52.93900 22.59600
C  18.03900 52.49300 24.02000
C  15.44500 52.51600 21.86500
C  18.97800 53.88000 22.12300
C  19.98900 53.33500 21.12700
N  18.82900 51.88300 26.80800
C  19.54400 51.45400 25.71000
C  20.74900 50.71800 26.15800
C  20.66400 50.81700 27.57500
C  19.46700 51.59500 27.90200
C  21.76300 50.03000 25.26800
C  21.26800 50.42400 28.85100
O  22.17100 49.65200 29.11800
C  20.40700 51.07000 30.00400
C  20.07600 49.96900 30.92900
O  19.34300 49.05500 30.61700
O  20.60500 50.17700 32.16900
C  19.97000 49.34100 33.26500
H  14.36900 54.39500 30.29000
H  14.33800 54.75400 23.85200
H  19.81600 51.29300 23.67100
H  17.64500 51.33300 31.78400
H  15.80600 53.47100 31.91800
H  15.56100 50.58700 31.34600
H  14.40700 51.58000 30.38700
H  14.35500 51.57800 32.11700
H  18.09900 54.34700 31.84100
H  19.51400 53.35100 31.41700
H  19.02100 54.09100 33.78500
H  19.76900 52.43600 33.27900
H  12.24900 56.85700 28.48700
H  13.30200 56.23600 29.72600
H  11.83900 55.31700 29.07200
H  11.62100 57.46700 26.33000
H  10.78900 55.96600 27.04500
H  10.31400 56.61300 25.46200
H  16.40300 54.50600 22.08700
H  17.92800 51.99100 22.06100
H  16.00200 51.59100 21.71400
H  15.11900 52.96900 20.92900
H  14.51700 52.34800 22.41100
H  19.48700 54.24700 23.01400
H  18.66000 54.83600 21.70700
H  19.71000 53.61100 20.11000
H  20.01000 52.25000 21.22000
H  20.98800 53.70300 21.36200
H  22.38200 50.82500 24.85300
H  21.25300 49.55100 24.43200
H  22.45100 49.34100 25.75700
H  21.03700 51.85700 30.41800
H  20.48900 48.38400 33.20300
H  18.90700 49.31200 33.02700
H  20.09500 49.72900 34.27600

