158

Mg 40.43100 9.36600 29.17200
C  42.06100 10.52500 32.12200
C  38.06000 7.85300 31.12600
C  39.01400 7.86600 26.23600
C  43.05900 10.58600 27.35200
N  40.24900 9.07500 31.42500
C  40.91200 9.80300 32.40700
C  40.13200 9.73800 33.79000
C  38.97800 8.76200 33.45000
C  39.08000 8.46500 31.92800
C  38.99700 7.39200 34.27600
C  39.71900 11.15500 34.34600
C  39.61900 11.22500 35.85700
H  40.64100 12.03200 36.58800
N  38.72400 8.10800 28.73000
C  37.89700 7.65700 29.74700
C  36.86400 6.87000 29.12700
C  37.06700 6.94900 27.67200
C  38.26900 7.71600 27.47000
C  35.90900 6.06200 29.96200
C  36.28000 6.39700 26.56500
O  36.47400 6.70500 25.38200
C  35.18200 5.45100 26.87800
N  40.89300 9.28000 27.17000
C  40.26500 8.56300 26.16800
C  41.11000 8.56500 24.82100
C  42.13200 9.66600 25.19000
C  42.08000 9.91200 26.65800
C  41.68300 7.27100 24.24700
C  42.04600 10.88500 24.32600
C  40.88600 11.90900 24.55100
N  42.25300 10.23200 29.61500
C  43.16600 10.78100 28.74700
C  44.11100 11.55000 29.46700
C  43.72700 11.52600 30.78500
C  42.62200 10.64600 30.82500
C  45.31400 12.19300 28.94700
C  44.03500 11.99700 32.13600
O  44.84700 12.80200 32.60700
C  42.90000 11.33900 33.06500
C  43.64100 10.49300 34.10000
O  44.23100 9.40300 33.91300
O  43.46400 11.03300 35.31300
C  43.77500 10.21900 36.48200
H  37.30800 7.38300 31.76300
H  38.68000 7.49100 25.26700
H  43.81500 10.98100 26.67000
H  40.88800 9.41100 34.50400
H  38.03700 9.29400 33.59000
H  39.80500 7.39300 35.00800
H  39.10000 6.56800 33.57000
H  38.04300 7.20800 34.77000
H  38.70400 11.43500 34.06700
H  40.41200 11.91400 33.98200
H  39.59900 10.22800 36.29600
H  38.66700 11.69300 36.11100
H  36.57100 5.22600 30.19100
H  35.08200 5.69800 29.35200
H  35.49200 6.56700 30.83300
H  34.77900 5.15900 25.90800
H  34.42000 6.07300 27.34700
H  35.40900 4.53500 27.42400
H  40.40000 8.87700 24.05600
H  43.15300 9.28300 25.17200
H  41.55000 6.51000 25.01500
H  42.74600 7.28900 24.00600
H  41.19600 6.92500 23.33500
H  41.93100 10.62500 23.27400
H  43.00900 11.39400 24.34800
H  41.33100 12.89600 24.68600
H  40.44400 11.55900 25.48300
H  40.14200 11.97200 23.75800
H  45.80900 11.32200 28.51900
H  45.87300 12.51600 29.82600
H  45.11300 12.98500 28.22600
H  42.42400 12.10900 33.67200
H  44.85800 10.20500 36.60300
H  43.47800 9.17600 36.37500
H  43.31700 10.56500 37.40800
Mg 42.67700 41.59200 25.84000
C  41.82800 43.96700 28.33200
C  43.69100 39.45600 28.19700
C  43.88500 39.51400 23.39600
C  42.22800 44.04100 23.43500
N  42.38700 41.57300 28.04400
C  42.13900 42.67700 28.89000
C  42.30600 42.38400 30.33700
C  43.25600 41.15200 30.15900
C  43.10900 40.64100 28.66600
C  44.72600 41.21200 30.70100
C  40.96800 42.08400 31.08400
C  40.81600 42.59200 32.50400
H  41.92200 42.48500 33.55300
N  43.49400 39.64100 25.81900
C  43.77700 38.91100 26.89900
C  44.37300 37.71200 26.53700
C  44.35700 37.61900 25.08100
C  43.87900 38.94900 24.66200
C  44.79800 36.78600 27.61000
C  44.68200 36.41700 24.16000
O  44.41900 36.45100 23.00700
C  45.23000 35.07400 24.67300
N  42.90500 41.70400 23.76000
C  43.54600 40.80300 22.98000
C  43.56900 41.10000 21.52300
C  42.90300 42.47700 21.50500
C  42.65300 42.80500 22.93100
C  44.97200 40.96500 20.79500
C  41.54300 42.51000 20.68600
C  40.36500 41.87500 21.45100
N  42.20000 43.60400 25.84000
C  42.02100 44.52900 24.80200
C  41.65500 45.82900 25.31300
C  41.61600 45.63800 26.71100
C  41.91100 44.28100 26.94300
C  41.28600 47.05000 24.50800
C  41.36800 46.30400 27.95900
O  40.97500 47.44100 28.15600
C  41.53600 45.25000 29.00800
C  42.59200 45.75800 29.94900
O  43.75600 45.48800 29.76300
O  42.16300 46.57200 31.02300
C  43.16300 46.87800 31.97200
H  44.09200 38.85600 29.01600
H  44.25100 38.76000 22.69500
H  42.27400 44.76000 22.61500
H  42.81800 43.16700 30.89500
H  42.83300 40.38600 30.80900
H  44.64000 40.67700 31.64700
H  45.02500 42.25500 30.80000
H  45.38200 40.61600 30.06700
H  40.70400 41.02900 31.01000
H  40.16300 42.62000 30.58000
H  39.94500 42.08200 32.91500
H  40.53000 43.64100 32.58200
H  44.39800 35.78300 27.46300
H  44.30700 36.95600 28.56800
H  45.87500 36.76500 27.77400
H  44.48700 34.52900 25.25400
H  46.01400 35.39500 25.35900
H  45.61200 34.48300 23.84100
H  42.91900 40.36800 21.04400
H  43.49000 43.26300 21.03000
H  45.16700 41.82100 20.15000
H  45.13600 40.05600 20.21600
H  45.81000 41.01500 21.49100
H  41.71800 41.91800 19.78700
H  41.22900 43.54000 20.52000
H  40.25500 40.84900 21.09900
H  39.46900 42.49000 21.36800
H  40.47200 41.76800 22.53000
H  40.21900 47.27300 24.49600
H  41.44700 46.86600 23.44500
H  41.91200 47.84100 24.92000
H  40.61800 45.22000 29.59500
H  43.38600 45.99700 32.57500
H  42.74600 47.69500 32.56000
H  44.02500 47.39600 31.55400

