158

Mg 0.18100 43.29200 25.53600
C  2.65800 42.80900 27.86900
C  -2.16000 42.29100 27.67800
C  -1.99800 43.74100 22.97100
C  2.76100 43.61000 23.09900
N  0.26300 42.47500 27.54400
C  1.39400 42.49200 28.34400
C  0.92800 42.28100 29.81800
C  -0.65600 42.04100 29.71200
C  -0.90800 42.38000 28.20400
C  -1.08400 40.64000 30.07900
C  1.24500 43.55000 30.70700
C  1.82400 43.16100 32.15100
H  1.51100 41.81500 32.83500
N  -1.79900 43.08400 25.41200
C  -2.58800 42.62300 26.38600
C  -3.93900 42.61300 25.96900
C  -3.97600 43.10400 24.58700
C  -2.52900 43.33600 24.26300
C  -5.07600 41.98100 26.86900
C  -5.19900 43.26800 23.69400
O  -5.15100 43.60400 22.47700
C  -6.52600 42.95800 24.26900
N  0.33200 43.46500 23.29500
C  -0.70600 43.78300 22.51900
C  -0.34400 44.09600 21.06900
C  1.19300 44.08700 21.16200
C  1.47700 43.73600 22.62900
C  -1.09100 43.16200 20.06900
C  1.79200 45.34500 20.64500
C  2.29000 46.43800 21.61200
N  2.30300 43.16500 25.42200
C  3.25400 43.34600 24.39100
C  4.64200 43.26300 24.82200
C  4.39300 43.12400 26.21900
C  3.01800 43.03900 26.51100
C  5.84000 43.35900 23.85900
C  5.08000 42.95600 27.51300
O  6.28800 42.81500 27.75500
C  3.90800 42.84800 28.63400
C  4.29300 41.64100 29.45100
O  4.11100 40.45600 29.18900
O  4.71600 42.06200 30.67600
C  5.18100 40.98100 31.56000
H  -2.97300 42.14900 28.39300
H  -2.73300 43.83000 22.16800
H  3.49300 43.92800 22.35400
H  1.38600 41.38300 30.23100
H  -1.14600 42.78300 30.34300
H  -1.25200 40.02500 29.19400
H  -1.94200 40.67600 30.75000
H  -0.24600 40.16300 30.58600
H  0.37900 44.19300 30.86100
H  1.95200 44.25300 30.26700
H  1.42700 44.01100 32.70800
H  2.90000 43.24500 32.30000
H  -5.80600 41.37600 26.33100
H  -5.65600 42.68400 27.46600
H  -4.70900 41.32900 27.66200
H  -7.38000 43.26800 23.66600
H  -6.66500 43.56200 25.16600
H  -6.57900 41.87500 24.38000
H  -0.61100 45.14100 20.91000
H  1.41000 43.19800 20.56900
H  -1.27300 43.71500 19.14800
H  -2.10600 42.86800 20.33700
H  -0.49900 42.28500 19.80500
H  1.05300 45.78200 19.97400
H  2.54000 45.17500 19.87000
H  1.84000 47.36900 21.26600
H  3.37900 46.46200 21.60500
H  1.86500 46.48600 22.61400
H  5.66400 44.06400 23.04600
H  6.19200 42.41000 23.45500
H  6.66000 43.76000 24.45400
H  4.03100 43.70300 29.29900
H  5.98100 40.37400 31.13700
H  4.27400 40.46800 31.88200
H  5.69300 41.42500 32.41400
Mg -5.20800 24.65000 26.20700
C  -3.16800 26.24000 28.59100
C  -6.25400 22.50400 28.57200
C  -7.14800 23.25200 23.88700
C  -3.84100 26.75500 23.83400
N  -4.58000 24.31700 28.30200
C  -3.88700 25.16900 29.13300
C  -4.15500 24.86400 30.62700
C  -4.72400 23.41000 30.47600
C  -5.29500 23.40900 28.99400
C  -3.57300 22.35500 30.52700
C  -5.22300 25.84300 31.20300
C  -5.14000 26.20400 32.69000
H  -4.61200 25.14300 33.61700
N  -6.57100 23.03500 26.20700
C  -6.85700 22.33300 27.31900
C  -7.87900 21.44900 26.96900
C  -8.24800 21.59000 25.56900
C  -7.30200 22.63200 25.14300
C  -8.62700 20.59700 28.03100
C  -9.33800 20.86900 24.71400
O  -9.36100 21.09300 23.47600
C  -10.24800 19.72900 25.28600
N  -5.41700 24.91400 24.17600
C  -6.35100 24.30200 23.47100
C  -6.27700 24.77200 21.97700
C  -5.45900 26.08500 22.08500
C  -4.79100 25.88200 23.41700
C  -5.63300 23.69900 21.05500
C  -6.32800 27.37900 22.14600
C  -6.19600 28.18000 20.83900
N  -3.65600 26.09500 26.12700
C  -3.30400 26.89500 25.10600
C  -2.36300 27.82600 25.55400
C  -2.33900 27.60800 26.97300
C  -3.05400 26.52200 27.22700
C  -1.57800 28.83800 24.79400
C  -1.85300 28.19100 28.25200
O  -1.08200 29.11800 28.54300
C  -2.36300 27.23600 29.34000
C  -1.25200 26.70600 30.16500
O  -0.27700 26.06300 29.78200
O  -1.54800 26.95200 31.51600
C  -0.65800 26.39000 32.52700
H  -6.60700 21.77200 29.30100
H  -7.69300 22.82100 23.04400
H  -3.31800 27.47200 23.19700
H  -3.29100 24.92900 31.28800
H  -5.55100 23.13600 31.13100
H  -3.35000 22.08200 29.49500
H  -3.66900 21.39300 31.02900
H  -2.63000 22.83700 30.78600
H  -6.19000 25.37100 31.03200
H  -5.19100 26.81300 30.70600
H  -6.14100 26.30900 33.10900
H  -4.54700 27.09800 32.87900
H  -9.65000 20.95800 28.13700
H  -8.18000 20.46500 29.01600
H  -8.73500 19.57800 27.65900
H  -10.76100 20.19900 26.12600
H  -9.68100 18.82000 25.48500
H  -10.99500 19.53200 24.51700
H  -7.27500 24.90500 21.55900
H  -4.67500 26.14200 21.33100
H  -4.86400 24.18600 20.45600
H  -6.45500 23.34900 20.43000
H  -5.22100 22.88000 21.64300
H  -5.99700 27.99400 22.98200
H  -7.38800 27.13700 22.21800
H  -5.79300 27.71100 19.94200
H  -5.62000 29.08200 21.04600
H  -7.22100 28.47900 20.62300
H  -2.27900 29.28200 24.08700
H  -0.86000 28.27600 24.19700
H  -0.99000 29.51400 25.41400
H  -3.02900 27.83700 29.96000
H  0.25000 26.99200 32.49300
H  -0.19000 25.42800 32.31600
H  -1.08500 26.37400 33.53000

