158

Mg 2.27800 -1.47400 43.58100
C  5.73800 -0.90200 43.44300
C  1.75400 1.32400 41.62300
C  -0.97300 -2.44500 43.28700
C  3.01800 -4.60400 45.18200
N  3.61500 -0.06500 42.48000
C  4.99700 0.04500 42.64200
C  5.54700 1.14400 41.70300
C  4.29100 2.02700 41.50900
C  3.14100 1.03300 41.82200
C  4.22500 3.49800 41.95700
C  6.12600 0.56100 40.37000
C  7.46400 1.21800 39.96000
H  7.70200 1.47400 38.45600
N  0.66200 -0.56500 42.76300
C  0.62600 0.56100 42.01300
C  -0.72400 0.87900 41.73400
C  -1.55100 -0.09500 42.21200
C  -0.62600 -1.16600 42.72600
C  -1.27500 2.19900 41.03100
C  -3.07400 -0.18300 42.12700
O  -3.70000 0.83500 41.81100
C  -3.90800 -1.28100 42.49900
N  1.21300 -3.31300 44.02000
C  -0.15100 -3.44700 43.88700
C  -0.58300 -4.83300 44.22000
C  0.63600 -5.44200 44.97500
C  1.71900 -4.42200 44.58800
C  -1.95700 -4.93000 44.96900
C  1.08600 -6.86800 44.40800
C  1.49400 -7.77500 45.63300
N  4.02200 -2.63700 44.09000
C  4.12900 -3.82000 44.88300
C  5.50800 -4.01300 45.25500
C  6.15000 -2.84700 44.73600
C  5.22600 -2.10100 44.02600
C  6.11500 -5.12900 45.87300
C  7.40800 -2.12500 44.65500
O  8.48500 -2.44000 45.15100
C  7.22500 -0.87100 43.81000
C  7.55200 0.31400 44.65000
O  6.79500 0.87700 45.41400
O  8.79800 0.81000 44.25100
C  9.04100 2.21200 44.69600
H  1.38700 2.25800 41.19100
H  -2.02200 -2.70900 43.13300
H  3.23200 -5.35800 45.94200
H  6.26300 1.80300 42.19400
H  4.24300 2.26900 40.44700
H  4.27300 4.21900 41.14100
H  5.06200 3.74900 42.60900
H  3.27000 3.45600 42.48000
H  5.44500 0.70200 39.53000
H  6.18800 -0.52200 40.48400
H  8.26100 0.60000 40.37500
H  7.55300 2.14800 40.52200
H  -1.87900 1.83200 40.20200
H  -0.50500 2.91000 40.73100
H  -2.01300 2.67400 41.67700
H  -4.93900 -0.94500 42.39200
H  -3.64700 -1.68600 43.47700
H  -3.79500 -2.10600 41.79500
H  -0.62500 -5.39200 43.28500
H  0.44900 -5.31400 46.04200
H  -2.58600 -4.05600 44.80200
H  -1.71200 -4.91800 46.03100
H  -2.49000 -5.86400 44.78700
H  1.87600 -6.82300 43.65900
H  0.18200 -7.38900 44.09300
H  2.50800 -8.10200 45.40700
H  0.78600 -8.60400 45.60500
H  1.56500 -7.19500 46.55300
H  6.39600 -5.90300 45.15800
H  5.35700 -5.60900 46.49200
H  6.93200 -4.78000 46.50500
H  7.89300 -0.91100 42.95000
H  10.04600 2.45600 44.35100
H  8.99500 2.32100 45.78000
H  8.38700 2.98400 44.29000
Mg 47.55700 45.86800 42.95600
C  44.29800 45.03200 41.83700
C  48.75900 43.17900 40.95300
C  50.78500 46.83500 43.33100
C  46.41500 48.88800 43.86300
N  46.67100 44.25400 41.48300
C  45.30500 44.16800 41.20900
C  45.00400 42.98700 40.24000
C  46.35600 42.18900 40.42800
C  47.34000 43.19300 41.04100
C  46.24600 40.97000 41.41700
C  44.72200 43.49600 38.81500
C  43.30700 43.06400 38.24400
H  43.26500 41.80700 37.29200
N  49.45100 45.00700 42.35000
C  49.72700 43.95800 41.50400
C  51.16600 43.74900 41.45600
C  51.75400 44.71000 42.26700
C  50.68000 45.60800 42.67600
C  51.80500 42.63400 40.64300
C  53.26300 44.86200 42.52300
O  54.01400 43.99900 42.10000
C  53.86700 45.94900 43.40200
N  48.49000 47.69900 43.32500
C  49.84500 47.80000 43.63200
C  50.11100 49.15200 44.21500
C  48.73700 49.87700 44.23300
C  47.78200 48.74500 43.74300
C  50.77000 49.06900 45.63200
C  48.57300 51.04700 43.18200
C  47.64500 52.14600 43.77500
N  45.71900 46.75100 43.05400
C  45.40500 47.94700 43.66200
C  43.97100 48.09700 43.76200
C  43.47800 46.95200 43.04000
C  44.62500 46.14700 42.64300
C  43.10600 49.16100 44.40200
C  42.31000 46.29400 42.51400
O  41.14000 46.71700 42.53000
C  42.80400 45.02600 41.68400
C  42.10000 43.86400 42.22900
O  41.13100 43.35200 41.68300
O  42.77500 43.33200 43.25300
C  42.35000 41.98700 43.62100
H  49.01300 42.26700 40.40900
H  51.78600 47.12400 43.65900
H  46.07300 49.82900 44.29700
H  44.12700 42.49700 40.66400
H  46.78800 41.87200 39.47900
H  45.47700 40.29700 41.03800
H  46.10600 41.28000 42.45200
H  47.19100 40.44600 41.26900
H  45.46400 43.08000 38.13300
H  44.76000 44.57900 38.69400
H  42.61900 43.82900 37.88500
H  42.84300 42.68700 39.15500
H  52.53200 43.01900 39.92700
H  51.12400 41.95100 40.13600
H  52.20900 41.87000 41.30700
H  53.63800 46.83100 42.80300
H  54.94100 45.76700 43.37500
H  53.47500 45.95900 44.41900
H  50.80900 49.53400 43.47000
H  48.33200 50.15400 45.20600
H  51.81100 48.83900 45.40400
H  50.18400 48.28400 46.10900
H  50.62600 49.97400 46.22200
H  48.01200 50.70300 42.31300
H  49.55400 51.24400 42.75000
H  46.80700 52.21000 43.08100
H  48.13100 53.12100 43.76500
H  47.32900 52.07500 44.81600
H  42.67600 49.75100 43.59200
H  43.80100 49.82600 44.91500
H  42.27800 48.78300 45.00200
H  42.50900 44.92100 40.64000
H  42.47300 41.23000 42.84700
H  41.35700 41.82300 44.03900
H  42.91600 41.54400 44.44000

