158

Mg 41.99200 9.08500 29.69100
C  43.59200 10.10900 32.61300
C  39.65300 7.57100 31.61100
C  40.55900 7.90600 26.81600
C  44.75200 10.05400 27.83600
N  41.70400 8.77900 31.82800
C  42.33400 9.46200 32.79400
C  41.72900 9.19300 34.17900
C  40.75800 8.04300 33.85000
C  40.63900 8.23900 32.32200
C  41.15700 6.66200 34.30000
C  41.15300 10.46400 34.87900
C  41.07600 10.59900 36.41300
H  41.26600 11.94300 37.07100
N  40.27500 8.00900 29.27600
C  39.42400 7.39900 30.25900
C  38.30300 6.73300 29.56800
C  38.48700 7.05200 28.14100
C  39.84100 7.71700 28.02600
C  37.29700 5.86800 30.33700
C  37.60900 6.55700 27.01800
O  37.79200 6.76000 25.80700
C  36.34400 5.74000 27.37700
N  42.52100 8.98700 27.63800
C  41.83600 8.44600 26.65100
C  42.56100 8.47900 25.28000
C  43.91500 9.25700 25.69200
C  43.67200 9.56500 27.17100
C  42.90400 7.11300 24.67000
C  44.05800 10.59900 24.93100
C  43.14100 11.76900 25.24500
N  43.85800 9.96300 30.11600
C  44.83300 10.27700 29.25600
C  45.80200 11.09300 29.99400
C  45.33400 11.12300 31.34400
C  44.21400 10.31900 31.32800
C  47.00300 11.75500 29.50400
C  45.50800 11.54800 32.73900
O  46.31000 12.34100 33.18500
C  44.45100 10.90100 33.64000
C  44.97100 10.03200 34.73500
O  45.72100 9.10100 34.55500
O  44.48800 10.48400 35.96900
C  45.12400 9.91600 37.10800
H  38.96200 7.25100 32.39400
H  40.18000 7.45400 25.89700
H  45.57500 10.47000 27.25200
H  42.57300 8.84000 34.77100
H  39.81200 8.20700 34.36600
H  40.37300 6.26200 34.94300
H  42.18200 6.57500 34.66100
H  41.13500 6.05600 33.39400
H  40.11500 10.50800 34.55000
H  41.73900 11.29500 34.48600
H  41.64300 9.76100 36.81900
H  40.02800 10.38700 36.62600
H  37.32700 4.79200 30.17100
H  36.28200 6.20900 30.13200
H  37.54900 5.90600 31.39700
H  36.59200 4.75200 27.76500
H  35.78700 5.54700 26.46000
H  35.64400 6.19500 28.07800
H  42.01600 9.08400 24.55500
H  44.78800 8.61800 25.56100
H  43.97200 6.92700 24.56100
H  42.39400 7.12700 23.70700
H  42.50600 6.31100 25.29200
H  43.99000 10.37700 23.86700
H  45.09200 10.93000 25.02400
H  42.29500 11.46500 25.86000
H  42.66900 12.26300 24.39600
H  43.78600 12.51800 25.70400
H  46.76200 12.73100 29.08300
H  47.60800 11.17400 28.80800
H  47.67300 12.04000 30.31500
H  43.98200 11.79700 34.04500
H  46.15400 9.58400 36.98200
H  44.60300 8.99400 37.36600
H  45.20900 10.57600 37.97100
Mg 17.06700 51.94500 26.57500
C  19.37000 50.38500 28.86400
C  15.15900 52.56000 29.31900
C  14.96900 53.31700 24.46500
C  19.20900 50.86400 23.93200
N  17.31600 51.57600 28.85200
C  18.33500 51.01600 29.58200
C  18.17500 51.21800 31.15600
C  16.63100 51.63800 31.19400
C  16.30900 51.97300 29.69700
C  15.69100 50.50500 31.67500
C  19.11400 52.33100 31.76900
C  19.44400 52.15300 33.19300
H  18.36500 51.71000 34.17700
N  15.34600 52.80600 26.87500
C  14.63600 52.91400 28.02400
C  13.42600 53.74700 27.83600
C  13.31600 53.90400 26.39100
C  14.53600 53.32800 25.83500
C  12.51400 54.08300 28.93200
C  12.26100 54.64700 25.51800
O  12.29900 54.70700 24.31400
C  11.11500 55.33100 26.16900
N  17.07500 52.03200 24.45200
C  16.09400 52.67500 23.85800
C  16.33200 52.68700 22.29800
C  17.65700 51.95600 22.17500
C  18.06200 51.61100 23.61200
C  15.13400 51.95900 21.51700
C  18.73400 52.80800 21.39500
C  19.23100 54.17800 21.89900
N  18.86500 50.85800 26.35100
C  19.58800 50.54500 25.20600
C  20.67300 49.70200 25.50200
C  20.63300 49.56400 26.94300
C  19.52000 50.35000 27.42100
C  21.52800 48.97700 24.47100
C  21.23000 48.91200 28.09800
O  22.08800 48.06200 28.16700
C  20.63300 49.69300 29.28700
C  20.39900 48.73000 30.37200
O  19.62900 47.83500 30.34900
O  21.15700 49.00100 31.50600
C  20.81400 48.22800 32.63700
H  14.53500 52.76800 30.19100
H  14.50500 53.95000 23.70500
H  19.81100 50.35400 23.17700
H  18.34400 50.25800 31.64400
H  16.40700 52.46700 31.86500
H  14.72400 50.74500 32.11700
H  16.29900 49.75600 32.18400
H  15.30300 49.89900 30.85600
H  18.60000 53.29100 31.71800
H  20.00300 52.37500 31.14000
H  19.90300 53.11600 33.41500
H  20.28900 51.46600 33.14400
H  12.46200 55.11700 29.27200
H  12.69600 53.48100 29.82300
H  11.49200 53.86900 28.62000
H  10.66100 54.64600 26.88500
H  10.36400 55.75100 25.50000
H  11.54100 56.15600 26.74000
H  16.42400 53.69700 21.90000
H  17.50900 51.04400 21.59600
H  15.51300 51.17700 20.86000
H  14.57900 52.65600 20.88900
H  14.32600 51.54400 22.11900
H  18.34100 53.05100 20.40800
H  19.63400 52.19400 21.34400
H  20.29000 54.04300 22.11900
H  18.58900 54.60700 22.66900
H  19.07200 54.83200 21.04200
H  21.31100 48.94900 23.40300
H  21.39600 47.90000 24.57800
H  22.56100 49.29200 24.61300
H  21.33400 50.45100 29.63900
H  20.64500 47.23600 32.21900
H  19.84600 48.41700 33.10100
H  21.58900 48.22100 33.40500

