158

Mg 45.14400 4.90500 47.64800
C  42.84800 7.57300 47.26000
C  42.41200 2.76400 47.05200
C  47.25200 2.52200 47.54600
C  47.73600 7.31100 47.86300
N  42.81800 5.19200 47.08400
C  42.14100 6.38400 47.04000
C  40.60000 6.14900 46.96200
C  40.43600 4.57300 47.02200
C  41.97800 4.10600 47.08200
C  39.53000 4.09300 48.19700
C  39.99400 6.80000 45.66800
C  40.91000 6.90900 44.40600
H  40.22100 6.90600 43.05800
N  44.90000 2.98600 47.18000
C  43.72900 2.23200 46.97200
C  44.02400 0.85300 46.85200
C  45.45400 0.77300 46.85600
C  45.94200 2.13000 47.22300
C  43.07100 -0.13400 46.36200
C  46.30400 -0.44700 46.53800
O  45.79500 -1.47900 46.20900
C  47.75400 -0.57100 46.56300
N  47.27800 4.90600 47.49700
C  47.88800 3.77600 47.72700
C  49.40200 3.92500 48.06600
C  49.57800 5.47300 48.07000
C  48.16400 5.94600 47.73700
C  49.74000 3.30900 49.43200
C  50.60600 5.98200 47.00700
C  51.95700 6.43400 47.53800
N  45.31700 7.05000 47.60000
C  46.43400 7.84400 47.73800
C  46.03700 9.24200 47.75800
C  44.58300 9.17100 47.62700
C  44.25500 7.79200 47.45700
C  46.83200 10.44600 47.77400
C  43.46400 9.94000 47.72800
O  43.29200 11.17800 47.81800
C  42.31400 8.91300 47.44800
C  41.36000 8.93100 48.61200
O  41.52800 8.41600 49.73700
O  40.28700 9.64900 48.32500
C  39.40500 9.96800 49.50400
H  41.54900 2.09700 47.01800
H  47.87100 1.62300 47.57400
H  48.62300 7.85700 48.19300
H  40.17400 6.54600 47.88400
H  40.11100 4.17100 46.06200
H  39.05300 3.16800 47.87400
H  38.83300 4.84900 48.55900
H  40.10600 3.86400 49.09400
H  39.69100 7.81800 45.91500
H  39.10500 6.26200 45.34000
H  41.69200 6.15300 44.33100
H  41.49000 7.83200 44.37500
H  43.19700 -1.01000 46.99700
H  43.42700 -0.39800 45.36600
H  42.03600 0.20600 46.33100
H  47.93200 -1.47300 45.97900
H  48.22600 -0.58300 47.54500
H  48.16700 0.27400 46.01200
H  50.08700 3.51600 47.32300
H  49.83500 5.92400 49.02800
H  48.87100 3.55300 50.04200
H  50.71800 3.45700 49.89100
H  49.73600 2.24600 49.19100
H  50.25600 6.83000 46.41800
H  50.82800 5.20700 46.27400
H  52.77700 5.99500 46.97000
H  52.17100 6.03600 48.53000
H  52.01500 7.52300 47.54100
H  47.75600 10.13300 48.26100
H  46.39800 11.37000 48.15500
H  47.09300 10.63300 46.73300
H  41.66200 9.11200 46.59700
H  39.24300 9.03300 50.04000
H  38.46500 10.34100 49.09700
H  39.89700 10.70900 50.13300
Mg -12.23100 16.56000 43.02000
C  -9.57900 14.37800 42.19400
C  -10.77800 19.01900 41.26700
C  -15.28100 17.87000 42.98100
C  -13.87000 13.44000 44.29500
N  -10.30500 16.61500 41.93200
C  -9.42700 15.67700 41.73100
C  -8.17200 16.28500 41.04800
C  -8.49400 17.81800 41.16700
C  -9.99100 17.90500 41.44600
C  -7.80600 18.44700 42.27500
C  -7.74600 15.83000 39.62000
C  -6.23700 15.55600 39.39600
H  -5.68100 16.53100 38.27900
N  -13.00300 18.29200 42.28400
C  -12.17600 19.22200 41.60300
C  -13.02000 20.27200 41.17100
C  -14.38800 19.94000 41.55100
C  -14.29300 18.63500 42.30500
C  -12.56700 21.45400 40.32100
C  -15.63000 20.75300 41.32600
O  -15.53500 21.85100 40.87100
C  -17.06600 20.32200 41.61800
N  -14.32200 15.71100 43.52700
C  -15.37300 16.56300 43.41500
C  -16.66200 15.78200 43.60900
C  -16.26800 14.42900 44.26500
C  -14.72700 14.55000 44.05000
C  -17.71700 16.58900 44.44700
C  -16.99400 13.22700 43.73000
C  -18.21200 12.65700 44.47600
N  -11.78900 14.34800 43.35900
C  -12.49900 13.30500 43.92500
C  -11.79600 12.04600 43.74700
C  -10.59400 12.46100 43.15300
C  -10.68100 13.86600 42.96500
C  -12.17800 10.61200 44.12500
C  -9.29400 11.98000 42.62500
O  -8.78200 10.85100 42.70900
C  -8.57900 13.24600 42.05900
C  -7.29400 13.49800 42.73800
O  -7.23900 13.98400 43.86500
O  -6.18800 13.16800 41.91800
C  -4.88700 13.72500 42.35600
H  -10.26700 19.79800 40.69600
H  -16.22300 18.41100 43.08300
H  -14.37600 12.58200 44.74200
H  -7.45000 15.98000 41.80500
H  -8.14800 18.36500 40.29100
H  -6.80800 18.82800 42.05800
H  -7.67100 17.79700 43.14000
H  -8.42400 19.24200 42.69300
H  -8.06700 16.62000 38.94100
H  -8.40600 15.01600 39.31800
H  -6.32900 14.49300 39.17700
H  -5.71400 15.67600 40.34500
H  -12.99100 21.33700 39.32300
H  -11.48300 21.52200 40.23000
H  -12.78500 22.36600 40.87600
H  -17.34500 20.46700 42.66200
H  -17.33800 19.31100 41.31500
H  -17.64400 20.90200 40.89900
H  -17.02400 15.55200 42.60700
H  -16.32800 14.51100 45.35100
H  -18.43000 16.96500 43.71300
H  -17.28700 17.30400 45.14800
H  -18.18400 15.81300 45.05400
H  -16.26700 12.46000 43.46600
H  -17.38200 13.41200 42.72800
H  -18.14500 12.85700 45.54500
H  -18.32600 11.57600 44.39500
H  -19.16700 13.11900 44.22500
H  -11.50500 10.45300 44.96800
H  -11.96400 9.92900 43.30300
H  -13.20900 10.57200 44.47400
H  -8.51700 13.00800 40.99700
H  -4.60300 13.12700 43.22200
H  -4.99000 14.74100 42.73700
H  -4.18600 13.70400 41.52200

