158

Mg 17.06800 -1.93100 28.17400
C  16.30900 0.00900 31.05600
C  19.04600 -3.91900 30.34700
C  18.52400 -3.30300 25.53400
C  15.48100 0.36600 26.24100
N  17.51400 -2.02600 30.42000
C  17.07300 -1.14000 31.39100
C  17.45300 -1.58300 32.79300
C  18.53500 -2.71100 32.57000
C  18.34800 -2.91900 31.00100
C  19.93500 -2.48900 33.17100
C  16.20100 -1.96100 33.77400
C  16.34600 -1.58600 35.29100
H  17.84800 -1.49100 35.95500
N  18.37300 -3.63700 27.96800
C  19.07600 -4.32000 28.95600
C  19.84600 -5.36700 28.36100
C  19.58300 -5.30600 26.95900
C  18.82400 -4.04400 26.70700
C  20.75000 -6.34000 29.11000
C  20.06200 -6.16100 25.88000
O  19.60500 -6.07900 24.75500
C  21.00600 -7.37200 26.25100
N  17.04000 -1.49600 26.17200
C  17.78400 -2.21400 25.22400
C  17.45500 -1.77100 23.76200
C  16.35200 -0.70500 24.04800
C  16.23200 -0.57600 25.56300
C  18.71900 -1.38900 22.88500
C  15.05100 -0.80200 23.21700
C  13.76400 -1.34400 23.85700
N  16.04300 -0.17400 28.48900
C  15.43500 0.64300 27.64700
C  14.73500 1.66300 28.30300
C  15.06700 1.45300 29.62000
C  15.88600 0.32000 29.71600
C  13.84900 2.64200 27.64300
C  14.90900 2.00400 30.98700
O  14.32400 2.95500 31.41500
C  15.71200 1.08400 31.95900
C  16.80500 1.96900 32.67700
O  17.90100 2.27900 32.17400
O  16.23200 2.50100 33.77700
C  17.05400 3.53200 34.45300
H  19.70500 -4.44100 31.04400
H  18.94500 -3.74600 24.62900
H  14.91900 1.05500 25.60800
H  18.03900 -0.79900 33.27300
H  18.31600 -3.66100 33.05900
H  20.16900 -3.31800 33.83900
H  19.95000 -1.55000 33.72400
H  20.67300 -2.47000 32.36900
H  16.10800 -3.04600 33.74600
H  15.27300 -1.59500 33.33600
H  15.88900 -2.35200 35.91800
H  15.81300 -0.64400 35.41500
H  21.79100 -6.51200 28.83700
H  20.23700 -7.30200 29.13800
H  20.82200 -6.18500 30.18700
H  22.00800 -7.08700 26.57200
H  21.13100 -7.86300 25.28600
H  20.49700 -7.95100 27.02100
H  16.92600 -2.61900 23.32800
H  16.87700 0.20800 23.76600
H  19.61500 -1.61800 23.46100
H  18.70000 -0.31600 22.68900
H  18.52500 -1.91800 21.95200
H  15.36900 -1.53000 22.47000
H  14.96100 0.19500 22.78400
H  13.06200 -1.78000 23.14600
H  13.16500 -0.56000 24.32100
H  14.03900 -2.17800 24.50100
H  14.20800 2.72900 26.61700
H  14.00000 3.56100 28.20800
H  12.84000 2.23200 27.70300
H  15.09900 0.60700 32.72400
H  18.08600 3.19100 34.52300
H  16.72100 3.77400 35.46300
H  16.83400 4.47000 33.94300
Mg 40.63300 8.57100 29.47500
C  42.26100 10.37200 31.91500
C  38.52200 7.28800 31.85900
C  38.87000 7.31000 27.04800
C  43.00400 9.72200 27.15300
N  40.44900 8.90700 31.73400
C  41.13400 9.72100 32.50200
C  40.71400 9.63700 34.00300
C  39.44700 8.64100 33.84600
C  39.50200 8.23400 32.41100
C  39.37600 7.34900 34.74800
C  40.32200 11.01700 34.66800
C  39.38900 10.95600 35.78200
H  39.66900 11.77100 36.99800
N  38.95100 7.47600 29.40100
C  38.19200 6.97200 30.47100
C  37.16100 6.13900 30.06100
C  37.14400 6.21500 28.62200
C  38.35000 7.04900 28.28800
C  36.37900 5.25600 30.96500
C  36.09300 5.78100 27.53600
O  36.09400 6.05200 26.35200
C  34.84600 5.13600 28.12800
N  41.11400 8.31400 27.42000
C  40.06800 7.86900 26.63500
C  40.36500 8.14100 25.12000
C  41.85200 8.67200 25.17000
C  42.06600 8.92300 26.67400
C  40.11500 7.03500 24.03000
C  42.10900 9.81500 24.17200
C  41.47700 11.18400 24.46100
N  42.35100 9.61800 29.53600
C  43.17200 10.06700 28.51100
C  44.22700 10.86900 29.03100
C  43.88500 11.11400 30.33600
C  42.69500 10.36800 30.56200
C  45.33300 11.31700 28.22300
C  44.24400 11.75200 31.60800
O  45.22600 12.43200 31.83900
C  43.21600 11.35400 32.61800
C  43.95400 10.73000 33.79200
O  44.21200 9.54200 33.95800
O  43.94800 11.67400 34.79400
C  44.33100 11.18300 36.19500
H  37.81100 6.98200 32.62900
H  38.31400 7.04700 26.14600
H  43.58300 10.29500 26.42600
H  41.47800 9.02900 34.48600
H  38.47700 9.09000 34.06000
H  38.36500 7.21500 35.13400
H  40.09800 7.32900 35.56500
H  39.72200 6.47200 34.20200
H  39.98500 11.77200 33.95800
H  41.28300 11.37200 35.04000
H  39.34000 9.91300 36.09300
H  38.36400 11.08500 35.43300
H  36.63500 4.22900 30.70300
H  35.30300 5.28500 30.79900
H  36.48100 5.43200 32.03600
H  34.06800 4.92600 27.39400
H  34.44800 5.90400 28.79200
H  35.12400 4.20200 28.61500
H  39.68000 8.95700 24.89100
H  42.49500 7.82300 24.93400
H  39.97200 6.08000 24.53500
H  40.92100 7.06100 23.29500
H  39.21500 7.32700 23.48900
H  41.66900 9.52100 23.22000
H  43.18700 9.91300 24.03700
H  41.00000 11.39200 25.41900
H  40.74400 11.23500 23.65600
H  42.30000 11.85300 24.21100
H  45.78900 12.20900 28.65200
H  44.94700 11.56500 27.23400
H  46.08800 10.53300 28.16500
H  42.66200 12.21200 33.00000
H  43.64700 11.46200 36.99700
H  45.21200 11.77300 36.44600
H  44.58400 10.13100 36.32600

