158

Mg 8.32300 2.97500 28.00600
C  9.95600 1.64400 30.91700
C  6.42900 4.86300 30.15500
C  6.90700 4.07800 25.26200
C  10.21000 0.65900 26.10300
N  8.21800 3.12500 30.30200
C  9.04600 2.64500 31.23100
C  8.73000 3.24200 32.61400
C  7.46400 4.15100 32.33100
C  7.39400 4.08500 30.85400
C  6.19000 3.80000 33.01600
C  9.98400 4.01100 33.20400
C  9.78400 4.65400 34.58300
H  10.73900 4.29800 35.77200
N  6.83100 4.30800 27.77700
C  6.17900 5.03200 28.75600
C  5.25700 6.01000 28.04000
C  5.41900 5.70700 26.66300
C  6.36100 4.60300 26.50900
C  4.29900 7.02300 28.73900
C  4.64100 6.37900 25.44100
O  4.70600 6.04800 24.23400
C  3.81200 7.55700 25.70300
N  8.66000 2.53300 25.97300
C  7.90200 3.13300 25.00300
C  8.43800 2.73500 23.62300
C  9.42300 1.59200 23.86400
C  9.49000 1.61000 25.38900
C  7.36200 2.32100 22.61300
C  10.75600 1.68900 23.08500
C  11.06200 0.45200 22.25900
N  9.70900 1.43900 28.38700
C  10.44000 0.57400 27.51700
C  11.22500 -0.33300 28.27100
C  11.11300 0.05800 29.59800
C  10.18600 1.13400 29.64000
C  12.04800 -1.39000 27.73200
C  11.58300 -0.17600 30.95700
O  12.41700 -0.94100 31.39600
C  10.90000 0.90400 31.85300
C  10.14600 0.11400 32.88400
O  9.02800 -0.41100 32.71400
O  10.93300 -0.03900 33.96200
C  10.48700 -0.85900 35.05200
H  5.83500 5.54900 30.76300
H  6.48600 4.45100 24.32600
H  10.77500 -0.13200 25.60600
H  8.56600 2.34000 33.20300
H  7.69500 5.18200 32.59800
H  6.40400 3.28200 33.95100
H  5.63600 3.05400 32.44700
H  5.58300 4.68100 33.22400
H  10.14500 4.73700 32.40600
H  10.87100 3.38000 33.18200
H  8.79600 4.61000 35.04100
H  10.09300 5.65900 34.29300
H  4.33000 6.97000 29.82700
H  3.26600 6.78400 28.48900
H  4.64800 8.03000 28.51200
H  3.38500 8.02000 24.81400
H  4.52700 8.31100 26.03300
H  2.98600 7.22900 26.33500
H  8.97800 3.55100 23.14300
H  8.91400 0.66200 23.61200
H  7.44900 1.27400 22.32400
H  7.40000 2.94300 21.71800
H  6.32800 2.35200 22.95800
H  11.56400 1.76300 23.81200
H  10.70400 2.50200 22.36000
H  10.22600 0.02400 21.70400
H  11.55900 -0.35400 22.79900
H  11.89000 0.74000 21.61200
H  12.50700 -1.11900 26.78100
H  11.31900 -2.18100 27.55700
H  12.86700 -1.60500 28.41800
H  11.63300 1.55700 32.32500
H  9.99300 -0.36900 35.89200
H  11.34900 -1.35200 35.50300
H  9.89900 -1.75200 34.84100
Mg 48.07600 25.50000 28.69400
C  48.63400 27.82900 31.18900
C  47.12900 23.20600 31.03300
C  47.27600 23.31300 26.15700
C  49.60600 27.57400 26.42500
N  47.86000 25.54200 30.86000
C  48.12500 26.58900 31.68600
C  47.72100 26.32500 33.11900
C  47.30000 24.76600 33.11600
C  47.46500 24.47300 31.62100
C  48.08600 23.83400 34.01500
C  46.60300 27.30700 33.72800
C  45.74200 26.89300 34.94900
H  45.64400 27.83700 36.16400
N  47.35400 23.48800 28.60800
C  47.06400 22.69200 29.66100
C  46.65200 21.36700 29.28100
C  46.58700 21.49100 27.88600
C  47.05300 22.83200 27.45900
C  46.33300 20.17700 30.21600
C  46.21300 20.45100 26.85800
O  46.12200 20.68200 25.68200
C  46.04500 19.00800 27.33200
N  48.57300 25.40100 26.59400
C  48.01400 24.45700 25.82000
C  48.31100 24.79700 24.34100
C  48.97300 26.18600 24.38500
C  49.09300 26.38300 25.90200
C  49.15600 23.83800 23.57600
C  48.02300 27.32000 23.78000
C  48.12500 27.56000 22.24000
N  48.97200 27.35600 28.73700
C  49.57800 28.03400 27.72600
C  50.01300 29.26700 28.22500
C  49.69400 29.30200 29.59700
C  49.06200 28.07700 29.85100
C  50.66200 30.34200 27.44700
C  49.79600 30.07200 30.78800
O  50.11900 31.19500 31.04600
C  49.09700 29.17100 31.91100
C  50.06500 28.97100 33.01700
O  51.17400 28.35900 32.91100
O  49.63800 29.47300 34.17200
C  50.40300 29.23000 35.42000
H  46.86700 22.46900 31.79600
H  46.87400 22.73400 25.32300
H  50.03200 28.34700 25.78200
H  48.66900 26.34800 33.65700
H  46.22100 24.76800 33.27500
H  47.44000 23.18900 34.61100
H  48.87000 24.30000 34.61200
H  48.73600 23.17600 33.43800
H  45.97400 27.61600 32.89300
H  47.05600 28.24300 34.05500
H  46.30800 26.04000 35.32300
H  44.74000 26.62100 34.61500
H  45.91400 20.42800 31.19000
H  47.23900 19.61300 30.44000
H  45.54000 19.65400 29.68200
H  45.05900 18.88400 27.78000
H  46.82600 18.62100 27.98700
H  46.08300 18.32600 26.48300
H  47.34600 24.78700 23.83600
H  49.97700 26.24300 23.96500
H  48.69000 23.56100 22.63100
H  49.23400 22.87600 24.08200
H  50.13400 24.25100 23.33000
H  48.12200 28.31100 24.22200
H  47.01300 27.01800 24.05700
H  49.04700 27.07200 21.92300
H  48.14600 28.61800 21.98100
H  47.31000 27.11700 21.66700
H  50.07000 30.52300 26.55000
H  51.63400 29.94700 27.15300
H  50.75800 31.25600 28.03400
H  48.20300 29.58400 32.37800
H  50.45200 30.18700 35.93900
H  51.41200 28.82000 35.36100
H  49.77900 28.66600 36.11300

