158

Mg 2.35800 -2.05700 44.86700
C  5.80800 -1.70300 44.42300
C  1.91600 0.68700 42.70800
C  -0.92300 -2.97000 44.46100
C  3.07900 -5.27900 46.28900
N  3.66800 -0.84800 43.50800
C  5.07400 -0.84500 43.57400
C  5.64100 0.35200 42.75000
C  4.34300 1.27100 42.51200
C  3.23600 0.32800 42.95300
C  4.29100 2.55600 43.38200
C  6.39800 -0.19000 41.39300
C  7.93700 0.16000 41.31900
H  8.47600 0.60100 39.95900
N  0.62600 -1.18100 43.93700
C  0.69400 -0.03800 43.10700
C  -0.61600 0.41900 42.91300
C  -1.49100 -0.58300 43.43000
C  -0.60700 -1.63500 44.00800
C  -0.86400 1.77700 42.20200
C  -3.03100 -0.50200 43.46300
O  -3.67400 0.49900 43.05800
C  -3.97300 -1.64600 44.02100
N  1.23300 -3.86200 45.38400
C  -0.13200 -3.94200 45.12900
C  -0.65900 -5.33200 45.57400
C  0.59500 -6.05300 46.27600
C  1.69500 -5.03100 45.99900
C  -2.00000 -5.46200 46.31300
C  0.88700 -7.50500 45.84700
C  1.22900 -8.52400 46.99100
N  4.00000 -3.20600 45.57100
C  4.12100 -4.45100 46.14700
C  5.49100 -4.71700 46.46100
C  6.18000 -3.62500 45.89900
C  5.30800 -2.75100 45.28200
C  5.93900 -5.90700 47.15400
C  7.44200 -2.96200 45.66500
O  8.56400 -3.19000 46.10700
C  7.30400 -1.74900 44.73100
C  7.82000 -0.48700 45.37100
O  7.46900 0.06500 46.40800
O  8.82100 0.03300 44.50000
C  9.21900 1.40900 44.83300
H  1.90900 1.57100 42.06700
H  -1.94100 -3.28700 44.22600
H  3.20500 -6.22400 46.82100
H  6.37400 0.99100 43.24300
H  4.34800 1.61700 41.47800
H  3.41800 2.63300 44.02900
H  4.32900 3.51300 42.86200
H  5.14200 2.72400 44.04200
H  5.88700 0.23300 40.52900
H  6.25300 -1.26300 41.26900
H  8.55200 -0.71600 41.52600
H  8.22700 0.91600 42.04900
H  -0.44700 2.44900 42.95200
H  -1.89900 2.02600 41.96800
H  -0.30200 1.87000 41.27300
H  -5.01200 -1.31700 44.04700
H  -3.65600 -1.88800 45.03600
H  -3.96200 -2.53900 43.39700
H  -0.82800 -5.87200 44.64300
H  0.41500 -6.05900 47.35100
H  -2.63100 -5.99100 45.60000
H  -2.34700 -4.44100 46.47300
H  -1.97900 -6.11100 47.18900
H  1.74900 -7.48100 45.18000
H  0.10200 -7.94000 45.23000
H  1.53200 -8.01200 47.90400
H  2.10000 -9.10500 46.68500
H  0.34800 -9.16500 47.03000
H  5.57800 -6.80100 46.64600
H  5.58100 -5.91900 48.18400
H  7.02900 -5.91300 47.14200
H  7.73000 -1.85800 43.73300
H  8.39500 2.06400 44.54900
H  10.19400 1.58700 44.37900
H  9.37100 1.59100 45.89700
Mg 30.72600 58.06500 40.56300
C  28.00100 55.86600 39.55800
C  32.86000 55.44500 39.97200
C  33.12500 60.23000 41.05300
C  28.34100 60.73000 40.72100
N  30.38800 55.89500 39.73600
C  29.25300 55.21200 39.45500
C  29.50700 53.73800 39.28100
C  31.07100 53.60500 39.58600
C  31.49200 55.07600 39.83200
C  31.54000 52.66500 40.75800
C  28.95900 53.15600 37.92900
C  29.50900 53.71900 36.58200
H  28.48300 54.23100 35.53600
N  32.71700 57.90200 40.56900
C  33.40200 56.73600 40.23600
C  34.79800 57.07100 40.49500
C  34.90300 58.41500 40.79600
C  33.58800 58.88600 40.87700
C  35.82000 56.01400 40.25700
C  36.21900 59.12100 40.91300
O  37.31000 58.50400 40.72700
C  36.32500 60.53300 41.29600
N  30.73800 60.28000 40.71100
C  31.83600 60.84700 41.14200
C  31.58500 62.31600 41.51100
C  30.05100 62.51800 41.21600
C  29.64400 61.10300 40.90000
C  32.06900 62.72700 42.91800
C  29.62400 63.64000 40.19900
C  29.03900 64.96800 40.86900
N  28.64200 58.29100 40.23100
C  27.83400 59.45900 40.33600
C  26.42600 59.13600 39.99100
C  26.45400 57.72400 39.67900
C  27.83900 57.28300 39.87500
C  25.35400 60.18700 40.09300
C  25.65800 56.57600 39.37500
O  24.44600 56.47700 39.27400
C  26.57200 55.36900 39.28100
C  25.99700 54.36500 40.21200
O  26.37200 54.22300 41.34400
O  25.13500 53.53000 39.60000
C  24.50200 52.46600 40.42500
H  33.55300 54.60800 39.86300
H  33.82400 61.03500 41.28900
H  27.61300 61.49400 40.99900
H  28.98600 53.26400 40.11300
H  31.54000 53.27500 38.66000
H  32.07200 51.76400 40.45000
H  30.60600 52.17600 41.03500
H  31.94300 53.27900 41.56300
H  27.88400 53.33700 37.90900
H  29.20100 52.09400 37.96800
H  30.03100 52.97400 35.98100
H  30.17400 54.54000 36.85000
H  36.28300 55.65100 41.17500
H  36.58200 56.44100 39.60400
H  35.39800 55.14500 39.75200
H  36.13500 60.60700 42.36700
H  35.65400 61.22200 40.78400
H  37.31500 60.91800 41.05200
H  32.12800 62.86400 40.74200
H  29.54400 62.75600 42.15100
H  32.76600 61.96400 43.26600
H  31.24100 62.83100 43.61900
H  32.71900 63.60100 42.88800
H  28.92400 63.13400 39.53400
H  30.37700 63.79000 39.42500
H  29.27100 65.16700 41.91600
H  27.95500 65.08700 40.85600
H  29.50000 65.82100 40.37000
H  25.52500 60.89800 39.28500
H  25.36700 60.76600 41.01600
H  24.41200 59.72400 39.79900
H  26.59300 54.88000 38.30700
H  24.17800 52.82600 41.40100
H  25.25200 51.70000 40.62500
H  23.71500 51.88900 39.93900

