158

Mg 6.88200 53.17800 41.53200
C  6.05400 49.84400 41.14800
C  10.18300 52.35100 41.39500
C  7.85500 56.52000 41.44600
C  3.54400 54.13800 41.71800
N  7.95200 51.21900 41.12000
C  7.40100 49.98200 41.11500
C  8.59000 48.91200 41.13300
C  9.81800 49.76400 41.38000
C  9.33500 51.21800 41.31900
C  10.63600 49.50900 42.69300
C  8.76000 47.99900 39.86300
C  8.90500 48.71400 38.50700
H  7.85000 48.28500 37.45800
N  8.74500 54.30300 41.22400
C  9.94700 53.70800 41.20300
C  10.95100 54.76100 41.10400
C  10.30000 56.02900 41.23200
C  8.87300 55.64200 41.17800
C  12.40100 54.40200 41.02900
C  10.97500 57.37100 41.22300
O  12.19800 57.40000 41.16000
C  10.25100 58.59800 41.23000
N  5.84700 55.13400 41.43700
C  6.49700 56.34000 41.65600
C  5.48900 57.37200 41.99700
C  4.15800 56.58700 41.93200
C  4.52900 55.10700 41.64800
C  5.71400 58.09900 43.38000
C  3.06000 57.09200 40.92000
C  1.71400 57.41200 41.60800
N  5.11600 52.23900 41.60200
C  3.86900 52.75700 41.65300
C  2.96700 51.62400 41.71100
C  3.77200 50.48600 41.47200
C  5.11100 50.86300 41.37100
C  1.47300 51.58300 41.91900
C  3.66200 49.05000 41.26200
O  2.60900 48.42000 41.13200
C  5.12700 48.50900 41.16300
C  5.33100 47.71500 39.97400
O  5.26900 48.04600 38.79500
O  5.46700 46.44400 40.44200
C  5.65200 45.38100 39.42900
H  11.24600 52.10000 41.40800
H  8.05900 57.55900 41.71400
H  2.47300 54.34700 41.75700
H  8.35800 48.22600 41.94800
H  10.49300 49.73800 40.52400
H  10.51800 50.33100 43.39900
H  11.70100 49.52200 42.46300
H  10.43200 48.55200 43.17500
H  7.87900 47.35800 39.87800
H  9.67700 47.45300 40.08300
H  9.86900 48.47000 38.06000
H  8.86600 49.79200 38.65800
H  12.95600 55.11700 40.42200
H  12.54100 53.43300 40.54900
H  12.84700 54.21100 42.00500
H  9.56200 58.46900 40.39500
H  10.77900 59.54200 41.09500
H  9.82800 58.58200 42.23400
H  5.46000 58.03900 41.13600
H  3.68400 56.60100 42.91400
H  4.90600 57.94900 44.09700
H  5.71000 59.17700 43.21800
H  6.72500 57.86000 43.70800
H  2.87900 56.34300 40.14900
H  3.28300 58.00000 40.35900
H  1.55700 57.12500 42.64800
H  0.99400 56.84000 41.02300
H  1.49800 58.47800 41.53100
H  1.01800 51.32500 40.96300
H  1.08600 52.54500 42.25700
H  1.14400 50.86400 42.66900
H  5.34700 47.90400 42.04300
H  5.27700 45.46800 38.40900
H  5.18200 44.50100 39.86700
H  6.73800 45.28100 39.41300
Mg -12.32300 37.99800 41.91500
C  -10.23300 35.40700 40.83300
C  -10.28000 40.21000 40.15200
C  -14.52800 40.41600 42.50500
C  -14.24700 35.69700 43.44200
N  -10.59400 37.73800 40.58100
C  -9.88900 36.61300 40.29400
C  -8.83800 36.86100 39.19400
C  -8.71200 38.43300 39.33900
C  -10.02200 38.87000 40.03900
C  -7.44200 38.84700 40.21300
C  -9.03200 36.23500 37.76900
C  -7.78800 35.47900 37.17200
H  -6.78600 36.37600 36.30500
N  -12.34400 40.12600 41.50000
C  -11.41300 40.76800 40.81600
C  -11.84800 42.16800 40.81200
C  -13.16400 42.30400 41.44800
C  -13.39000 40.91000 41.88800
C  -11.02900 43.14800 40.16700
C  -13.94200 43.54800 41.73400
O  -13.51800 44.66000 41.44000
C  -15.30800 43.54400 42.34900
N  -14.14100 38.05400 42.69100
C  -14.89200 39.14600 42.88500
C  -16.21100 38.80500 43.72600
C  -16.12800 37.24700 43.94200
C  -14.77700 36.98500 43.29900
C  -16.19100 39.64400 44.94000
C  -17.21300 36.39200 43.26900
C  -17.91500 35.33600 44.09200
N  -12.32400 35.90600 42.06900
C  -13.07800 35.13500 42.93000
C  -12.53600 33.76800 43.09600
C  -11.32600 33.80600 42.32200
C  -11.31800 35.10200 41.67900
C  -12.99700 32.64900 43.99600
C  -10.15500 33.17500 41.81800
O  -9.73400 32.03900 42.01700
C  -9.55300 34.07800 40.65400
C  -8.03000 34.14600 40.77100
O  -7.24200 34.79600 41.46200
O  -7.57000 33.17300 39.90800
C  -6.11900 33.07600 39.83200
H  -9.58200 40.87300 39.63700
H  -15.32200 41.15000 42.65400
H  -14.81400 34.91200 43.94600
H  -7.88000 36.49500 39.56300
H  -8.67000 38.93800 38.37400
H  -6.81200 38.05200 40.61300
H  -7.82300 39.39200 41.07600
H  -6.81500 39.55200 39.66700
H  -9.26100 36.93300 36.96300
H  -9.78500 35.44900 37.81400
H  -8.14200 34.64700 36.56300
H  -7.24100 35.01200 37.99100
H  -11.66200 43.98600 39.87600
H  -10.48000 42.86700 39.26800
H  -10.29700 43.40000 40.93400
H  -15.97600 42.91200 41.76300
H  -15.66400 44.56000 42.52300
H  -15.26400 43.09400 43.34000
H  -17.09500 39.08000 43.15100
H  -16.07200 37.05700 45.01300
H  -15.13000 39.75300 45.16900
H  -16.60100 39.05900 45.76300
H  -16.73200 40.58900 44.89600
H  -16.74200 35.80900 42.47700
H  -17.88900 37.08800 42.77300
H  -17.96100 35.52200 45.16500
H  -17.61700 34.28900 44.03000
H  -18.91000 35.25700 43.65500
H  -12.36200 31.77100 43.87500
H  -14.03600 32.39800 43.78400
H  -13.11400 32.98200 45.02700
H  -9.95400 33.66500 39.72900
H  -5.69800 32.67400 40.75400
H  -5.74500 34.08400 39.65300
H  -5.87300 32.29100 39.11700

