158

Mg 23.77300 -7.70400 46.81000
C  26.39000 -5.74500 45.59200
C  21.76000 -6.50300 44.34400
C  21.80600 -10.36700 47.17200
C  26.30800 -9.52000 48.67300
N  24.10500 -6.24000 45.19200
C  25.21500 -5.48500 44.88800
C  24.95600 -4.50500 43.68600
C  23.42600 -4.77000 43.32200
C  23.03300 -5.89900 44.34000
C  22.48700 -3.42800 43.22300
C  25.85300 -4.63400 42.32800
C  26.46000 -3.22900 42.02900
H  25.92400 -2.34300 40.94800
N  21.87900 -8.24500 46.05300
C  21.21300 -7.54700 45.08800
C  19.87100 -8.08400 45.00200
C  19.87400 -9.35100 45.79900
C  21.19500 -9.39900 46.34800
C  18.85100 -7.51000 44.06900
C  18.73300 -10.34700 45.91100
O  17.65300 -10.03100 45.41200
C  18.82600 -11.56400 46.69400
N  24.00700 -9.60000 47.84300
C  23.02500 -10.58900 47.77500
C  23.39100 -11.91200 48.59500
C  24.74000 -11.47300 49.22800
C  25.04500 -10.05600 48.56600
C  22.31100 -12.53400 49.57200
C  25.90500 -12.52300 49.25700
C  26.44300 -12.86400 50.66800
N  25.88700 -7.67900 47.20800
C  26.72100 -8.38300 47.98900
C  28.05400 -7.78100 47.92800
C  27.85700 -6.66800 47.12300
C  26.56200 -6.71200 46.63000
C  29.28000 -8.32800 48.64000
C  28.55900 -5.50800 46.60100
O  29.68800 -5.17200 46.74400
C  27.60000 -4.88600 45.58600
C  27.35200 -3.50500 46.01200
O  26.68000 -3.11800 46.97400
O  28.13700 -2.66000 45.30700
C  28.30400 -1.33600 45.79700
H  21.15300 -5.93300 43.63700
H  21.22300 -11.28800 47.24300
H  27.13200 -9.97000 49.23000
H  25.10300 -3.53400 44.15900
H  23.36000 -5.24900 42.34500
H  21.83100 -3.51500 42.35700
H  23.18500 -2.60100 43.08900
H  21.91700 -3.24100 44.13300
H  25.16700 -4.83900 41.50600
H  26.43700 -5.54300 42.18800
H  27.50700 -3.39500 41.77900
H  26.52400 -2.71200 42.98600
H  18.94900 -7.92300 43.06500
H  18.97600 -6.43300 43.96200
H  17.84900 -7.58200 44.49300
H  19.60400 -12.27700 46.42200
H  17.98000 -12.18000 46.39000
H  18.71600 -11.38200 47.76300
H  23.66100 -12.53100 47.73900
H  24.46800 -11.26400 50.26300
H  21.71800 -13.39200 49.25400
H  21.79300 -11.65700 49.96100
H  22.78300 -12.89900 50.48500
H  26.75900 -12.22000 48.65100
H  25.44100 -13.44600 48.91100
H  27.52000 -13.02000 50.59500
H  25.91300 -13.70700 51.11200
H  26.16800 -12.03900 51.32500
H  29.44000 -9.40600 48.67500
H  29.15200 -7.87400 49.62300
H  30.08000 -7.93700 48.01100
H  28.15400 -4.76600 44.65500
H  28.65700 -1.31800 46.82800
H  27.38600 -0.75300 45.73000
H  29.02400 -0.94500 45.07800
Mg 16.58600 51.81600 24.58000
C  18.42600 50.99300 27.50500
C  13.85100 52.60400 26.65000
C  14.85200 52.47800 21.87900
C  19.36800 50.79100 22.69500
N  16.25000 51.97600 26.84700
C  17.11900 51.49400 27.75900
C  16.57600 51.92100 29.14600
C  15.15200 52.27400 28.92000
C  15.06400 52.27000 27.36900
C  14.08300 51.52100 29.64500
C  17.45500 52.98000 29.90200
C  17.86300 52.83600 31.39900
H  17.31100 51.80500 32.37200
N  14.74200 52.47300 24.31100
C  13.75500 52.66900 25.26900
C  12.53600 53.06200 24.61400
C  12.74600 53.10100 23.21500
C  14.18900 52.69700 23.07700
C  11.32300 53.61100 25.29700
C  11.82900 53.47800 22.04800
O  12.17200 53.46200 20.90100
C  10.46600 53.95500 22.38200
N  16.99300 51.52200 22.55000
C  16.10100 51.95600 21.67500
C  16.67700 52.08200 20.28600
C  18.15700 51.47900 20.43100
C  18.20000 51.30600 21.99500
C  15.76500 51.31700 19.23700
C  19.29400 52.28700 19.90100
C  19.37200 52.41200 18.33400
N  18.42700 50.85600 24.97000
C  19.47800 50.55200 24.12400
C  20.63500 50.11400 24.81300
C  20.23200 50.28900 26.17800
C  18.92700 50.68900 26.19000
C  21.86500 49.67700 24.20500
C  20.69200 50.10000 27.56600
O  21.74800 49.71000 28.00800
C  19.52300 50.57900 28.44400
C  19.03300 49.49700 29.30800
O  18.26100 48.60700 29.00300
O  19.74900 49.49500 30.49700
C  19.35500 48.54400 31.52500
H  12.94500 52.89300 27.18800
H  14.34700 52.82200 20.97400
H  20.18400 50.59600 21.99600
H  16.56800 51.01400 29.75200
H  15.08700 53.33200 29.17700
H  14.43900 50.57800 30.06100
H  13.23600 51.34000 28.98400
H  13.59100 52.13000 30.40300
H  16.86600 53.89700 29.87100
H  18.35800 53.14600 29.31400
H  17.80700 53.79800 31.91000
H  18.93900 52.66300 31.42600
H  11.34200 53.67500 26.38500
H  10.48500 52.95400 25.06400
H  11.12100 54.61200 24.91700
H  9.91300 54.24500 21.48900
H  10.63500 54.82900 23.01200
H  9.90200 53.15600 22.86200
H  16.70200 53.10700 19.91500
H  18.09000 50.49600 19.96500
H  15.25600 51.99300 18.55000
H  15.11500 50.68800 19.84600
H  16.30600 50.59700 18.62300
H  20.22300 51.89800 20.31900
H  19.08600 53.31800 20.18800
H  19.32500 53.49200 18.19000
H  18.62500 51.88800 17.73800
H  20.34700 52.00800 18.06200
H  21.93100 50.34000 23.34200
H  22.14400 48.65000 23.97000
H  22.72500 49.97400 24.80600
H  19.82800 51.51300 28.91500
H  19.49000 47.54300 31.11500
H  18.31000 48.75500 31.75100
H  19.91800 48.59500 32.45700

