158

Mg 43.97900 4.19600 47.10700
C  42.09300 7.16700 47.34500
C  40.98700 2.50600 46.58300
C  45.75700 1.68600 45.96700
C  46.88900 6.45500 46.74200
N  41.78600 4.81500 46.88100
C  41.26400 5.98700 47.10200
C  39.78700 5.95900 47.12400
C  39.42100 4.43600 47.02500
C  40.80100 3.87300 46.85400
C  38.46700 3.94100 48.14600
C  39.07600 6.69700 45.91100
C  39.39700 6.15100 44.52000
H  40.43100 7.02900 43.72200
N  43.44200 2.25800 46.57500
C  42.14400 1.79700 46.32700
C  42.21500 0.42000 45.81100
C  43.59300 0.17900 45.60700
C  44.33900 1.41300 46.06400
C  40.97200 -0.43200 45.50400
C  44.10500 -1.04900 44.93100
O  43.30400 -1.96300 44.63600
C  45.56700 -1.33200 44.73800
N  45.96900 4.17900 46.19300
C  46.48200 2.92300 46.07500
C  48.02100 2.99500 45.94800
C  48.37500 4.48700 46.12700
C  46.98800 5.10000 46.34100
C  48.77400 2.06000 46.83400
C  49.09900 5.27800 44.99000
C  50.58500 5.59700 45.18700
N  44.49200 6.38400 47.03000
C  45.70300 7.04800 47.03000
C  45.46100 8.45600 47.15200
C  44.07000 8.55400 47.36000
C  43.51800 7.25000 47.24500
C  46.44900 9.54000 47.01300
C  42.97100 9.51100 47.51800
O  42.92300 10.72100 47.58800
C  41.76500 8.64200 47.52800
C  40.97000 8.76600 48.78300
O  41.33100 8.29800 49.86800
O  39.78500 9.34700 48.56800
C  38.86100 9.48000 49.77700
H  40.06600 1.92800 46.68000
H  46.44600 0.84000 45.90500
H  47.77700 7.08700 46.81800
H  39.29400 6.31200 48.03000
H  38.77400 4.20500 46.17900
H  37.78500 4.76200 48.36900
H  39.09200 3.69500 49.00400
H  37.93900 3.02400 47.88700
H  39.31400 7.75800 45.99000
H  37.98900 6.70600 45.98300
H  38.48300 6.14800 43.92600
H  39.82600 5.15000 44.55000
H  40.18200 0.29000 45.29500
H  40.58400 -1.02400 46.33300
H  40.95800 -0.90900 44.52400
H  45.83400 -1.67500 45.73800
H  46.18400 -0.48500 44.43900
H  45.77900 -2.20200 44.11600
H  48.23400 2.81000 44.89500
H  48.97600 4.63800 47.02300
H  48.78800 1.08200 46.35200
H  48.25800 2.02800 47.79300
H  49.78000 2.46800 46.92800
H  48.56500 6.20300 44.77100
H  48.99000 4.73500 44.05100
H  51.04600 4.98700 45.96400
H  50.76200 6.62600 45.49800
H  51.03700 5.30600 44.23900
H  46.49300 9.63600 45.92800
H  47.32200 9.15200 47.53700
H  46.01200 10.44200 47.44100
H  41.15400 9.05700 46.72700
H  39.29400 9.11700 50.70900
H  37.88700 9.00200 49.67100
H  38.83900 10.51500 50.11900
Mg 30.21400 58.95200 39.60500
C  27.76200 56.53000 39.16700
C  32.54200 56.61800 38.64500
C  32.53900 61.39300 39.59000
C  27.71800 61.27400 40.24300
N  30.09200 56.80100 39.01000
C  28.98500 56.00600 38.86500
C  29.29600 54.71700 38.34200
C  30.90400 54.66300 38.39300
C  31.19300 56.11700 38.74000
C  31.51000 53.71100 39.37300
C  28.75500 54.78500 36.86500
C  27.93500 53.54800 36.55100
H  27.41500 53.48100 35.09800
N  32.30400 58.95200 39.27100
C  33.07300 57.91400 38.89500
C  34.45000 58.27100 38.64800
C  34.46300 59.70700 38.76300
C  33.11700 60.06800 39.29500
C  35.51500 57.20900 38.29400
C  35.63700 60.50300 38.41800
O  36.68000 59.98800 37.91900
C  35.63300 61.97300 38.69400
N  30.14800 60.94700 39.88300
C  31.25600 61.73800 39.90200
C  30.88900 63.22900 40.10900
C  29.39300 63.17600 40.38800
C  29.05800 61.68500 40.07600
C  31.58200 63.96700 41.26400
C  28.58300 64.26000 39.51700
C  27.94900 65.37000 40.34100
N  28.11400 58.98600 39.79500
C  27.26600 59.96900 40.08800
C  25.94100 59.44300 40.29700
C  26.08300 58.09300 39.85400
C  27.41800 57.87500 39.55300
C  24.74000 60.26200 40.61900
C  25.34200 56.88200 39.49700
O  24.19300 56.60400 39.51300
C  26.43700 55.82300 39.14100
C  26.51000 54.84500 40.25700
O  26.81100 55.13500 41.38800
O  25.99500 53.66600 39.82400
C  26.07100 52.63700 40.87200
H  33.15300 55.89200 38.10400
H  33.36500 62.10400 39.65200
H  26.97000 62.04400 40.44100
H  28.88400 53.90100 38.93600
H  31.37600 54.48900 37.42600
H  30.79900 52.88400 39.36500
H  31.69600 54.15100 40.35200
H  32.45900 53.45600 38.90200
H  29.59500 54.67000 36.17900
H  28.15200 55.65200 36.59600
H  27.00300 53.41300 37.09900
H  28.52900 52.64600 36.70000
H  35.27600 56.23200 38.71300
H  36.54700 57.38500 38.59900
H  35.39400 57.04100 37.22400
H  34.83000 62.43600 38.12100
H  36.56600 62.47500 38.43600
H  35.50400 62.22500 39.74700
H  31.12700 63.67500 39.14300
H  29.16200 63.25500 41.45000
H  31.78700 63.29300 42.09600
H  31.09900 64.88100 41.60900
H  32.58800 64.31000 41.02100
H  27.84700 63.72300 38.91800
H  29.20600 64.80100 38.80400
H  28.12300 65.19300 41.40200
H  26.87900 65.39900 40.13400
H  28.29900 66.31100 39.91400
H  24.68200 61.09600 39.91900
H  24.70400 60.71700 41.60900
H  23.91400 59.57300 40.44800
H  26.17600 55.41100 38.16600
H  25.16200 52.80200 41.45000
H  26.97400 52.71500 41.47800
H  26.05700 51.61900 40.48300

