158

Mg 47.83400 24.49300 28.21000
C  48.76500 26.91000 30.55400
C  47.46900 22.18900 30.78700
C  47.03800 22.18500 25.89100
C  48.80500 26.70600 25.66800
N  48.10400 24.52800 30.36700
C  48.35000 25.65700 31.11400
C  48.01900 25.45200 32.58700
C  47.88500 23.89600 32.72700
C  47.78300 23.44300 31.23300
C  48.91700 23.19900 33.56000
C  46.75900 26.29900 32.91400
C  46.84300 27.26300 34.12500
H  45.80800 27.14500 35.25500
N  47.27600 22.47500 28.29900
C  47.18200 21.72600 29.46200
C  46.75200 20.38500 29.11200
C  46.60400 20.36700 27.66200
C  46.98600 21.70800 27.22600
C  46.56000 19.23100 30.04200
C  46.07000 19.23100 26.73300
O  45.80000 19.46100 25.58300
C  45.65800 17.97000 27.32600
N  47.87300 24.44700 26.04200
C  47.42000 23.40100 25.34900
C  47.39300 23.75700 23.78900
C  47.77400 25.29300 23.81600
C  48.21000 25.52600 25.28000
C  48.29700 22.93100 22.92100
C  46.66600 26.20000 23.23100
C  45.47000 26.45500 24.20900
N  48.67000 26.40900 28.08800
C  48.95900 27.16100 27.00900
C  49.41000 28.48200 27.46400
C  49.28600 28.48700 28.85600
C  48.87600 27.16500 29.16800
C  50.06800 29.57400 26.68000
C  49.50000 29.20800 30.08000
O  49.82800 30.33900 30.25000
C  49.12100 28.21600 31.26200
C  50.24700 28.10600 32.14100
O  51.13100 27.18600 32.13300
O  50.16300 29.05500 33.11000
C  51.05500 28.79200 34.30400
H  47.47300 21.51800 31.64800
H  46.69500 21.59300 25.04000
H  49.03000 27.55400 25.01800
H  48.82800 25.92500 33.14400
H  46.94300 23.66500 33.22500
H  49.58200 23.90900 34.05200
H  49.47700 22.61600 32.82800
H  48.54600 22.51900 34.32700
H  45.93500 25.58700 32.88000
H  46.57500 27.00100 32.10100
H  46.77800 28.28000 33.73900
H  47.78100 27.09300 34.65400
H  47.03400 19.47300 30.99400
H  47.11200 18.37900 29.64600
H  45.52700 18.92200 30.19900
H  44.96800 18.23000 28.12900
H  46.49100 17.32200 27.60100
H  45.09700 17.42100 26.57000
H  46.38500 23.52500 23.44600
H  48.67300 25.52500 23.24500
H  47.89600 21.94400 22.68700
H  49.36800 22.99900 23.11000
H  48.15500 23.44300 21.97000
H  46.33800 25.93700 22.22600
H  47.16800 27.16800 23.20900
H  44.63500 25.94500 23.72900
H  45.28400 27.52100 24.34300
H  45.70000 26.12000 25.22000
H  49.82600 30.55600 27.08600
H  49.67000 29.50700 25.66700
H  51.15800 29.54900 26.69500
H  48.31900 28.65300 31.85600
H  50.42400 28.20100 34.96800
H  51.39000 29.75400 34.69100
H  51.93700 28.18100 34.10900
Mg 28.17400 56.54800 40.24200
C  25.99800 53.85200 39.55300
C  30.71600 54.57600 39.11100
C  30.10700 59.41000 39.76500
C  25.41000 58.60100 40.63200
N  28.22900 54.47900 39.23800
C  27.29100 53.53800 39.16300
C  27.81200 52.22000 38.54000
C  29.38100 52.37900 38.81300
C  29.49700 53.90700 39.04500
C  29.99500 51.54600 40.03200
C  27.39100 52.10800 37.00900
C  27.08200 53.35500 36.15000
H  27.30500 53.33400 34.70100
N  30.14900 56.94600 39.69100
C  31.02900 55.93500 39.31700
C  32.36100 56.56600 39.08000
C  32.21100 57.99300 39.29400
C  30.80600 58.19700 39.58900
C  33.54700 55.77700 38.57200
C  33.27800 59.05500 39.05600
O  34.34400 58.75400 38.58400
C  33.14600 60.44800 39.39800
N  27.86900 58.62200 40.23100
C  28.80800 59.62700 39.99800
C  28.20700 60.99300 40.13800
C  26.71900 60.73000 40.13300
C  26.62300 59.19800 40.38100
C  28.78800 61.81800 41.30400
C  25.91800 61.02000 38.78400
C  24.88000 62.16500 38.64000
N  26.09400 56.28300 40.20500
C  25.14000 57.23600 40.52400
C  23.86400 56.45700 40.77400
C  24.13600 55.13900 40.33900
C  25.51800 55.12500 40.01800
C  22.52700 56.95400 41.27300
C  23.67600 53.80000 40.13600
O  22.54500 53.35000 40.26900
C  24.82900 52.98800 39.60800
C  24.97300 51.83700 40.51900
O  24.49700 50.71300 40.44200
O  25.88200 52.11000 41.51800
C  26.19800 51.01700 42.48100
H  31.57000 53.92100 38.92400
H  30.62800 60.35500 39.60200
H  24.53000 59.23700 40.75000
H  27.44200 51.36200 39.10200
H  29.97400 52.08700 37.94700
H  29.97100 50.47100 39.85800
H  29.62000 51.79600 41.02500
H  31.06900 51.71700 39.96500
H  26.52500 51.44800 36.94900
H  28.20600 51.53600 36.56600
H  27.56000 54.21800 36.61400
H  26.01600 53.55700 36.25200
H  34.18100 56.26100 37.82900
H  33.23100 54.85800 38.07700
H  34.19700 55.56600 39.42100
H  32.83200 60.48200 40.44200
H  32.46700 60.94000 38.70100
H  34.03600 61.07100 39.31100
H  28.40300 61.56800 39.23300
H  26.24100 61.34500 40.89600
H  28.95900 62.85800 41.02200
H  29.68400 61.27400 41.60300
H  28.06800 61.58500 42.08700
H  25.34700 60.12300 38.54500
H  26.59900 61.13800 37.94100
H  24.76800 62.72300 39.56900
H  23.90500 61.77300 38.34900
H  25.35400 62.87100 37.95800
H  21.79800 56.93300 40.46200
H  22.75800 57.97400 41.58000
H  22.27100 56.28400 42.09300
H  24.71900 52.47300 38.65400
H  25.38200 50.96400 43.20200
H  27.16900 51.34400 42.85300
H  26.36600 50.02900 42.05300

