158

Mg 2.46300 -1.52500 43.85200
C  5.77700 -1.18500 42.68700
C  1.61200 1.20800 41.97000
C  -0.67600 -2.45200 44.21500
C  3.53100 -4.65400 45.25000
N  3.58500 -0.16900 42.45800
C  4.89300 -0.21500 42.12200
C  5.26600 0.94300 41.19700
C  4.06400 1.90200 41.39000
C  2.97500 0.97600 42.02400
C  4.25200 3.23000 42.22700
C  5.56300 0.52000 39.74300
C  6.61000 1.41200 39.01700
H  6.17200 2.05500 37.65800
N  0.66800 -0.66200 43.30900
C  0.56600 0.43900 42.47700
C  -0.87900 0.67200 42.28300
C  -1.58500 -0.28200 43.10800
C  -0.51000 -1.16500 43.61400
C  -1.40900 1.84300 41.44200
C  -3.05900 -0.38500 43.33600
O  -3.81000 0.38700 42.79700
C  -3.74800 -1.51000 44.13000
N  1.55600 -3.31700 44.55000
C  0.22400 -3.40100 44.62300
C  -0.18800 -4.77900 45.13500
C  1.15200 -5.42500 45.64300
C  2.18400 -4.42700 45.04100
C  -1.53600 -4.79400 45.98400
C  1.46400 -6.90500 45.22300
C  1.48100 -8.04000 46.24100
N  4.30000 -2.69600 44.05600
C  4.56600 -3.89900 44.68200
C  6.00700 -4.23700 44.65000
C  6.53300 -3.15200 43.84100
C  5.43800 -2.32800 43.49200
C  6.59000 -5.42700 45.25600
C  7.71700 -2.64400 43.21200
O  8.88700 -3.07700 43.23700
C  7.28500 -1.27100 42.57400
C  7.97400 -0.18100 43.25000
O  7.87000 0.08000 44.40300
O  8.77300 0.54000 42.41000
C  9.14500 1.83400 42.88900
H  1.26600 2.17100 41.58900
H  -1.67700 -2.86800 44.35000
H  3.82400 -5.67900 45.48800
H  6.10600 1.50800 41.60200
H  3.65200 2.29800 40.46200
H  5.24200 3.15200 42.67700
H  3.56300 3.40500 43.05300
H  4.21700 4.07800 41.54300
H  4.67600 0.56500 39.11100
H  6.08800 -0.43500 39.75800
H  7.55400 0.86800 39.05200
H  6.82000 2.28300 39.63700
H  -2.40400 2.06500 41.82800
H  -1.43600 1.52000 40.40100
H  -0.75200 2.70400 41.56200
H  -4.81600 -1.29600 44.18300
H  -3.36600 -1.59900 45.14700
H  -3.66800 -2.44400 43.57500
H  -0.37100 -5.09300 44.10700
H  1.23400 -5.32500 46.72500
H  -2.39200 -5.01800 45.34700
H  -1.64000 -3.79800 46.41400
H  -1.49100 -5.54900 46.76900
H  2.29900 -6.91300 44.52300
H  0.62200 -7.07500 44.55100
H  2.23100 -8.78200 45.96800
H  0.55100 -8.59600 46.11500
H  1.45600 -7.78900 47.30100
H  6.75800 -6.11900 44.43100
H  6.03800 -5.87300 46.08300
H  7.57400 -5.30100 45.70700
H  7.70600 -1.24300 41.56900
H  9.48600 1.75700 43.92100
H  8.27600 2.49100 42.92600
H  10.02200 2.21400 42.36400
Mg -2.27500 34.75400 26.70300
C  -3.36700 32.91900 29.41800
C  -0.63400 36.88200 28.85600
C  -1.48100 36.58700 24.03200
C  -3.58700 32.34200 24.57000
N  -2.08100 34.85500 28.88500
C  -2.53500 33.95800 29.81700
C  -2.06600 34.34100 31.16900
C  -1.29800 35.58800 31.01700
C  -1.33100 35.80900 29.45600
C  -1.82700 36.81800 31.91100
C  -1.18600 33.18400 31.83700
C  -1.63700 32.57500 33.18900
H  -0.68900 32.41000 34.46100
N  -1.23500 36.52000 26.44300
C  -0.66100 37.23400 27.44900
C  -0.03400 38.36800 26.84600
C  -0.30500 38.34900 25.49200
C  -1.01000 37.10500 25.21400
C  0.81300 39.37600 27.66400
C  0.15200 39.39100 24.45800
O  0.01000 39.20200 23.29400
C  0.84200 40.64900 24.84500
N  -2.37200 34.48500 24.60300
C  -2.05300 35.39500 23.68800
C  -2.58000 35.12800 22.32500
C  -2.94400 33.58300 22.47000
C  -2.89800 33.41000 23.98400
C  -3.77400 35.95200 21.87100
C  -2.08200 32.58000 21.71900
C  -0.71300 32.11700 22.41200
N  -3.41700 32.91800 26.90100
C  -3.86100 32.02000 25.92600
C  -4.60400 30.98000 26.58700
C  -4.52300 31.33200 27.98500
C  -3.74800 32.56300 28.08700
C  -5.07400 29.74600 25.85600
C  -4.84600 30.92100 29.29200
O  -5.46100 29.94300 29.68100
C  -4.11100 31.91500 30.27600
C  -5.13800 32.53100 31.14100
O  -5.92600 33.37400 30.76400
O  -5.13300 31.93300 32.43600
C  -6.27600 32.39700 33.22000
H  -0.12400 37.55700 29.54600
H  -1.37700 37.18000 23.12100
H  -4.03600 31.66700 23.83800
H  -2.96000 34.60900 31.73200
H  -0.26000 35.41100 31.29800
H  -0.94100 37.15600 32.44600
H  -2.57500 36.41100 32.59200
H  -2.25400 37.61900 31.30800
H  -0.14000 33.45400 31.97900
H  -1.07900 32.37900 31.11000
H  -1.69800 31.52100 32.92000
H  -2.63700 32.91400 33.45800
H  1.85600 39.50900 27.38000
H  0.98700 39.05900 28.69200
H  0.27800 40.31300 27.82300
H  0.16000 41.27100 25.42600
H  1.24300 41.11400 23.94400
H  1.74300 40.40400 25.40700
H  -1.68300 35.18200 21.70800
H  -3.96500 33.34900 22.16800
H  -3.96100 36.59100 22.73400
H  -4.67500 35.37200 21.67300
H  -3.42700 36.57300 21.04500
H  -1.81300 33.06000 20.77700
H  -2.56900 31.63000 21.50300
H  0.08900 32.80400 22.14200
H  -0.35600 31.12900 22.12000
H  -0.70200 32.04700 23.50000
H  -4.38900 29.52700 25.03700
H  -6.02000 29.89200 25.33500
H  -5.10200 28.89800 26.54000
H  -3.41500 31.39300 30.93200
H  -7.19500 32.60500 32.67200
H  -6.06700 33.32800 33.74800
H  -6.48100 31.60100 33.93500

