158

Mg -1.50400 17.72300 26.93300
C  -1.88400 15.28300 29.47000
C  -2.09800 20.13000 29.31900
C  -1.53300 19.90200 24.45700
C  -1.62000 15.04900 24.57300
N  -1.97900 17.69400 29.07700
C  -1.94300 16.61500 29.93600
C  -2.24400 17.06900 31.40600
C  -2.52700 18.58900 31.24700
C  -2.19200 18.82100 29.77700
C  -3.98200 18.97100 31.71200
C  -1.18900 16.65100 32.43300
C  -1.23300 17.31100 33.84800
H  -0.68300 16.60700 35.06700
N  -1.62100 19.74700 26.87400
C  -1.81500 20.60100 27.98200
C  -1.73600 22.00400 27.46900
C  -1.43200 21.92900 26.07000
C  -1.53700 20.50000 25.74300
C  -1.98800 23.15600 28.38700
C  -1.11900 22.99400 25.16200
O  -0.74400 22.73900 24.03300
C  -1.28100 24.44500 25.54500
N  -1.60800 17.41500 24.84200
C  -1.61300 18.55800 24.01500
C  -1.52500 18.21500 22.55500
C  -1.37400 16.61800 22.58200
C  -1.54800 16.32700 24.04900
C  -2.80800 18.67600 21.75400
C  -0.04300 16.17600 21.93300
C  1.15000 15.57700 22.82500
N  -1.67000 15.57900 26.91500
C  -1.67100 14.63900 25.88200
C  -1.80500 13.26500 26.48700
C  -1.90800 13.51000 27.87100
C  -1.79700 14.88300 28.09400
C  -1.77100 11.96000 25.66700
C  -2.02600 12.83300 29.12100
O  -2.03400 11.59800 29.29900
C  -2.04300 13.89700 30.28100
C  -1.02000 13.46500 31.16000
O  0.16900 13.72300 31.10100
O  -1.56700 12.63100 32.06900
C  -0.56000 11.97800 32.98900
H  -2.22400 20.90900 30.07400
H  -1.58100 20.61100 23.62800
H  -1.57900 14.41900 23.68200
H  -3.16500 16.56000 31.69400
H  -1.78800 19.19900 31.76600
H  -4.37300 19.69500 30.99800
H  -3.92700 19.55300 32.63200
H  -4.67500 18.14900 31.89100
H  -0.21900 16.76400 31.94900
H  -1.40800 15.60800 32.66300
H  -2.24300 17.71000 33.94400
H  -0.56600 18.16800 33.75500
H  -1.06500 23.66200 28.66800
H  -2.46500 22.81800 29.30800
H  -2.65700 23.80400 27.82100
H  -2.27600 24.72700 25.89100
H  -0.90000 25.15600 24.81200
H  -0.60000 24.58500 26.38400
H  -0.64700 18.66500 22.09300
H  -2.21500 16.17400 22.04900
H  -3.62600 18.92500 22.42900
H  -3.14300 18.01200 20.95700
H  -2.45500 19.56300 21.22800
H  0.33700 16.93300 21.24700
H  -0.32900 15.37200 21.25500
H  0.78600 15.26000 23.80200
H  1.82600 16.39500 23.07700
H  1.73500 14.84700 22.26600
H  -1.92100 11.02800 26.21100
H  -0.90600 11.87200 25.00900
H  -2.67600 12.02000 25.06200
H  -3.04500 13.85300 30.70600
H  -0.20100 11.21500 32.29800
H  -1.05100 11.60900 33.89000
H  0.27600 12.61100 33.28500
Mg 24.15500 -5.47000 45.18300
C  26.42000 -3.04300 43.86700
C  21.67400 -3.98700 43.49900
C  22.50400 -8.28900 45.44300
C  26.91800 -6.84600 46.89600
N  24.18100 -3.68900 43.81700
C  25.11000 -2.87400 43.43900
C  24.57900 -1.80500 42.55000
C  23.11300 -1.82000 42.88900
C  22.92000 -3.23800 43.46000
C  22.50000 -0.76000 43.84900
C  24.80900 -2.05900 41.03500
C  25.30700 -0.86600 40.25200
H  25.07900 -1.01100 38.75500
N  22.30000 -6.08200 44.63000
C  21.40600 -5.27300 43.97500
C  20.19300 -5.99400 43.81900
C  20.42700 -7.28700 44.26000
C  21.78600 -7.29800 44.75900
C  18.91600 -5.37300 43.18400
C  19.34200 -8.45500 44.20900
O  18.24500 -8.33700 43.78400
C  19.75900 -9.87100 44.71700
N  24.63300 -7.28600 46.00400
C  23.71800 -8.28700 46.05600
C  24.36400 -9.50900 46.81500
C  25.54500 -8.86100 47.64000
C  25.71400 -7.60700 46.77000
C  23.29000 -10.17600 47.73700
C  26.68800 -9.72700 47.83800
C  27.22700 -9.76100 49.30300
N  26.17700 -4.95900 45.40600
C  27.20600 -5.66700 46.11000
C  28.35000 -4.95800 46.07100
C  28.18100 -3.92700 45.20900
C  26.79100 -3.96600 44.79300
C  29.55800 -5.34900 46.80300
C  28.77900 -2.78200 44.57700
O  29.90200 -2.28600 44.79200
C  27.74700 -2.30900 43.57500
C  27.52100 -0.77100 43.64900
O  26.98600 -0.17800 44.58300
O  28.11100 -0.05500 42.62000
C  28.03800 1.43500 42.64500
H  20.84800 -3.33700 43.20100
H  22.06400 -9.28200 45.56100
H  27.74700 -7.08500 47.56500
H  25.10600 -0.87000 42.74000
H  22.53100 -1.81900 41.96800
H  23.26100 -0.03300 44.13400
H  22.06500 -1.22900 44.73200
H  21.71900 -0.26600 43.27100
H  23.89700 -2.45200 40.58600
H  25.67900 -2.71300 40.96800
H  26.36900 -0.68800 40.41800
H  24.88200 0.07400 40.60600
H  18.00100 -5.79100 43.60200
H  18.99300 -5.52400 42.10700
H  18.86300 -4.29500 43.33400
H  18.91900 -10.53500 44.51400
H  19.86400 -9.88400 45.80200
H  20.62400 -10.28000 44.19500
H  24.64800 -10.34200 46.17200
H  25.09400 -8.40500 48.52100
H  23.02100 -11.18100 47.41000
H  22.30900 -9.70600 47.67700
H  23.70200 -10.35300 48.73000
H  27.57800 -9.46600 47.26500
H  26.44800 -10.78200 47.70300
H  26.85400 -8.85100 49.77200
H  28.29400 -9.97600 49.35800
H  26.76400 -10.57800 49.85800
H  29.43000 -5.08100 47.85200
H  30.46900 -4.85100 46.47000
H  29.71400 -6.42700 46.77100
H  28.10400 -2.64600 42.60200
H  27.01600 1.71200 42.38400
H  28.45600 1.94200 41.77600
H  28.37300 1.83400 43.60200

