158

Mg 36.31800 2.29300 30.25400
C  33.88400 3.27900 32.37400
C  38.69100 2.34300 32.71600
C  38.57800 1.37300 27.90800
C  33.95300 2.64700 27.54100
N  36.26700 2.81100 32.27700
C  35.17400 3.17000 33.00400
C  35.48400 3.30600 34.41100
C  37.05300 3.29500 34.41800
C  37.39200 2.76900 33.06900
C  37.78300 4.63900 34.69600
C  34.84300 2.26500 35.30600
C  34.72600 2.65300 36.77500
H  35.30800 3.97200 37.26600
N  38.25100 1.70500 30.32400
C  39.09800 1.81600 31.43100
C  40.39000 1.33700 31.10700
C  40.46600 1.22600 29.67300
C  39.04800 1.43700 29.20500
C  41.45900 1.23600 32.14400
C  41.68800 0.86800 28.80900
O  41.63100 0.93500 27.59200
C  42.92800 0.52000 29.58700
N  36.26500 2.21900 27.95000
C  37.38000 1.77000 27.28300
C  37.06100 1.45700 25.83400
C  35.47200 1.68100 25.76700
C  35.20300 2.18200 27.16400
C  37.79900 2.19700 24.70900
C  34.71500 0.43600 25.34500
C  33.24800 0.65400 24.88100
N  34.38500 2.82600 29.97100
C  33.53100 2.95800 28.85000
C  32.23100 3.33800 29.31800
C  32.28600 3.41600 30.67200
C  33.57300 3.09600 31.01300
C  30.93400 3.62400 28.45100
C  31.53300 3.86300 31.82100
O  30.41500 4.34100 31.94100
C  32.51400 3.62200 33.02600
C  32.38300 4.81000 34.01300
O  32.83100 5.89000 33.83900
O  31.66100 4.35900 35.10800
C  31.34400 5.38600 36.14200
H  39.45600 2.41900 33.49200
H  39.40900 1.05000 27.27800
H  33.14400 2.71100 26.81000
H  35.06500 4.28100 34.66000
H  37.41300 2.59600 35.17300
H  38.62500 4.51000 35.37600
H  37.03900 5.24800 35.21000
H  38.12700 5.11700 33.77900
H  35.46200 1.36900 35.34800
H  33.90000 1.98300 34.83700
H  34.93400 1.83900 37.46900
H  33.66700 2.88100 36.89800
H  41.36900 0.29500 32.68800
H  41.35800 2.03500 32.87900
H  42.49900 1.40200 31.86300
H  43.48400 1.36300 29.99700
H  43.54000 -0.06200 28.89700
H  42.68500 -0.21000 30.35900
H  37.24800 0.38700 25.74400
H  35.17500 2.48300 25.09200
H  38.16200 1.51900 23.93600
H  38.58500 2.78000 25.18700
H  37.05000 2.78800 24.18100
H  34.66800 -0.37900 26.06800
H  35.34300 -0.03700 24.59000
H  33.00400 0.20900 23.91600
H  32.90400 1.68500 24.79100
H  32.67000 0.05400 25.58400
H  31.36300 4.00400 27.52400
H  30.16500 4.20000 28.96600
H  30.42100 2.75100 28.04700
H  32.26200 2.70100 33.55200
H  30.62700 6.10700 35.74900
H  32.20700 5.94300 36.50600
H  30.97400 4.82500 37.00000
Mg 0.01600 43.24800 25.97800
C  1.83000 43.42800 28.92500
C  -2.95000 42.99000 27.95100
C  -1.78600 42.50900 23.19000
C  2.92100 43.31800 24.22300
N  -0.50700 43.10700 28.17300
C  0.47700 43.34200 29.21300
C  -0.21700 43.28500 30.55300
C  -1.70700 43.07400 30.22400
C  -1.76600 43.03600 28.69900
C  -2.29000 41.79500 30.88300
C  -0.03000 44.48000 31.54900
C  0.43100 44.24200 33.06000
H  -0.07000 42.88400 33.62300
N  -2.04800 42.72600 25.62900
C  -3.09400 42.85500 26.48800
C  -4.34100 42.76300 25.77700
C  -4.05400 42.54700 24.38500
C  -2.55500 42.58400 24.33300
C  -5.68700 42.98300 26.52600
C  -4.96500 42.44700 23.22500
O  -4.56200 42.51600 22.08600
C  -6.45000 42.35400 23.47600
N  0.61000 42.81500 24.05000
C  -0.39100 42.64500 23.07500
C  0.32500 42.42500 21.63300
C  1.79200 42.76800 22.02100
C  1.78900 43.01600 23.51000
C  0.11000 41.07600 20.89300
C  2.21200 43.97300 21.27600
C  1.47600 45.25400 21.63200
N  2.01400 43.35000 26.47000
C  3.08900 43.54400 25.60000
C  4.34100 43.84600 26.37800
C  3.86500 43.64600 27.73600
C  2.44500 43.47500 27.70100
C  5.73100 44.01400 25.88400
C  4.36400 43.48500 29.12900
O  5.48800 43.47800 29.61800
C  2.97400 43.43900 29.96400
C  3.05500 42.16100 30.75300
O  2.75000 41.03200 30.37200
O  3.51500 42.49100 31.92600
C  3.61300 41.36000 32.92600
H  -3.84000 42.91300 28.57900
H  -2.36200 42.47600 22.26200
H  3.88500 43.46300 23.73100
H  0.13900 42.35100 30.98700
H  -2.32700 43.92600 30.50300
H  -3.07300 42.12700 31.56500
H  -1.50000 41.13400 31.24200
H  -2.81400 41.30800 30.06100
H  -0.87500 45.16200 31.45900
H  0.75000 44.96300 30.96100
H  -0.01900 45.00600 33.69500
H  1.47600 44.48000 33.25800
H  -5.60000 43.67800 27.36200
H  -6.03200 42.08100 27.03200
H  -6.44400 43.31700 25.81700
H  -7.06800 41.86900 22.72000
H  -6.72000 43.40700 23.55800
H  -6.59700 41.93600 24.47200
H  -0.13600 43.20400 21.02700
H  2.39100 41.89100 21.77600
H  -0.31400 41.29500 19.91300
H  -0.64700 40.37800 21.24900
H  1.05300 40.58100 20.66100
H  2.21400 43.72600 20.21400
H  3.27400 44.06500 21.50600
H  2.10400 45.73900 22.37900
H  0.54500 45.18100 22.19400
H  1.45400 45.83900 20.71300
H  6.01300 45.05400 25.72400
H  5.88400 43.35100 25.03300
H  6.48500 43.69000 26.60200
H  2.80800 44.32200 30.58200
H  3.39000 40.35700 32.56100
H  2.94000 41.55600 33.76000
H  4.62500 41.32500 33.33100

