158

Mg 53.85000 23.17900 44.33800
C  50.90200 24.97000 43.51000
C  52.20400 20.29900 43.25100
C  56.70200 21.62700 44.48600
C  55.35000 26.23400 45.14600
N  51.82200 22.72500 43.07000
C  50.72700 23.65500 43.12500
C  49.43100 22.83300 42.81500
C  49.91000 21.33400 43.04900
C  51.40600 21.43600 43.18200
C  49.13200 20.57000 44.25400
C  49.04200 23.24800 41.34800
C  47.60200 23.46300 41.10200
H  47.05200 22.96700 39.73400
N  54.38800 21.20500 43.90000
C  53.60200 20.12100 43.52800
C  54.47500 18.96300 43.34200
C  55.82600 19.42000 43.58700
C  55.67200 20.80900 43.97000
C  54.08400 17.62300 42.76100
C  57.12300 18.57200 43.44300
O  56.98100 17.42600 43.02100
C  58.60200 19.02300 43.74400
N  55.77700 23.82600 44.73100
C  56.81900 23.01400 44.72600
C  58.15000 23.72100 45.01000
C  57.73400 25.22300 45.27200
C  56.23400 25.10800 45.01100
C  59.03400 23.06400 46.05500
C  58.46700 26.32100 44.39700
C  59.96300 26.13700 44.19100
N  53.30600 25.26200 44.42500
C  53.97500 26.31900 44.77900
C  53.13600 27.50100 44.90300
C  51.86800 26.97100 44.42700
C  52.06300 25.63600 44.09100
C  53.47300 28.89200 45.48000
C  50.46900 27.32000 44.24300
O  49.89900 28.37700 44.39600
C  49.86400 26.05300 43.52400
C  49.58800 26.44400 42.18300
O  50.33000 26.44000 41.20200
O  48.28700 26.89200 42.16300
C  47.76400 27.35800 40.86900
H  51.63600 19.46100 42.84100
H  57.73300 21.27900 44.58100
H  55.78200 27.17500 45.49200
H  48.63000 23.04300 43.52300
H  49.71500 20.72600 42.16600
H  48.69600 19.62700 43.92200
H  48.31200 21.19600 44.60500
H  49.79600 20.38000 45.09800
H  49.34900 22.53000 40.58800
H  49.54400 24.14700 40.99200
H  47.37300 24.51400 41.27800
H  46.99600 22.88500 41.80000
H  54.67600 17.43000 41.86600
H  53.05200 17.63000 42.41000
H  54.31800 16.78200 43.41300
H  58.82600 19.31700 44.76900
H  58.69200 19.85100 43.04100
H  59.22400 18.18700 43.42600
H  58.64600 23.67800 44.04000
H  57.80300 25.38400 46.34800
H  59.99400 22.63300 45.77100
H  58.47900 22.25600 46.53100
H  59.42300 23.86700 46.68000
H  58.20800 27.25500 44.89500
H  57.89300 26.28700 43.47100
H  60.54200 26.67000 44.94600
H  60.24200 26.58000 43.23500
H  60.18400 25.07300 44.27600
H  53.17000 28.86200 46.52600
H  52.92300 29.65600 44.93100
H  54.54400 29.08800 45.53600
H  48.94700 25.85000 44.07700
H  48.04900 28.40900 40.91100
H  46.67800 27.28100 40.92700
H  48.18500 26.76900 40.05400
Mg 47.11900 34.98600 26.70500
C  45.43200 33.29100 29.38300
C  47.59800 37.52600 28.89100
C  48.90700 36.50400 24.28100
C  46.60100 32.19700 24.72900
N  46.62400 35.23400 28.90600
C  46.04900 34.41100 29.79600
C  46.05300 34.89000 31.22500
C  46.46600 36.35200 30.91100
C  46.90600 36.40600 29.44800
C  45.36300 37.40200 31.11700
C  47.13300 34.14500 32.14800
C  46.67500 33.93600 33.60000
H  47.52700 34.68700 34.68300
N  48.03500 36.79100 26.54200
C  48.03400 37.76300 27.56500
C  48.80000 38.91800 27.09400
C  49.25600 38.60000 25.79700
C  48.72900 37.24500 25.44600
C  49.14000 40.15100 27.97700
C  50.23800 39.33500 24.80500
O  50.52100 38.88800 23.68300
C  50.84700 40.70100 25.14400
N  47.55900 34.46500 24.84800
C  48.37400 35.22400 24.06200
C  48.49700 34.62500 22.60600
C  47.55800 33.32500 22.69500
C  47.29200 33.27700 24.16800
C  48.08000 35.52400 21.42600
C  48.12000 32.10500 21.98600
C  49.28900 31.33100 22.72300
N  46.18300 33.12500 26.94900
C  46.06700 32.12600 26.00700
C  45.29500 30.97400 26.59100
C  44.97100 31.45600 27.88100
C  45.56100 32.76800 28.08100
C  44.95600 29.67000 25.98600
C  44.26300 31.09900 29.11400
O  43.73900 30.03600 29.42800
C  44.43600 32.33700 30.06000
C  44.66400 31.86400 31.46800
O  45.64800 31.29100 31.89300
O  43.59700 32.25600 32.26700
C  43.67500 31.86500 33.65200
H  47.71200 38.43400 29.48600
H  49.41700 36.93200 23.41500
H  46.25300 31.40000 24.06900
H  45.03800 34.74600 31.59600
H  47.20200 36.62300 31.66900
H  44.52800 36.84500 31.54200
H  44.85000 37.74100 30.21700
H  45.66100 38.28300 31.68600
H  48.10600 34.63600 32.13500
H  47.24600 33.09500 31.87700
H  46.67900 32.87300 33.84300
H  45.65000 34.30500 33.58000
H  50.16000 39.95300 28.30700
H  48.48800 40.23700 28.84600
H  49.19300 41.04600 27.35700
H  50.16600 41.54400 25.03300
H  51.64500 40.92200 24.43500
H  51.40300 40.63000 26.08000
H  49.51900 34.29200 22.42200
H  46.53700 33.36900 22.31500
H  47.57100 36.30100 21.99600
H  47.32000 35.06200 20.79600
H  48.96400 35.81300 20.85900
H  48.57600 32.48000 21.07000
H  47.26600 31.46500 21.76600
H  50.00200 31.11900 21.92700
H  48.81400 30.41500 23.07600
H  49.70000 32.02300 23.45800
H  45.13300 28.85700 26.69000
H  45.51600 29.43500 25.08200
H  43.88100 29.64300 25.80600
H  43.48300 32.86000 30.13600
H  44.39600 31.07000 33.84300
H  42.70400 31.52700 34.01500
H  43.98300 32.72300 34.24900

