158

Mg 40.62600 9.65800 29.43600
C  42.40400 10.96500 32.22800
C  38.35100 8.34000 31.53100
C  39.26800 8.11200 26.82700
C  43.37800 10.50100 27.50200
N  40.55100 9.39600 31.66600
C  41.22000 10.20000 32.53500
C  40.68300 9.96100 33.93900
C  39.63100 8.78500 33.75000
C  39.38100 8.91800 32.22400
C  40.23200 7.40300 34.08000
C  40.01300 11.26000 34.60600
C  39.52700 11.02000 36.01900
H  40.01900 12.08800 36.95800
N  38.88100 8.57500 29.16400
C  38.07900 8.18500 30.17600
C  36.88500 7.49800 29.59600
C  37.07600 7.51100 28.16900
C  38.44900 8.02300 27.97600
C  35.74300 6.88100 30.40000
C  36.12900 7.10500 27.01000
O  36.54200 7.03600 25.83100
C  34.65400 6.74500 27.32300
N  41.31800 9.16900 27.55900
C  40.52000 8.62900 26.59300
C  41.25700 8.39200 25.23900
C  42.39400 9.47200 25.45800
C  42.36800 9.72000 26.92600
C  41.85100 6.94400 25.13400
C  42.22100 10.73000 24.62300
C  41.55800 11.94300 25.26400
N  42.49300 10.62300 29.72600
C  43.48100 10.97700 28.83100
C  44.56700 11.74400 29.45000
C  44.11300 11.80400 30.77900
C  42.84600 11.12800 30.89700
C  45.93200 12.16400 28.83800
C  44.54400 12.26400 32.09700
O  45.56000 12.86600 32.41800
C  43.37700 11.76600 33.09500
C  44.03900 10.91800 34.13100
O  44.57200 9.88200 33.95300
O  43.93800 11.52700 35.37600
C  44.30800 10.66900 36.50900
H  37.54400 8.04400 32.20400
H  38.73300 7.67900 25.97900
H  44.21200 10.89000 26.91400
H  41.42300 9.52800 34.61200
H  38.70800 8.97300 34.29900
H  40.12000 7.15700 35.13600
H  41.30800 7.56000 34.00500
H  39.95600 6.58700 33.41300
H  39.11900 11.51900 34.03900
H  40.72200 12.07800 34.47000
H  39.81000 10.00300 36.29300
H  38.44600 11.04100 35.88800
H  35.44100 5.88400 30.08000
H  34.84900 7.50100 30.47400
H  35.97700 6.71200 31.45100
H  34.05100 6.66400 26.42000
H  34.32400 7.60600 27.90400
H  34.52000 6.01800 28.12400
H  40.64200 8.59300 24.36200
H  43.36500 9.03700 25.22300
H  41.50000 6.43400 26.03100
H  42.93800 6.85900 25.15400
H  41.39100 6.50200 24.25100
H  41.69000 10.49600 23.70000
H  43.27300 10.93300 24.42200
H  40.89900 11.69500 26.09600
H  40.94500 12.28700 24.43100
H  42.28700 12.66200 25.63600
H  46.27100 12.90900 29.55700
H  45.95500 12.62700 27.85100
H  46.62300 11.33100 28.70700
H  42.90700 12.55600 33.68100
H  43.94200 9.64300 36.46600
H  43.91200 11.14800 37.40500
H  45.38600 10.58500 36.64800
Mg 48.73800 35.68000 27.30500
C  46.57200 34.24500 29.77500
C  48.90000 38.53300 29.31800
C  50.27400 37.15700 24.91800
C  47.93300 32.97000 25.23400
N  47.94400 36.19000 29.36800
C  47.11100 35.48300 30.18900
C  46.99100 36.31300 31.53000
C  47.53400 37.71900 31.24200
C  48.19300 37.47900 29.90700
C  46.51000 38.82500 31.21100
C  47.54800 35.54500 32.73600
C  46.59700 35.44100 33.90900
H  46.64000 36.61600 34.92900
N  49.60700 37.55600 27.16400
C  49.52800 38.60800 28.07300
C  50.17900 39.72100 27.53600
C  50.61600 39.34600 26.19100
C  50.15900 37.91600 26.02900
C  50.47100 40.99700 28.32800
C  51.33300 40.12400 25.10500
O  51.74200 39.69500 24.02600
C  51.61000 41.53100 25.30400
N  49.09500 35.11100 25.35100
C  49.86300 35.88600 24.56300
C  50.05500 35.23800 23.12500
C  49.53300 33.75700 23.43700
C  48.83000 33.90100 24.79200
C  49.21400 35.98500 22.10500
C  50.75000 32.75600 23.40300
C  51.27000 32.63000 21.98800
N  47.56700 33.97300 27.41000
C  47.29500 32.96100 26.45600
C  46.28200 32.05000 26.91600
C  45.94900 32.52700 28.21700
C  46.77600 33.66500 28.44800
C  45.77900 30.86300 26.14300
C  45.13200 32.29000 29.37200
O  44.30500 31.46100 29.67400
C  45.53100 33.34500 30.44300
C  46.09000 32.60100 31.51600
O  47.17400 32.08000 31.58400
O  45.18600 32.55400 32.50500
C  45.53900 32.01700 33.84300
H  48.95400 39.42700 29.94200
H  50.80800 37.60400 24.07700
H  47.70600 32.12800 24.57700
H  45.90600 36.29800 31.62500
H  48.32100 38.00600 31.93900
H  46.57000 39.40600 30.29100
H  46.88700 39.51700 31.96400
H  45.49700 38.55900 31.51100
H  48.37500 36.16600 33.07900
H  47.89200 34.55200 32.44800
H  46.80600 34.57600 34.53900
H  45.55900 35.34400 33.59300
H  50.22200 40.86100 29.38000
H  50.01400 41.85300 27.83300
H  51.53200 41.17200 28.14900
H  52.04900 42.03100 24.44000
H  52.37800 41.69700 26.05800
H  50.77500 42.18500 25.55600
H  51.08800 35.21800 22.77900
H  48.82700 33.36100 22.70700
H  49.62700 36.10600 21.10400
H  49.10700 36.96600 22.56800
H  48.28700 35.42100 21.99700
H  50.40600 31.77900 23.74300
H  51.58000 33.02200 24.05700
H  50.70400 33.16100 21.22200
H  51.15700 31.60800 21.62700
H  52.30900 32.95800 21.95100
H  44.82300 30.41400 26.41100
H  46.46600 30.01700 26.15700
H  45.68600 31.09400 25.08100
H  44.56900 33.78400 30.70800
H  45.72100 32.73000 34.64700
H  46.41000 31.36400 33.78200
H  44.62800 31.52700 34.18800

