158

Mg 16.94200 -2.24000 28.32700
C  15.99300 -0.39600 31.01300
C  18.90400 -4.27100 30.50400
C  18.55500 -3.67700 25.68600
C  15.66600 0.06700 26.08700
N  17.35500 -2.34000 30.54900
C  16.87100 -1.43000 31.45000
C  17.36900 -1.73600 32.88700
C  18.39600 -2.91700 32.67100
C  18.23000 -3.22200 31.13600
C  19.92400 -2.55400 33.00800
C  16.13300 -2.19500 33.80400
C  16.35400 -2.18200 35.27700
H  17.62100 -1.52700 35.90800
N  18.30500 -3.85100 28.13100
C  18.97800 -4.52000 29.13100
C  19.61300 -5.68200 28.59800
C  19.58400 -5.53000 27.15400
C  18.84400 -4.30300 26.97000
C  20.30400 -6.86200 29.40300
C  20.11800 -6.42400 26.02500
O  19.96000 -6.25000 24.82800
C  20.65900 -7.75700 26.42800
N  17.15300 -1.81300 26.08700
C  17.78400 -2.56800 25.27000
C  17.52000 -2.25600 23.80600
C  16.38700 -1.17800 23.97400
C  16.36500 -0.96800 25.50400
C  18.78200 -1.72700 23.12000
C  15.05000 -1.62100 23.16800
C  13.71000 -1.76900 23.97100
N  15.87200 -0.64300 28.43600
C  15.45900 0.25000 27.45400
C  14.73000 1.24700 28.12800
C  14.94800 1.06500 29.54300
C  15.65000 -0.15900 29.66800
C  13.94600 2.45400 27.39100
C  14.71100 1.65500 30.81600
O  14.18500 2.70200 31.08800
C  15.35500 0.72300 31.81900
C  16.34200 1.52600 32.55900
O  17.47100 1.77100 32.22000
O  15.79900 1.90900 33.74500
C  16.65400 2.74500 34.51400
H  19.43900 -4.95000 31.17000
H  18.96700 -4.11300 24.77400
H  15.09400 0.61300 25.33300
H  17.79900 -0.78700 33.20700
H  18.01100 -3.75200 33.25600
H  20.36000 -3.17100 33.79400
H  20.03900 -1.56700 33.45600
H  20.50900 -2.55400 32.08800
H  15.84100 -3.16400 33.39900
H  15.29700 -1.51100 33.65500
H  16.27900 -3.18300 35.70300
H  15.43900 -1.69700 35.61500
H  19.75300 -7.74300 29.07500
H  20.10000 -6.79300 30.47200
H  21.35400 -7.06200 29.18700
H  21.51300 -7.51300 27.06100
H  21.03600 -8.43800 25.66500
H  19.93200 -8.39000 26.93600
H  17.19100 -3.10400 23.20500
H  16.70600 -0.28700 23.43200
H  18.60900 -0.91900 22.40900
H  19.23400 -2.57500 22.60600
H  19.54700 -1.39600 23.82200
H  15.33400 -2.52100 22.62300
H  14.82200 -0.82300 22.46200
H  13.92500 -1.72300 25.03800
H  13.25400 -2.74000 23.77900
H  13.14200 -0.91100 23.61200
H  13.49500 3.09100 28.15200
H  13.13300 2.01900 26.80900
H  14.49800 2.94200 26.58800
H  14.58400 0.46600 32.54500
H  16.33100 2.98300 35.52700
H  16.67600 3.70400 33.99600
H  17.65600 2.31800 34.56200
Mg 53.70300 23.58700 45.20400
C  51.24800 25.71300 43.77200
C  52.07700 20.95500 43.88300
C  56.40300 21.79600 45.48100
C  55.30600 26.52500 46.30400
N  51.93700 23.40200 43.96900
C  51.08300 24.35800 43.55700
C  49.87200 23.76500 42.78000
C  50.00200 22.24900 43.25000
C  51.43400 22.17400 43.67200
C  49.05700 21.87100 44.41600
C  49.99700 23.95100 41.26200
C  48.77700 24.23400 40.36100
H  49.04800 24.49900 38.82600
N  54.17500 21.60400 44.82800
C  53.42200 20.69000 44.22400
C  54.06200 19.35700 44.30600
C  55.32200 19.60300 44.74300
C  55.36500 21.02600 44.95300
C  53.31100 18.06000 44.00800
C  56.39700 18.62200 44.90400
O  56.05800 17.46700 44.65400
C  57.82300 18.95100 45.27000
N  55.55000 24.10700 45.77800
C  56.50400 23.14100 45.89500
C  57.89200 23.80200 46.17000
C  57.48200 25.16100 46.86300
C  56.05000 25.32000 46.27500
C  58.82900 23.00000 47.12000
C  58.42900 26.37500 46.60900
C  58.67800 27.32300 47.69000
N  53.30100 25.67100 45.25200
C  53.96800 26.67600 45.82000
C  53.25000 27.93500 45.68900
C  52.09600 27.57300 44.92200
C  52.26400 26.20400 44.61800
C  53.63500 29.21600 46.33700
C  50.82000 28.03300 44.32900
O  50.23600 29.10000 44.37300
C  50.26800 26.84900 43.57800
C  50.04900 27.22700 42.19400
O  50.88300 27.59100 41.37100
O  48.69500 27.35100 41.95900
C  48.45700 27.80300 40.53000
H  51.46400 20.11800 43.54600
H  57.36000 21.37000 45.79000
H  55.83000 27.40600 46.67900
H  48.99400 24.32400 43.10600
H  49.86000 21.52000 42.45200
H  48.26700 22.62200 44.44200
H  49.53600 21.80000 45.39300
H  48.43000 21.01800 44.15700
H  50.56400 23.06300 40.98200
H  50.67700 24.78600 41.10000
H  48.34900 25.02400 40.97800
H  48.08300 23.39400 40.34500
H  52.30100 18.26700 43.65500
H  53.16700 17.44200 44.89400
H  53.82400 17.49200 43.23200
H  58.23400 19.87500 44.86300
H  58.48300 18.10000 45.09900
H  57.74100 19.10000 46.34700
H  58.43900 23.97300 45.24200
H  57.28100 25.17400 47.93400
H  58.22300 22.19000 47.52700
H  59.28400 23.57300 47.92800
H  59.61700 22.57000 46.50200
H  57.95800 26.95500 45.81500
H  59.39500 26.00300 46.26800
H  59.74200 27.47600 47.86700
H  58.18300 26.97000 48.59500
H  58.15000 28.25600 47.48900
H  52.71900 29.50800 46.85200
H  53.96900 29.99100 45.64700
H  54.41300 29.08900 47.09000
H  49.29400 26.59100 43.99500
H  47.50000 27.41700 40.17800
H  49.13100 27.24200 39.88300
H  48.48800 28.88100 40.37400

