158

Mg 26.04100 0.57900 29.18700
C  27.94900 0.18900 32.17100
C  23.25700 1.15200 31.15400
C  24.29700 0.52600 26.43100
C  28.97800 -0.14200 27.30000
N  25.63500 0.66500 31.39100
C  26.56600 0.51800 32.38900
C  25.85600 0.73900 33.82000
C  24.36800 1.08500 33.49700
C  24.40300 0.96900 31.94700
C  23.31600 0.14000 34.09800
C  26.60100 1.69800 34.71800
C  25.89200 2.44800 35.91700
H  26.42600 2.20700 37.34800
N  24.03200 0.78700 28.77700
C  23.06900 1.11100 29.67600
C  21.74600 1.34900 29.00400
C  22.06800 0.93700 27.59400
C  23.49200 0.76000 27.54000
C  20.41700 1.67200 29.69600
C  21.09100 0.70700 26.43700
O  21.35300 0.30200 25.34000
C  19.60200 0.69500 26.86000
N  26.54800 -0.07200 27.18000
C  25.64800 0.20300 26.22700
C  26.24100 -0.03100 24.87000
C  27.73500 -0.27700 25.09800
C  27.72900 -0.09600 26.57900
C  25.50600 -1.01900 23.86200
C  28.65200 0.90700 24.46200
C  29.90600 0.43300 23.65000
N  28.10500 0.11500 29.60800
C  29.14500 -0.14300 28.71900
C  30.30000 -0.36300 29.52300
C  29.95000 -0.19500 30.86300
C  28.52500 0.07700 30.85800
C  31.72500 -0.62300 29.01800
C  30.39900 -0.11900 32.25300
O  31.54000 -0.19800 32.69600
C  29.07400 0.01700 33.15500
C  28.77900 -1.14500 33.95100
O  28.49000 -2.22400 33.51400
O  28.88800 -0.83900 35.36000
C  28.46200 -1.93000 36.28600
H  22.42000 1.37900 31.81800
H  23.73000 0.55500 25.49800
H  29.86200 -0.40100 26.71300
H  25.94600 -0.23700 34.29700
H  24.07400 2.10900 33.72500
H  23.51100 0.04700 35.16600
H  23.37900 -0.85900 33.66600
H  22.32600 0.58700 34.00500
H  27.08400 2.44400 34.08700
H  27.46800 1.29100 35.23700
H  24.82700 2.22500 35.97500
H  26.03000 3.51500 35.74000
H  20.69200 1.89500 30.72700
H  19.85000 0.74600 29.60000
H  19.85300 2.46400 29.20300
H  19.50700 -0.04500 27.65500
H  19.03800 0.42900 25.96700
H  19.25900 1.69400 27.12900
H  26.02800 0.90100 24.34600
H  28.04400 -1.32100 25.05300
H  24.99100 -0.59800 22.99800
H  24.70300 -1.45700 24.45500
H  26.17100 -1.81900 23.53800
H  29.04600 1.67300 25.13000
H  28.01900 1.41000 23.73000
H  29.74900 -0.56700 23.24600
H  30.72600 0.44800 24.36700
H  29.98200 1.20500 22.88400
H  32.38100 0.20300 29.29200
H  31.78900 -0.78000 27.94100
H  32.08000 -1.46500 29.61200
H  29.21800 0.84200 33.85300
H  28.77200 -1.59600 37.27700
H  28.96600 -2.89600 36.27800
H  27.38300 -2.08400 36.30200
Mg 0.08100 43.85400 26.73400
C  2.34200 44.06200 29.31000
C  -2.50500 43.27600 29.04700
C  -1.85700 42.73500 24.26600
C  2.71000 44.31900 24.44700
N  -0.01700 43.75400 28.91800
C  1.00700 43.93300 29.81400
C  0.56500 43.91300 31.27200
C  -0.90400 43.36300 31.11500
C  -1.22900 43.54100 29.62400
C  -1.10400 41.99800 31.85600
C  0.71300 45.31400 32.00300
C  1.22600 45.35200 33.45500
H  0.91500 44.14600 34.20700
N  -2.00100 43.38200 26.64300
C  -2.86200 43.21600 27.69500
C  -4.17100 42.90100 27.18100
C  -4.09600 42.75500 25.79200
C  -2.60300 42.95500 25.48500
C  -5.43300 42.89800 28.11300
C  -5.08500 42.53800 24.75500
O  -4.81500 42.55900 23.55200
C  -6.50800 42.30500 25.19900
N  0.33300 43.48300 24.68000
C  -0.56000 42.89400 23.89200
C  -0.07500 42.62200 22.52400
C  1.23900 43.53900 22.49000
C  1.45900 43.82900 23.95700
C  0.23100 41.07400 22.18900
C  1.24200 44.75700 21.45300
C  1.78500 44.30900 20.04500
N  2.04200 44.11900 26.77700
C  3.04200 44.27900 25.79900
C  4.29400 44.44000 26.35100
C  4.10500 44.35700 27.73800
C  2.74700 44.11400 27.95300
C  5.54600 44.60300 25.68700
C  4.79600 44.41500 29.00100
O  5.97000 44.57700 29.29000
C  3.64800 44.21600 30.12400
C  4.03400 43.13900 31.09800
O  3.97300 41.92500 30.90500
O  4.58300 43.66500 32.16500
C  4.71000 42.65700 33.25900
H  -3.22100 43.00600 29.82600
H  -2.51800 42.11100 23.66000
H  3.46700 44.70400 23.76100
H  1.16300 43.18800 31.82400
H  -1.61400 43.96700 31.68000
H  -1.96800 42.07000 32.51600
H  -0.28000 41.65000 32.47800
H  -1.39100 41.23000 31.13800
H  -0.26900 45.78700 32.02400
H  1.40700 45.92900 31.43000
H  0.88200 46.24500 33.97700
H  2.31300 45.39900 33.38700
H  -5.27900 43.22600 29.14100
H  -5.70500 41.84300 28.13000
H  -6.25900 43.50800 27.74600
H  -7.06500 43.19900 25.47800
H  -6.47000 41.55800 25.99200
H  -7.08200 41.87600 24.37800
H  -0.83100 42.92100 21.79800
H  2.12800 42.94900 22.26900
H  1.15300 40.89300 21.63700
H  -0.65100 40.73900 21.64300
H  0.23400 40.64000 23.18900
H  1.86800 45.58500 21.78400
H  0.25200 45.21200 21.40300
H  1.27200 44.86500 19.26000
H  1.81500 43.22500 19.93600
H  2.82800 44.59300 19.90300
H  5.77400 45.65400 25.50500
H  5.46800 44.16800 24.69100
H  6.33100 44.08100 26.23500
H  3.56900 45.16900 30.64700
H  5.49900 41.92500 33.08700
H  3.80100 42.07300 33.40700
H  4.90400 43.20800 34.17900

