158

Mg 47.42800 15.87400 28.85600
C  45.46100 15.18700 31.53100
C  49.64000 17.56500 30.98700
C  49.26000 16.73500 26.08800
C  45.02500 14.42100 26.82600
N  47.44600 16.37100 30.99400
C  46.60000 15.86800 31.90200
C  46.93300 16.41600 33.32000
C  48.10700 17.38700 33.04300
C  48.48400 17.10500 31.56800
C  47.96700 18.90600 33.38500
C  47.15500 15.33800 34.35900
C  47.63700 15.74400 35.75900
H  47.02600 16.92700 36.37000
N  49.19500 17.04500 28.50400
C  49.97600 17.59100 29.55700
C  51.16900 18.15500 28.96300
C  51.05200 17.92400 27.51200
C  49.79000 17.17800 27.32300
C  52.27700 18.69500 29.78400
C  52.00100 18.43500 26.30200
O  51.70900 18.32600 25.10000
C  53.28200 19.15700 26.71400
N  47.23300 15.51100 26.77400
C  48.13300 15.90500 25.81000
C  47.56500 15.63700 24.38600
C  46.35100 14.66900 24.72100
C  46.22400 14.83200 26.24100
C  47.38400 16.80700 23.42300
C  46.68400 13.13900 24.47400
C  46.33400 12.51400 23.11600
N  45.60600 14.93600 29.10200
C  44.68200 14.47800 28.22100
C  43.67100 13.77900 28.90600
C  43.91200 14.01700 30.25400
C  45.04900 14.80300 30.30000
C  42.31700 13.16100 28.33300
C  43.45500 13.86600 31.62300
O  42.47100 13.32200 32.09900
C  44.44600 14.68700 32.49400
C  43.55100 15.75600 33.03800
O  43.07300 16.70300 32.40400
O  43.44500 15.64200 34.41200
C  42.83300 16.74600 35.15800
H  50.26400 18.13700 31.67700
H  49.92700 16.94100 25.24800
H  44.36500 13.88900 26.13800
H  46.10100 17.05400 33.61800
H  48.89500 17.09000 33.73400
H  46.89000 19.05400 33.46800
H  48.38400 19.55900 32.61800
H  48.61400 19.04900 34.25000
H  48.06300 14.89000 33.95500
H  46.48500 14.47900 34.40100
H  48.71800 15.80700 35.63300
H  47.56300 14.88300 36.42400
H  52.68000 19.68500 29.56900
H  53.00000 17.89300 29.63100
H  52.08500 18.63500 30.85600
H  52.98300 19.98200 27.36100
H  53.76800 19.51100 25.80500
H  53.92600 18.43400 27.21600
H  48.39100 15.01100 24.04900
H  45.45400 15.08200 24.26000
H  46.47200 16.64300 22.84900
H  48.16500 16.80900 22.66200
H  47.25800 17.76200 23.93200
H  46.16800 12.53000 25.21600
H  47.75500 13.01400 24.63600
H  47.09600 11.78400 22.84100
H  46.13400 13.24200 22.32900
H  45.43500 11.89800 23.09800
H  41.93000 13.65900 27.44400
H  41.51800 13.12800 29.07400
H  42.51300 12.12700 28.04800
H  44.87700 14.14600 33.33600
H  41.77300 16.49200 35.17200
H  43.10500 17.67300 34.65400
H  43.06000 16.97700 36.19900
Mg -2.26300 35.03300 26.69200
C  -3.87600 32.94900 29.16500
C  -0.77600 36.64600 29.25500
C  -1.12400 37.04800 24.39300
C  -3.95900 33.05200 24.25400
N  -2.48500 34.80100 28.99000
C  -3.08500 33.89200 29.79800
C  -2.77300 34.06500 31.24500
C  -1.76600 35.27600 31.27400
C  -1.63200 35.61500 29.73700
C  -2.28200 36.44200 32.14400
C  -2.07400 32.89700 31.87900
C  -2.72100 32.20800 33.09000
H  -1.81500 31.93800 34.26400
N  -1.11800 36.72300 26.83700
C  -0.57500 37.17500 27.95400
C  0.39700 38.20500 27.61300
C  0.33900 38.32500 26.21000
C  -0.72500 37.42300 25.75100
C  1.15300 39.09900 28.62400
C  1.14900 39.12600 25.32200
O  0.95500 39.10100 24.10900
C  2.21700 40.11100 25.81200
N  -2.59800 35.10100 24.69700
C  -1.95500 36.05100 23.90900
C  -2.13500 35.78100 22.39400
C  -2.83000 34.33900 22.32200
C  -3.07900 34.08400 23.88800
C  -2.92000 36.93900 21.64300
C  -1.90800 33.27100 21.70400
C  -0.75400 32.85700 22.54600
N  -3.74500 33.40800 26.67500
C  -4.28000 32.69200 25.61100
C  -5.07400 31.60200 26.08900
C  -4.96300 31.68000 27.49000
C  -4.09500 32.75200 27.75500
C  -5.80700 30.64100 25.25600
C  -5.31400 31.00000 28.73800
O  -6.03400 30.02700 28.99400
C  -4.64400 31.81100 29.82400
C  -5.67800 32.28000 30.77300
O  -6.24100 33.37000 30.68200
O  -5.95700 31.32800 31.76700
C  -6.72000 31.87300 32.93700
H  -0.11600 37.07600 30.01100
H  -0.64000 37.56300 23.56000
H  -4.20900 32.28900 23.51400
H  -3.74200 34.30300 31.68500
H  -0.76200 35.02400 31.61500
H  -1.76300 37.36100 31.87400
H  -1.94100 36.08900 33.11700
H  -3.37100 36.49900 32.17000
H  -1.09300 33.12900 32.29500
H  -1.87000 32.05100 31.22400
H  -3.11800 31.21500 32.87700
H  -3.59600 32.75100 33.44800
H  0.68500 40.07300 28.76700
H  2.20000 39.30600 28.40100
H  1.09500 38.62200 29.60200
H  2.62500 40.76500 25.04200
H  3.04100 39.63900 26.34800
H  1.75700 40.80900 26.51100
H  -1.09000 35.65400 22.11200
H  -3.65300 34.48000 21.62200
H  -2.99600 37.78200 22.33000
H  -3.95700 36.65900 21.45800
H  -2.39000 37.45300 20.84200
H  -1.45200 33.57900 20.76400
H  -2.59300 32.43700 21.55200
H  -0.81900 31.77600 22.66300
H  -0.81400 33.43900 23.46600
H  0.20200 33.00200 22.04300
H  -5.19600 30.35300 24.40100
H  -6.69400 31.20500 24.96800
H  -6.04300 29.75800 25.84900
H  -3.91800 31.22300 30.38700
H  -6.18100 32.70200 33.39500
H  -6.91100 31.02700 33.59700
H  -7.73600 32.23300 32.77400

