158

Mg 8.45600 3.29900 27.38500
C  9.75700 1.76000 30.33000
C  6.71900 5.39800 29.43800
C  7.21700 4.61300 24.58300
C  9.94700 0.65000 25.56100
N  8.42600 3.62800 29.59900
C  9.00700 2.86600 30.62900
C  8.80700 3.59200 32.04800
C  7.76000 4.66300 31.63000
C  7.60800 4.55900 30.09700
C  6.42900 4.60900 32.40900
C  10.27000 3.96200 32.68900
C  10.27300 4.99900 33.79900
H  10.52600 4.47800 35.19100
N  7.14700 4.85700 27.05300
C  6.43900 5.57900 28.07200
C  5.56000 6.54300 27.38400
C  5.73900 6.34900 25.93800
C  6.74000 5.24300 25.81200
C  4.94000 7.71600 28.09900
C  5.20300 7.15800 24.79300
O  5.37900 6.82500 23.59700
C  4.37200 8.44600 25.06600
N  8.74300 2.84900 25.28600
C  8.10800 3.54200 24.30700
C  8.24000 2.80700 22.93700
C  9.17300 1.64300 23.29900
C  9.31500 1.66900 24.80400
C  6.87900 2.24500 22.43700
C  10.57100 1.63100 22.58800
C  10.65700 0.67100 21.37000
N  9.66800 1.61800 27.81400
C  10.09700 0.60400 26.99100
C  10.73700 -0.52500 27.75000
C  10.66400 -0.01600 29.05800
C  9.89800 1.19700 29.07700
C  11.51300 -1.65800 27.15800
C  11.07700 -0.33700 30.37500
O  11.87300 -1.16900 30.84000
C  10.49300 0.80900 31.27500
C  9.57000 0.05200 32.28400
O  8.61500 -0.64700 31.97600
O  9.99200 0.25800 33.57100
C  9.19700 -0.41700 34.68700
H  6.13600 6.02700 30.11300
H  6.82700 5.12100 23.69800
H  10.19300 -0.28700 25.05700
H  8.40000 2.90900 32.79200
H  8.23300 5.62000 31.84900
H  6.21400 5.57100 32.87400
H  6.46700 3.83100 33.17200
H  5.55800 4.45100 31.77200
H  11.03500 4.17700 31.94300
H  10.54600 3.05900 33.23500
H  9.26100 5.40400 33.80400
H  11.03500 5.75800 33.62200
H  5.36700 7.62000 29.09700
H  3.86100 7.57600 28.04000
H  5.35500 8.64100 27.69800
H  5.10300 9.15000 25.46500
H  3.56900 8.15800 25.74400
H  3.98300 8.76200 24.09800
H  8.66000 3.48300 22.19300
H  8.64700 0.71400 23.08000
H  6.35400 1.87500 23.31800
H  7.16300 1.35200 21.87900
H  6.18500 2.88400 21.89200
H  11.32300 1.31000 23.31000
H  10.89200 2.62400 22.27300
H  9.67300 0.65900 20.90300
H  10.82100 -0.33800 21.75000
H  11.43900 1.00400 20.68800
H  12.27500 -1.24200 26.49900
H  10.79300 -2.27700 26.62300
H  12.01000 -2.31400 27.87200
H  11.35300 1.24600 31.78300
H  8.88900 0.41500 35.32000
H  9.77200 -1.09400 35.31800
H  8.35100 -1.05300 34.42400
Mg 23.06500 -7.50300 46.22200
C  25.72900 -5.33600 44.86600
C  20.87100 -5.89200 44.27700
C  21.04600 -10.14300 46.58600
C  25.73100 -9.33600 47.75900
N  23.28500 -5.79000 44.78000
C  24.42600 -5.06000 44.35000
C  23.99500 -3.97900 43.25800
C  22.43200 -4.06700 43.27600
C  22.15500 -5.36600 44.07900
C  21.74600 -2.93900 43.93800
C  24.75900 -4.13300 41.84200
C  24.72200 -2.80700 40.98600
H  23.93300 -2.77800 39.64000
N  21.19700 -7.92600 45.56100
C  20.38100 -7.11500 44.84400
C  19.15700 -7.76600 44.44500
C  19.11900 -8.95400 45.26500
C  20.50300 -9.09800 45.79200
C  18.09400 -7.12900 43.56400
C  17.94700 -9.97200 45.39300
O  16.90000 -9.84200 44.68700
C  18.00000 -11.09000 46.36800
N  23.36600 -9.39900 46.98600
C  22.29600 -10.25900 47.13400
C  22.68600 -11.55800 47.91000
C  24.21600 -11.29000 48.18400
C  24.51200 -9.95100 47.50700
C  21.89300 -11.84100 49.18700
C  25.08200 -12.55200 47.88700
C  26.35300 -12.70800 48.70700
N  25.28100 -7.29700 46.49600
C  26.17000 -8.12200 47.19600
C  27.49200 -7.55400 47.06500
C  27.39100 -6.48300 46.17800
C  25.99700 -6.41800 45.77100
C  28.73500 -8.08000 47.64600
C  28.13300 -5.32000 45.62500
O  29.24900 -4.91100 45.87700
C  27.07900 -4.62200 44.62100
C  27.14900 -3.22700 45.09100
O  26.54400 -2.89700 46.11100
O  27.64900 -2.36500 44.12700
C  27.70300 -0.91700 44.50400
H  20.18100 -5.15800 43.85700
H  20.40800 -11.02200 46.69900
H  26.53200 -9.93200 48.20000
H  24.30100 -2.97700 43.55900
H  22.04000 -4.21300 42.26900
H  22.45400 -2.58900 44.68900
H  20.86400 -3.11000 44.55500
H  21.65700 -2.16500 43.17600
H  24.24900 -4.98000 41.38400
H  25.79400 -4.45800 41.94800
H  25.77500 -2.85800 40.70700
H  24.55100 -1.95700 41.64600
H  18.16300 -7.77300 42.68700
H  18.29600 -6.07200 43.38900
H  17.08400 -7.20200 43.96600
H  18.36300 -10.75300 47.33900
H  18.58700 -11.91300 45.96000
H  17.01800 -11.53800 46.52400
H  22.61900 -12.28000 47.09700
H  24.32900 -11.14100 49.25800
H  22.48000 -11.59500 50.07200
H  21.60800 -12.89100 49.12400
H  20.98800 -11.23500 49.13800
H  25.27100 -12.43000 46.82000
H  24.50600 -13.44900 48.11500
H  27.16200 -12.79900 47.98300
H  26.41200 -13.49100 49.46300
H  26.62300 -11.79400 49.23700
H  29.49600 -8.15600 46.87000
H  28.57600 -9.02100 48.17200
H  29.06900 -7.45400 48.47400
H  27.37600 -4.70400 43.57600
H  28.70300 -0.61900 44.81800
H  27.00100 -0.71300 45.31300
H  27.39600 -0.40100 43.59500

