158

Mg 44.83900 4.24500 46.83600
C  43.34400 7.51100 46.55900
C  41.86700 3.01500 45.49000
C  46.42700 1.43000 46.36500
C  47.84300 5.92000 47.54300
N  42.90100 5.19700 45.97800
C  42.46400 6.46300 46.09000
C  40.99300 6.60100 45.85600
C  40.56300 5.19900 45.40200
C  41.85300 4.39900 45.65800
C  39.30800 4.55500 46.11000
C  40.53500 7.69500 44.84400
C  41.44400 7.96800 43.63900
H  40.96600 7.63400 42.20200
N  44.21600 2.44900 46.18500
C  42.93400 2.12000 45.63000
C  42.91300 0.75700 45.23800
C  44.25900 0.30400 45.28100
C  45.01900 1.37500 45.98700
C  41.65000 0.15700 44.66900
C  44.80300 -0.97800 44.74700
O  44.06700 -1.77600 44.19300
C  46.24500 -1.42000 44.79500
N  46.77600 3.72500 47.18600
C  47.20500 2.44000 46.96100
C  48.68300 2.22500 47.33900
C  49.19300 3.67300 47.42200
C  47.90000 4.52000 47.39600
C  48.87400 1.28400 48.64900
C  50.08600 4.09600 46.22000
C  51.62500 4.49000 46.39700
N  45.56400 6.29100 46.98100
C  46.78000 6.82900 47.40000
C  46.72300 8.27800 47.43700
C  45.38100 8.58100 47.20800
C  44.71200 7.38200 46.89800
C  47.82200 9.18900 47.76000
C  44.43000 9.66900 47.12100
O  44.58600 10.87900 47.29600
C  43.05800 9.03500 46.72800
C  42.12700 9.15000 47.87500
O  41.95600 8.43100 48.85100
O  41.25200 10.21300 47.54400
C  40.06900 10.35400 48.32700
H  40.91000 2.63400 45.12800
H  47.00700 0.52600 46.16900
H  48.80900 6.41300 47.67000
H  40.64900 6.91700 46.84100
H  40.37300 5.13900 44.33000
H  38.78800 5.26400 46.75400
H  39.69100 3.89100 46.88500
H  38.62700 4.12500 45.37600
H  40.50100 8.67500 45.32000
H  39.54100 7.45700 44.46500
H  42.31300 7.31500 43.71600
H  41.75600 9.01100 43.69600
H  41.15900 -0.33300 45.51000
H  41.74800 -0.54500 43.84100
H  40.99300 0.92900 44.26800
H  46.52500 -1.79400 45.78000
H  46.86600 -0.57400 44.50000
H  46.43400 -2.02100 43.90600
H  49.23800 1.72500 46.54600
H  49.74800 3.73000 48.35800
H  48.10000 0.51800 48.60700
H  48.74300 1.87700 49.55400
H  49.87900 0.86500 48.58900
H  49.61900 4.97600 45.77900
H  50.03500 3.33800 45.43900
H  52.30100 3.84100 45.83900
H  51.89800 4.58400 47.44800
H  51.74100 5.43300 45.86300
H  48.45400 9.45600 46.91200
H  48.55200 8.76900 48.45300
H  47.40500 10.07200 48.24400
H  42.67100 9.45700 45.80000
H  39.40200 11.10000 47.89500
H  40.38600 10.62500 49.33400
H  39.63600 9.36400 48.47100
Mg -1.80100 35.16400 26.27600
C  -3.86500 33.75100 28.91200
C  -0.93100 37.66000 28.59800
C  -0.30500 36.96800 23.81300
C  -3.33500 33.05700 24.05000
N  -2.43000 35.66000 28.53100
C  -3.16500 34.82900 29.40200
C  -3.24200 35.45200 30.73400
C  -2.34100 36.72800 30.71100
C  -1.94400 36.76300 29.16000
C  -3.00200 37.97200 31.31500
C  -3.05700 34.40000 31.90400
C  -2.55300 34.99800 33.23400
H  -3.24800 34.44700 34.51000
N  -0.64900 36.98700 26.20000
C  -0.32300 37.76800 27.29400
C  0.59200 38.83400 26.79600
C  0.75300 38.63500 25.41200
C  -0.07900 37.50100 25.08300
C  1.13200 39.88200 27.77600
C  1.75800 39.34200 24.35300
O  1.66600 39.12500 23.16400
C  2.81000 40.33200 24.82500
N  -1.95400 35.07800 24.18100
C  -1.15500 35.82800 23.41700
C  -1.12400 35.28300 21.98100
C  -1.96000 34.04300 21.96700
C  -2.43400 33.98500 23.48700
C  -1.23500 36.34300 20.84700
C  -1.13200 32.83400 21.53000
C  -1.99200 31.60100 21.13800
N  -3.23600 33.60700 26.41500
C  -3.74600 32.82100 25.38300
C  -4.71400 31.88800 25.94900
C  -4.77700 32.23000 27.34600
C  -3.82200 33.20800 27.58000
C  -5.39600 30.73500 25.28100
C  -5.37300 31.85200 28.55200
O  -6.23400 30.99300 28.77800
C  -4.73900 32.76600 29.63200
C  -5.92100 33.44700 30.28600
O  -6.56300 34.36500 29.83000
O  -6.14800 32.84300 31.54600
C  -7.27400 33.27900 32.36800
H  -0.53000 38.30400 29.38300
H  0.19700 37.34200 22.91900
H  -3.68200 32.27800 23.36700
H  -4.29600 35.72700 30.76100
H  -1.37400 36.54000 31.17800
H  -2.26000 38.46100 31.94600
H  -3.84900 37.73500 31.96000
H  -3.35500 38.66600 30.55200
H  -2.31000 33.66900 31.59400
H  -3.98500 33.88800 32.15900
H  -2.77800 36.06300 33.28100
H  -1.48100 34.80000 33.21400
H  0.82200 40.85400 27.39000
H  2.22000 39.87500 27.71900
H  0.84600 39.93400 28.82600
H  3.48600 40.50800 23.98800
H  3.41600 39.90600 25.62400
H  2.38900 41.31400 25.04000
H  -0.05400 35.09700 21.89600
H  -2.93800 34.04000 21.48500
H  -1.82900 35.93600 20.02900
H  -0.27500 36.71500 20.49000
H  -1.78400 37.19700 21.24300
H  -0.58500 32.43200 22.38300
H  -0.43900 33.09700 20.73000
H  -1.55700 31.19400 20.22500
H  -3.03200 31.91100 21.03600
H  -1.95200 30.85400 21.93100
H  -4.53300 30.39600 24.70700
H  -6.18700 30.98300 24.57200
H  -5.62000 29.97000 26.02400
H  -4.17700 32.18200 30.36100
H  -8.05800 33.57300 31.67100
H  -6.91700 34.14100 32.93200
H  -7.58400 32.43300 32.98100

