158

Mg -1.18700 17.55200 25.45900
C  -1.69300 15.28300 28.15200
C  -1.63400 20.10900 27.63500
C  -0.80800 19.57400 22.79800
C  -0.83200 14.82700 23.42200
N  -1.78500 17.62200 27.67700
C  -1.65300 16.64000 28.62800
C  -1.68700 17.19500 30.07000
C  -1.75500 18.75200 29.82600
C  -1.71100 18.83300 28.24500
C  -2.96000 19.37000 30.45500
C  -0.55900 16.75100 31.00300
C  -0.45900 17.46300 32.40300
H  -0.25600 16.69900 33.68200
N  -1.19700 19.62300 25.20800
C  -1.38700 20.50900 26.23300
C  -1.24000 21.84600 25.73400
C  -0.99600 21.73600 24.27500
C  -0.93300 20.30900 24.02200
C  -1.52700 23.02600 26.64600
C  -0.87000 22.78300 23.24400
O  -0.87700 22.40100 22.07800
C  -0.66600 24.30500 23.61600
N  -1.03600 17.27800 23.38500
C  -0.85500 18.23700 22.50100
C  -0.56100 17.62500 21.08500
C  -0.18200 16.13700 21.41600
C  -0.69600 16.10000 22.82400
C  -1.83200 17.73200 20.16300
C  1.26800 15.70800 21.17400
C  2.16300 15.39600 22.39200
N  -1.40400 15.45200 25.61100
C  -1.30300 14.50200 24.68300
C  -1.49200 13.17400 25.22600
C  -1.60300 13.41600 26.57900
C  -1.59800 14.81400 26.77700
C  -1.41900 11.85000 24.50100
C  -1.58100 12.79400 27.88600
O  -1.61000 11.60000 28.21800
C  -1.64700 13.90100 28.91700
C  -0.36500 13.71700 29.69200
O  0.75800 14.01200 29.38600
O  -0.70200 13.24600 30.96700
C  0.29900 13.23100 32.02700
H  -1.96800 20.92800 28.27500
H  -0.69300 20.17800 21.89500
H  -0.77500 13.97700 22.73900
H  -2.61400 16.81000 30.49400
H  -0.84100 19.22200 30.18900
H  -3.58100 18.73000 31.08200
H  -3.56700 19.73900 29.62800
H  -2.74400 20.17200 31.16100
H  0.33100 17.02200 30.43500
H  -0.76600 15.69600 31.18000
H  -1.27500 18.13700 32.66600
H  0.41600 18.11200 32.36700
H  -0.64500 23.56800 26.98700
H  -1.98200 22.88900 27.62700
H  -2.18100 23.67200 26.06000
H  -0.01000 24.21700 24.48200
H  -1.67300 24.62900 23.87800
H  -0.19300 24.89300 22.82900
H  0.23500 18.07700 20.49300
H  -0.78500 15.42700 20.85000
H  -2.25400 16.74000 20.00000
H  -1.54900 18.19100 19.21600
H  -2.52000 18.37200 20.71500
H  1.74100 16.52700 20.63200
H  1.11600 14.79700 20.59500
H  1.76900 15.16700 23.38200
H  2.77000 16.28900 22.54400
H  2.85600 14.60300 22.10900
H  -1.78500 11.90600 23.47600
H  -1.90200 11.05100 25.06200
H  -0.38700 11.49900 24.47000
H  -2.47100 13.64200 29.58200
H  0.77200 14.21300 32.05400
H  0.98200 12.39800 31.86700
H  -0.15500 13.07800 33.00700
Mg 9.31100 48.68900 27.50800
C  7.35600 47.98900 30.32300
C  11.92900 49.28100 29.57800
C  11.20100 49.23200 24.76500
C  6.56000 48.49600 25.42500
N  9.58100 48.74100 29.75900
C  8.66300 48.39800 30.72500
C  9.26100 48.55800 32.11500
C  10.64200 49.41100 31.78400
C  10.74600 49.19600 30.28600
C  10.73300 50.84400 32.32000
C  9.53300 47.20800 32.82600
C  10.37800 47.16800 34.15100
H  10.10300 46.10800 35.25900
N  11.35800 49.08300 27.21200
C  12.29600 49.28800 28.17200
C  13.53800 49.48600 27.58200
C  13.35400 49.55600 26.16900
C  11.91000 49.27100 25.99200
C  14.74100 49.72600 28.37700
C  14.31600 49.71600 24.99900
O  14.06700 49.53200 23.78500
C  15.77400 49.96100 25.38200
N  8.90500 48.93500 25.30100
C  9.82200 49.03900 24.39400
C  9.25800 49.31900 23.03700
C  7.86600 48.75600 23.23600
C  7.72300 48.64900 24.72500
C  9.34400 50.78600 22.58800
C  7.46800 47.45400 22.41000
C  6.08100 47.50000 21.81700
N  7.41900 48.34700 27.76500
C  6.32800 48.31900 26.83000
C  5.13400 47.91000 27.49300
C  5.46400 47.81600 28.89900
C  6.87200 48.03200 28.94600
C  3.72900 47.79800 26.95800
C  4.97800 47.46300 30.20600
O  3.83500 47.08800 30.52100
C  6.24200 47.58000 31.21000
C  6.40800 46.33500 31.97000
O  6.77000 45.21600 31.55000
O  6.13800 46.61700 33.29000
C  6.48400 45.49100 34.13500
H  12.71800 49.49400 30.30200
H  11.78000 49.42500 23.86000
H  5.60900 48.39600 24.89800
H  8.50300 49.03600 32.73500
H  11.46600 48.87300 32.25400
H  9.82300 51.07800 32.87300
H  10.85500 51.49900 31.45700
H  11.56900 50.97000 33.00800
H  10.03100 46.62700 32.04900
H  8.59600 46.71300 33.08200
H  10.26900 48.11900 34.67300
H  11.41200 46.96400 33.87500
H  14.50100 49.68200 29.44000
H  15.27100 50.64200 28.11900
H  15.41700 48.89100 28.19200
H  15.83900 50.89200 25.94500
H  16.42500 50.07800 24.51500
H  16.14400 49.15400 26.01400
H  9.73600 48.83800 22.18300
H  7.17300 49.52400 22.89100
H  9.94600 50.80400 21.67900
H  9.75900 51.36200 23.41500
H  8.33600 51.15600 22.40000
H  7.58400 46.58000 23.05100
H  8.21600 47.47400 21.61700
H  6.15600 47.39400 20.73400
H  5.56700 48.45400 21.92600
H  5.50700 46.60500 22.05700
H  3.65000 48.10000 25.91300
H  2.96700 48.31500 27.54200
H  3.48800 46.73700 27.02200
H  6.10200 48.42100 31.88900
H  7.50500 45.14100 33.98100
H  5.78000 44.66300 34.05000
H  6.35800 45.81600 35.16800

