158

Mg 24.42400 -5.67200 45.61800
C  26.35600 -3.18500 44.17300
C  21.91200 -4.74800 43.47600
C  22.82000 -8.63000 46.25400
C  27.28100 -6.87400 47.30300
N  24.19000 -4.12900 43.94300
C  25.05100 -3.12200 43.72100
C  24.46600 -2.00100 42.78200
C  22.97500 -2.49200 42.63800
C  22.99400 -3.92000 43.42400
C  21.83700 -1.54900 43.21300
C  25.33800 -1.72100 41.47100
C  25.44900 -0.30800 40.81000
H  24.79800 -0.16300 39.42500
N  22.54500 -6.53000 45.01300
C  21.68300 -5.94800 44.18900
C  20.48000 -6.74200 44.11700
C  20.63300 -7.82600 45.08200
C  22.05200 -7.70400 45.53700
C  19.34700 -6.31200 43.33400
C  19.53200 -8.75200 45.52000
O  18.34400 -8.52000 45.20800
C  19.89900 -9.79000 46.54700
N  24.90600 -7.47100 46.63500
C  24.07000 -8.56400 46.78600
C  24.81400 -9.77500 47.43100
C  26.09600 -9.08500 47.95800
C  26.11900 -7.68200 47.29100
C  23.92200 -10.46400 48.46100
C  27.32800 -9.97700 47.66300
C  28.19300 -10.08300 48.93000
N  26.39200 -5.12600 45.84600
C  27.40500 -5.61400 46.65000
C  28.64700 -4.90800 46.41700
C  28.24600 -3.90300 45.49900
C  26.87100 -4.08200 45.16000
C  29.98600 -5.18000 47.10100
C  28.72200 -2.72700 44.75600
O  29.86200 -2.29800 44.66500
C  27.57700 -2.22800 43.87500
C  27.33700 -0.84500 44.40700
O  26.54000 -0.54800 45.28100
O  27.92600 0.08000 43.61900
C  27.39800 1.48500 43.64600
H  21.09600 -4.43100 42.82400
H  22.41000 -9.58500 46.59100
H  28.21600 -7.21800 47.75000
H  24.41100 -1.14300 43.45300
H  22.74600 -2.83900 41.63000
H  22.38600 -0.62700 43.40500
H  21.36400 -1.91100 44.12600
H  21.00500 -1.37500 42.53000
H  24.75800 -2.23800 40.70600
H  26.30100 -2.20600 41.62700
H  26.46400 0.06200 40.66500
H  24.81100 0.29300 41.45800
H  18.64600 -7.09400 43.04200
H  19.66000 -5.80800 42.41900
H  18.88800 -5.51100 43.91400
H  19.06400 -10.26600 47.06000
H  20.49900 -9.52800 47.41900
H  20.51500 -10.56000 46.08300
H  25.11000 -10.50200 46.67400
H  26.04400 -8.95400 49.03900
H  22.94700 -9.98200 48.52300
H  24.20700 -10.56700 49.50800
H  23.62500 -11.47000 48.16300
H  27.94000 -9.45700 46.92600
H  27.03800 -10.97000 47.32100
H  28.47500 -9.06500 49.19700
H  29.15800 -10.51300 48.66200
H  27.68100 -10.64000 49.71400
H  30.63900 -4.30800 47.09000
H  30.54000 -6.08800 46.86400
H  29.75000 -5.45100 48.13000
H  27.95600 -2.24400 42.85300
H  28.24500 2.10300 43.94500
H  26.68900 1.70600 44.44400
H  27.07200 1.78000 42.64900
Mg 43.76600 4.88300 47.75500
C  41.66700 7.80600 47.57300
C  40.91400 2.97500 47.67900
C  45.65700 2.35100 47.08600
C  46.42200 7.06900 47.11100
N  41.61900 5.36200 47.51900
C  40.99800 6.60400 47.58000
C  39.45700 6.49700 47.48800
C  39.26900 4.88700 47.65100
C  40.71000 4.34600 47.69300
C  38.43200 4.45100 48.86100
C  38.72100 7.09800 46.25200
C  39.37600 6.96200 44.85800
H  39.56700 8.25300 43.95700
N  43.37300 2.89600 47.50900
C  42.14300 2.29000 47.54900
C  42.22500 0.85200 47.35900
C  43.66100 0.64700 47.00500
C  44.28500 2.01900 47.13400
C  41.06800 -0.10500 47.35800
C  44.26200 -0.62700 46.65800
O  43.60000 -1.67300 46.62400
C  45.74700 -0.71000 46.26800
N  45.73200 4.73000 47.16600
C  46.34600 3.53600 47.09400
C  47.87900 3.58600 46.83700
C  48.04200 5.09100 46.60700
C  46.63600 5.66600 46.97400
C  48.73900 3.01700 47.95300
C  48.59200 5.48200 45.20600
C  50.10300 5.87700 45.06200
N  44.04900 7.03600 47.61900
C  45.19500 7.69900 47.39000
C  44.97700 9.11900 47.49200
C  43.57400 9.22800 47.58900
C  43.04800 7.94900 47.55200
C  46.05200 10.21900 47.33800
C  42.43900 10.09600 47.68400
O  42.31200 11.36800 47.70500
C  41.17100 9.20900 47.55200
C  40.22100 9.49000 48.65100
O  40.30700 8.99000 49.72800
O  39.30000 10.36400 48.24800
C  38.39800 10.75300 49.36000
H  39.96900 2.43500 47.77000
H  46.43600 1.60500 46.91600
H  47.30000 7.70400 46.98200
H  39.08500 7.09200 48.32200
H  38.73400 4.48400 46.79100
H  39.08100 3.96300 49.58800
H  37.73800 3.65400 48.59400
H  37.95700 5.29100 49.36800
H  38.49300 8.13900 46.47700
H  37.70300 6.74600 46.08400
H  38.84200 6.12800 44.40100
H  40.41900 6.66500 44.96400
H  40.11300 0.41500 47.42900
H  41.17600 -0.77200 48.21300
H  41.15500 -0.67300 46.43100
H  46.42100 -0.56300 47.11200
H  46.11200 -0.09600 45.44500
H  46.12400 -1.66400 45.90100
H  47.88700 2.98800 45.92600
H  48.61200 5.47000 47.45500
H  49.18200 2.13100 47.49800
H  48.17600 2.65600 48.81300
H  49.52800 3.68700 48.29400
H  48.03200 6.30100 44.75600
H  48.42000 4.61200 44.57100
H  50.52200 5.21100 44.30800
H  50.59700 5.83800 46.03300
H  50.06500 6.90900 44.71400
H  46.74300 10.16500 48.17900
H  45.58900 11.20100 47.24000
H  46.62000 9.95100 46.44800
H  40.81900 9.43900 46.54600
H  37.75300 9.97400 49.76700
H  37.71700 11.46300 48.89100
H  38.97100 11.23600 50.15200

