158

Mg 43.81100 3.66900 46.77500
C  41.86900 6.62300 46.31100
C  40.83600 1.88400 46.87100
C  45.68700 0.91200 46.22600
C  46.63300 5.66700 46.01200
N  41.59300 4.21900 46.49400
C  41.05100 5.48100 46.41800
C  39.55400 5.46000 46.88900
C  39.37100 3.93700 47.29400
C  40.61100 3.28700 46.86900
C  39.08400 3.72200 48.79700
C  38.52000 5.90400 45.76500
C  38.72900 5.60600 44.25500
H  38.97400 6.81900 43.35400
N  43.36900 1.68900 46.64900
C  42.05000 1.13700 46.70300
C  42.25700 -0.30800 46.69700
C  43.60400 -0.63700 46.66200
C  44.30200 0.67600 46.55000
C  41.04200 -1.20800 46.84700
C  44.20600 -1.97200 46.89200
O  43.52200 -2.99800 47.03500
C  45.68800 -2.20900 47.09300
N  45.81000 3.30500 46.11000
C  46.35400 2.07900 46.12200
C  47.87200 2.15400 45.66800
C  48.17300 3.65900 45.66900
C  46.78700 4.29400 45.92900
C  48.75900 1.40600 46.69200
C  48.81700 4.07800 44.31600
C  50.30000 3.80600 44.16400
N  44.24100 5.72600 46.19900
C  45.41500 6.37100 46.06300
C  45.20000 7.77800 45.98900
C  43.83000 7.96800 46.09200
C  43.26500 6.67800 46.25500
C  46.27700 8.84400 45.69800
C  42.79300 8.98000 46.06400
O  42.92400 10.19300 46.04300
C  41.40300 8.11400 46.17900
C  40.60600 8.59800 47.34600
O  40.68400 8.24300 48.51300
O  39.58900 9.41500 46.85800
C  38.73400 9.95300 47.92100
H  39.96100 1.30000 47.16400
H  46.24100 -0.02400 46.12600
H  47.47400 6.35700 45.92400
H  39.37600 6.06900 47.77600
H  38.57600 3.39800 46.77800
H  40.04400 3.87500 49.28900
H  38.83800 2.68000 49.00400
H  38.32100 4.43100 49.11800
H  38.41700 6.98900 45.73200
H  37.53200 5.54200 46.04900
H  37.82300 5.14300 43.86200
H  39.57800 4.92400 44.22500
H  40.25200 -0.77100 47.45800
H  41.24400 -2.20400 47.24200
H  40.56800 -1.30000 45.87000
H  46.26200 -1.41000 47.56400
H  46.14100 -2.27000 46.10400
H  45.89000 -3.06300 47.74000
H  47.83500 1.78600 44.64200
H  48.87300 4.02900 46.41700
H  49.08900 0.50400 46.17800
H  48.14300 1.11400 47.54200
H  49.68700 1.94200 46.89300
H  48.66900 5.14900 44.17700
H  48.28500 3.61900 43.48200
H  50.80200 4.76000 44.00300
H  50.46800 3.21500 43.26400
H  50.74300 3.24500 44.98800
H  46.61600 8.57700 44.69700
H  47.08700 8.78500 46.42500
H  46.01900 9.87700 45.92900
H  40.87600 8.12800 45.22500
H  39.20900 10.89300 48.20000
H  38.61600 9.37500 48.83700
H  37.72500 10.17600 47.57200
Mg 53.89500 23.68600 43.43300
C  51.14300 25.76100 42.82500
C  52.20300 21.12000 42.03900
C  56.89100 22.01600 43.18700
C  55.76800 26.52500 44.63200
N  51.92000 23.53500 42.55800
C  50.96400 24.50200 42.49200
C  49.66200 23.93400 41.79100
C  49.93800 22.36500 41.84800
C  51.42600 22.29100 42.18000
C  49.12800 21.52800 42.87000
C  49.27100 24.49900 40.35100
C  50.46600 24.73100 39.31400
H  50.07700 25.19000 37.88500
N  54.35300 21.78500 42.79700
C  53.54000 20.88500 42.27400
C  54.25200 19.61400 42.08400
C  55.65200 19.82300 42.44200
C  55.68500 21.30800 42.76800
C  53.53000 18.39900 41.48500
C  56.70300 18.67900 42.46500
O  56.25700 17.52800 42.40000
C  58.11000 18.90100 42.63900
N  56.01400 24.28200 43.69900
C  57.06000 23.32000 43.56000
C  58.46100 23.96100 43.96100
C  58.06100 25.39600 44.44400
C  56.49200 25.42600 44.24900
C  59.15300 23.10700 45.10200
C  58.88800 26.52600 43.66200
C  60.29900 26.84200 44.20400
N  53.56800 25.72800 43.82700
C  54.39500 26.76100 44.33100
C  53.55400 27.99400 44.47800
C  52.32000 27.70400 43.87400
C  52.38900 26.28900 43.40500
C  53.91600 29.25900 45.13400
C  50.96800 28.18200 43.51300
O  50.53200 29.30100 43.71000
C  50.13300 26.95200 42.95200
C  49.69000 27.36000 41.60100
O  50.40100 27.80900 40.63500
O  48.30000 27.46600 41.68000
C  47.75900 28.19900 40.59500
H  51.66600 20.20000 41.80100
H  57.70400 21.28900 43.13200
H  56.40100 27.33100 45.01100
H  48.93800 24.19300 42.56300
H  49.84700 21.82100 40.90800
H  48.13500 21.42000 42.43400
H  48.83000 22.07800 43.76300
H  49.61500 20.60000 43.17200
H  48.63200 25.36200 40.16100
H  48.60000 23.76500 39.90500
H  51.11300 23.85400 39.32300
H  51.02500 25.57500 39.71700
H  53.80700 18.30100 40.43500
H  52.44700 18.35400 41.59100
H  53.80600 17.44400 41.93000
H  58.50900 19.20600 43.60600
H  58.46500 19.67200 41.95400
H  58.58800 17.98600 42.29200
H  59.14900 23.97300 43.11600
H  58.27500 25.46500 45.51000
H  59.84400 22.46000 44.56200
H  58.33900 22.57400 45.59300
H  59.66000 23.66600 45.88800
H  58.28300 27.43200 43.63100
H  58.89300 26.20800 42.61900
H  61.10000 26.28600 43.71700
H  60.24600 26.60200 45.26600
H  60.56400 27.90000 44.20700
H  53.26200 29.46100 45.98200
H  53.87200 30.01100 44.34600
H  54.93400 29.14000 45.50600
H  49.26100 26.73500 43.56800
H  46.71100 28.34000 40.85800
H  47.75000 27.58200 39.69700
H  48.22300 29.18500 40.56200

