158

Mg 54.71700 23.58900 45.30400
C  52.22500 25.77500 44.20900
C  52.90700 21.00100 44.03300
C  57.58000 21.71200 45.34800
C  56.73300 26.50500 46.11000
N  52.71400 23.46200 44.30100
C  51.88400 24.37400 43.93000
C  50.60600 23.90800 43.23700
C  50.74300 22.37400 43.56800
C  52.19300 22.22600 44.05900
C  49.69800 21.92300 44.70500
C  50.44100 24.22300 41.71900
C  49.11000 24.82600 41.26000
H  48.51200 24.17800 40.05100
N  55.14500 21.54000 44.92100
C  54.25600 20.64900 44.40300
C  54.96800 19.39000 44.21300
C  56.31800 19.54200 44.62100
C  56.40400 20.97900 44.99300
C  54.32300 18.24100 43.60500
C  57.29100 18.45700 44.50900
O  56.93800 17.27300 44.25600
C  58.72100 18.76100 44.80000
N  56.82000 23.96700 45.76900
C  57.78600 23.08400 45.67400
C  59.13400 23.66500 46.08600
C  58.86100 25.15400 46.47900
C  57.36200 25.22900 46.12200
C  59.89500 22.91900 47.26000
C  59.84000 26.09900 45.86900
C  60.56900 27.02000 46.92200
N  54.55200 25.72400 45.30800
C  55.39000 26.72700 45.80000
C  54.65000 27.98600 45.80800
C  53.40400 27.69000 45.15100
C  53.44800 26.28600 44.79500
C  55.10800 29.35300 46.27200
C  52.07100 28.22800 44.79100
O  51.57000 29.29800 45.05300
C  51.30300 27.04200 44.04300
C  51.10500 27.52700 42.71500
O  52.00400 27.58100 41.92100
O  49.85900 27.99800 42.49300
C  49.76700 28.56000 41.11700
H  52.37300 20.15500 43.59500
H  58.51300 21.14900 45.41600
H  57.32300 27.41100 46.26200
H  49.75800 24.38400 43.73100
H  50.69300 21.80200 42.64100
H  50.18800 21.36200 45.50200
H  48.97900 21.33200 44.13700
H  49.24400 22.81800 45.13100
H  50.76400 23.40500 41.07500
H  51.09300 25.06800 41.49800
H  49.20300 25.88500 41.01800
H  48.45000 24.63900 42.10700
H  54.91800 17.84000 42.78500
H  53.36900 18.56700 43.18900
H  54.01100 17.52900 44.36900
H  58.97600 19.46800 44.01100
H  59.27200 17.82400 44.71800
H  59.04300 18.98900 45.81600
H  59.72300 23.50500 45.18300
H  59.05600 25.26100 47.54600
H  60.86600 22.55800 46.92200
H  59.34200 21.99100 47.40900
H  60.04000 23.49800 48.17200
H  59.35800 26.81900 45.20800
H  60.67700 25.64400 45.34000
H  61.63100 26.79500 46.82300
H  60.05600 26.96000 47.88100
H  60.56800 28.08700 46.70100
H  54.81000 29.45000 47.31600
H  54.66700 30.12400 45.63800
H  56.17600 29.57200 46.27600
H  50.33600 26.96800 44.54100
H  48.82700 29.06600 40.89500
H  49.86400 27.72100 40.42800
H  50.54500 29.30900 40.96900
Mg 48.38500 34.74100 26.71000
C  46.21800 33.54500 29.23300
C  48.79000 37.74900 28.61400
C  49.74500 36.32200 24.08300
C  47.36800 31.99800 24.80200
N  47.65800 35.47800 28.65400
C  46.93600 34.69400 29.55100
C  47.03200 35.34300 30.97500
C  47.45300 36.82600 30.68100
C  47.99300 36.72700 29.22400
C  46.37200 37.89000 30.94700
C  47.99800 34.61500 31.90100
C  47.92300 34.89100 33.35400
H  46.82400 35.83500 33.87600
N  49.26300 36.73700 26.38200
C  49.31800 37.82000 27.33300
C  50.15200 38.81900 26.74800
C  50.36500 38.42100 25.42400
C  49.79100 37.12000 25.25100
C  50.49000 40.07300 27.57900
C  51.06000 39.14000 24.28400
O  51.16100 38.64400 23.12900
C  51.67100 40.54100 24.46500
N  48.60100 34.14300 24.78000
C  49.23900 35.02800 23.92900
C  49.35100 34.27500 22.50500
C  48.78300 32.80000 22.77100
C  48.23300 32.97200 24.15900
C  48.69900 34.97500 21.29100
C  49.72800 31.57000 22.75500
C  50.19600 31.20100 21.39200
N  47.05300 33.06700 26.86400
C  46.76400 32.01400 26.05500
C  45.86100 31.09100 26.67600
C  45.56200 31.68000 27.89200
C  46.30300 32.90900 27.97400
C  45.47800 29.77800 26.06600
C  44.82600 31.43600 29.13300
O  44.14100 30.51100 29.52200
C  45.20100 32.69700 30.09800
C  45.61200 32.26900 31.46800
O  46.55500 31.57900 31.73200
O  44.71900 32.72000 32.40300
C  44.71900 31.99100 33.68400
H  48.95700 38.67000 29.17600
H  49.99200 36.78900 23.12700
H  47.11300 31.11500 24.21100
H  46.01300 35.33200 31.36000
H  48.31200 37.19100 31.24300
H  46.50700 38.65800 31.70800
H  45.46300 37.30200 31.08000
H  46.26500 38.43400 30.00800
H  48.94800 34.96200 31.49500
H  47.93500 33.53700 31.75400
H  48.89700 35.28600 33.64200
H  47.70900 33.95300 33.86500
H  51.54900 40.27800 27.73700
H  50.08700 40.06100 28.59100
H  49.91300 40.88700 27.13900
H  50.80000 41.05800 24.86800
H  51.95000 41.06100 23.54900
H  52.47400 40.62500 25.19600
H  50.42500 34.28600 22.32200
H  47.91100 32.61600 22.14400
H  48.03900 35.75900 21.66300
H  48.12400 34.24400 20.72200
H  49.41700 35.60600 20.76700
H  49.19900 30.75500 23.24800
H  50.56100 31.86600 23.39200
H  51.28000 31.12800 21.47600
H  49.79700 31.76200 20.54700
H  50.03800 30.13300 21.24500
H  44.74100 29.72500 25.26400
H  45.24000 29.12000 26.90200
H  46.37800 29.45700 25.54200
H  44.22300 33.15800 30.23500
H  45.75600 31.80800 33.96600
H  44.07200 31.11400 33.69800
H  44.17900 32.58500 34.42100

