158

Mg -0.70100 7.15700 26.72200
C  0.39100 9.23700 29.36100
C  -1.06700 4.66800 29.12500
C  -1.24300 5.07000 24.19900
C  0.22100 9.73700 24.39800
N  -0.36100 7.02500 28.98700
C  -0.03600 8.04700 29.87000
C  -0.30400 7.68900 31.29700
C  -0.37200 6.07800 31.16700
C  -0.60400 5.89300 29.72200
C  1.00400 5.50900 31.79800
C  -1.54900 8.45200 31.91100
C  -1.72200 8.66700 33.48500
H  -0.73400 8.25300 34.48900
N  -1.15300 5.15200 26.71500
C  -1.32400 4.30500 27.73600
C  -1.75900 3.04000 27.26200
C  -1.77300 3.07700 25.85800
C  -1.39000 4.45900 25.50500
C  -1.96900 1.81200 28.12600
C  -2.19400 2.01900 24.79300
O  -2.05300 2.14500 23.58100
C  -2.82000 0.73100 25.26000
N  -0.59600 7.37900 24.56700
C  -0.93800 6.37900 23.75600
C  -0.95200 6.84100 22.30800
C  -0.63900 8.38900 22.45100
C  -0.32000 8.55300 23.90500
C  0.05900 6.03600 21.36400
C  -1.68600 9.41500 21.98800
C  -1.24700 10.50600 20.95400
N  0.27300 9.05200 26.76900
C  0.59700 9.90800 25.74800
C  1.18600 11.12700 26.30100
C  1.05800 10.94100 27.71200
C  0.55900 9.58500 27.96800
C  1.63400 12.35600 25.61700
C  1.28700 11.53800 29.03100
O  1.72200 12.64200 29.25700
C  0.78900 10.50200 30.11800
C  1.80900 10.44900 31.21400
O  2.57600 9.50200 31.31700
O  1.77500 11.52000 31.99200
C  2.46900 11.40200 33.29200
H  -1.28400 3.86700 29.83500
H  -1.31600 4.35800 23.37500
H  0.49500 10.39800 23.57300
H  0.47600 8.07600 31.95200
H  -1.12100 5.53600 31.74300
H  0.68400 4.84700 32.60200
H  1.63500 6.29200 32.21900
H  1.55700 5.04300 30.98300
H  -2.40600 7.84200 31.62600
H  -1.73700 9.44100 31.49400
H  -2.62300 8.14500 33.80700
H  -1.99500 9.70500 33.67700
H  -1.92300 2.10300 29.17500
H  -1.23900 1.01400 27.98900
H  -2.97200 1.47200 27.87000
H  -3.14000 0.11700 24.41900
H  -3.75300 0.98600 25.76200
H  -2.13100 0.17600 25.89700
H  -1.98300 6.74300 21.96800
H  0.29100 8.48600 21.89000
H  0.62300 5.39000 22.03800
H  0.78000 6.64200 20.81600
H  -0.55900 5.46500 20.67100
H  -2.18700 9.91000 22.82000
H  -2.48800 8.82900 21.54000
H  -1.74600 10.47500 19.98600
H  -0.16100 10.55200 20.87700
H  -1.58800 11.43400 21.41300
H  0.99100 12.70700 24.80900
H  2.60700 12.05600 25.22900
H  1.75400 13.05800 26.44100
H  0.00600 10.88700 30.77100
H  2.38800 10.41500 33.74900
H  1.96200 12.01200 34.03900
H  3.48100 11.78100 33.15000
Mg 40.13200 9.63200 29.71200
C  41.95100 10.61800 32.48800
C  37.97700 7.86500 31.87200
C  38.28900 8.79400 26.93900
C  42.72300 10.81300 27.57700
N  39.99700 9.36600 31.90100
C  40.77900 9.91600 32.85800
C  40.33600 9.45500 34.28000
C  39.38400 8.24200 33.97800
C  39.05600 8.53700 32.50900
C  40.00300 6.82800 34.14400
C  39.80000 10.66200 35.13000
C  40.29800 10.86800 36.64400
H  40.75200 12.17900 37.34200
N  38.36500 8.54100 29.45300
C  37.61100 7.97400 30.48000
C  36.27300 7.49900 29.92000
C  36.41200 7.65500 28.48100
C  37.76400 8.35900 28.24600
C  35.15800 6.86700 30.69300
C  35.49600 7.30300 27.33000
O  35.74900 7.47100 26.16600
C  34.13000 6.72700 27.64800
N  40.58000 9.72800 27.55200
C  39.54800 9.40900 26.62400
C  39.95300 9.82300 25.16400
C  41.31000 10.51600 25.38900
C  41.60100 10.33000 26.91200
C  40.03100 8.63200 24.23900
C  41.50800 11.90500 24.77500
C  40.67400 12.95600 25.31200
N  41.93800 10.55300 29.93600
C  42.92200 10.89200 29.03700
C  44.04400 11.48700 29.69900
C  43.72700 11.43500 31.10300
C  42.40500 10.79700 31.18100
C  45.30900 12.04600 29.09100
C  44.12200 11.78400 32.48600
O  45.11900 12.39200 32.91800
C  42.95500 11.29400 33.40300
C  43.59900 10.37800 34.33200
O  44.22900 9.41000 34.03800
O  43.44600 10.86900 35.64100
C  44.18800 10.12400 36.68100
H  37.42100 7.16100 32.49400
H  37.66200 8.60200 26.06600
H  43.47800 11.30000 26.95700
H  41.19200 9.01600 34.79200
H  38.46700 8.19600 34.56500
H  40.53600 6.75300 35.09200
H  40.61200 6.50800 33.29800
H  39.09600 6.24100 34.28800
H  38.71400 10.57400 35.17000
H  39.91800 11.61100 34.60800
H  41.06100 10.13600 36.90900
H  39.43400 10.56800 37.23800
H  35.39900 6.99600 31.74800
H  35.01400 5.81500 30.44800
H  34.22100 7.41000 30.56900
H  34.34500 5.81100 28.19900
H  33.59700 6.59900 26.70600
H  33.61400 7.48100 28.24200
H  39.10500 10.43400 24.85400
H  42.07000 9.88000 24.93500
H  40.23200 7.70300 24.77300
H  40.90900 8.83900 23.62600
H  39.11100 8.70100 23.65800
H  41.09600 11.75500 23.77700
H  42.54400 12.22600 24.66700
H  40.11400 12.64900 26.19600
H  40.04400 13.35000 24.51400
H  41.41100 13.72700 25.53600
H  46.12900 12.28100 29.76900
H  45.06900 12.91200 28.47300
H  45.70000 11.28400 28.41700
H  42.46000 12.09400 33.95300
H  43.53100 10.22000 37.54500
H  45.17900 10.49000 36.94800
H  44.32100 9.05400 36.51800

