158

Mg 24.19600 -4.50700 45.79700
C  26.43400 -2.15500 44.24900
C  21.67100 -3.07500 43.90400
C  22.31100 -7.30100 46.27500
C  27.03600 -6.03600 47.07800
N  24.14200 -2.89500 44.28800
C  25.09700 -2.01000 43.88100
C  24.57200 -0.93600 42.93200
C  23.06600 -1.07300 43.25100
C  22.92000 -2.43000 43.88700
C  22.48700 0.18900 44.08300
C  25.03400 -1.14900 41.46500
C  25.96700 -0.22600 40.61500
H  25.65600 -0.30700 39.17200
N  22.16100 -5.02400 45.35500
C  21.32100 -4.30300 44.55800
C  20.06700 -4.97900 44.48800
C  20.15700 -6.19200 45.21200
C  21.61800 -6.23700 45.65400
C  18.95800 -4.40500 43.75200
C  18.96900 -7.19300 45.39600
O  17.82700 -6.89100 45.04200
C  19.13100 -8.47700 46.17200
N  24.59800 -6.38600 46.53400
C  23.67000 -7.38500 46.74800
C  24.35400 -8.61500 47.42400
C  25.77500 -8.12800 47.75500
C  25.80900 -6.74900 47.10200
C  23.68900 -9.39500 48.69100
C  26.89000 -9.19600 47.43000
C  27.57900 -9.88200 48.61100
N  26.31700 -4.04000 45.93300
C  27.28400 -4.81200 46.47700
C  28.55400 -4.06300 46.34100
C  28.24900 -3.00100 45.48900
C  26.88800 -3.10200 45.25100
C  29.92200 -4.52500 46.87800
C  28.88100 -1.91700 44.72400
O  30.02300 -1.49600 44.65200
C  27.60200 -1.32800 43.96300
C  27.39500 0.13600 44.34400
O  27.00900 0.61300 45.42100
O  27.57900 0.83600 43.19200
C  27.10600 2.23100 43.15300
H  20.87200 -2.51700 43.41000
H  21.81100 -8.26300 46.40700
H  27.94000 -6.49900 47.47900
H  25.05300 -0.01600 43.26300
H  22.51900 -1.09500 42.30900
H  23.29000 0.75200 44.55900
H  21.89500 -0.15900 44.92900
H  21.91100 0.76600 43.36000
H  24.19600 -1.37600 40.80700
H  25.53000 -2.12000 41.44800
H  26.97400 -0.61800 40.76200
H  25.95700 0.82100 40.91800
H  19.29500 -3.92300 42.83400
H  18.34600 -3.79100 44.41300
H  18.47600 -5.32700 43.42700
H  19.80600 -9.11700 45.60300
H  18.23400 -9.07000 46.35000
H  19.62200 -8.22800 47.11200
H  24.34900 -9.37100 46.63800
H  25.89500 -7.85000 48.80200
H  23.71100 -10.47000 48.51100
H  22.64700 -9.10500 48.82800
H  24.30500 -9.20600 49.57100
H  27.56500 -8.75800 46.69400
H  26.35100 -9.96000 46.87000
H  27.49800 -9.39000 49.58000
H  28.64100 -9.99100 48.39200
H  27.11500 -10.86800 48.63200
H  30.15900 -5.51000 46.47600
H  29.88500 -4.39000 47.95900
H  30.64100 -3.80000 46.49500
H  27.96200 -1.43900 42.94000
H  26.30400 2.43500 43.86300
H  26.92400 2.47800 42.10700
H  27.98900 2.82000 43.40300
Mg 49.44100 35.00800 27.98800
C  47.20600 33.89400 30.62100
C  49.70200 37.92500 29.85900
C  50.89900 36.50600 25.31100
C  48.34000 32.49100 26.01400
N  48.40900 35.81900 29.97700
C  47.80800 35.09000 30.98000
C  47.68600 35.87300 32.25200
C  48.19900 37.31800 31.82300
C  48.86200 36.96700 30.48900
C  47.00900 38.38500 31.69300
C  48.29200 35.11000 33.44700
C  49.36900 35.83700 34.18000
H  49.13600 37.00400 35.12700
N  50.38400 36.81700 27.70800
C  50.30900 37.91900 28.51400
C  51.12900 38.97700 27.97100
C  51.54900 38.57100 26.66000
C  50.96900 37.23600 26.50600
C  51.61100 40.21300 28.88700
C  52.37700 39.28200 25.64000
O  52.70400 38.82600 24.53900
C  53.07500 40.70000 26.04200
N  49.71400 34.52300 25.94900
C  50.37400 35.29500 24.98500
C  50.16100 34.65900 23.57900
C  49.50800 33.28500 23.90100
C  49.12500 33.40300 25.35700
C  49.29500 35.58100 22.68100
C  50.40700 32.02400 23.73100
C  49.74000 30.68800 23.19800
N  48.17400 33.47800 28.29600
C  47.83300 32.49800 27.33100
C  47.18200 31.44300 28.04500
C  46.74700 32.00300 29.22300
C  47.42200 33.26600 29.37900
C  46.72100 30.09400 27.47900
C  45.99600 31.85700 30.41800
O  45.28200 30.90300 30.73800
C  46.06700 33.16400 31.26400
C  46.33600 32.70100 32.65400
O  47.30800 32.01300 33.01300
O  45.33600 33.21800 33.46200
C  45.38600 32.61500 34.81100
H  49.85900 38.84300 30.42900
H  51.20000 37.01700 24.39400
H  48.09700 31.61400 25.41000
H  46.65700 35.99000 32.59100
H  48.98400 37.71200 32.47000
H  46.89800 38.79000 30.68800
H  47.25100 39.26100 32.29500
H  46.09900 37.93000 32.08400
H  48.66600 34.21300 32.95500
H  47.50900 34.85000 34.15900
H  50.04700 36.14700 33.38500
H  49.92200 35.03100 34.66100
H  51.44400 40.06200 29.95300
H  51.32300 41.24800 28.70100
H  52.69800 40.21000 28.79900
H  53.78000 40.76400 26.87000
H  52.16800 41.24800 26.29900
H  53.44300 41.14100 25.11500
H  51.09900 34.50700 23.04600
H  48.56000 33.21000 23.36900
H  48.59300 34.97200 22.11300
H  49.97300 36.18200 22.07400
H  48.74500 36.27300 23.31800
H  50.96700 31.95700 24.66300
H  51.23900 32.21200 23.05200
H  50.02400 30.61300 22.14800
H  48.67300 30.59400 23.40300
H  50.22300 29.89600 23.76900
H  46.73500 29.25600 28.17700
H  47.40100 29.78200 26.68600
H  45.73800 30.13700 27.01200
H  45.11500 33.69300 31.19800
H  44.40100 32.76100 35.25500
H  46.13100 33.06400 35.46900
H  45.57800 31.55000 34.68400

