158

Mg 46.31600 3.68400 47.56000
C  43.85400 6.04500 46.71000
C  43.79100 1.17400 47.22600
C  48.80900 1.45600 47.39200
C  48.72400 6.31700 47.01500
N  44.02300 3.66200 47.10300
C  43.27300 4.72300 46.81100
C  41.77700 4.29200 46.59900
C  41.77000 2.77600 46.93200
C  43.26800 2.49500 47.19400
C  40.85200 2.27200 48.01300
C  41.17000 4.72700 45.23700
C  39.97400 5.75000 45.19400
H  40.17600 6.77000 44.15800
N  46.33200 1.63200 47.43000
C  45.18000 0.74600 47.28100
C  45.67400 -0.66000 47.13800
C  47.11400 -0.52800 47.01900
C  47.50600 0.91800 47.34700
C  44.75600 -1.88600 47.06300
C  48.04400 -1.69700 46.75400
O  47.56000 -2.87600 46.72500
C  49.46900 -1.56800 46.48300
N  48.41000 3.83900 47.17800
C  49.22000 2.74600 47.42300
C  50.75300 3.14600 47.33600
C  50.68900 4.70000 47.48300
C  49.15100 5.00100 47.26900
C  51.62800 2.28300 48.42100
C  51.54500 5.37800 46.31000
C  52.66500 6.42800 46.57200
N  46.34900 5.71600 47.07800
C  47.38300 6.61300 46.89800
C  46.83200 7.89400 46.61800
C  45.44200 7.75700 46.62800
C  45.19300 6.37500 46.83700
C  47.71100 9.15100 46.29500
C  44.19200 8.37900 46.41100
O  43.96200 9.53700 46.09500
C  43.07200 7.35300 46.57000
C  42.26100 7.68300 47.79100
O  42.40000 7.17900 48.89400
O  41.29700 8.57200 47.51900
C  40.43800 8.99800 48.66700
H  43.05700 0.39900 46.99600
H  49.69300 0.81700 47.45200
H  49.47100 7.10100 46.87500
H  41.17700 4.85500 47.31400
H  41.48000 2.30400 45.99300
H  40.26100 3.07300 48.45900
H  41.48000 1.82900 48.78600
H  40.21300 1.48200 47.62100
H  40.84900 3.87100 44.64400
H  41.99800 5.25900 44.76900
H  39.94600 6.12500 46.21700
H  39.07400 5.15400 45.04200
H  45.10300 -2.36700 46.14900
H  43.73200 -1.55400 46.89300
H  44.72200 -2.60600 47.88100
H  49.92700 -2.43500 46.00800
H  49.84900 -1.38900 47.48900
H  49.73900 -0.64800 45.96400
H  51.05100 2.77400 46.35600
H  50.94500 5.08300 48.47100
H  51.05400 1.73100 49.16500
H  52.17900 3.00000 49.02900
H  52.37500 1.69100 47.89200
H  50.85100 5.81800 45.59400
H  52.10100 4.59900 45.78800
H  52.47800 6.69000 47.61300
H  52.70100 7.26800 45.87800
H  53.60400 5.91000 46.37500
H  48.50300 9.12700 47.04300
H  47.10200 10.04900 46.39600
H  48.02500 9.11700 45.25200
H  42.43400 7.35400 45.68600
H  39.51100 8.42600 48.68500
H  40.25800 10.03300 48.37700
H  40.94500 8.86600 49.62300
Mg 26.78400 50.92600 26.43300
C  25.19500 52.22200 29.35000
C  29.31300 49.75900 28.48500
C  28.18200 49.54700 23.76100
C  24.84800 52.98000 24.51200
N  27.16900 51.05100 28.71500
C  26.33600 51.50700 29.71900
C  26.86300 51.22100 31.13200
C  28.26400 50.52300 30.81400
C  28.24800 50.42400 29.21600
C  29.50500 51.34900 31.32900
C  25.84200 50.49800 32.02900
C  26.27400 49.76400 33.36400
H  25.73400 50.48500 34.70200
N  28.46500 49.74000 26.19200
C  29.46500 49.40400 27.13000
C  30.45500 48.64800 26.49300
C  30.06200 48.48300 25.16900
C  28.93400 49.32000 24.98700
C  31.56600 47.89300 27.12800
C  30.54300 47.61100 24.11700
O  30.16800 47.61100 22.94200
C  31.34000 46.46100 24.45600
N  26.57000 51.36400 24.38900
C  27.11400 50.46100 23.53000
C  26.53500 50.69900 22.11200
C  25.58300 51.93300 22.36800
C  25.60500 52.08000 23.82800
C  27.54600 50.89700 20.92700
C  24.15900 51.60000 21.89100
C  23.73600 52.42900 20.66800
N  25.33200 52.22700 26.75400
C  24.58400 52.99100 25.85700
C  23.64100 53.79400 26.57400
C  23.84400 53.47600 27.86500
C  24.83100 52.50300 27.96500
C  22.66800 54.74700 25.88400
C  23.28000 53.77400 29.10500
O  22.32100 54.47100 29.35900
C  24.17300 52.91100 30.17500
C  24.70000 53.75300 31.33700
O  25.78100 54.17200 31.39900
O  23.83700 53.85300 32.33600
C  24.07000 54.84400 33.45900
H  30.05900 49.29700 29.13600
H  28.35100 48.93100 22.87600
H  24.16400 53.47700 23.82100
H  27.11600 52.24200 31.41900
H  28.23600 49.52900 31.26000
H  30.06600 51.54100 30.41500
H  30.04400 50.60300 31.91300
H  29.23100 52.27400 31.83700
H  25.27500 49.92200 31.29800
H  25.16800 51.29000 32.35800
H  27.36000 49.79300 33.46300
H  25.90600 48.73800 33.37100
H  31.66200 48.32800 28.12300
H  32.49800 48.08100 26.59500
H  31.25800 46.84900 27.18900
H  30.88100 45.83800 25.22400
H  32.24400 46.90100 24.87800
H  31.72100 45.81900 23.66100
H  25.98700 49.80900 21.80200
H  25.86400 52.88700 21.92000
H  28.53400 51.18100 21.29000
H  27.12200 51.76100 20.41500
H  27.56700 50.03900 20.25500
H  23.39000 51.82300 22.63000
H  24.09900 50.54300 21.63000
H  24.61200 52.94700 20.27900
H  22.95100 53.18000 20.75300
H  23.47800 51.77000 19.83900
H  23.22100 55.54700 25.39200
H  22.06900 55.25500 26.64000
H  22.05700 54.30000 25.10000
H  23.57800 52.10700 30.60800
H  24.44900 55.76900 33.02500
H  24.61900 54.41600 34.29800
H  23.05200 55.00700 33.81500

