158

Mg 44.52900 4.70400 48.36600
C  42.22500 7.17200 47.60300
C  42.07400 2.23000 47.87600
C  46.92500 2.40800 48.58300
C  46.90700 7.33400 48.34100
N  42.42700 4.71500 47.76500
C  41.62000 5.86400 47.69700
C  40.11000 5.59900 47.57200
C  40.13200 3.99200 47.66000
C  41.64500 3.56600 47.83700
C  39.30200 3.36000 48.85300
C  39.24700 6.10400 46.40200
C  39.90400 6.33300 44.95700
H  39.20700 7.11100 43.83900
N  44.52500 2.58800 48.19400
C  43.45700 1.79800 47.97700
C  43.83500 0.38100 47.79800
C  45.32700 0.43000 47.93500
C  45.65100 1.87100 48.20800
C  42.92700 -0.78200 47.52200
C  46.32800 -0.77300 47.79300
O  45.88300 -1.90100 47.62900
C  47.76500 -0.54900 47.80200
N  46.58500 4.90100 48.39900
C  47.33200 3.81200 48.68000
C  48.73900 4.15100 49.05900
C  48.75000 5.67800 49.11200
C  47.38000 6.04100 48.55300
C  49.37600 3.39100 50.30700
C  49.97900 6.39600 48.62500
C  50.58000 7.47100 49.58900
N  44.59600 6.82200 48.04200
C  45.60400 7.73800 48.10600
C  45.11200 9.06600 47.86100
C  43.72400 8.89900 47.72000
C  43.50300 7.50400 47.76900
C  45.86400 10.26800 47.97800
C  42.54600 9.62300 47.53600
O  42.36800 10.80500 47.35900
C  41.47100 8.50700 47.44800
C  40.47500 8.70700 48.50100
O  40.61700 8.17200 49.58700
O  39.49600 9.52700 48.10700
C  38.34900 9.18100 48.91400
H  41.28800 1.49300 47.69900
H  47.75500 1.72500 48.77200
H  47.69900 8.07900 48.44400
H  39.73300 5.92900 48.54000
H  39.64200 3.49100 46.82500
H  40.08600 3.17200 49.58700
H  38.89800 2.36100 48.68400
H  38.56600 3.97200 49.37300
H  38.57200 6.82500 46.86300
H  38.55200 5.27200 46.28700
H  40.13800 5.37700 44.49000
H  40.89900 6.76500 45.06600
H  43.24800 -1.48400 46.75200
H  41.88200 -0.56600 47.29800
H  42.73000 -1.28300 48.47000
H  48.19900 0.18700 47.12600
H  48.14000 -1.50600 47.43800
H  47.98200 -0.59600 48.87000
H  49.41800 3.87100 48.25300
H  48.68600 5.85600 50.18500
H  48.64100 2.89400 50.94100
H  49.95500 4.11400 50.88200
H  50.18100 2.69300 50.07900
H  49.80500 6.91100 47.68000
H  50.81300 5.71000 48.47800
H  50.71100 8.39400 49.02500
H  51.56100 7.18200 49.96900
H  49.84800 7.69700 50.36400
H  46.58000 10.14500 48.79100
H  45.26200 11.16700 48.10900
H  46.46900 10.33000 47.07400
H  40.98900 8.70800 46.49100
H  38.26200 8.10300 48.77900
H  37.48100 9.73300 48.55300
H  38.56600 9.39800 49.96000
Mg 54.79100 23.38400 45.29100
C  52.34400 25.71600 44.27300
C  52.65600 20.90300 44.32700
C  57.23400 21.22200 45.89300
C  56.87400 26.03200 46.26300
N  52.87500 23.35300 44.12000
C  51.95400 24.42300 44.03900
C  50.58500 23.89000 43.40400
C  50.58500 22.43700 43.94500
C  52.13800 22.21700 44.09600
C  49.87400 22.18900 45.22100
C  50.39900 24.13000 41.87200
C  49.05200 24.63600 41.40000
H  48.50700 23.98100 40.14200
N  54.88800 21.29600 45.09000
C  53.93500 20.39600 44.72900
C  54.44100 19.05200 44.80200
C  55.76200 19.11800 45.17700
C  56.01700 20.58400 45.45600
C  53.58900 17.86400 44.55100
C  56.73500 17.95400 45.46900
O  56.38000 16.75700 45.38600
C  58.18300 18.15300 45.84700
N  56.79400 23.64100 45.74600
C  57.53400 22.53600 46.09200
C  58.93600 22.92600 46.50500
C  58.83500 24.48500 46.47000
C  57.39800 24.78500 46.25500
C  59.39700 22.41900 47.92700
C  59.75300 25.23900 45.45500
C  60.79800 26.24200 46.06900
N  54.70000 25.50700 45.22900
C  55.59100 26.37300 45.74900
C  54.99400 27.73100 45.62600
C  53.69700 27.47200 44.99700
C  53.62000 26.09800 44.79500
C  55.54600 29.06400 46.04000
C  52.45100 28.11700 44.58100
O  52.09800 29.26400 44.72100
C  51.67000 26.97400 43.91500
C  51.69100 27.21300 42.48600
O  52.54800 26.90200 41.67700
O  50.57000 27.98100 42.22200
C  50.44900 28.35900 40.80900
H  51.90200 20.11400 44.30300
H  58.05200 20.54900 46.16000
H  57.55500 26.86200 46.45900
H  49.82400 24.40400 43.99200
H  50.23200 21.73600 43.18900
H  48.98100 22.79400 45.37400
H  50.50200 22.39200 46.08900
H  49.46600 21.18000 45.27200
H  50.72300 23.16400 41.48500
H  51.16300 24.82400 41.52000
H  49.17100 25.67100 41.08000
H  48.34500 24.52200 42.22200
H  52.69300 18.04800 45.14400
H  54.03300 16.98500 45.01800
H  53.38000 17.76000 43.48600
H  58.77600 18.77700 45.17900
H  58.68300 17.22000 46.10800
H  58.15900 18.57400 46.85200
H  59.58500 22.56600 45.70700
H  59.12200 24.60400 47.51400
H  59.29100 23.12800 48.74800
H  60.40200 22.01000 47.82800
H  58.78900 21.53900 48.13700
H  59.14800 25.73500 44.69600
H  60.31100 24.44700 44.95400
H  61.78600 26.08000 45.63600
H  60.74400 26.09100 47.14700
H  60.46400 27.24200 45.79200
H  56.57300 29.21700 45.71100
H  55.48000 29.17700 47.12200
H  54.94200 29.87900 45.64000
H  50.66200 27.01200 44.32700
H  50.33100 29.43200 40.65600
H  49.60600 27.77800 40.43400
H  51.32500 28.29600 40.16300

