158

Mg 25.05200 1.87300 29.34800
C  27.18300 1.45700 32.09900
C  22.42400 1.72000 31.56800
C  22.95600 1.95700 26.67700
C  27.75900 1.10400 27.27600
N  24.86300 1.92400 31.56900
C  25.89300 1.75200 32.52600
C  25.36400 1.81900 33.97900
C  23.81800 1.71100 33.78500
C  23.67900 1.66600 32.17000
C  23.08500 0.59000 34.50500
C  25.79700 3.13900 34.72400
C  26.44100 2.96400 36.00700
H  26.04200 3.93800 37.12800
N  22.90900 1.90500 29.12300
C  22.03900 1.76100 30.18500
C  20.65800 1.84000 29.55000
C  20.74500 1.86300 28.14800
C  22.25300 2.00000 27.90400
C  19.39600 1.97400 30.43400
C  19.63900 1.79700 27.07600
O  19.84300 1.89200 25.86800
C  18.28300 1.45800 27.53800
N  25.34800 1.75700 27.31800
C  24.32600 1.88100 26.37600
C  24.89800 1.64800 24.96000
C  26.48600 1.54400 25.17300
C  26.54100 1.41000 26.66300
C  24.32800 0.51900 24.13400
C  27.20200 2.82200 24.64600
C  26.69700 4.23600 25.28600
N  27.05400 1.45200 29.60900
C  28.04700 1.14600 28.68000
C  29.27400 0.76700 29.29800
C  29.01600 0.94000 30.65400
C  27.64300 1.32900 30.77000
C  30.50000 0.13200 28.63500
C  29.59300 0.78500 31.93400
O  30.69500 0.31500 32.31000
C  28.49400 1.24800 32.93700
C  28.34400 0.15700 34.00200
O  27.67900 -0.83100 33.86900
O  28.99800 0.51200 35.15600
C  28.65900 -0.27500 36.38700
H  21.61900 1.89100 32.28500
H  22.30500 2.13100 25.81800
H  28.56000 0.95500 26.54900
H  25.74200 0.90500 34.43700
H  23.29800 2.63000 34.05700
H  23.11500 -0.15300 33.70800
H  22.11600 1.03900 34.72200
H  23.51200 0.21600 35.43600
H  24.90500 3.71600 34.96500
H  26.42400 3.79400 34.11900
H  27.50500 3.16400 35.88300
H  26.28200 1.99200 36.47300
H  18.77600 2.77500 30.03200
H  19.58200 2.14700 31.49400
H  18.79900 1.06400 30.38200
H  18.35500 0.63100 28.24300
H  17.71600 1.04600 26.70300
H  17.73500 2.33000 27.89700
H  24.63500 2.58500 24.47100
H  26.98500 0.73600 24.63900
H  25.07100 0.15400 23.42500
H  23.51500 0.84700 23.48600
H  23.87200 -0.27800 24.72100
H  26.96900 2.83800 23.58100
H  28.27400 2.70000 24.80300
H  26.36000 4.85600 24.45600
H  27.54700 4.65100 25.82900
H  25.87900 4.17000 26.00400
H  31.35100 0.15000 29.31700
H  30.85600 0.66100 27.75100
H  30.18900 -0.89600 28.44700
H  28.75000 2.19100 33.41800
H  29.23600 0.06800 37.24500
H  28.95500 -1.31900 36.29100
H  27.57900 -0.15400 36.47900
Mg 35.08400 3.02500 29.64700
C  32.80100 4.02100 32.21500
C  37.52200 3.34200 31.82300
C  37.13300 2.58100 27.02500
C  32.38700 3.58300 27.35000
N  35.13300 3.55900 31.80500
C  34.13400 3.77700 32.65300
C  34.59800 3.82900 34.15200
C  36.19300 3.72600 33.92800
C  36.32600 3.57100 32.44400
C  37.00700 4.95900 34.52700
C  34.01900 2.60000 34.94600
C  33.93000 2.79800 36.51200
H  34.56700 3.98000 37.19500
N  36.98000 2.80400 29.48500
C  37.89600 2.93700 30.52300
C  39.23000 2.58700 30.05000
C  39.10800 2.30500 28.70000
C  37.69700 2.59700 28.32400
C  40.44500 2.30500 31.00800
C  40.15700 1.76500 27.76400
O  39.88700 1.43600 26.61900
C  41.57700 1.68500 28.21700
N  34.76200 3.01000 27.46800
C  35.78600 2.72400 26.64400
C  35.34500 2.62900 25.19900
C  33.86600 3.05600 25.30200
C  33.61600 3.24700 26.79300
C  36.16000 3.41200 24.14500
C  32.83200 2.05500 24.67700
C  32.52300 0.80800 25.56200
N  33.05800 3.63000 29.68300
C  32.14100 3.81000 28.71500
C  30.80900 4.11900 29.28600
C  31.03800 4.15500 30.67800
C  32.41900 3.95200 30.85800
C  29.50600 4.19400 28.53800
C  30.41300 4.45900 31.96900
O  29.29200 4.90100 32.17300
C  31.57100 4.37300 33.00300
C  31.61500 5.59400 33.79000
O  32.26100 6.56500 33.44500
O  31.10500 5.33100 35.06700
C  31.40300 6.44100 36.01300
H  38.32500 3.40300 32.56100
H  37.84200 2.47200 26.20200
H  31.53100 3.77400 26.69900
H  34.20500 4.74300 34.59700
H  36.46800 2.80700 34.44600
H  37.52700 5.52900 33.75700
H  37.70000 4.64300 35.30700
H  36.24200 5.60500 34.95800
H  34.49400 1.63700 34.75600
H  33.01200 2.51900 34.53900
H  34.34300 1.94700 37.05400
H  32.87300 2.84000 36.77600
H  40.46400 1.24200 31.24900
H  40.43800 2.90000 31.92100
H  41.41700 2.59700 30.61000
H  41.72600 0.90300 28.96200
H  41.99200 2.67000 28.42900
H  42.19200 1.43400 27.35300
H  35.49000 1.57200 24.97400
H  33.76400 4.04800 24.86400
H  36.47500 2.70000 23.38200
H  37.04500 3.85300 24.60300
H  35.57100 4.22700 23.72500
H  33.31200 1.78600 23.73600
H  31.94100 2.56700 24.31300
H  32.70800 1.05600 26.60700
H  33.22100 0.01800 25.28600
H  31.46600 0.64000 25.35300
H  28.78600 4.28000 29.35200
H  29.17600 3.35800 27.92000
H  29.40000 5.15300 28.03200
H  31.28200 3.63600 33.75200
H  30.72000 7.28400 35.90600
H  32.46500 6.68300 36.04200
H  31.21200 6.17200 37.05200

