158

Mg 26.30600 50.54900 25.88100
C  24.26700 51.67300 28.46200
C  28.65100 49.72600 28.16600
C  28.04200 49.16500 23.43300
C  23.75200 51.60900 23.62100
N  26.43000 50.62700 28.03200
C  25.49300 51.08900 28.92500
C  25.94000 50.97300 30.45600
C  27.48100 50.56200 30.27600
C  27.57500 50.29400 28.74900
C  28.43900 51.67100 30.71800
C  25.12500 49.90800 31.15900
C  24.37800 50.32400 32.47600
H  25.09800 50.77500 33.73600
N  28.13100 49.59800 25.81500
C  28.91600 49.33600 26.83000
C  30.15100 48.68400 26.38600
C  29.89700 48.27300 25.00300
C  28.59300 48.94400 24.67800
C  31.29300 48.44100 27.29400
C  30.73500 47.45000 24.12600
O  30.42900 47.28900 22.92300
C  31.84500 46.68900 24.59700
N  26.03500 50.60400 23.82300
C  26.88600 49.84200 23.04100
C  26.46200 49.85800 21.60000
C  24.95100 50.34600 21.75800
C  24.90900 50.89700 23.14400
C  27.34100 50.75100 20.64900
C  23.80800 49.32800 21.45800
C  24.15800 47.85900 21.66300
N  24.51700 51.62600 25.95500
C  23.62600 52.00400 24.95400
C  22.58300 52.78100 25.53200
C  22.70400 52.66200 26.91200
C  23.92900 51.91600 27.12100
C  21.58700 53.51800 24.74100
C  22.12700 53.00100 28.18300
O  21.07500 53.51000 28.54100
C  23.12000 52.32500 29.26600
C  23.52800 53.51700 30.04600
O  24.43900 54.32000 29.83500
O  22.73500 53.48300 31.16700
C  23.27900 54.31400 32.22000
H  29.32300 49.44900 28.98100
H  28.51500 48.74100 22.54500
H  22.91500 51.86100 22.96700
H  25.79500 52.00700 30.76600
H  27.84100 49.69200 30.82700
H  28.02400 52.64800 30.96400
H  29.09900 51.79500 29.85900
H  29.07200 51.25400 31.50200
H  25.74700 49.09800 31.54000
H  24.43600 49.51300 30.41300
H  23.79600 49.42800 32.69100
H  23.54700 50.99600 32.26000
H  31.17000 47.57500 27.94400
H  31.42900 49.37000 27.84800
H  32.22000 48.20900 26.76900
H  32.67400 47.38400 24.73100
H  31.99700 45.95500 23.80600
H  31.48800 46.22800 25.51800
H  26.38100 48.86800 21.15100
H  24.78200 51.12800 21.01800
H  27.55300 50.26500 19.69700
H  28.25600 51.03700 21.16700
H  26.83700 51.68700 20.40800
H  23.48100 49.61200 20.45800
H  23.02700 49.56200 22.18200
H  24.85700 47.78100 22.49600
H  24.55700 47.27800 20.83200
H  23.18200 47.44200 21.91100
H  20.80400 53.90900 25.39000
H  21.07900 52.84700 24.04800
H  22.02400 54.32800 24.15800
H  22.71200 51.60300 29.97400
H  23.69300 55.22600 31.79000
H  24.07300 53.86700 32.81700
H  22.44600 54.60900 32.85900
Mg 16.69700 52.21900 25.83300
C  18.38500 51.00600 28.59500
C  13.98600 52.85000 27.95300
C  14.88100 53.35300 23.15800
C  19.06000 51.01800 23.73700
N  16.28500 52.06800 28.00400
C  17.16000 51.69500 28.93700
C  16.65200 51.88800 30.36700
C  15.15600 52.13100 30.13100
C  15.11300 52.44700 28.65800
C  14.31800 50.89600 30.60100
C  17.42300 53.02100 31.12400
C  17.29800 52.95600 32.60400
H  16.18400 52.13000 33.31000
N  14.77100 53.06500 25.57300
C  13.75800 53.19100 26.58700
C  12.49800 53.62300 25.96700
C  12.85300 53.93300 24.61300
C  14.21900 53.42100 24.36300
C  11.23900 53.83100 26.79100
C  11.91700 54.49500 23.49900
O  12.38700 54.80600 22.43800
C  10.51800 54.83600 23.83800
N  16.77600 51.93600 23.66500
C  16.05100 52.64800 22.75700
C  16.65000 52.62600 21.37000
C  18.00300 52.05400 21.64000
C  17.99000 51.65900 23.08700
C  15.77900 51.81500 20.36700
C  19.22200 52.95600 21.38400
C  20.29100 52.21300 20.67600
N  18.38300 51.24600 26.10400
C  19.30200 50.82300 25.07900
C  20.35200 50.03500 25.70400
C  20.09800 50.13900 27.10300
C  18.82700 50.83500 27.25100
C  21.40700 49.28600 24.98300
C  20.56800 49.82400 28.42400
O  21.57800 49.17900 28.71600
C  19.49500 50.31200 29.38800
C  18.85200 49.17500 30.10900
O  18.00300 48.40000 29.63300
O  19.16700 49.21100 31.48100
C  18.37700 48.41000 32.50400
H  13.12200 53.09500 28.57400
H  14.51100 53.97500 22.34000
H  19.88200 50.65300 23.11900
H  16.92100 51.00000 30.94000
H  14.76200 53.01400 30.63500
H  14.80600 49.95700 30.86300
H  13.67400 50.57700 29.78100
H  13.66400 51.22100 31.41000
H  17.03000 53.96700 30.75300
H  18.46900 52.96400 30.82400
H  17.08000 53.94800 32.99900
H  18.26300 52.70200 33.04200
H  10.35000 53.30200 26.44600
H  11.21200 54.92000 26.83500
H  11.43900 53.63000 27.84300
H  10.02800 53.92700 24.18500
H  10.07200 55.14200 22.89100
H  10.50900 55.54800 24.66300
H  16.71600 53.67300 21.07100
H  18.04700 51.13500 21.05600
H  15.30200 51.01900 20.93900
H  16.33800 51.37700 19.53900
H  14.97500 52.37300 19.88600
H  19.77900 53.14800 22.30100
H  19.06300 53.89600 20.85500
H  20.60300 52.76800 19.79100
H  20.03800 51.20400 20.35000
H  21.14100 52.22300 21.35900
H  21.11000 48.91100 24.00400
H  21.65600 48.37800 25.53200
H  22.27100 49.94200 24.87500
H  19.98200 51.03100 30.04600
H  18.53300 47.34700 32.32000
H  17.34200 48.61700 32.23200
H  18.78200 48.67500 33.48000

