158

Mg 42.30700 41.13000 26.53100
C  41.86900 43.64200 28.96700
C  42.85300 38.86700 29.05800
C  43.48100 38.87200 24.28300
C  42.21300 43.51000 24.01800
N  42.39100 41.29000 28.79600
C  42.03600 42.33900 29.53200
C  42.01000 42.07800 31.05900
C  42.44400 40.53100 31.04300
C  42.46100 40.15000 29.56000
C  43.65900 40.07600 31.82700
C  40.61500 42.46600 31.71700
C  40.04500 41.58000 32.79200
H  39.42100 42.21000 34.00100
N  42.93900 39.04300 26.68200
C  43.17600 38.35100 27.81000
C  43.65200 36.98100 27.46700
C  43.86000 36.98000 26.05400
C  43.46100 38.30200 25.60800
C  43.89400 35.86100 28.48100
C  44.36300 35.92700 25.17600
O  44.56900 36.13700 23.97200
C  44.79000 34.63600 25.85500
N  42.67500 41.10600 24.47100
C  43.18900 40.14200 23.74500
C  43.39600 40.49200 22.20800
C  43.05300 41.97800 22.25100
C  42.58200 42.22900 23.69900
C  44.78900 40.19800 21.51600
C  41.85900 42.24800 21.27100
C  40.59300 41.49800 21.56700
N  42.09100 43.15100 26.45400
C  42.06100 44.00300 25.32900
C  41.89800 45.32500 25.82000
C  41.82200 45.20000 27.20600
C  41.96000 43.88500 27.55200
C  41.56800 46.57600 25.03400
C  41.48600 45.99900 28.40100
O  41.16800 47.24400 28.55800
C  41.56700 44.97900 29.59100
C  42.69000 45.27700 30.50900
O  43.81900 45.02200 30.26200
O  42.30100 45.86700 31.65400
C  43.25900 45.90300 32.71800
H  42.95100 38.14400 29.87000
H  43.91600 38.24000 23.50600
H  42.20500 44.26500 23.22800
H  42.72600 42.74500 31.53900
H  41.63100 39.97000 31.50400
H  44.26500 39.42700 31.19400
H  43.47300 39.48500 32.72400
H  44.22300 40.94500 32.16600
H  39.93200 42.42800 30.86800
H  40.69700 43.44800 32.18200
H  40.77000 40.89400 33.23000
H  39.28100 40.95700 32.32700
H  43.41700 36.13000 29.42400
H  44.94100 35.64600 28.69500
H  43.29800 35.02100 28.12500
H  43.89400 34.11500 26.19100
H  45.43400 34.71700 26.73100
H  45.23400 33.92500 25.15800
H  42.67500 39.94300 21.60300
H  43.93300 42.55400 21.96500
H  44.95800 40.81700 20.63500
H  44.89400 39.13500 21.30100
H  45.57100 40.30100 22.26900
H  42.08200 41.94500 20.24900
H  41.63000 43.31400 21.29500
H  39.81500 42.24900 21.70400
H  40.61500 40.74100 22.35100
H  40.24600 40.89200 20.73000
H  40.59300 46.93900 25.35800
H  41.44600 46.32600 23.98000
H  42.37600 47.30800 25.04700
H  40.66500 45.03700 30.20000
H  43.69200 46.90300 32.68800
H  44.07900 45.18600 32.75900
H  42.75400 45.67400 33.65700
Mg 26.94000 49.89000 26.69300
C  24.63900 51.26400 29.03100
C  29.01500 48.96800 29.31500
C  29.23400 48.91400 24.48600
C  25.10300 51.56700 24.14100
N  26.78900 50.08400 28.83700
C  25.73900 50.60700 29.59600
C  25.97800 50.32000 31.12500
C  27.51600 49.88100 31.12900
C  27.78700 49.63200 29.65500
C  28.47600 50.96100 31.80300
C  24.93100 49.26500 31.60600
C  24.52300 49.22300 33.08300
H  25.28700 49.97000 34.23500
N  28.88000 49.07500 26.86800
C  29.55600 48.76900 28.03600
C  30.81500 48.11800 27.60400
C  30.96500 48.27800 26.19100
C  29.65000 48.78900 25.76500
C  31.79300 47.41400 28.58800
C  32.13800 48.01000 25.17600
O  32.14400 48.29100 24.01200
C  33.37100 47.27800 25.82500
N  27.13800 50.20800 24.69200
C  28.02400 49.43000 23.96500
C  27.61100 49.32200 22.43800
C  26.48700 50.47500 22.40200
C  26.19500 50.73300 23.84000
C  28.63200 49.55200 21.36100
C  25.24200 50.02300 21.53900
C  24.60900 51.10900 20.68700
N  25.21100 51.20000 26.53700
C  24.61500 51.70000 25.48000
C  23.51000 52.54600 25.91500
C  23.46400 52.39000 27.32500
C  24.50100 51.53500 27.64700
C  22.67500 53.46700 25.08700
C  22.80900 52.74100 28.59500
O  21.80700 53.38400 28.73200
C  23.45300 51.87900 29.69800
C  23.86400 52.85100 30.77800
O  24.71000 53.73600 30.71900
O  23.14700 52.52000 31.95400
C  23.53500 53.41900 33.14100
H  29.57100 48.52500 30.14400
H  29.89900 48.42100 23.77300
H  24.73200 52.22500 23.35300
H  25.82900 51.26500 31.64700
H  27.76000 48.91100 31.56300
H  27.93800 51.87100 32.06700
H  29.24500 51.15200 31.05400
H  28.87700 50.50300 32.70700
H  25.24600 48.24600 31.38200
H  24.01000 49.35600 31.03000
H  24.65000 48.17000 33.33400
H  23.46500 49.48300 33.10600
H  31.61500 46.34600 28.46400
H  31.51000 47.47600 29.63900
H  32.81400 47.78200 28.48400
H  33.72900 47.97000 26.58700
H  34.17100 47.23000 25.08600
H  33.10300 46.33800 26.30600
H  27.12100 48.38800 22.16700
H  26.87000 51.41400 22.00300
H  29.54200 49.81200 21.90200
H  28.43000 50.31200 20.60700
H  28.78000 48.57700 20.89600
H  24.52900 49.50800 22.18400
H  25.54800 49.24700 20.83800
H  23.57200 51.20600 21.00800
H  24.64000 50.89400 19.61900
H  25.12300 52.05000 20.88400
H  22.04300 52.89300 24.40900
H  23.32400 54.16900 24.56300
H  22.05800 54.08400 25.74000
H  22.80400 51.15100 30.18500
H  23.28500 54.42200 32.79700
H  24.50100 53.16400 33.57800
H  22.77000 53.45100 33.91700

