158

Mg 8.20300 3.08700 27.05800
C  9.37300 1.56800 29.96800
C  5.77100 4.65900 28.93600
C  7.03200 4.54900 24.23600
C  10.42000 1.15400 25.09200
N  7.46900 2.83800 29.19900
C  8.23600 2.32400 30.20300
C  7.73200 2.85500 31.55200
C  6.32800 3.50600 31.14700
C  6.48800 3.66500 29.67100
C  5.01900 2.78500 31.52800
C  8.82600 3.87200 32.12400
C  8.67500 4.37100 33.59400
H  9.79500 3.92400 34.53700
N  6.61600 4.40700 26.63800
C  5.78700 4.96800 27.54500
C  4.95300 6.05700 26.88100
C  5.36100 6.04000 25.52400
C  6.33800 4.92600 25.39800
C  3.99800 6.98200 27.63700
C  4.86900 6.81800 24.39100
O  5.02100 6.61900 23.19000
C  3.99500 8.08500 24.66600
N  8.60600 2.77700 24.94300
C  8.02500 3.58600 23.99800
C  8.79700 3.41400 22.62800
C  9.79900 2.33200 22.99400
C  9.67900 2.15100 24.45300
C  7.75900 3.14500 21.54100
C  11.30600 2.76100 22.68900
C  11.98100 3.69100 23.68300
N  9.58500 1.57900 27.37500
C  10.42800 0.93700 26.46100
C  11.30900 0.06700 27.22700
C  10.96700 0.34000 28.58500
C  9.85800 1.20800 28.65100
C  12.44700 -0.89300 26.62800
C  11.34200 -0.02500 29.95400
O  12.07200 -0.85400 30.45900
C  10.38500 0.90000 30.90400
C  9.76900 0.16500 32.05900
O  8.77500 -0.56700 32.07200
O  10.66600 0.25400 33.09200
C  10.14600 -0.14700 34.37900
H  5.05200 5.24100 29.51700
H  6.91000 5.21500 23.37900
H  11.06000 0.53400 24.46000
H  7.63800 1.97200 32.18500
H  6.24200 4.53500 31.49500
H  5.27300 1.82700 31.98200
H  4.36900 2.58600 30.67600
H  4.38700 3.24700 32.28600
H  8.67800 4.71800 31.45300
H  9.85000 3.60000 31.87200
H  7.66000 4.12100 33.90100
H  8.68400 5.45900 33.65800
H  4.44800 7.96500 27.77400
H  3.75200 6.47100 28.56800
H  3.10600 7.16700 27.03900
H  2.95900 7.83700 24.89700
H  4.07200 8.58700 23.70100
H  4.40500 8.56100 25.55700
H  9.33000 4.31400 22.32300
H  9.47700 1.45200 22.43600
H  8.22000 2.49200 20.80000
H  7.36800 4.09500 21.17500
H  6.93900 2.55900 21.95700
H  11.41300 3.15400 21.67900
H  11.82300 1.80500 22.60300
H  11.37200 4.06000 24.50900
H  12.15300 4.60100 23.10800
H  12.95000 3.30500 24.00100
H  13.29700 -0.88500 27.31100
H  12.73000 -0.44300 25.67600
H  12.00900 -1.86700 26.41100
H  11.10500 1.66600 31.19000
H  9.66000 -1.11200 34.23700
H  9.45800 0.60300 34.76700
H  10.94800 -0.24300 35.11200
Mg 26.46900 49.95600 26.01900
C  24.72800 51.54600 28.53900
C  28.61400 48.69800 28.44800
C  28.32900 48.61000 23.54200
C  24.19500 51.17400 23.64000
N  26.68500 50.14100 28.25700
C  25.81000 50.83900 29.07700
C  26.19100 50.69200 30.52800
C  27.60600 50.04700 30.44300
C  27.63800 49.55100 28.97900
C  28.77700 51.00500 30.66100
C  25.19700 49.85300 31.35300
C  24.78000 50.40200 32.80100
H  25.88300 50.52000 33.83700
N  28.24700 48.87600 25.99900
C  28.92500 48.50400 27.08000
C  30.06700 47.68500 26.65500
C  30.02000 47.64100 25.25300
C  28.85400 48.42300 24.81100
C  31.07900 47.04200 27.61000
C  31.00100 46.92900 24.31000
O  30.95900 47.12600 23.09200
C  32.13900 46.01500 24.79100
N  26.31500 49.96700 23.85600
C  27.18100 49.34300 23.09300
C  26.79200 49.31100 21.60600
C  25.28300 49.91200 21.61500
C  25.23100 50.40500 23.08400
C  27.79800 49.90100 20.59500
C  24.18500 48.81000 21.30900
C  24.33300 47.43000 21.99300
N  24.82900 51.13700 25.98500
C  24.03300 51.54600 24.98400
C  22.97500 52.41000 25.52300
C  23.26000 52.46600 26.90600
C  24.33600 51.61400 27.15900
C  21.94100 53.15500 24.77500
C  22.74100 52.95800 28.17700
O  21.74900 53.69400 28.40900
C  23.65900 52.27600 29.29500
C  24.21100 53.46800 30.08200
O  25.13800 54.27200 29.79800
O  23.47700 53.50300 31.21200
C  23.80300 54.41200 32.30100
H  29.27700 48.31400 29.22600
H  28.84100 48.06700 22.74400
H  23.34800 51.33700 22.97000
H  26.26200 51.62200 31.09200
H  27.78900 49.11500 30.97600
H  28.65000 52.05000 30.94200
H  29.31600 51.08000 29.71700
H  29.48800 50.59200 31.37700
H  25.61000 48.85100 31.46500
H  24.25400 49.74300 30.81800
H  24.05500 49.65500 33.12400
H  24.17700 51.31000 32.81200
H  30.88200 45.97200 27.67100
H  30.94700 47.28300 28.66400
H  32.09300 47.26700 27.28000
H  32.46300 45.35400 23.98700
H  31.69500 45.39000 25.56600
H  32.96900 46.41700 25.37200
H  26.77400 48.30100 21.19600
H  25.25600 50.73300 20.89900
H  27.30700 50.58700 19.90300
H  28.22100 49.09600 19.99300
H  28.55300 50.51100 21.09100
H  24.14700 48.61200 20.23800
H  23.20100 49.23200 21.51400
H  23.86200 47.52100 22.97200
H  25.38800 47.16000 22.02100
H  23.78000 46.67000 21.44200
H  21.38700 53.83200 25.42500
H  21.34000 52.42600 24.23100
H  22.48300 53.66700 23.98000
H  23.14300 51.63100 30.00600
H  24.49500 54.05900 33.06600
H  22.85500 54.69600 32.75700
H  24.15800 55.36000 31.89700

