158

Mg 47.99800 14.62700 28.42400
C  45.89100 14.71700 31.10700
C  50.20000 16.59700 30.29200
C  50.09200 14.89300 25.73900
C  45.54400 13.27600 26.41200
N  48.06300 15.41100 30.55600
C  47.07400 15.34800 31.47000
C  47.48600 15.91600 32.82900
C  48.74600 16.74700 32.44700
C  49.08600 16.21100 31.01200
C  48.50300 18.28400 32.47400
C  47.88400 14.64600 33.72800
C  46.89300 14.51200 35.00000
H  47.60700 14.78800 36.33400
N  49.96100 15.47000 28.15300
C  50.66200 16.24800 29.00000
C  52.03000 16.52300 28.39600
C  52.07900 15.81800 27.12700
C  50.68700 15.32600 26.95100
C  53.08000 17.29800 29.13000
C  53.16900 15.70500 26.00000
O  52.98900 15.25400 24.82500
C  54.48800 16.32200 26.27000
N  47.83400 14.25100 26.37400
C  48.83900 14.42900 25.48700
C  48.33100 14.14000 24.05900
C  46.95100 13.36000 24.27000
C  46.74000 13.62100 25.76000
C  48.43900 15.40300 23.07800
C  46.86700 11.83000 23.93500
C  47.52900 10.87500 25.02900
N  46.09000 14.07800 28.60200
C  45.20700 13.46800 27.75400
C  44.00500 13.22800 28.42600
C  44.22000 13.70400 29.77100
C  45.53400 14.20600 29.82100
C  42.71800 12.69800 27.93400
C  43.53200 13.87500 31.06000
O  42.35800 13.74500 31.46100
C  44.55200 14.62300 31.86900
C  44.05000 15.97000 32.26900
O  43.88200 16.95100 31.50700
O  43.58200 15.97200 33.54800
C  42.93900 17.18700 34.08300
H  50.96900 17.12400 30.86100
H  50.69400 14.89000 24.82800
H  44.75200 12.86300 25.78300
H  46.60500 16.38200 33.27100
H  49.54900 16.65900 33.17900
H  47.45400 18.46400 32.23900
H  49.12200 18.81900 31.75400
H  48.63600 18.44700 33.54400
H  48.90100 14.81500 34.08200
H  47.91800 13.73900 33.12400
H  46.47700 13.50800 34.91000
H  46.04300 15.17300 34.83500
H  53.63100 16.62800 29.78900
H  52.48400 18.01900 29.69000
H  53.69800 17.80600 28.39000
H  54.86000 15.99600 27.24200
H  54.22900 17.37600 26.17300
H  55.24100 16.10900 25.51200
H  48.98400 13.36900 23.65000
H  46.13500 13.79700 23.69300
H  47.96300 16.28000 23.51400
H  48.03100 15.22600 22.08300
H  49.51800 15.53600 22.99900
H  47.32800 11.60700 22.97300
H  45.83000 11.49300 23.95700
H  46.89500 10.83200 25.91500
H  48.54700 11.21200 25.22300
H  47.52400 9.85000 24.65900
H  42.36300 13.17800 27.02100
H  41.97600 13.04400 28.65300
H  42.65800 11.61600 27.81700
H  44.67200 14.06200 32.79600
H  42.97500 18.03900 33.40300
H  43.39200 17.46100 35.03600
H  42.01800 16.74900 34.46800
Mg 6.46700 54.48600 40.32400
C  6.66100 50.97200 40.16400
C  9.80200 54.59700 39.55500
C  6.11700 57.81700 39.97600
C  2.94900 54.16300 40.53300
N  7.98700 52.95400 39.95400
C  7.85800 51.59500 39.92500
C  9.24200 50.95500 39.96900
C  10.22200 52.13500 40.14700
C  9.26900 53.30500 39.79700
C  11.00500 52.27200 41.49900
C  9.57900 50.11500 38.72500
C  9.39300 50.88500 37.45300
H  8.03800 50.86600 36.66000
N  7.72800 55.99200 39.86000
C  9.06200 55.79900 39.53900
C  9.62900 57.03700 39.27400
C  8.67800 58.03900 39.50300
C  7.42200 57.34300 39.84900
C  11.10300 57.23900 38.95900
C  8.89500 59.52900 39.29300
O  9.99100 60.03200 39.19400
C  7.70300 60.43000 39.31000
N  4.78200 55.73300 40.05800
C  4.93400 57.09000 40.02100
C  3.53900 57.76400 40.09300
C  2.55600 56.64700 40.39600
C  3.47800 55.40500 40.28200
C  3.40700 58.95500 41.08900
C  1.21800 56.62000 39.62900
C  -0.08200 56.78500 40.41000
N  5.02100 52.93900 40.39000
C  3.67500 52.98300 40.62400
C  3.19300 51.53200 40.81700
C  4.34800 50.73200 40.76200
C  5.37000 51.61300 40.35300
C  1.76300 51.06100 41.06300
C  4.93700 49.36300 41.02000
O  4.33800 48.37400 41.38700
C  6.43200 49.44600 40.48200
C  6.24900 48.71800 39.23500
O  5.72700 49.09500 38.20400
O  6.81500 47.46700 39.44300
C  6.58800 46.56100 38.26500
H  10.87900 54.56600 39.37800
H  5.92800 58.88800 40.08200
H  1.89000 53.97100 40.71500
H  9.20400 50.20800 40.76200
H  10.99300 51.95100 39.39800
H  10.64800 51.52700 42.21100
H  10.87800 53.26600 41.92700
H  12.06600 52.11000 41.30900
H  9.02300 49.17800 38.68600
H  10.61200 49.76900 38.71300
H  10.25100 50.72600 36.79900
H  9.39600 51.95600 37.65500
H  11.64500 56.39100 38.54000
H  11.73600 57.82600 39.62400
H  10.99900 57.86500 38.07200
H  6.79200 60.19100 38.76200
H  8.00500 61.34600 38.80100
H  7.38200 60.76700 40.29500
H  3.40000 58.26200 39.13300
H  2.19400 56.80700 41.41100
H  3.28500 59.85100 40.47900
H  4.32200 59.00900 41.67900
H  2.54800 58.88500 41.75700
H  1.17000 55.71500 39.02300
H  1.27700 57.44700 38.92200
H  -0.77500 55.97300 40.18600
H  -0.75100 57.58300 40.08600
H  0.01700 56.96400 41.48000
H  1.22400 51.77600 41.68500
H  1.75900 50.05000 41.46900
H  1.45700 50.99900 40.01800
H  7.17800 49.03500 41.16100
H  7.00500 47.01000 37.36300
H  5.49900 46.53700 38.31500
H  6.93900 45.53500 38.37600

