158

Mg 45.10500 4.06000 47.00800
C  43.26500 7.12600 46.51300
C  42.37000 2.49600 45.91500
C  46.93500 1.29000 47.01700
C  48.06400 6.06800 46.96100
N  43.02100 4.74000 46.44400
C  42.50400 6.01300 46.39100
C  41.00300 5.99600 46.13000
C  40.75600 4.48700 45.93000
C  42.12100 3.87900 45.99400
C  39.91100 3.77600 47.11600
C  40.53200 6.85100 44.86000
C  41.45500 6.94600 43.57200
H  40.69000 6.80700 42.22900
N  44.66200 2.11300 46.75000
C  43.46000 1.65100 46.28900
C  43.56100 0.18300 46.15900
C  44.87800 -0.23200 46.33500
C  45.62800 1.05800 46.67200
C  42.44700 -0.69200 45.65300
C  45.48500 -1.66100 46.39400
O  44.78700 -2.61000 46.07600
C  46.94700 -2.01800 46.75800
N  47.17100 3.73100 46.86100
C  47.62400 2.46500 47.03800
C  49.16700 2.39600 47.04900
C  49.58400 3.93000 47.09900
C  48.20600 4.67500 46.88600
C  49.93900 1.58700 48.17800
C  50.68100 4.41200 46.12700
C  51.76100 5.29100 46.66800
N  45.59400 6.13300 46.88900
C  46.83000 6.75000 46.88600
C  46.61900 8.18400 46.98600
C  45.26100 8.38400 46.90500
C  44.64600 7.16300 46.75300
C  47.70100 9.22800 47.09700
C  44.19700 9.36500 46.87700
O  44.36700 10.59200 46.83700
C  42.81300 8.60000 46.67000
C  42.02100 8.70500 47.88600
O  41.99700 7.96700 48.82200
O  41.20900 9.82100 47.79000
C  40.19200 9.96100 48.83600
H  41.44400 2.05100 45.54300
H  47.69100 0.50200 46.98800
H  48.94200 6.71600 47.01400
H  40.57500 6.39500 47.05000
H  40.32000 4.21700 44.96800
H  39.38900 4.57000 47.65000
H  40.58800 3.15700 47.70400
H  39.18700 3.21800 46.52400
H  40.40000 7.87900 45.19600
H  39.58100 6.42700 44.53700
H  42.18000 6.13300 43.61300
H  41.96800 7.90400 43.48200
H  41.50500 -0.14600 45.70800
H  42.39200 -1.55600 46.31500
H  42.72200 -1.01600 44.64900
H  46.83700 -3.09600 46.87600
H  47.13300 -1.60200 47.74900
H  47.71500 -1.89700 45.99400
H  49.54200 1.99100 46.10900
H  49.91300 4.09300 48.12500
H  50.33400 0.68200 47.71600
H  49.14500 1.27800 48.85800
H  50.76000 2.04900 48.72700
H  50.08300 4.97100 45.40600
H  51.11800 3.53700 45.64600
H  51.73400 6.21300 46.08600
H  52.73700 4.81600 46.57300
H  51.59200 5.66200 47.67900
H  47.43600 9.61400 48.08100
H  47.65400 10.06700 46.40300
H  48.70100 8.80100 47.03000
H  42.25600 8.98700 45.81700
H  40.21200 9.33000 49.72400
H  39.29000 9.70200 48.28100
H  40.21800 10.99300 49.18800
Mg 9.57500 48.26100 25.00400
C  7.65500 47.90300 28.01400
C  12.04500 49.58900 26.88400
C  11.22600 48.33700 22.27600
C  6.69100 46.96100 23.24500
N  9.76700 48.83500 27.18400
C  8.88700 48.56900 28.25900
C  9.53500 49.07300 29.59400
C  10.64700 50.03100 29.08300
C  10.87500 49.48500 27.65400
C  10.30600 51.59800 29.04800
C  10.05000 47.99100 30.53600
C  9.32600 48.08400 31.92000
H  9.76700 47.00300 32.97200
N  11.37800 48.93900 24.61300
C  12.29100 49.35100 25.49100
C  13.60400 49.59900 24.82200
C  13.31200 49.15300 23.51900
C  11.93200 48.85200 23.38500
C  14.83400 50.03500 25.53800
C  14.27600 49.02200 22.37900
O  13.97400 48.53000 21.26900
C  15.71400 49.35900 22.60700
N  8.90800 47.93200 23.07600
C  9.88000 48.00100 22.07100
C  9.32800 47.64000 20.69700
C  8.02900 47.05300 21.09500
C  7.84000 47.33000 22.61600
C  9.25200 48.78300 19.62100
C  7.90300 45.49700 20.73800
C  8.53200 44.45000 21.54400
N  7.50400 47.67600 25.47900
C  6.50000 47.11000 24.67900
C  5.32600 46.84900 25.46300
C  5.77300 47.08700 26.80400
C  7.11600 47.57500 26.74500
C  3.97000 46.65500 25.07700
C  5.31900 47.21900 28.18700
O  4.20000 46.95800 28.69800
C  6.57200 47.58500 28.99200
C  6.86600 46.28900 29.79200
O  7.59600 45.37500 29.54300
O  6.23200 46.42700 30.99400
C  6.37400 45.29700 31.97000
H  12.87200 49.87400 27.53800
H  11.79800 48.32100 21.34500
H  5.96900 46.34700 22.70300
H  8.84600 49.74200 30.11000
H  11.56900 49.86400 29.64000
H  10.88500 52.11100 29.81500
H  9.22500 51.72100 29.10700
H  10.73700 51.87900 28.08600
H  11.13000 48.08000 30.65200
H  10.00400 47.01400 30.05500
H  8.25400 47.90700 31.82500
H  9.59800 49.02100 32.40600
H  15.41800 49.12100 25.65100
H  14.61000 50.36400 26.55300
H  15.41900 50.87600 25.16800
H  16.30900 49.14400 21.71900
H  16.17000 48.72200 23.36400
H  15.83400 50.41600 22.84700
H  9.95600 46.85900 20.26800
H  7.27400 47.57000 20.50100
H  9.38100 49.70700 20.18400
H  8.30500 48.82400 19.08300
H  10.18200 48.63000 19.07300
H  8.17900 45.25900 19.71100
H  6.81900 45.38100 20.74800
H  8.86300 44.92000 22.47100
H  9.37300 44.04800 20.97900
H  7.87700 43.63100 21.84100
H  3.60700 47.59800 24.66900
H  3.43500 46.42300 25.99800
H  3.86400 45.90700 24.29100
H  6.43400 48.42700 29.66900
H  6.27900 45.81600 32.92400
H  7.28200 44.69300 31.98900
H  5.53600 44.60700 31.87300

