158

Mg 44.82100 3.63700 47.20600
C  42.64500 6.34100 46.79400
C  42.03400 1.49400 47.31900
C  46.90500 1.00300 46.81300
C  47.49300 5.99200 46.68500
N  42.55000 3.94900 47.10600
C  41.93000 5.09200 46.83200
C  40.36900 4.87800 46.65100
C  40.20600 3.34000 46.99200
C  41.69500 2.92400 47.28200
C  39.15500 3.15700 48.15500
C  40.03000 5.16300 45.09800
C  38.83600 5.97500 44.76400
H  39.03700 7.03300 43.74500
N  44.53900 1.52500 47.17300
C  43.27300 0.88700 47.22900
C  43.57900 -0.58400 47.31700
C  44.95000 -0.72300 47.09700
C  45.54900 0.60900 46.94500
C  42.47400 -1.67300 47.44700
C  45.73700 -2.06300 47.11100
O  45.16200 -3.13700 47.31500
C  47.25300 -2.16700 46.94100
N  46.83900 3.56000 46.56800
C  47.45600 2.30500 46.67500
C  48.98200 2.53300 46.71400
C  49.13500 4.08900 46.94200
C  47.72600 4.63400 46.76900
C  49.76000 1.82500 47.81900
C  50.11200 4.80700 45.83700
C  51.13800 5.78400 46.49400
N  45.09300 5.78800 46.85000
C  46.21300 6.58300 46.72800
C  45.76200 7.90800 46.61600
C  44.37600 7.96600 46.57200
C  44.00100 6.56200 46.74200
C  46.72800 9.18400 46.34800
C  43.15900 8.77400 46.55800
O  42.92300 9.97900 46.58200
C  42.03500 7.73300 46.61600
C  41.20300 8.11200 47.76900
O  41.32300 7.68400 48.91500
O  40.22500 9.02900 47.36100
C  39.29200 9.50100 48.43700
H  41.19400 0.82000 47.14200
H  47.63300 0.18900 46.81400
H  48.40900 6.58400 46.64000
H  39.72700 5.52600 47.24900
H  39.88000 2.74600 46.13800
H  38.55700 4.06100 48.27600
H  39.55500 2.94800 49.14700
H  38.55500 2.27700 47.92600
H  39.78100 4.21900 44.61200
H  40.84500 5.65000 44.56300
H  38.53900 6.51900 45.66100
H  38.08300 5.26300 44.42600
H  42.37000 -2.38400 46.62700
H  41.56500 -1.17100 47.77800
H  42.73500 -2.38800 48.22700
H  47.83400 -1.63000 47.69000
H  47.38700 -1.89300 45.89400
H  47.57300 -3.20500 47.03400
H  49.42300 2.18400 45.78000
H  49.38400 4.32600 47.97700
H  49.28600 1.98400 48.78700
H  50.82000 2.07700 47.84200
H  49.66200 0.76100 47.60000
H  49.61500 5.18200 44.94200
H  50.78100 4.01300 45.50700
H  52.10000 5.28200 46.39500
H  50.88200 5.98700 47.53400
H  51.15600 6.68700 45.88400
H  46.51800 9.63000 45.37600
H  47.78600 8.94800 46.46300
H  46.51900 9.89000 47.15100
H  41.39300 7.84300 45.74200
H  39.61000 10.53400 48.57800
H  39.44700 9.04800 49.41700
H  38.28500 9.48200 48.02100
Mg -1.26300 35.28700 27.33300
C  -3.05900 33.51800 29.69300
C  -0.29600 37.45500 29.89900
C  0.64800 36.85700 25.08600
C  -2.39700 32.98200 24.91400
N  -1.55000 35.35800 29.51000
C  -2.22600 34.48600 30.25900
C  -2.03800 34.77400 31.76700
C  -1.46000 36.18300 31.76700
C  -1.12000 36.33400 30.26900
C  -2.45700 37.31100 32.23600
C  -1.22900 33.70500 32.58700
C  -2.05500 32.78800 33.44300
H  -1.69300 32.34000 34.87600
N  -0.08600 36.96500 27.48400
C  0.21000 37.71800 28.58400
C  1.19000 38.73100 28.20600
C  1.27900 38.64900 26.80000
C  0.55100 37.49000 26.40400
C  1.72300 39.68300 29.25500
C  2.09500 39.57700 25.86800
O  2.01000 39.44100 24.65100
C  2.91200 40.69500 26.37400
N  -1.10500 35.13200 25.23800
C  -0.08600 35.80400 24.60700
C  0.23500 35.20100 23.21500
C  -0.81500 34.01300 23.08500
C  -1.50500 34.03900 24.48600
C  0.18700 36.28200 22.08800
C  -0.21200 32.56700 22.82600
C  -0.96900 31.67900 21.83900
N  -2.61400 33.65500 27.23800
C  -3.03500 32.86900 26.15800
C  -4.02900 31.92800 26.65900
C  -4.08600 32.19400 28.00100
C  -3.16000 33.19200 28.30900
C  -4.82100 31.02800 25.89600
C  -4.75700 31.82100 29.26500
O  -5.62800 31.01100 29.54300
C  -4.08200 32.68600 30.35100
C  -5.12100 33.38900 31.11300
O  -5.67000 34.46500 30.94300
O  -5.42600 32.54800 32.18800
C  -6.40800 33.08000 33.16400
H  -0.04800 38.17000 30.68600
H  1.46300 37.22200 24.45800
H  -2.58200 32.20500 24.17000
H  -3.05700 34.71300 32.14900
H  -0.51600 36.22900 32.30900
H  -3.48100 37.00900 32.45700
H  -2.55800 38.10000 31.49000
H  -2.03900 37.67400 33.17500
H  -0.51600 34.22300 33.22900
H  -0.70800 33.09500 31.85000
H  -2.12600 31.91500 32.79400
H  -3.06700 33.18500 33.52400
H  1.60200 39.39200 30.29900
H  1.35100 40.67600 29.00100
H  2.75500 39.78000 28.91900
H  3.84200 40.29700 26.77900
H  2.33900 41.32200 27.05600
H  3.15100 41.37300 25.55400
H  1.28700 34.92300 23.28200
H  -1.55700 34.15300 22.29800
H  -0.49800 37.09200 22.34100
H  -0.29500 35.85000 21.21100
H  1.18700 36.64000 21.84400
H  -0.18000 31.99300 23.75200
H  0.83100 32.69500 22.53700
H  -1.12500 30.79900 22.46300
H  -0.48200 31.42100 20.89900
H  -1.90800 32.20500 21.67200
H  -4.16100 30.34400 25.36200
H  -5.42100 31.65200 25.23500
H  -5.35900 30.50100 26.68300
H  -3.76900 32.00400 31.14200
H  -6.54900 32.31000 33.92200
H  -7.30600 33.48100 32.69300
H  -5.79000 33.82800 33.66200

