158

Mg -2.14300 17.19200 27.55400
C  -2.22900 15.15000 30.26500
C  -2.60500 19.94800 29.52400
C  -2.41200 19.21800 24.71000
C  -2.12100 14.42900 25.41400
N  -2.40500 17.47400 29.63300
C  -2.29300 16.50300 30.60200
C  -2.36300 17.21000 32.00200
C  -2.72500 18.68900 31.73100
C  -2.57700 18.71000 30.22100
C  -3.86900 19.26400 32.46800
C  -0.91400 17.09100 32.78500
C  -0.58200 18.03000 34.02000
H  0.32400 17.52000 35.11300
N  -2.29700 19.33500 27.19700
C  -2.48100 20.26400 28.13500
C  -2.40400 21.60000 27.53200
C  -2.32800 21.38300 26.12300
C  -2.35600 19.95100 25.94500
C  -2.40200 22.88600 28.28600
C  -2.21800 22.49100 25.00000
O  -2.34200 22.20800 23.81300
C  -2.14900 23.99300 25.40600
N  -2.38400 16.82200 25.49900
C  -2.51700 17.79300 24.51200
C  -2.58800 17.20500 23.03400
C  -1.95400 15.81000 23.30900
C  -2.12300 15.66800 24.84800
C  -3.92800 17.23200 22.24800
C  -0.49500 15.76700 22.81100
C  0.59500 16.67200 23.33600
N  -2.14900 15.18500 27.74000
C  -2.17600 14.15700 26.81800
C  -2.35100 12.88100 27.47700
C  -2.32100 13.19000 28.85900
C  -2.19300 14.57500 28.92500
C  -2.40500 11.51000 26.79700
C  -2.31600 12.69400 30.19800
O  -2.39000 11.53500 30.56900
C  -2.23700 13.89600 31.11000
C  -1.13200 13.79600 32.09700
O  0.06700 14.04500 31.94300
O  -1.57500 13.32600 33.28000
C  -0.67200 13.27600 34.45400
H  -2.58900 20.86300 30.12000
H  -2.41600 19.83300 23.80700
H  -2.21500 13.57100 24.74400
H  -3.19700 16.84800 32.60200
H  -1.94200 19.39600 32.00300
H  -3.55800 20.09800 33.09800
H  -4.23100 18.50500 33.16100
H  -4.59000 19.61700 31.73100
H  -0.18500 17.32700 32.01000
H  -0.69100 16.07900 33.12300
H  -1.51100 18.33300 34.50300
H  -0.06900 18.93100 33.68100
H  -2.42600 22.74200 29.36600
H  -3.33800 23.32900 27.94600
H  -1.53100 23.50600 28.07200
H  -2.25000 24.57800 24.49200
H  -1.20100 24.17800 25.91000
H  -3.03900 24.31600 25.94600
H  -1.83700 17.72900 22.44400
H  -2.49000 15.00400 22.80900
H  -4.64900 17.91600 22.69600
H  -4.34200 16.22700 22.16000
H  -3.76000 17.73100 21.29400
H  -0.67300 15.93700 21.74900
H  -0.21800 14.74300 23.06000
H  1.19800 16.10200 24.04200
H  0.18400 17.56000 23.81500
H  1.26900 17.09800 22.59300
H  -1.54400 11.44200 26.13300
H  -3.33700 11.45500 26.23400
H  -2.52800 10.84100 27.64900
H  -3.11000 13.94600 31.76100
H  -0.42700 14.26100 34.85100
H  0.24900 12.83400 34.07400
H  -1.11100 12.65900 35.23800
Mg 40.92500 7.66100 28.74900
C  42.59100 8.94200 31.55300
C  38.45700 6.15000 30.80100
C  39.23100 6.60100 26.00100
C  43.62700 8.60100 26.74300
N  40.65300 7.50100 30.92700
C  41.38500 8.22000 31.84600
C  40.73700 8.05000 33.17400
C  39.55400 6.96300 32.97400
C  39.55800 6.79700 31.45300
C  39.92100 5.50000 33.56400
C  40.19000 9.39800 33.81000
C  40.89300 9.85400 35.12700
H  40.27600 10.71900 36.17700
N  39.12600 6.56000 28.42400
C  38.23800 6.06200 29.44200
C  37.02900 5.41000 28.76800
C  37.19200 5.74500 27.39700
C  38.52200 6.37700 27.21700
C  36.01700 4.60800 29.53500
C  36.23500 5.40900 26.36500
O  36.36100 5.71300 25.19800
C  34.90300 4.86800 26.75000
N  41.29500 7.71200 26.69700
C  40.46700 7.14800 25.71300
C  41.17700 7.02600 24.30700
C  42.56600 7.70900 24.55700
C  42.53700 8.01600 26.09400
C  41.22400 5.53500 23.76300
C  42.87600 8.96400 23.66100
C  42.00100 10.17500 24.09200
N  42.71300 8.58300 29.05900
C  43.69500 8.89100 28.18100
C  44.82000 9.50000 28.89800
C  44.33200 9.59200 30.18400
C  43.10000 8.98300 30.24000
C  46.11800 9.96600 28.34200
C  44.68800 10.07300 31.54200
O  45.67200 10.62600 31.89200
C  43.50300 9.69100 32.53600
C  44.04900 8.95700 33.63600
O  44.00100 7.74300 33.69500
O  44.41800 9.89300 34.57100
C  44.82200 9.22100 35.80000
H  37.68600 5.82700 31.50400
H  38.68100 6.25100 25.12400
H  44.48800 8.85600 26.12200
H  41.42200 7.42500 33.74700
H  38.61800 7.26100 33.44600
H  40.20300 4.89600 32.70100
H  39.03900 5.10500 34.06900
H  40.61700 5.60400 34.39500
H  39.12500 9.25100 33.98500
H  40.33100 10.22200 33.11000
H  41.76700 10.43500 34.83500
H  41.29700 8.95700 35.59600
H  36.42900 4.56700 30.54400
H  35.84800 3.67500 28.99900
H  35.05100 5.10800 29.59600
H  34.35300 5.62800 27.30400
H  34.97400 3.92800 27.29700
H  34.30600 4.68300 25.85700
H  40.60700 7.51400 23.51600
H  43.26400 6.89100 24.37600
H  42.20100 5.07500 23.91400
H  41.01600 5.39000 22.70300
H  40.43400 4.94600 24.22900
H  42.73200 8.73100 22.60700
H  43.91900 9.21500 23.85800
H  42.62800 11.03100 24.34100
H  41.21900 9.92400 24.80900
H  41.59100 10.43900 23.11700
H  46.04600 10.91700 27.81400
H  46.58000 9.20000 27.71800
H  46.76900 10.01400 29.21500
H  42.91400 10.58900 32.72200
H  43.93700 8.75000 36.22800
H  45.13500 9.93500 36.56100
H  45.54700 8.40800 35.74400

