158

Mg 50.00400 45.85400 42.29700
C  46.54500 46.65900 41.67000
C  49.22100 42.74900 41.23700
C  53.17100 45.30100 42.39500
C  50.41100 49.23500 43.22600
N  48.00200 44.81100 41.52800
C  46.75500 45.33200 41.39900
C  45.79000 44.29000 40.77900
C  46.66200 42.99700 40.82400
C  48.03800 43.52400 41.22100
C  46.13400 41.83900 41.78300
C  45.64900 44.78600 39.37800
C  44.20000 44.70700 38.80700
H  43.91500 43.47100 37.83000
N  51.03900 44.28700 41.80200
C  50.60500 43.04500 41.46000
C  51.66000 42.15500 41.32500
C  52.86900 42.86500 41.58900
C  52.42300 44.18300 42.04600
C  51.45400 40.70400 40.91500
C  54.31800 42.24400 41.38400
O  54.45500 41.07300 41.17100
C  55.50200 43.17300 41.38400
N  51.63200 47.19000 42.78300
C  52.91400 46.66700 42.72500
C  53.92200 47.75000 43.10500
C  53.04900 48.97700 43.54200
C  51.63600 48.47600 43.16600
C  55.01800 47.43400 44.25700
C  53.53200 50.34000 42.90000
C  53.57300 51.56800 43.84800
N  48.79100 47.64100 42.48400
C  49.09300 48.94600 42.84300
C  47.92900 49.78000 42.85700
C  46.92900 48.95000 42.36200
C  47.47300 47.63700 42.13100
C  47.89600 51.27100 43.21000
C  45.55100 48.90100 41.92100
O  44.75100 49.79900 41.89800
C  45.29300 47.42500 41.37000
C  44.04500 46.94800 42.09800
O  43.92800 46.82800 43.31000
O  42.97800 46.94000 41.20400
C  41.66400 46.52700 41.78000
H  49.00400 41.72200 40.93500
H  54.23300 45.12900 42.58200
H  50.54500 50.25900 43.58200
H  44.89400 44.13800 41.38000
H  46.80000 42.38500 39.93300
H  45.04700 41.91100 41.74200
H  46.61600 41.93500 42.75600
H  46.27000 40.85700 41.33000
H  46.26000 44.20500 38.68700
H  45.98300 45.79500 39.13800
H  43.81800 45.61600 38.34100
H  43.46000 44.55100 39.59200
H  52.37500 40.18800 41.18400
H  51.28200 40.62900 39.84100
H  50.64400 40.27000 41.50100
H  55.82500 43.36500 42.40700
H  55.18800 44.11300 40.93100
H  56.22000 42.70700 40.71000
H  54.50600 47.97500 42.21300
H  52.94000 48.97900 44.62700
H  54.74500 46.46100 44.66500
H  55.00400 48.18300 45.05000
H  55.94100 47.45700 43.67800
H  52.95000 50.58200 42.01000
H  54.44300 50.19400 42.32000
H  54.59000 51.96100 43.83500
H  53.25100 51.25600 44.84200
H  52.91100 52.38200 43.55300
H  46.87200 51.39600 43.56200
H  48.08000 51.87300 42.32000
H  48.60000 51.52100 44.00400
H  45.13700 47.53700 40.29700
H  41.02400 46.46600 40.90000
H  41.21100 47.30500 42.39500
H  41.75000 45.57100 42.29700
Mg -10.57000 17.27100 40.92400
C  -7.24300 16.77300 40.95500
C  -10.09000 20.61600 40.46400
C  -13.90200 17.62800 40.63100
C  -10.98000 13.78100 40.37400
N  -8.88900 18.51900 40.76900
C  -7.64600 18.08800 40.76300
C  -6.62600 19.20700 40.35400
C  -7.49200 20.54000 40.55400
C  -8.94000 19.88300 40.55100
C  -7.25300 21.38900 41.80900
C  -6.12200 19.11200 38.88500
C  -4.70000 18.64100 38.53600
H  -4.55000 17.30100 37.75100
N  -11.88800 18.88300 40.71700
C  -11.50200 20.20400 40.50000
C  -12.53500 21.10800 40.53500
C  -13.75800 20.32500 40.48800
C  -13.26800 18.85100 40.63500
C  -12.31900 22.59800 40.33400
C  -15.19200 20.84600 40.22100
O  -15.42100 22.02600 39.91600
C  -16.35300 19.96400 40.56300
N  -12.14800 15.92000 40.58900
C  -13.41600 16.31200 40.52800
C  -14.39900 15.17100 40.37600
C  -13.47500 14.04400 39.82200
C  -12.10900 14.59700 40.26300
C  -15.12100 14.85300 41.72600
C  -13.51900 13.83900 38.34000
C  -13.94600 12.42300 37.95600
N  -9.41800 15.56100 40.81000
C  -9.70700 14.17700 40.75700
C  -8.44200 13.39600 40.81900
C  -7.48800 14.37900 40.88200
C  -8.07100 15.64300 41.04800
C  -8.21900 11.92300 40.74500
C  -6.00900 14.61200 40.89500
O  -5.09400 13.85300 40.78500
C  -5.86400 16.22800 41.10100
C  -5.22600 16.40100 42.46400
O  -5.58200 15.88700 43.50800
O  -4.18000 17.29900 42.31600
C  -3.48000 17.55000 43.63900
H  -9.85200 21.66300 40.26200
H  -14.99100 17.70700 40.63000
H  -11.07400 12.72800 40.10100
H  -5.77300 19.23800 41.03200
H  -7.37700 21.22900 39.71800
H  -8.13700 21.53600 42.43000
H  -6.91700 22.35900 41.44200
H  -6.45500 20.92200 42.38600
H  -6.28000 20.06100 38.37200
H  -6.73400 18.32400 38.44600
H  -4.12200 18.57600 39.45900
H  -4.17400 19.36000 37.90800
H  -11.84400 22.94800 41.25100
H  -13.13400 23.20200 39.93500
H  -11.54500 22.79900 39.59300
H  -16.64500 19.24400 39.79900
H  -17.26700 20.54200 40.69800
H  -16.17800 19.39400 41.47500
H  -15.16700 15.55900 39.70700
H  -13.74500 13.11800 40.33000
H  -16.19000 14.78200 41.52600
H  -14.80900 15.60500 42.45100
H  -14.94700 13.88600 42.19800
H  -12.57700 14.13400 37.87700
H  -14.18200 14.60900 37.94400
H  -14.84500 12.60800 37.36700
H  -14.23500 11.78600 38.79100
H  -13.11000 11.93500 37.45400
H  -7.18800 11.63400 40.94800
H  -8.42300 11.64300 39.71100
H  -8.75100 11.39200 41.53400
H  -5.17000 16.61100 40.35300
H  -2.79900 18.37900 43.44600
H  -2.85100 16.70600 43.92500
H  -4.11600 17.85400 44.47000

