158

Mg 16.35100 -2.08000 27.55100
C  15.38800 -0.00700 30.31900
C  18.60100 -3.52600 29.62900
C  17.53800 -3.60700 24.85300
C  14.24600 -0.32200 25.55100
N  16.78400 -1.87700 29.70700
C  16.28900 -1.00700 30.68700
C  16.78000 -1.32900 32.08200
C  17.88300 -2.39800 31.79300
C  17.74400 -2.61100 30.25900
C  19.27300 -1.99900 32.27200
C  15.68100 -1.87900 32.98700
C  15.57300 -1.30000 34.51200
H  16.82300 -0.90700 35.26300
N  17.78100 -3.47200 27.32100
C  18.62300 -3.93100 28.28900
C  19.46800 -4.95500 27.73600
C  19.10300 -5.08900 26.35800
C  18.10500 -3.98800 26.07300
C  20.35900 -5.82700 28.44900
C  19.64800 -6.12900 25.31900
O  19.19800 -6.13800 24.21000
C  20.83000 -7.05700 25.63300
N  16.03800 -1.93000 25.45700
C  16.62100 -2.62300 24.51900
C  16.29700 -2.11700 23.10000
C  14.89300 -1.44200 23.37000
C  15.09400 -1.18000 24.87200
C  17.42000 -1.29100 22.38100
C  13.60900 -2.26600 22.98700
C  12.61400 -2.84700 24.04600
N  15.06800 -0.54300 27.82900
C  14.16300 0.01100 26.92000
C  13.46800 1.12400 27.55600
C  13.88600 1.06700 28.91300
C  14.89100 0.08800 29.01100
C  12.71300 2.19100 26.76100
C  13.74100 1.79900 30.15200
O  13.06600 2.80900 30.39900
C  14.61800 1.03000 31.18100
C  15.55000 1.97100 31.91100
O  16.49300 2.55400 31.45200
O  15.11100 2.04100 33.22400
C  15.65100 3.12500 34.09300
H  19.32400 -4.09100 30.22200
H  18.00400 -4.04200 23.96600
H  13.37800 0.03000 24.99000
H  17.23600 -0.37600 32.34900
H  17.64500 -3.31200 32.33800
H  19.33100 -1.19900 33.00900
H  20.03500 -1.79000 31.52100
H  19.72600 -2.84800 32.78400
H  15.63900 -2.96700 32.93600
H  14.76100 -1.81500 32.40600
H  15.09600 -2.08800 35.09500
H  15.02700 -0.35700 34.51600
H  21.32200 -5.90000 27.94300
H  19.92800 -6.82700 28.41200
H  20.44200 -5.67200 29.52500
H  21.76800 -6.64400 25.26300
H  20.68800 -7.90100 24.95800
H  20.93100 -7.60200 26.57100
H  16.25700 -3.04400 22.52700
H  14.77700 -0.42800 22.98800
H  17.15400 -0.27500 22.08800
H  17.71200 -1.88100 21.51200
H  18.27000 -1.35800 23.06000
H  14.06400 -3.15700 22.55500
H  13.10800 -1.77300 22.15400
H  12.90900 -2.58800 25.06300
H  12.43000 -3.92100 24.01100
H  11.62900 -2.39500 23.93900
H  12.88300 3.14700 27.25500
H  11.70800 1.77800 26.84900
H  13.06400 2.19300 25.72900
H  13.88300 0.56700 31.84000
H  14.82900 3.81300 34.28900
H  16.52300 3.62500 33.67000
H  15.97600 2.59400 34.98700
Mg 34.72000 2.79300 29.25000
C  32.46300 3.60700 31.83100
C  37.23600 2.80300 31.66400
C  36.94800 2.40200 26.74200
C  32.04000 3.08300 26.91800
N  34.84400 3.15100 31.48300
C  33.78900 3.50000 32.29500
C  34.16500 3.43200 33.77700
C  35.70400 3.47000 33.68100
C  35.97400 3.10900 32.18700
C  36.33800 4.78300 34.09200
C  33.47100 2.28700 34.62800
C  32.69000 2.69400 35.83200
H  33.34100 3.75000 36.73600
N  36.82500 2.66600 29.21100
C  37.65300 2.60000 30.31900
C  39.08700 2.34100 29.81700
C  38.97700 2.19800 28.38300
C  37.52500 2.44700 28.05300
C  40.32100 2.29700 30.80200
C  40.06500 1.77700 27.36000
O  39.94000 1.82100 26.15700
C  41.44000 1.28000 27.77200
N  34.57000 2.76600 27.16500
C  35.59600 2.52200 26.32900
C  35.17300 2.46700 24.82200
C  33.62600 2.41800 24.99100
C  33.31300 2.84800 26.43400
C  35.67700 3.65500 24.07400
C  32.99000 1.02200 24.73800
C  31.59000 1.10100 24.09000
N  32.67500 3.06600 29.36000
C  31.70800 3.31500 28.29900
C  30.50400 3.61300 28.96200
C  30.79600 3.78500 30.28100
C  32.12700 3.41900 30.52400
C  29.29000 4.01500 28.29800
C  30.15400 4.20100 31.51800
O  29.03800 4.69800 31.70100
C  31.17800 4.09600 32.62100
C  31.30100 5.40100 33.28400
O  32.03100 6.34000 32.93000
O  30.47700 5.49000 34.35200
C  30.50800 6.79400 35.01700
H  37.95900 2.63800 32.46600
H  37.73200 2.33200 25.98500
H  31.17100 3.12100 26.25800
H  33.82400 4.42100 34.08300
H  36.06700 2.58100 34.19700
H  37.20500 4.62600 34.73300
H  35.53400 5.32800 34.58700
H  36.59100 5.29200 33.16200
H  34.11400 1.44200 34.87400
H  32.74100 1.81000 33.97400
H  32.34200 1.81900 36.38200
H  31.70000 3.01400 35.50700
H  40.00600 2.99900 31.57300
H  41.22000 2.78200 30.42100
H  40.52800 1.32700 31.25400
H  41.32900 0.61100 28.62600
H  42.10100 2.08700 28.08800
H  41.87200 0.74700 26.92500
H  35.40700 1.51000 24.35600
H  33.16000 3.18800 24.37600
H  34.94100 4.45700 24.14100
H  35.86200 3.42000 23.02600
H  36.58800 3.98200 24.57500
H  32.86400 0.60700 25.73800
H  33.68200 0.41100 24.15900
H  31.53800 0.72500 23.06800
H  31.16400 2.10400 24.12200
H  30.94400 0.35300 24.55200
H  29.42700 4.44000 27.30300
H  28.68600 4.69800 28.89500
H  28.71100 3.10500 28.14100
H  30.83000 3.33000 33.31300
H  29.56300 6.86200 35.55700
H  30.81400 7.62800 34.38500
H  31.33600 6.70700 35.72000

