158

Mg 0.40900 7.58800 26.08900
C  0.95600 9.83600 28.83200
C  0.73000 5.00500 28.47200
C  0.13500 5.41000 23.57400
C  0.73000 10.23100 23.80800
N  0.80500 7.52900 28.39600
C  0.90700 8.52400 29.32900
C  0.85600 7.98300 30.72600
C  1.12000 6.45900 30.62500
C  0.87800 6.32300 29.04000
C  2.42100 5.91700 31.11800
C  -0.47100 8.21200 31.56800
C  -0.38000 8.25200 33.14700
H  0.97500 8.15800 33.76000
N  0.35900 5.53600 26.04600
C  0.52900 4.65000 27.12100
C  0.33600 3.30600 26.63800
C  0.31400 3.32400 25.20500
C  0.25400 4.78700 24.89400
C  0.30200 2.09300 27.49100
C  0.34300 2.23800 24.16300
O  0.28800 2.45500 22.99800
C  0.43400 0.77700 24.56100
N  0.41000 7.84100 24.03300
C  0.10000 6.76900 23.19100
C  0.13100 7.20800 21.66600
C  0.18100 8.74500 21.81500
C  0.45700 8.99800 23.29400
C  1.37600 6.53700 20.85000
C  -1.03100 9.54000 21.19100
C  -0.71600 10.78400 20.38300
N  0.70800 9.57100 26.21800
C  0.80200 10.58400 25.20400
C  0.96500 11.87700 25.85600
C  1.03300 11.61200 27.23100
C  0.89500 10.20700 27.43400
C  0.93400 13.25100 25.22200
C  1.17800 12.30400 28.52900
O  1.37700 13.49700 28.83300
C  1.05600 11.10100 29.60400
C  2.11500 11.22600 30.57900
O  3.14100 10.63300 30.57200
O  1.78500 12.14200 31.57500
C  2.70100 12.19100 32.71600
H  0.88600 4.13300 29.11200
H  0.01300 4.74300 22.71700
H  0.74800 10.91300 22.95500
H  1.62700 8.57600 31.21800
H  0.23500 5.96700 31.02700
H  2.80700 5.12800 30.47300
H  2.44000 5.41600 32.08600
H  3.12300 6.75200 31.11700
H  -1.20200 7.46600 31.25700
H  -0.79500 9.16300 31.14500
H  -0.95400 7.35000 33.35900
H  -0.87600 9.16100 33.48600
H  0.99900 1.29300 27.24000
H  -0.68300 1.71700 27.21300
H  0.43800 2.31200 28.55000
H  0.59700 0.10700 23.71600
H  -0.45200 0.43200 25.09300
H  1.25300 0.58500 25.25500
H  -0.73900 6.84300 21.12000
H  1.09400 9.10500 21.34200
H  1.07900 6.46400 19.80300
H  1.74100 5.59700 21.26300
H  2.20800 7.24000 20.83900
H  -1.71900 9.75800 22.00800
H  -1.61900 8.99200 20.45400
H  -0.91900 10.46200 19.36200
H  0.37000 10.86800 20.43000
H  -1.30800 11.61400 20.76900
H  0.92100 13.45900 24.15300
H  1.78800 13.78400 25.63900
H  0.05800 13.78100 25.59600
H  0.11800 11.15000 30.15700
H  3.33000 13.08100 32.69500
H  3.40100 11.37500 32.89700
H  2.02900 12.16200 33.57400
Mg -5.93100 25.77500 25.71700
C  -4.21200 26.88300 28.69100
C  -7.64200 23.54800 27.85800
C  -6.76400 23.80500 23.06000
C  -3.56100 27.53600 23.87500
N  -5.94500 25.38700 27.99700
C  -5.26900 26.00100 28.95400
C  -5.69700 25.53400 30.39700
C  -6.63400 24.33000 30.11900
C  -6.80200 24.43500 28.53100
C  -5.97000 23.01600 30.53700
C  -6.45000 26.67900 31.12600
C  -6.59800 26.68600 32.67800
H  -5.93500 25.47300 33.41400
N  -7.16100 23.99300 25.49300
C  -7.80900 23.27400 26.46700
C  -8.59200 22.24600 25.87200
C  -8.31200 22.21800 24.52200
C  -7.40500 23.35300 24.28200
C  -9.59200 21.32300 26.61000
C  -8.96700 21.38100 23.40800
O  -8.53100 21.44200 22.29500
C  -10.10900 20.39000 23.61400
N  -5.32000 25.72800 23.74500
C  -5.80800 24.82500 22.86100
C  -5.11000 24.98100 21.49500
C  -4.07400 26.13000 21.75800
C  -4.40200 26.60400 23.20300
C  -4.43700 23.59100 21.12400
C  -4.06600 27.26900 20.67800
C  -2.66100 27.60900 20.08400
N  -4.36300 27.15900 26.15700
C  -3.49100 27.80300 25.27000
C  -2.60100 28.66200 26.01100
C  -2.82200 28.32100 27.33900
C  -3.88600 27.36800 27.39100
C  -1.46900 29.50100 25.38200
C  -2.32600 28.50500 28.77100
O  -1.38000 29.20900 29.20600
C  -3.27000 27.61000 29.65800
C  -2.25300 26.73600 30.24200
O  -1.51600 25.99000 29.60600
O  -2.32000 26.81800 31.56700
C  -1.79500 25.78300 32.38100
H  -8.22200 22.82000 28.42900
H  -7.07400 23.25300 22.17000
H  -2.81800 28.03400 23.24700
H  -4.88100 25.30000 31.08100
H  -7.59200 24.39800 30.63300
H  -5.01400 23.20900 31.02400
H  -5.79000 22.43900 29.63000
H  -6.63400 22.44500 31.18600
H  -7.44500 26.84100 30.71200
H  -5.97400 27.63700 30.91500
H  -7.64900 26.75300 32.95900
H  -6.04600 27.58900 32.93700
H  -10.55500 21.76700 26.36000
H  -9.25700 21.34500 27.64800
H  -9.72500 20.29500 26.27400
H  -10.54000 20.10200 22.65500
H  -10.89400 20.82200 24.23500
H  -9.78700 19.50800 24.16800
H  -5.94900 25.31700 20.88600
H  -3.10200 25.64300 21.83600
H  -4.71900 23.30800 20.11000
H  -4.83500 22.80500 21.76600
H  -3.35000 23.63800 21.05700
H  -4.60700 28.09500 21.13900
H  -4.72400 26.95900 19.86600
H  -1.81400 27.09500 20.53800
H  -2.52900 28.68000 19.93100
H  -2.51500 27.20900 19.08100
H  -0.62900 29.62100 26.06600
H  -1.87900 30.45400 25.04900
H  -1.09500 28.91900 24.53900
H  -3.69100 28.19200 30.47800
H  -2.53000 24.99900 32.56200
H  -1.65000 26.33100 33.31200
H  -0.80500 25.37800 32.17000

