158

Mg -0.69100 44.01900 24.87500
C  1.75000 43.24900 27.28600
C  -3.14800 43.25100 27.26800
C  -2.94700 44.55600 22.53200
C  1.80500 44.43300 22.59000
N  -0.66600 43.22300 26.94400
C  0.44000 43.05200 27.74900
C  0.01900 42.93900 29.17600
C  -1.51700 42.65400 29.12200
C  -1.82500 42.99400 27.67000
C  -1.92400 41.23600 29.49100
C  0.30900 44.32500 29.92500
C  1.03100 44.12600 31.32400
H  0.69600 42.81500 32.07100
N  -2.78200 43.96100 24.93200
C  -3.61600 43.62400 25.99400
C  -5.00100 43.79400 25.51500
C  -4.96400 44.20800 24.18400
C  -3.51600 44.26700 23.81100
C  -6.15600 43.51600 26.44700
C  -6.10500 44.50700 23.15000
O  -5.92200 44.86100 21.96100
C  -7.49800 44.44800 23.66400
N  -0.55200 44.40700 22.79800
C  -1.58200 44.52700 22.02200
C  -1.30400 44.76000 20.53000
C  0.28000 44.87900 20.63100
C  0.56700 44.55600 22.08600
C  -1.84600 43.46700 19.71000
C  0.81000 46.26000 20.18600
C  1.14500 47.30700 21.33300
N  1.29000 43.81000 24.88400
C  2.15500 44.00600 23.85800
C  3.54200 43.87500 24.38000
C  3.44300 43.64300 25.72300
C  2.05400 43.57500 25.95200
C  4.83500 44.04800 23.57600
C  4.15600 43.42100 26.93100
O  5.37700 43.29600 27.09400
C  3.05800 43.27400 27.99000
C  3.35000 42.03400 28.75500
O  2.95600 40.93600 28.39900
O  4.30800 42.25000 29.70400
C  4.67200 41.17800 30.65000
H  -3.85900 43.04600 28.07000
H  -3.66000 44.60000 21.70600
H  2.66500 44.54400 21.92600
H  0.48700 42.10600 29.70100
H  -2.06900 43.25600 29.84300
H  -2.59800 40.93900 28.68800
H  -2.34700 41.11900 30.48800
H  -1.11200 40.51500 29.38900
H  -0.61900 44.87900 30.06700
H  0.91500 45.00500 29.32500
H  0.74100 44.91200 32.02200
H  2.10900 44.15100 31.16500
H  -6.78500 42.86000 25.84600
H  -6.64500 44.47600 26.61800
H  -5.93100 43.09400 27.42700
H  -8.23700 44.94500 23.03500
H  -7.55400 44.93000 24.64000
H  -7.76400 43.39600 23.76500
H  -1.77700 45.67300 20.16700
H  0.78700 44.14600 20.00400
H  -1.91900 42.57700 20.33500
H  -1.12700 43.20300 18.93500
H  -2.75600 43.71000 19.16000
H  0.18800 46.77800 19.45500
H  1.76600 46.09200 19.69000
H  1.26600 48.33400 20.98800
H  2.08900 46.86500 21.65300
H  0.43600 47.31700 22.16100
H  4.69600 43.36900 22.73500
H  5.75700 43.71600 24.05300
H  4.85200 45.05900 23.16800
H  3.13200 44.14400 28.64300
H  5.23700 40.39400 30.14500
H  3.77500 40.79900 31.13900
H  5.33900 41.60900 31.39700
Mg -5.85600 25.06100 27.04100
C  -4.04600 26.71800 29.54600
C  -6.65700 22.61600 29.40700
C  -7.36900 23.49400 24.63600
C  -4.36300 27.30500 24.62200
N  -5.26600 24.67200 29.22300
C  -4.60700 25.55100 30.07400
C  -4.65100 25.05500 31.52400
C  -5.33400 23.62500 31.41200
C  -5.74700 23.58100 29.89600
C  -4.34100 22.39900 31.82400
C  -5.41900 26.07000 32.48000
C  -5.03100 26.02900 33.94100
H  -6.25100 26.28800 34.85400
N  -6.83500 23.29400 27.04800
C  -7.13100 22.46000 28.05500
C  -8.15900 21.52000 27.60500
C  -8.31700 21.71900 26.20200
C  -7.47500 22.87800 25.91400
C  -8.68700 20.52600 28.55700
C  -9.00600 20.78600 25.17600
O  -8.92500 20.93100 23.94700
C  -9.65900 19.51400 25.60700
N  -5.71300 25.27800 24.79700
C  -6.61900 24.59900 24.13500
C  -6.57000 24.92900 22.56100
C  -5.72900 26.28000 22.57300
C  -5.22700 26.30700 24.04100
C  -6.03900 23.76900 21.73600
C  -6.62400 27.41000 22.16700
C  -5.89400 28.49200 21.26800
N  -4.57700 26.67400 27.00500
C  -4.10800 27.48700 25.96700
C  -3.25300 28.53800 26.48700
C  -3.29700 28.37900 27.92300
C  -4.02200 27.12500 28.17200
C  -2.45100 29.57600 25.65800
C  -2.76900 28.82900 29.20500
O  -2.05400 29.73900 29.53300
C  -3.38500 27.85300 30.31700
C  -2.31900 27.38900 31.21400
O  -1.47100 26.53100 30.89300
O  -2.39600 28.08300 32.41800
C  -1.28000 27.76700 33.31200
H  -7.05500 21.98200 30.20300
H  -7.99400 23.00800 23.88400
H  -3.93900 28.01500 23.90900
H  -3.63900 24.98300 31.92100
H  -6.19800 23.55200 32.07400
H  -4.37100 22.19300 32.89400
H  -3.30600 22.60500 31.55400
H  -4.62100 21.43200 31.40500
H  -6.49700 26.02300 32.32700
H  -5.24000 27.07900 32.10800
H  -4.36700 26.87200 34.12600
H  -4.47000 25.13300 34.20700
H  -9.65200 20.14200 28.22600
H  -8.57400 20.84600 29.59300
H  -7.95700 19.71800 28.52100
H  -8.94400 19.05500 26.29000
H  -9.76500 18.92700 24.69500
H  -10.68000 19.69100 25.94700
H  -7.63600 25.06900 22.38500
H  -4.85500 26.03800 21.96900
H  -5.03900 23.51600 22.08900
H  -5.89300 23.97700 20.67600
H  -6.66400 22.92600 22.03200
H  -6.83800 27.96100 23.08300
H  -7.51400 27.08700 21.62700
H  -5.71100 29.43200 21.78700
H  -6.51600 28.63500 20.38400
H  -4.91000 28.14200 20.95500
H  -1.99000 30.29200 26.33800
H  -3.12300 30.13000 25.00200
H  -1.70000 29.06700 25.05300
H  -4.02500 28.42100 30.99200
H  -1.56200 28.32000 34.20800
H  -0.31900 28.14100 32.95800
H  -1.31600 26.69000 33.47300

