158

Mg 1.52300 -2.09500 45.37900
C  4.83500 -1.02600 44.81900
C  0.37900 0.40600 43.36100
C  -1.50100 -3.68500 45.11200
C  2.82800 -5.02600 46.95300
N  2.59200 -0.56800 44.08400
C  3.86700 -0.22300 44.13000
C  4.17500 0.98700 43.22500
C  2.70900 1.59200 43.11500
C  1.79500 0.42700 43.62500
C  2.49200 2.88900 43.95300
C  4.71900 0.50100 41.85500
C  5.77400 1.34600 41.14400
H  5.31500 2.13300 39.95100
N  -0.46900 -1.52900 44.51200
C  -0.69500 -0.47300 43.70900
C  -2.02000 -0.55500 43.25800
C  -2.61800 -1.71700 43.91700
C  -1.53300 -2.35000 44.56300
C  -2.67900 0.43800 42.34800
C  -4.07200 -2.04100 43.96800
O  -4.83400 -1.33700 43.37600
C  -4.61200 -3.21500 44.74200
N  0.86000 -4.23600 45.69000
C  -0.52900 -4.49500 45.66800
C  -0.80100 -5.91400 46.36000
C  0.63500 -6.39700 46.81200
C  1.53800 -5.17800 46.47400
C  -1.77300 -5.75000 47.50200
C  0.98600 -7.76200 46.15300
C  1.34800 -8.92200 47.06000
N  3.41800 -2.83700 45.95800
C  3.78300 -4.03000 46.57900
C  5.22100 -4.03900 46.82000
C  5.72500 -2.93900 46.07100
C  4.57400 -2.21600 45.60400
C  5.89200 -5.02100 47.71800
C  6.82700 -2.16900 45.70000
O  7.99400 -2.33400 45.84200
C  6.31000 -0.91300 44.82800
C  6.87800 0.31300 45.46800
O  7.23400 0.34200 46.61900
O  7.10600 1.27100 44.53700
C  8.01800 2.28500 45.05400
H  0.00900 1.30500 42.86200
H  -2.45800 -4.20100 45.00800
H  3.02300 -5.79800 47.70000
H  4.82000 1.68700 43.75600
H  2.36200 1.78000 42.09900
H  3.42500 3.44200 44.06100
H  2.26500 2.58100 44.97400
H  1.63000 3.46600 43.61600
H  3.87500 0.53700 41.16600
H  5.00700 -0.54900 41.90000
H  6.51200 0.63900 40.76400
H  6.16200 2.12900 41.79600
H  -3.66400 0.24800 41.92100
H  -2.06100 0.57700 41.46100
H  -2.80700 1.37800 42.88500
H  -4.55600 -4.10500 44.11500
H  -5.62300 -2.88800 44.98200
H  -4.05500 -3.35200 45.66900
H  -1.13200 -6.58600 45.56800
H  0.64700 -6.63000 47.87600
H  -2.70700 -6.03100 47.01500
H  -1.87600 -4.71700 47.83500
H  -1.64800 -6.49400 48.28900
H  1.86700 -7.77200 45.51000
H  0.17200 -8.27000 45.63800
H  1.03700 -9.86300 46.60600
H  0.70100 -8.85000 47.93400
H  2.36300 -8.90600 47.45600
H  6.26500 -4.72300 48.69800
H  6.80400 -5.27200 47.17600
H  5.25200 -5.89700 47.81900
H  6.76300 -1.04600 43.84600
H  8.88400 1.76700 45.46800
H  7.49800 2.96000 45.73300
H  8.28300 2.89800 44.19200
Mg -6.27800 24.76900 25.32200
C  -4.58600 26.26200 28.15700
C  -7.63300 22.52200 27.49200
C  -7.09300 23.06800 22.72200
C  -3.90100 26.61100 23.44900
N  -6.11900 24.37200 27.63900
C  -5.49400 25.20800 28.55000
C  -6.06200 24.86700 29.98100
C  -6.79500 23.46900 29.70700
C  -6.90600 23.46400 28.20800
C  -6.09700 22.16500 30.28700
C  -6.90200 26.04800 30.53300
C  -6.98800 26.28300 32.05200
H  -6.42700 25.20500 32.96100
N  -7.36300 23.11400 25.16300
C  -7.90400 22.32800 26.06800
C  -8.78000 21.34500 25.50100
C  -8.67200 21.59000 24.09000
C  -7.65800 22.67900 23.94500
C  -9.77600 20.36300 26.26200
C  -9.30200 20.84300 22.96100
O  -9.08300 21.15700 21.75600
C  -10.21900 19.64300 23.15600
N  -5.49700 24.80300 23.39500
C  -6.14000 24.04500 22.45500
C  -5.43600 24.17600 21.08500
C  -4.77500 25.58500 21.22700
C  -4.67700 25.67300 22.78400
C  -4.46700 23.05100 20.69400
C  -5.63400 26.80900 20.80400
C  -5.29400 27.16000 19.29700
N  -4.69100 26.33700 25.66800
C  -3.77200 26.94500 24.80600
C  -2.85800 27.86300 25.53800
C  -3.18200 27.60200 26.92500
C  -4.22800 26.64000 26.88900
C  -1.81400 28.76800 24.96900
C  -2.77600 27.95000 28.32100
O  -1.85400 28.61900 28.83200
C  -3.76500 27.11000 29.16300
C  -2.98600 26.25000 30.07800
O  -2.32100 25.32700 29.68700
O  -2.97900 26.71900 31.34100
C  -2.24600 26.08700 32.41700
H  -8.12000 21.74900 28.08900
H  -7.42800 22.52200 21.83800
H  -3.28400 27.18300 22.75300
H  -5.15900 24.72300 30.57500
H  -7.82300 23.53500 30.06300
H  -5.80000 21.57000 29.42300
H  -6.85300 21.61300 30.84400
H  -5.16500 22.29900 30.83500
H  -7.93600 25.93100 30.20700
H  -6.55700 27.01200 30.15800
H  -8.05800 26.32000 32.25800
H  -6.63300 27.28500 32.29400
H  -9.41700 19.36100 26.02700
H  -10.80000 20.60200 25.97200
H  -9.62200 20.28800 27.33800
H  -11.13900 20.00600 23.61400
H  -9.67800 18.92100 23.76700
H  -10.49200 19.25500 22.17400
H  -6.25500 24.24100 20.37000
H  -3.77900 25.61300 20.78600
H  -3.45700 23.39800 20.91100
H  -4.57000 22.70300 19.66700
H  -4.66700 22.13600 21.25300
H  -5.37500 27.63600 21.46500
H  -6.71700 26.72200 20.89200
H  -5.02900 26.24500 18.76700
H  -4.41700 27.79700 19.40900
H  -6.15300 27.61700 18.80600
H  -1.28600 29.36300 25.71400
H  -2.26800 29.33800 24.15800
H  -1.15100 28.03100 24.51500
H  -4.40800 27.69900 29.81700
H  -1.40300 26.72200 32.69000
H  -1.85900 25.13300 32.06100
H  -2.90700 25.88100 33.25900

