158

Mg -1.65400 16.96900 27.02900
C  -2.08600 14.79100 29.85100
C  -2.48400 19.59800 29.20500
C  -1.67500 19.10200 24.48700
C  -1.98800 14.28900 24.96400
N  -2.34200 17.14500 29.24400
C  -2.30800 16.12900 30.22500
C  -2.67100 16.68100 31.71900
C  -2.89000 18.22500 31.39900
C  -2.57800 18.31900 29.86100
C  -4.30500 18.70300 31.94000
C  -1.56900 16.38300 32.73000
C  -1.50100 17.41000 33.85400
H  -1.13700 16.79100 35.23700
N  -1.86500 18.99100 26.88200
C  -2.16400 19.90300 27.93400
C  -2.12400 21.28000 27.45800
C  -1.76600 21.11100 26.04500
C  -1.75100 19.67800 25.72700
C  -2.21200 22.49900 28.35900
C  -1.43700 22.16700 25.04600
O  -1.27800 21.97900 23.82700
C  -1.10600 23.53000 25.51700
N  -1.73100 16.73800 25.00000
C  -1.81300 17.77500 24.10500
C  -1.88800 17.27600 22.61900
C  -2.16400 15.73800 22.82800
C  -1.95100 15.56100 24.38100
C  -2.94500 17.92000 21.79400
C  -1.15000 14.80700 22.06800
C  0.36000 14.93100 22.64400
N  -1.76400 14.94100 27.28600
C  -1.88700 13.95400 26.32900
C  -1.94700 12.64000 26.97000
C  -1.95200 12.92900 28.36200
C  -1.87700 14.32500 28.45500
C  -2.17500 11.22700 26.30900
C  -2.03300 12.32600 29.62800
O  -2.10900 11.16000 29.96800
C  -2.10400 13.53600 30.63900
C  -0.91500 13.42300 31.53200
O  0.18700 13.92600 31.40200
O  -1.18900 12.57300 32.57700
C  -0.26600 12.48300 33.72600
H  -2.65500 20.45200 29.86300
H  -1.66900 19.82100 23.66500
H  -2.27000 13.40400 24.39000
H  -3.52800 16.14000 32.11900
H  -2.10100 18.82100 31.85700
H  -5.07000 18.85800 31.17900
H  -4.23600 19.59500 32.56300
H  -4.74700 17.92900 32.56700
H  -0.56900 16.35200 32.29900
H  -1.84900 15.41300 33.14000
H  -2.42400 17.98900 33.89200
H  -0.69000 18.09600 33.60800
H  -1.26100 23.02600 28.43700
H  -2.70700 22.38800 29.32300
H  -2.77000 23.24400 27.79100
H  -0.70200 24.14900 24.71600
H  -0.38100 23.51100 26.33000
H  -2.05400 24.03200 25.71300
H  -0.93200 17.49700 22.14300
H  -3.15200 15.40400 22.51400
H  -3.65800 18.40500 22.46000
H  -3.53000 17.18400 21.24300
H  -2.66600 18.60400 20.99300
H  -1.07700 15.04800 21.00800
H  -1.54900 13.79300 22.10400
H  1.13300 15.00200 21.87900
H  0.45300 14.10700 23.35100
H  0.43200 15.90200 23.13400
H  -2.66400 11.27600 25.33600
H  -2.95300 10.83300 26.96300
H  -1.38000 10.48400 26.24300
H  -3.08600 13.42100 31.09700
H  -1.02500 12.46300 34.50900
H  0.21600 13.46000 33.77000
H  0.41200 11.63100 33.78400
Mg 50.91500 45.47500 41.45200
C  47.77000 46.40900 40.15200
C  50.22700 42.16700 40.47400
C  54.28600 44.63900 41.72500
C  51.80300 48.78300 41.62700
N  49.18600 44.43600 40.35600
C  47.97100 44.93500 40.02900
C  47.00100 43.89700 39.34500
C  47.77400 42.58000 39.60300
C  49.19000 43.09000 40.20300
C  47.09900 41.66400 40.63200
C  46.71600 44.23300 37.81800
C  45.25700 43.99200 37.45400
H  44.66900 44.41300 36.14700
N  52.07100 43.58400 41.30400
C  51.56500 42.38300 40.83000
C  52.62500 41.46200 40.95500
C  53.81400 42.11100 41.37800
C  53.45700 43.50500 41.49200
C  52.34000 39.94400 40.74700
C  55.19400 41.49600 41.64800
O  55.41100 40.31500 41.45000
C  56.43500 42.11700 42.33000
N  52.80200 46.50800 41.71600
C  54.03700 45.94400 41.86600
C  55.09200 47.03200 42.17400
C  54.30100 48.35600 41.98400
C  52.87600 47.85500 41.64500
C  55.76200 46.97000 43.59900
C  54.70300 49.37400 40.84600
C  54.82500 50.80200 41.21500
N  49.98800 47.22000 41.24500
C  50.45200 48.50900 41.36300
C  49.32200 49.45600 41.05500
C  48.27000 48.67500 40.65100
C  48.70000 47.34700 40.80100
C  49.44700 50.99300 40.96200
C  47.01800 48.69300 40.03600
O  46.29100 49.61200 39.63800
C  46.53000 47.25100 39.84200
C  45.41600 46.98200 40.82700
O  45.56800 46.59700 41.97700
O  44.26400 47.21900 40.14200
C  43.07500 47.16300 41.02600
H  50.00400 41.13300 40.19900
H  55.30100 44.29800 41.93800
H  52.10100 49.81600 41.44000
H  46.14300 43.94900 40.01500
H  48.03500 42.08200 38.66900
H  46.01000 41.64700 40.67400
H  47.45200 42.01200 41.60300
H  47.41900 40.62400 40.70100
H  47.20200 43.46300 37.21900
H  47.17500 45.19000 37.57000
H  44.65100 44.53000 38.18400
H  45.17100 42.91400 37.58600
H  52.01800 39.86400 39.70900
H  51.70900 39.56400 41.55100
H  53.19200 39.26400 40.73400
H  56.24500 42.67100 43.24900
H  56.86300 42.77000 41.57000
H  57.21300 41.38600 42.55200
H  55.94000 46.87600 41.50800
H  54.09300 48.99600 42.84200
H  55.39700 47.77600 44.23700
H  56.82500 47.10400 43.39900
H  55.59500 45.97500 44.01100
H  54.05000 49.39900 39.97400
H  55.68500 49.08000 40.47500
H  54.34400 51.02000 42.16800
H  54.24400 51.34500 40.46900
H  55.84700 51.17900 41.17500
H  48.67400 51.41600 41.60300
H  49.29400 51.38100 39.95400
H  50.34400 51.36900 41.45300
H  46.35700 47.07600 38.78100
H  42.90300 46.17800 41.45800
H  42.23400 47.37500 40.36500
H  43.16700 47.86500 41.85400

