158

Mg 2.08000 42.03900 25.98000
C  4.46500 42.43400 28.53700
C  -0.17300 41.13800 28.34400
C  0.05700 41.60200 23.45400
C  4.78000 42.40300 23.58900
N  2.20200 41.62700 28.22000
C  3.20700 42.00200 29.04900
C  2.76800 41.90300 30.47400
C  1.39800 41.25700 30.46200
C  1.09600 41.28600 28.95200
C  1.41700 39.83400 31.10500
C  2.82100 43.31100 31.20300
C  2.90700 43.07500 32.69200
H  1.77500 43.38400 33.74100
N  0.15900 41.61900 25.92900
C  -0.64500 41.20100 26.98800
C  -1.95500 40.93100 26.52500
C  -1.98700 41.24400 25.12600
C  -0.59100 41.49200 24.74200
C  -2.96600 40.46900 27.52100
C  -3.12700 41.24600 24.10800
O  -2.98300 41.56600 22.93400
C  -4.52900 40.65400 24.56200
N  2.38200 42.02900 23.80900
C  1.33500 41.78100 22.98600
C  1.78000 41.83400 21.49200
C  3.29300 42.17600 21.53500
C  3.51000 42.19700 23.09000
C  1.51000 40.46200 20.74100
C  3.79000 43.59200 20.98800
C  3.20300 44.09400 19.65500
N  4.11300 42.36800 26.03100
C  5.03900 42.44900 24.93000
C  6.36000 42.60000 25.44300
C  6.15400 42.64900 26.89200
C  4.83700 42.40400 27.15800
C  7.61100 42.90700 24.64100
C  6.82400 42.78200 28.19800
O  8.02400 42.79400 28.48600
C  5.71300 42.80100 29.31800
C  6.05000 41.88200 30.47700
O  6.20500 40.68800 30.38700
O  6.07300 42.61200 31.64700
C  6.33400 41.88600 32.89000
H  -0.91200 40.90300 29.11300
H  -0.60500 41.57200 22.58600
H  5.54900 42.41900 22.81400
H  3.50700 41.24100 30.92700
H  0.60000 41.74200 31.02400
H  0.47900 39.64400 31.62600
H  2.23000 39.77000 31.82900
H  1.64000 39.01800 30.41800
H  1.98600 43.95900 30.93400
H  3.71300 43.84000 30.86900
H  3.82100 43.60000 32.96700
H  3.20200 42.06400 32.97200
H  -3.95800 40.30800 27.09900
H  -3.28100 41.17400 28.29100
H  -2.61700 39.52900 27.94700
H  -5.21400 40.66000 23.71500
H  -4.91300 41.35100 25.30800
H  -4.38400 39.63900 24.93200
H  1.27900 42.62900 20.94000
H  3.88700 41.45700 20.97100
H  1.80000 39.54100 21.24700
H  1.96000 40.53900 19.75200
H  0.43800 40.40900 20.55300
H  4.79500 43.36300 20.63500
H  3.82000 44.38600 21.73400
H  2.66200 45.00600 19.90500
H  2.54600 43.26900 19.37900
H  3.88500 44.27200 18.82300
H  7.59900 43.99400 24.55700
H  7.78200 42.61100 23.60700
H  8.48300 42.61400 25.22600
H  5.63200 43.76900 29.81200
H  7.28200 42.26600 33.27200
H  6.42500 40.80200 32.81500
H  5.58600 41.99800 33.67400
Mg -13.31300 15.96800 40.56200
C  -10.52900 13.67600 40.48000
C  -11.19300 18.32500 39.19100
C  -16.01100 18.04200 40.03100
C  -15.33800 13.37400 41.40800
N  -11.11500 15.88000 39.77600
C  -10.20400 14.88800 39.91100
C  -8.77800 15.38300 39.61900
C  -8.98600 16.92700 39.56900
C  -10.57400 17.07900 39.45900
C  -8.50300 17.69200 40.86500
C  -8.20700 14.66100 38.34900
C  -6.77800 15.19800 38.09600
H  -6.43700 15.97300 36.82900
N  -13.53600 17.91200 39.85800
C  -12.54000 18.73000 39.35900
C  -13.14300 20.01200 39.00600
C  -14.51000 19.98100 39.34600
C  -14.72600 18.61600 39.74100
C  -12.32600 21.12900 38.37100
C  -15.44300 21.17300 39.24100
O  -15.00900 22.26300 38.93000
C  -16.88400 21.11500 39.71100
N  -15.34700 15.65700 40.56500
C  -16.27100 16.72300 40.35700
C  -17.69600 16.18900 40.64300
C  -17.44500 14.75200 41.03900
C  -15.95700 14.56600 41.03600
C  -18.63600 17.07700 41.60900
C  -18.29100 13.79200 40.18700
C  -19.62200 13.19600 40.75800
N  -13.09900 13.90500 40.88400
C  -13.95300 12.99400 41.34400
C  -13.40800 11.73200 41.57700
C  -12.01500 12.00800 41.33400
C  -11.88100 13.30500 40.86600
C  -14.00300 10.39100 41.96100
C  -10.72000 11.45800 41.43300
O  -10.40400 10.31800 41.89600
C  -9.70900 12.45000 40.82200
C  -8.74200 12.61700 41.87200
O  -8.99200 12.80200 43.09300
O  -7.52100 12.73900 41.31700
C  -6.43400 13.12700 42.21700
H  -10.51200 19.11800 38.87700
H  -16.85600 18.68600 39.77900
H  -16.12400 12.71900 41.79100
H  -8.25300 15.02500 40.50500
H  -8.50400 17.45200 38.74400
H  -7.70300 17.04000 41.21700
H  -9.21400 17.81600 41.68200
H  -8.09700 18.67400 40.62100
H  -8.81300 14.86500 37.46700
H  -8.26800 13.57500 38.41700
H  -6.08300 14.36300 38.00700
H  -6.42200 15.69400 39.00000
H  -11.31400 20.74700 38.24000
H  -12.20200 21.92000 39.11100
H  -12.80900 21.47500 37.45700
H  -16.88200 20.66600 40.70400
H  -17.51300 20.48400 39.08100
H  -17.32100 22.10300 39.85300
H  -18.28800 16.33300 39.73900
H  -17.77900 14.59700 42.06500
H  -18.14400 17.97400 41.98500
H  -19.03000 16.57500 42.49300
H  -19.46000 17.43700 40.99400
H  -17.50300 13.12400 39.84100
H  -18.49500 14.25500 39.22200
H  -19.52500 12.21400 41.22300
H  -20.23900 13.02800 39.87600
H  -20.11100 13.76400 41.54900
H  -15.08000 10.54800 41.89000
H  -13.72400 10.12800 42.98200
H  -13.73100 9.68500 41.17700
H  -9.18500 12.10900 39.92900
H  -6.51500 14.20100 42.38300
H  -5.48500 12.82000 41.77800
H  -6.50100 12.74500 43.23600

