158

Mg 24.29600 -5.27400 46.24900
C  26.53000 -2.88000 44.77100
C  21.83100 -4.14000 43.99300
C  22.62500 -7.93400 46.91300
C  26.87200 -6.24900 48.24600
N  24.25400 -3.79300 44.56900
C  25.22100 -2.87200 44.24200
C  24.78000 -2.04200 43.05300
C  23.18400 -2.14200 43.17200
C  23.13000 -3.48600 43.98300
C  22.45100 -0.92500 43.88800
C  25.36500 -2.69500 41.77000
C  26.32800 -1.83200 40.90400
H  26.14300 -1.81700 39.40000
N  22.39100 -5.88700 45.57200
C  21.55400 -5.32600 44.67400
C  20.37200 -6.19200 44.49100
C  20.55000 -7.25600 45.45500
C  21.85900 -7.04500 46.06900
C  19.32900 -5.91200 43.42700
C  19.56400 -8.36700 45.66500
O  18.51700 -8.27600 45.01900
C  19.83000 -9.56300 46.61800
N  24.70700 -6.91400 47.39000
C  23.85500 -7.94800 47.56200
C  24.42800 -8.91300 48.62800
C  25.76300 -8.30400 49.13400
C  25.80800 -7.06900 48.19000
C  23.45800 -9.24400 49.77100
C  27.02900 -9.30300 48.97400
C  27.11300 -10.36000 50.06500
N  26.33400 -4.75400 46.48300
C  27.22500 -5.18500 47.40900
C  28.48900 -4.48900 47.23800
C  28.30300 -3.57500 46.18900
C  26.95200 -3.78600 45.76300
C  29.75600 -4.67100 48.05900
C  28.95400 -2.58000 45.36000
O  30.07100 -2.08900 45.33400
C  27.75300 -2.06400 44.32800
C  27.57700 -0.60200 44.37900
O  27.15100 0.00400 45.38700
O  28.06700 -0.12900 43.18800
C  28.27600 1.30900 43.18100
H  21.10100 -3.75700 43.27700
H  22.05000 -8.85300 47.04700
H  27.75000 -6.46500 48.85800
H  25.09700 -1.00000 43.09500
H  22.82100 -2.27400 42.15200
H  23.13800 -0.41700 44.56400
H  21.66500 -1.36700 44.50100
H  22.00700 -0.26200 43.14400
H  24.65900 -3.21100 41.11900
H  26.01900 -3.53300 42.01000
H  27.31400 -2.25900 41.08500
H  26.39200 -0.81600 41.29400
H  19.78600 -5.29500 42.65300
H  18.45800 -5.42700 43.86900
H  18.93700 -6.87100 43.08800
H  19.83400 -9.18700 47.64100
H  20.49200 -10.37400 46.31700
H  18.89000 -10.10400 46.51300
H  24.63600 -9.86600 48.14100
H  25.64500 -7.85600 50.12000
H  23.07400 -10.25600 49.64000
H  22.62300 -8.54300 49.77200
H  23.93100 -9.20900 50.75200
H  27.97200 -8.79600 49.17700
H  27.07800 -9.82900 48.02100
H  27.23300 -11.32400 49.57100
H  26.13600 -10.39900 50.54800
H  27.87100 -10.10200 50.80400
H  29.84800 -3.98100 48.89800
H  30.67700 -4.47600 47.51000
H  29.72800 -5.71900 48.35800
H  28.04600 -2.38900 43.33000
H  27.66300 1.94700 43.81800
H  27.94100 1.70100 42.22000
H  29.31300 1.60500 43.33900
Mg 48.49200 34.40800 26.07500
C  46.73100 33.16500 28.74300
C  48.79800 37.37300 27.72400
C  49.69800 35.71200 23.30700
C  47.67100 31.47600 24.20800
N  47.97300 35.03800 28.10200
C  47.30400 34.36500 29.05500
C  47.36500 35.09900 30.39000
C  47.78800 36.57500 29.98400
C  48.24900 36.33900 28.53100
C  46.61000 37.60600 29.95000
C  48.52500 34.50600 31.35300
C  48.45000 34.76800 32.83300
H  47.31300 35.58800 33.30900
N  49.21800 36.29800 25.59100
C  49.22100 37.37800 26.39900
C  49.90800 38.43700 25.71800
C  50.23400 38.01700 24.45900
C  49.67500 36.65700 24.35700
C  50.13400 39.79300 26.24900
C  50.86100 38.67600 23.31600
O  51.05300 38.13000 22.21500
C  51.37400 40.16500 23.48900
N  48.31200 33.85300 23.98700
C  48.99300 34.57900 23.10500
C  49.06200 33.87900 21.76100
C  49.03600 32.40000 22.17500
C  48.23200 32.54000 23.53600
C  47.86200 34.31000 20.81600
C  50.46800 31.71900 22.47300
C  50.90200 30.55800 21.56500
N  47.41700 32.69800 26.38000
C  47.12800 31.59900 25.51900
C  46.45700 30.54100 26.22100
C  46.17300 31.13700 27.45100
C  46.80600 32.44500 27.49100
C  46.08800 29.32700 25.70500
C  45.52500 30.98700 28.67200
O  44.74000 30.14400 28.97700
C  45.83500 32.21200 29.56400
C  46.46500 31.69400 30.76100
O  47.60500 31.25600 30.81600
O  45.59800 31.70100 31.87800
C  46.18300 31.55400 33.25000
H  48.66300 38.35400 28.18400
H  50.22100 36.05200 22.41100
H  47.67700 30.51800 23.68500
H  46.33400 35.11100 30.74600
H  48.54600 37.08500 30.57700
H  45.68300 37.13600 30.27800
H  46.38200 38.07200 28.99100
H  46.91500 38.39100 30.64200
H  49.45800 34.96900 31.03200
H  48.69100 33.44100 31.19500
H  49.44000 35.13800 33.09900
H  48.42600 33.90100 33.49400
H  51.20500 39.99200 26.25200
H  49.78000 39.77900 27.28000
H  49.54800 40.50300 25.66600
H  52.20100 40.26000 24.19300
H  50.59900 40.90500 23.68700
H  51.87200 40.50600 22.58200
H  50.00300 34.10400 21.25800
H  48.41900 31.78500 21.52000
H  47.41800 33.49400 20.24700
H  48.26700 35.05800 20.13500
H  47.07800 34.66400 21.48600
H  50.49200 31.40100 23.51500
H  51.16100 32.55800 22.39600
H  51.91600 30.76500 21.22100
H  50.42000 30.63300 20.59000
H  50.83600 29.57800 22.03600
H  45.34100 28.91100 26.38200
H  46.99200 28.71900 25.73800
H  45.71200 29.33600 24.68200
H  44.88600 32.66100 29.85700
H  47.23500 31.84000 33.24200
H  46.06800 30.64600 33.84200
H  45.66900 32.22000 33.94300

