158

Mg 46.70300 45.01700 43.66000
C  43.17400 44.08700 43.33900
C  47.42800 41.86900 42.48000
C  49.86500 45.93500 43.42600
C  45.67200 48.36500 44.01300
N  45.37900 43.18400 42.83200
C  44.01800 43.04000 43.06400
C  43.63400 41.60300 42.72200
C  45.04500 40.89000 42.43600
C  46.00600 42.08200 42.54900
C  45.23200 39.68500 43.30000
C  42.63600 41.35600 41.54500
C  42.87900 42.16500 40.21000
H  42.83400 41.45200 38.85500
N  48.48600 43.95200 43.22700
C  48.53800 42.66700 42.80300
C  49.90800 42.21700 42.65600
C  50.70300 43.42100 42.91700
C  49.73600 44.53500 43.18700
C  50.34300 40.81200 42.16000
C  52.18700 43.53500 42.95100
O  52.89200 42.50500 42.75700
C  53.03300 44.88800 43.22400
N  47.54800 46.93200 43.48600
C  48.88500 46.99200 43.65000
C  49.40200 48.45600 43.83500
C  48.08500 49.23200 44.11100
C  47.04100 48.09000 43.92200
C  50.49000 48.59000 44.98400
C  47.93000 50.58100 43.42300
C  47.84000 51.87800 44.24000
N  44.86300 46.03500 43.71100
C  44.62400 47.42900 43.86300
C  43.19600 47.62700 44.10900
C  42.56400 46.31800 43.90500
C  43.60100 45.39600 43.58700
C  42.65400 48.98900 44.51500
C  41.32400 45.67200 43.75800
O  40.21700 46.05000 43.83300
C  41.66200 44.13200 43.53500
C  41.20900 43.50600 44.77200
O  40.26600 42.69200 44.86100
O  41.91900 43.99800 45.83900
C  41.55700 43.57000 47.16300
H  47.67800 40.87400 42.10800
H  50.89000 46.29000 43.29900
H  45.25600 49.35900 44.19100
H  43.13300 41.20100 43.60200
H  45.04400 40.48700 41.42400
H  46.27700 39.43700 43.48700
H  44.88100 38.76500 42.83300
H  44.70100 39.73500 44.25100
H  41.68600 41.64400 41.99500
H  42.71700 40.28900 41.33500
H  43.91700 42.39800 40.44500
H  42.35200 43.11000 40.34300
H  50.68800 41.14400 41.18100
H  49.60100 40.03500 41.97700
H  51.17500 40.39100 42.72600
H  52.80900 45.65200 42.48000
H  54.10500 44.69300 43.17800
H  52.86300 45.21500 44.25000
H  49.88500 48.66000 42.88000
H  48.03200 49.51300 45.16300
H  50.72000 47.64300 45.47100
H  50.25600 49.36200 45.71700
H  51.39000 48.90100 44.45400
H  47.03600 50.57000 42.80000
H  48.81200 50.67900 42.78900
H  47.33600 51.84400 45.20500
H  47.49300 52.68800 43.59800
H  48.85400 52.18400 44.50200
H  41.56700 49.05800 44.51400
H  43.03000 49.85900 43.97600
H  42.87700 49.20500 45.56000
H  41.04700 43.71300 42.73800
H  40.63100 42.99500 47.14900
H  41.38100 44.42400 47.81700
H  42.38100 42.93400 47.48700
Mg 9.77700 47.00200 25.42000
C  7.48600 46.87500 27.97200
C  12.28600 47.70200 27.55900
C  11.83200 47.70100 22.70000
C  7.07600 46.75300 23.10500
N  9.81400 47.39500 27.56400
C  8.78000 47.16600 28.45000
C  9.36200 47.35100 29.89700
C  10.80100 47.82100 29.68500
C  10.99900 47.59500 28.16300
C  11.15300 49.22200 30.20900
C  9.13500 46.17400 30.93400
C  10.07800 46.16400 32.16800
H  9.33700 45.74200 33.42300
N  11.84500 47.56100 25.16000
C  12.70600 47.75200 26.16300
C  14.06900 47.86700 25.59300
C  13.95300 47.71600 24.18600
C  12.47000 47.70600 23.95000
C  15.31100 48.02100 26.41400
C  15.01100 47.61300 23.10500
O  14.66800 47.56300 21.91700
C  16.52900 47.41500 23.40700
N  9.50000 47.23700 23.13700
C  10.51900 47.44800 22.31800
C  10.08000 47.35600 20.88500
C  8.55400 46.99000 20.99500
C  8.34300 46.91700 22.53400
C  10.44800 48.58100 19.96000
C  8.02400 45.70600 20.26900
C  6.85400 45.83200 19.28000
N  7.68600 46.78800 25.48800
C  6.69600 46.74500 24.49700
C  5.36800 46.56800 25.06800
C  5.68100 46.63700 26.39800
C  7.07700 46.72100 26.64500
C  4.08900 46.29000 24.32300
C  5.11900 46.51500 27.74500
O  3.96100 46.28700 28.07700
C  6.24500 46.62300 28.73500
C  6.26400 45.43300 29.55400
O  7.10700 44.54900 29.46600
O  5.36300 45.52900 30.57500
C  5.45000 44.50300 31.69000
H  13.14600 47.74400 28.23100
H  12.57400 47.75500 21.90100
H  6.33600 46.42000 22.37500
H  8.80900 48.20700 30.28300
H  11.47600 47.08700 30.12600
H  11.84900 49.16300 31.04700
H  10.32200 49.70300 30.72300
H  11.55200 49.85100 29.41300
H  9.36600 45.31300 30.30700
H  8.12700 46.14100 31.34700
H  10.59800 47.12000 32.22400
H  10.82000 45.37800 32.03000
H  15.14500 47.90800 27.48600
H  15.72300 49.00900 26.20700
H  15.99000 47.20500 26.16600
H  16.42000 46.52300 24.02400
H  16.94800 48.29000 23.90400
H  16.95700 47.20300 22.42700
H  10.53800 46.51400 20.36500
H  7.95500 47.84500 20.67900
H  10.97400 48.22400 19.07500
H  10.99800 49.43500 20.35400
H  9.66000 49.05900 19.37800
H  7.86200 44.93200 21.01900
H  8.85000 45.30000 19.68500
H  6.72700 44.94900 18.65500
H  6.93500 46.72000 18.65200
H  5.93500 45.89600 19.86300
H  4.13400 46.38300 23.23800
H  3.35600 47.02700 24.65100
H  3.68100 45.31800 24.60200
H  6.15700 47.48500 29.39600
H  4.62000 44.53900 32.39600
H  6.44600 44.53000 32.13100
H  5.41400 43.51400 31.23300

