158

Mg 54.69100 24.17500 45.69400
C  52.42500 26.78300 44.98600
C  52.58000 21.94100 44.28300
C  57.34400 22.02400 45.69300
C  56.98300 26.76500 46.78700
N  52.74100 24.39800 44.74600
C  51.96700 25.51800 44.52000
C  50.72900 25.17200 43.64200
C  50.69600 23.60500 43.87500
C  52.06600 23.25800 44.39500
C  49.44100 23.12000 44.68100
C  50.81900 25.66000 42.14100
C  52.22300 25.99700 41.57000
H  53.17600 24.79500 41.57400
N  54.97800 22.25500 45.03900
C  53.91300 21.48800 44.53800
C  54.36400 20.11600 44.45200
C  55.78600 20.18900 44.59900
C  56.14100 21.51000 45.21000
C  53.42200 19.05000 44.09200
C  56.64900 19.06700 44.32900
O  56.19500 17.96600 43.95200
C  58.20800 19.22800 44.30200
N  56.93500 24.39800 46.08900
C  57.74100 23.30100 46.19600
C  59.17300 23.76100 46.70300
C  59.02300 25.23400 46.98900
C  57.55300 25.52500 46.52800
C  59.72600 22.92100 47.92200
C  60.13300 26.05600 46.23600
C  59.87600 26.11100 44.68700
N  54.69900 26.32000 45.99400
C  55.69300 27.17700 46.56100
C  55.16100 28.49600 46.47900
C  53.80800 28.39300 46.03500
C  53.63900 27.05000 45.62100
C  55.88800 29.69500 46.88700
C  52.65100 29.11800 45.68300
O  52.38800 30.28600 45.83300
C  51.64800 28.06800 45.03100
C  51.16100 28.62900 43.68800
O  51.85600 29.17100 42.85500
O  49.79800 28.56500 43.75700
C  49.13700 28.94400 42.54900
H  51.92800 21.21300 43.79500
H  58.19700 21.34200 45.71000
H  57.72800 27.52000 47.04900
H  49.86400 25.68900 44.05600
H  50.53900 23.03400 42.96000
H  49.06000 23.95700 45.26700
H  49.67900 22.26600 45.31500
H  48.69000 22.80400 43.95600
H  50.15100 26.52100 42.13000
H  50.23200 24.90300 41.62300
H  52.71800 26.74000 42.19500
H  52.11500 26.37700 40.55400
H  53.92700 18.09400 43.95500
H  52.91700 19.39500 43.19000
H  52.72100 19.00400 44.92600
H  58.71600 18.36800 43.86500
H  58.69300 19.41300 45.26100
H  58.57900 19.90800 43.53500
H  59.88700 23.72900 45.87900
H  59.17300 25.37800 48.05900
H  59.19900 21.97700 48.05900
H  59.73900 23.44500 48.87800
H  60.74500 22.67300 47.62700
H  61.04800 25.49200 46.41800
H  60.19900 27.05900 46.65800
H  60.73000 25.65200 44.19000
H  59.92900 27.15300 44.37100
H  58.95900 25.61800 44.36100
H  56.86700 29.72000 46.40900
H  55.97200 29.85500 47.96200
H  55.29600 30.53500 46.52400
H  50.91200 28.07800 45.83500
H  49.33200 29.88200 42.03000
H  48.07200 28.97800 42.78200
H  49.14400 28.20100 41.75100
Mg -12.41800 15.83200 41.65500
C  -9.51200 14.26500 40.72200
C  -11.51400 18.66400 39.86300
C  -15.60700 16.91900 41.82700
C  -13.62400 12.61200 42.66800
N  -10.71100 16.38100 40.36000
C  -9.54800 15.59800 40.25000
C  -8.43700 16.40400 39.57500
C  -9.11700 17.87000 39.50700
C  -10.53000 17.70800 39.98100
C  -8.39400 18.93500 40.44700
C  -7.87800 15.79800 38.23500
C  -6.34700 15.94400 38.07100
H  -5.99700 16.42000 36.65200
N  -13.33200 17.63700 41.07700
C  -12.87300 18.63600 40.23200
C  -13.84600 19.70000 40.14500
C  -15.07000 19.20000 40.69700
C  -14.70800 17.88700 41.34000
C  -13.78200 21.02200 39.46600
C  -16.44700 19.92100 40.79200
O  -16.66200 20.97600 40.21900
C  -17.48700 19.42400 41.74200
N  -14.37000 14.88800 42.35100
C  -15.51400 15.56800 42.26200
C  -16.75400 14.76500 42.71800
C  -16.08300 13.30100 42.84200
C  -14.57500 13.60800 42.67400
C  -17.51000 15.34600 43.92500
C  -16.58700 12.35900 41.69000
C  -18.01500 11.99000 41.68300
N  -11.66500 13.86700 41.96200
C  -12.27300 12.70900 42.38400
C  -11.33700 11.64600 42.34800
C  -10.18400 12.21000 41.77000
C  -10.51600 13.56800 41.46000
C  -11.51400 10.25900 42.78000
C  -8.85600 11.84500 41.31200
O  -8.16300 10.79800 41.46600
C  -8.32600 13.27400 40.71100
C  -7.07000 13.72900 41.49200
O  -7.05900 14.21500 42.63200
O  -5.95300 13.79800 40.62900
C  -4.78600 14.31000 41.28300
H  -11.29400 19.57800 39.30700
H  -16.67400 17.14700 41.78000
H  -14.00500 11.59900 42.80700
H  -7.57100 16.37400 40.23700
H  -9.12800 18.25700 38.48800
H  -8.05200 18.42200 41.34500
H  -9.14200 19.66200 40.76500
H  -7.61000 19.41100 39.85800
H  -8.36500 16.39500 37.46400
H  -8.22700 14.77200 38.12400
H  -5.83600 15.01200 38.31100
H  -6.08600 16.78800 38.70900
H  -13.60300 21.74700 40.26000
H  -14.67700 21.13300 38.85500
H  -12.88900 21.04800 38.84200
H  -18.12400 20.28200 41.95600
H  -16.97900 19.09400 42.64800
H  -18.10200 18.63200 41.31500
H  -17.44500 14.93200 41.89200
H  -16.23400 12.93400 43.85800
H  -18.48100 15.64500 43.52900
H  -17.08900 16.25100 44.36100
H  -17.53300 14.67100 44.78000
H  -16.00600 11.43700 41.66000
H  -16.36900 12.86500 40.74900
H  -18.50100 12.32700 40.76800
H  -18.39200 12.53500 42.54900
H  -18.19400 10.91900 41.78500
H  -11.25400 9.54300 42.00000
H  -12.54800 10.15900 43.10800
H  -10.80300 10.14000 43.59800
H  -8.04600 13.01500 39.69000
H  -4.87300 15.38600 41.43300
H  -3.96800 14.35900 40.56500
H  -4.41000 13.66800 42.08000

