158

Mg 8.18000 3.63900 27.31600
C  9.43600 1.98900 30.20600
C  6.50100 5.79700 29.48600
C  6.74400 4.84700 24.59200
C  9.67900 1.06400 25.31600
N  7.94000 3.76300 29.58800
C  8.62900 3.09900 30.51800
C  8.43100 3.73600 31.89900
C  7.41600 4.90200 31.62600
C  7.27800 4.79400 30.10500
C  5.99500 4.72200 32.24500
C  9.81500 4.25500 32.56200
C  10.11700 3.71100 33.93300
H  10.54200 4.67000 35.08400
N  6.91100 5.15000 27.05200
C  6.38200 5.95400 28.04000
C  5.48900 6.89000 27.42800
C  5.52600 6.58500 26.01800
C  6.38400 5.48400 25.79300
C  4.63900 7.75800 28.26500
C  4.75100 7.29900 24.89900
O  4.83100 7.03300 23.71100
C  3.82100 8.45100 25.23200
N  8.15000 3.08700 25.23500
C  7.46600 3.72900 24.29800
C  7.71100 3.19500 22.87800
C  8.65000 1.97400 23.16700
C  8.88600 2.04400 24.65200
C  6.45200 2.83800 22.04800
C  9.91300 1.95200 22.18000
C  9.64900 1.39800 20.77800
N  9.33000 1.90400 27.64300
C  9.83400 0.97700 26.78200
C  10.61000 -0.04800 27.53700
C  10.52800 0.33300 28.84300
C  9.79900 1.57100 28.89700
C  11.09900 -1.32300 27.05700
C  10.93600 -0.02100 30.16000
O  11.49900 -0.97100 30.62100
C  10.34200 1.08600 31.09600
C  9.55600 0.41400 32.14300
O  8.40700 -0.01600 31.99900
O  10.09100 0.52900 33.35900
C  9.41100 0.06200 34.57600
H  5.88200 6.43800 30.11700
H  6.14900 5.07200 23.70400
H  10.00000 0.25500 24.65600
H  7.99900 3.01400 32.59200
H  7.77700 5.90800 31.83800
H  5.23000 4.34400 31.56600
H  5.69900 5.74200 32.48900
H  6.00600 4.04300 33.09800
H  9.90400 5.34000 32.51600
H  10.56500 3.92500 31.84300
H  10.94300 3.01000 33.81300
H  9.34900 3.08000 34.38100
H  5.07700 7.96700 29.24200
H  3.63700 7.33600 28.34200
H  4.45600 8.69800 27.74500
H  3.04400 8.20700 25.95700
H  3.29400 8.72700 24.31900
H  4.38300 9.32100 25.57100
H  8.37300 3.96500 22.48000
H  8.05000 1.08900 22.95900
H  5.51900 2.96800 22.59600
H  6.44900 1.79500 21.72900
H  6.35000 3.53100 21.21400
H  10.68200 1.37100 22.68800
H  10.16100 3.00000 22.00900
H  10.32700 0.57400 20.55500
H  9.76900 2.18400 20.03200
H  8.64300 0.99400 20.67100
H  11.04400 -1.61100 26.00700
H  10.79400 -2.20800 27.61500
H  12.18100 -1.38700 27.17200
H  11.19800 1.56600 31.57000
H  8.99800 0.89900 35.14000
H  10.07800 -0.49500 35.23500
H  8.61200 -0.66700 34.43900
Mg 36.23800 49.52300 24.95200
C  36.11900 47.74900 27.91900
C  34.64000 52.06700 26.35800
C  36.27900 50.94200 21.92400
C  37.73700 46.62200 23.43100
N  35.55900 49.78500 26.93800
C  35.66100 49.11700 28.05600
C  35.12000 49.84400 29.27900
C  34.36600 51.03900 28.59400
C  34.86900 50.93200 27.13600
C  32.88300 51.09000 28.78500
C  36.20300 50.16900 30.39100
C  35.88200 49.68900 31.86000
H  34.39500 49.53000 32.23600
N  35.65500 51.35800 24.24200
C  35.08300 52.29100 25.03300
C  35.04200 53.51800 24.37300
C  35.35700 53.21500 22.99300
C  35.80100 51.76200 23.00900
C  34.54700 54.72600 25.07600
C  35.31000 54.11000 21.80200
O  35.61700 53.63600 20.71800
C  34.90300 55.49400 21.89600
N  37.00200 48.91300 22.99900
C  36.90900 49.70700 21.90700
C  37.57800 49.03400 20.72300
C  38.31400 47.87400 21.32900
C  37.70400 47.81700 22.67800
C  36.66600 48.66700 19.48600
C  39.76600 48.21800 21.54800
C  40.57300 48.51200 20.24800
N  36.74800 47.53600 25.44600
C  37.33400 46.46500 24.75300
C  37.37200 45.27400 25.58000
C  36.93800 45.74000 26.84700
C  36.57900 47.11800 26.71400
C  37.86100 43.93900 25.17000
C  36.77100 45.38900 28.25300
O  37.10200 44.34300 28.86700
C  36.35700 46.80000 29.00800
C  35.10200 46.42300 29.74500
O  34.00400 46.49400 29.22000
O  35.32900 45.79300 30.89400
C  34.17100 45.13500 31.50400
H  34.05100 52.85800 26.82900
H  36.29200 51.47200 20.96900
H  38.27700 45.79600 22.96300
H  34.39500 49.17200 29.73700
H  34.74100 51.97300 29.01400
H  32.43300 50.38200 29.48100
H  32.42700 50.90600 27.81200
H  32.47600 52.05400 29.08700
H  36.42600 51.23400 30.44900
H  37.10100 49.61000 30.13200
H  36.28900 50.48000 32.48900
H  36.40000 48.78700 32.18500
H  34.84600 55.69000 24.66500
H  34.76800 54.66900 26.14200
H  33.46700 54.61200 24.98800
H  33.86700 55.47800 22.23400
H  34.94000 56.06900 20.97000
H  35.58600 56.07000 22.52100
H  38.27200 49.75400 20.29000
H  38.18400 46.95400 20.75900
H  35.61800 48.87900 19.69700
H  36.67700 47.62000 19.18400
H  36.93600 49.27700 18.62400
H  40.21300 47.36600 22.06000
H  39.85600 49.11300 22.16300
H  39.80400 48.60400 19.48100
H  41.29400 47.72700 20.01900
H  40.99500 49.51000 20.37100
H  38.07400 43.94400 24.10100
H  37.17700 43.12800 25.41900
H  38.82700 43.79100 25.65300
H  36.96300 47.16900 29.83600
H  34.01000 44.13800 31.09300
H  33.21800 45.64700 31.37000
H  34.28600 44.99800 32.58000

