158

Mg 41.02200 8.95100 29.37600
C  42.81500 10.07000 32.11700
C  38.39400 7.94500 31.44700
C  39.33900 7.69800 26.72000
C  43.82700 9.62700 27.41900
N  40.71900 8.95400 31.56500
C  41.52300 9.61600 32.45600
C  40.77600 9.66300 33.76600
C  39.48300 8.82500 33.58600
C  39.46400 8.55600 32.07200
C  39.52200 7.47000 34.39800
C  40.49100 11.09400 34.27500
C  39.90800 11.11200 35.71500
H  40.77800 11.72900 36.70800
N  39.16500 7.89800 29.12200
C  38.14200 7.69600 30.09000
C  36.93300 7.09000 29.53800
C  37.15900 7.07000 28.09600
C  38.64800 7.54500 27.90900
C  35.70600 6.67400 30.41100
C  36.12700 6.68800 26.95700
O  36.47300 6.54800 25.77900
C  34.74500 6.51600 27.29200
N  41.54500 8.50100 27.41100
C  40.68500 8.08400 26.49100
C  41.31600 7.99000 25.07100
C  42.56800 8.99900 25.28800
C  42.66700 9.04800 26.81500
C  41.62600 6.60700 24.53700
C  42.48800 10.40000 24.70400
C  43.43100 10.78400 23.53500
N  42.90800 9.78000 29.63000
C  43.99700 9.90500 28.74500
C  45.13500 10.49200 29.40900
C  44.61100 10.65200 30.72400
C  43.34300 10.10800 30.79800
C  46.45300 10.96500 28.75100
C  45.01100 11.07500 32.02000
O  45.97600 11.71100 32.36900
C  43.86300 10.74600 32.93900
C  44.28300 9.90900 34.10100
O  44.96800 8.88700 34.12100
O  43.82700 10.40000 35.26300
C  44.23300 9.64900 36.49700
H  37.58400 7.73200 32.14700
H  38.83000 7.35500 25.81700
H  44.59600 9.88300 26.68700
H  41.52000 9.17100 34.39300
H  38.53600 9.32700 33.78800
H  39.96800 6.70500 33.76200
H  38.46600 7.40900 34.66200
H  40.01500 7.59100 35.36300
H  39.67200 11.47400 33.66500
H  41.39500 11.69000 34.15800
H  39.59100 10.09100 35.92600
H  39.03600 11.76300 35.78500
H  34.73200 6.87400 29.96400
H  35.67400 6.99400 31.45300
H  35.71200 5.59200 30.28400
H  34.62100 5.65300 27.94700
H  34.18700 6.31100 26.37900
H  34.41500 7.49800 27.63000
H  40.58900 8.45000 24.40200
H  43.49200 8.52600 24.95600
H  42.69900 6.42200 24.58200
H  41.17900 6.57600 23.54300
H  41.09400 5.82700 25.08200
H  42.50500 11.21800 25.42500
H  41.53000 10.55600 24.20800
H  43.60900 9.81600 23.06600
H  44.36100 11.12300 23.99200
H  43.02200 11.60500 22.94700
H  46.28600 12.03000 28.59400
H  46.72500 10.42400 27.84500
H  47.26800 10.69200 29.42100
H  43.36200 11.60200 33.39200
H  44.36400 8.60500 36.21300
H  43.43800 9.85800 37.21400
H  45.16200 10.01000 36.93800
Mg 26.14500 50.69400 27.60000
C  24.05700 52.05800 29.98900
C  28.27900 49.66900 30.00900
C  28.30200 49.79000 25.18800
C  24.04500 52.05000 25.16000
N  26.10200 50.78200 29.70500
C  25.11100 51.29400 30.52700
C  25.40400 51.04600 32.03000
C  26.88800 50.73400 31.97300
C  27.10600 50.27600 30.46900
C  27.91000 51.83200 32.43000
C  24.50900 50.01900 32.65400
C  24.03300 50.19000 34.14500
H  24.83500 50.88500 35.29900
N  27.94800 49.83900 27.62100
C  28.66400 49.34500 28.72200
C  29.93500 48.77500 28.33600
C  30.04300 48.86800 26.87300
C  28.70600 49.49700 26.49300
C  31.01900 48.12200 29.27400
C  31.18800 48.41400 25.98400
O  31.09200 48.41900 24.78600
C  32.50900 47.94500 26.49800
N  26.27500 51.09600 25.47200
C  27.26800 50.53200 24.64100
C  26.92700 50.67200 23.16300
C  25.47700 51.37500 23.13700
C  25.21500 51.46500 24.68600
C  27.99000 51.36700 22.25900
C  24.38800 50.66900 22.35800
C  23.96900 49.23800 22.70100
N  24.35000 51.68500 27.48300
C  23.65800 52.15500 26.48800
C  22.54900 52.98500 26.91100
C  22.73400 53.02200 28.32000
C  23.78900 52.18400 28.60300
C  21.57500 53.72300 26.09700
C  22.19000 53.47900 29.58500
O  21.29500 54.26800 29.84000
C  23.03000 52.83200 30.74200
C  23.70600 53.90800 31.56000
O  24.68700 54.56100 31.25500
O  22.89800 54.23400 32.68000
C  23.52400 54.91800 33.85200
H  28.97400 49.34100 30.78400
H  28.91700 49.46600 24.34500
H  23.40000 52.41600 24.35900
H  25.37100 52.05500 32.44000
H  27.08500 49.82300 32.53700
H  28.59000 52.12300 31.62900
H  28.50500 51.33500 33.19600
H  27.42800 52.71100 32.85800
H  24.92400 49.01700 32.54400
H  23.59000 49.85800 32.08900
H  23.88200 49.14300 34.40900
H  23.12600 50.79400 34.17000
H  30.40100 47.82500 30.12200
H  31.77700 48.84700 29.57200
H  31.53800 47.25300 28.87000
H  32.92000 48.71900 27.14600
H  33.14800 47.88500 25.61700
H  32.47900 46.91400 26.85000
H  26.83300 49.64900 22.79800
H  25.60700 52.42500 22.87200
H  27.51500 52.19700 21.73500
H  28.25000 50.61800 21.51100
H  28.84100 51.82000 22.76700
H  24.67600 50.70000 21.30700
H  23.52900 51.31500 22.54100
H  24.28500 48.62800 21.85400
H  22.88900 49.12400 22.60300
H  24.35000 48.83400 23.63900
H  22.09600 54.59000 25.69200
H  20.68600 54.01000 26.65800
H  21.28900 53.00300 25.33000
H  22.46500 52.18300 31.41200
H  23.75400 55.97300 33.70400
H  24.42400 54.32800 34.02600
H  22.91600 54.80100 34.74900

