158

Mg 48.66800 35.41000 26.77000
C  46.56100 33.79300 29.23400
C  49.12100 38.01700 28.96100
C  50.08200 36.99700 24.29600
C  48.00600 32.73700 24.64400
N  48.00100 35.75400 28.85300
C  47.17000 35.00600 29.70500
C  47.46100 35.55200 31.12900
C  47.77000 37.06100 30.84000
C  48.31600 36.90800 29.39400
C  46.46900 37.97700 30.96600
C  48.67500 34.86100 31.91600
C  48.75500 34.68400 33.39600
H  48.05700 35.68100 34.40400
N  49.48600 37.25700 26.64700
C  49.64100 38.14500 27.65200
C  50.41000 39.29000 27.14500
C  50.74000 39.02100 25.82700
C  50.04500 37.73200 25.52500
C  50.71100 40.55300 27.91000
C  51.59100 39.81700 24.81800
O  51.67700 39.45100 23.63800
C  52.21000 41.08200 25.32200
N  48.91800 34.95100 24.69700
C  49.53400 35.80800 23.87300
C  49.51700 35.25500 22.45400
C  49.15300 33.80800 22.70000
C  48.65800 33.81000 24.14500
C  48.53300 36.04500 21.46900
C  50.38400 32.82700 22.53600
C  50.04400 31.39100 22.04200
N  47.60100 33.53400 26.90200
C  47.43300 32.54500 25.89900
C  46.72300 31.44100 26.44900
C  46.34000 31.87700 27.70800
C  46.90900 33.13600 27.98800
C  46.34000 30.11700 25.76500
C  45.52900 31.55700 28.85800
O  44.94000 30.49800 29.15000
C  45.51100 32.88200 29.80200
C  45.71000 32.37100 31.20900
O  46.64600 31.65900 31.59500
O  44.69800 32.88000 32.08000
C  44.89400 32.57700 33.52300
H  49.16000 38.82900 29.69000
H  50.59800 37.47100 23.45800
H  48.09900 31.83000 24.04200
H  46.56400 35.38000 31.72300
H  48.57600 37.50500 31.42500
H  46.65600 38.89100 30.40200
H  46.36600 38.19300 32.03000
H  45.52600 37.52600 30.65800
H  49.61800 35.29800 31.58800
H  48.82000 33.83900 31.56500
H  49.82200 34.71100 33.61400
H  48.42200 33.74200 33.83100
H  51.76800 40.60100 28.17100
H  50.11200 40.55600 28.82000
H  50.36400 41.38900 27.30300
H  52.86800 40.94300 26.18000
H  51.50000 41.89200 25.48200
H  52.97700 41.23800 24.56300
H  50.51500 35.28100 22.01500
H  48.34100 33.55200 22.02000
H  48.11700 36.86100 22.05900
H  47.73200 35.43200 21.05500
H  49.09900 36.49600 20.65400
H  50.84800 32.77200 23.52100
H  51.03100 33.20200 21.74200
H  49.05500 31.34000 21.58700
H  50.11400 30.69000 22.87400
H  50.83900 31.04900 21.37900
H  45.88300 30.27300 24.78700
H  45.67700 29.46800 26.33800
H  47.21800 29.49900 25.57900
H  44.54100 33.37500 29.73800
H  44.22200 31.79900 33.88600
H  44.65100 33.49600 34.05700
H  45.91300 32.29100 33.78400
Mg 30.63900 57.59900 40.54900
C  27.61400 55.79600 39.53800
C  32.48400 54.96600 39.23400
C  33.29200 59.57700 40.53800
C  28.50100 60.40200 41.09300
N  30.12500 55.68600 39.56600
C  28.85400 55.13100 39.26700
C  28.96000 53.67100 38.83600
C  30.51900 53.36600 39.12600
C  31.09600 54.72900 39.39700
C  30.71000 52.42700 40.36300
C  28.58100 53.41000 37.31200
C  29.20600 54.33100 36.22500
H  28.60300 54.54100 34.73800
N  32.63000 57.37400 40.00300
C  33.15800 56.23000 39.50700
C  34.47300 56.39900 39.13500
C  34.81900 57.69700 39.58200
C  33.54600 58.27500 40.09600
C  35.34700 55.41700 38.41900
C  36.22100 58.22900 39.47000
O  37.09400 57.54100 38.92500
C  36.48500 59.63400 39.85300
N  30.83500 59.64900 40.83300
C  32.09300 60.22700 40.93100
C  32.00300 61.75600 41.06500
C  30.45800 61.95800 41.41800
C  29.83700 60.59700 41.05800
C  32.87000 62.45100 42.07900
C  29.93000 63.32400 40.75000
C  28.73800 64.06000 41.57700
N  28.53600 58.01500 40.45100
C  27.83500 59.16600 40.78400
C  26.45700 58.90900 40.67500
C  26.26100 57.56800 40.24500
C  27.58100 57.08700 40.07100
C  25.30000 59.85900 40.94300
C  25.28900 56.51300 39.70300
O  24.10400 56.53700 39.50600
C  26.20400 55.26700 39.23200
C  25.86300 54.14100 40.05700
O  26.45600 53.75800 41.08200
O  24.77300 53.57500 39.47400
C  24.36700 52.44300 40.18900
H  33.09600 54.12500 38.90300
H  34.05800 60.35200 40.46300
H  27.83500 61.25300 41.24900
H  28.30800 53.06800 39.46800
H  30.98600 52.88200 38.26700
H  31.09000 51.49000 39.95500
H  29.74900 52.32000 40.86500
H  31.48900 52.72600 41.06500
H  27.51600 53.18200 37.25700
H  29.10700 52.48500 37.07500
H  30.17700 53.87300 36.03500
H  29.46100 55.33000 36.58000
H  34.80600 54.61200 37.92100
H  35.99600 55.01500 39.19700
H  36.00800 55.89100 37.69300
H  37.51900 59.94200 39.70000
H  36.10000 59.88900 40.84000
H  36.02600 60.27400 39.09900
H  32.08000 62.08700 40.02900
H  30.29700 62.06600 42.49100
H  32.32800 62.95600 42.87800
H  33.46700 63.23700 41.61700
H  33.53300 61.71100 42.52800
H  29.61300 63.22100 39.71200
H  30.76200 64.02500 40.80600
H  28.53200 63.49100 42.48200
H  27.82700 64.00200 40.98200
H  28.97400 65.09800 41.81500
H  24.77700 59.72300 41.88900
H  24.59400 59.81200 40.11400
H  25.66100 60.88600 40.87700
H  26.17000 54.98600 38.18000
H  23.73600 51.79200 39.58300
H  23.76600 52.69500 41.06300
H  25.27100 51.89100 40.44700

