158

Mg 41.24500 8.82500 29.42800
C  42.99400 9.51100 32.43100
C  39.11900 6.82700 31.25100
C  39.94800 7.81600 26.48300
C  44.06200 10.02700 27.70900
N  41.20400 8.21600 31.62800
C  41.79100 8.87600 32.69800
C  41.16300 8.57900 34.05600
C  40.00100 7.59100 33.65000
C  40.03200 7.59800 32.07000
C  40.26300 6.10900 34.07200
C  40.62200 9.97800 34.67000
C  40.72400 10.20100 36.16100
H  41.19800 11.60900 36.80700
N  39.63900 7.66300 28.99700
C  38.90400 6.92500 29.88600
C  37.80500 6.31200 29.11700
C  37.94600 6.75100 27.71900
C  39.21000 7.43600 27.67300
C  36.75400 5.40100 29.78300
C  37.09800 6.50800 26.49400
O  37.47600 6.86600 25.36400
C  35.77300 5.74600 26.58200
N  41.94300 8.93500 27.32200
C  41.19800 8.43800 26.34200
C  41.76300 8.85300 24.99600
C  43.05400 9.66700 25.39600
C  43.07700 9.55700 26.87000
C  42.10600 7.61300 24.14900
C  43.00200 11.14700 24.97800
C  41.78600 12.01400 25.16400
N  43.14500 9.59600 29.86900
C  44.15100 10.05700 29.08300
C  45.24400 10.65100 29.85000
C  44.81300 10.49800 31.19800
C  43.54000 9.81900 31.11500
C  46.55600 11.36600 29.40800
C  45.19000 10.80200 32.51800
O  46.11300 11.45200 32.99500
C  44.00000 10.12900 33.44700
C  44.52700 9.09400 34.44700
O  44.46200 7.87300 34.37800
O  45.18600 9.77100 35.39400
C  45.63600 8.98100 36.54400
H  38.29200 6.36300 31.79300
H  39.61900 7.45200 25.50700
H  44.81300 10.61400 27.17600
H  41.85300 8.09600 34.74800
H  39.04300 7.92700 34.04800
H  39.53700 5.83300 34.83600
H  41.28000 5.98000 34.44400
H  40.25800 5.42900 33.22000
H  39.54300 10.05700 34.53800
H  41.05800 10.76600 34.05600
H  41.34000 9.38900 36.54600
H  39.76500 9.97600 36.62900
H  37.06700 4.97900 30.73800
H  36.58500 4.51800 29.16700
H  35.82600 5.93100 29.99500
H  35.18300 6.38900 27.23500
H  35.96700 4.87500 27.20800
H  35.41400 5.61600 25.56100
H  41.05000 9.46800 24.44700
H  43.93300 9.12700 25.04600
H  42.08300 6.74800 24.81200
H  43.02900 7.62400 23.57100
H  41.36800 7.41600 23.37200
H  42.96000 11.20100 23.89000
H  43.99600 11.51100 25.23800
H  42.18000 13.00800 25.37800
H  41.14600 11.67500 25.97800
H  41.26200 12.21600 24.23000
H  46.33900 12.37100 29.76900
H  46.52000 11.43100 28.32100
H  47.38200 10.85500 29.90400
H  43.52300 10.90600 34.04400
H  46.38300 9.56300 37.08400
H  46.09100 8.02900 36.27200
H  44.75200 8.89000 37.17400
Mg -5.72000 24.89100 26.29100
C  -4.41800 26.21000 29.26800
C  -7.34400 22.69500 28.16900
C  -6.56200 23.37800 23.51000
C  -3.69900 27.19200 24.45800
N  -5.89000 24.54600 28.59300
C  -5.37700 25.27100 29.59700
C  -5.82300 24.69100 31.00200
C  -6.60300 23.43700 30.53000
C  -6.57100 23.54800 29.01200
C  -6.00100 22.09500 31.12200
C  -6.69100 25.74100 31.79300
C  -6.23200 25.85600 33.23900
H  -5.97900 24.58800 34.06300
N  -6.88200 23.34200 25.82300
C  -7.49400 22.59900 26.75300
C  -8.44400 21.70800 26.13300
C  -8.25200 21.82700 24.68900
C  -7.20400 22.87800 24.60000
C  -9.47600 20.79800 26.87300
C  -8.91900 21.09700 23.53000
O  -8.61900 21.30100 22.36700
C  -9.96800 20.06900 23.80000
N  -5.18800 25.31200 24.28300
C  -5.65400 24.52800 23.32000
C  -5.09700 24.96600 21.98400
C  -4.31700 26.23900 22.22500
C  -4.40000 26.27300 23.74400
C  -4.30500 23.74300 21.38600
C  -4.95400 27.51300 21.63700
C  -4.02400 28.41200 20.79100
N  -4.35500 26.43000 26.71100
C  -3.59000 27.30200 25.84600
C  -2.80900 28.16800 26.74800
C  -3.03800 27.72700 28.03200
C  -3.98700 26.67700 27.97500
C  -1.81300 29.27300 26.28900
C  -2.57000 27.88400 29.34300
O  -1.66100 28.54400 29.81900
C  -3.42900 26.99300 30.24700
C  -2.54600 26.05300 30.96200
O  -1.94000 25.14500 30.44900
O  -2.54800 26.36300 32.26800
C  -1.87200 25.38600 33.15300
H  -7.71300 21.86700 28.77800
H  -6.89800 22.93000 22.57300
H  -2.94700 27.84100 24.00500
H  -4.88700 24.52500 31.53400
H  -7.68000 23.51000 30.67700
H  -6.69000 21.46600 31.68600
H  -5.21200 22.21500 31.86400
H  -5.57700 21.51300 30.30400
H  -7.77500 25.65200 31.71800
H  -6.53900 26.66300 31.23300
H  -6.95900 26.44300 33.80100
H  -5.29000 26.40400 33.26200
H  -10.48900 20.95300 26.50100
H  -9.58400 21.17600 27.89000
H  -9.18600 19.76500 26.68300
H  -10.84800 20.62900 24.11800
H  -9.52500 19.37200 24.51200
H  -10.23500 19.52000 22.89800
H  -5.94600 25.18500 21.33700
H  -3.32900 26.01800 21.82200
H  -4.57100 22.73700 21.70900
H  -3.23900 23.93400 21.51200
H  -4.52100 23.83200 20.32100
H  -5.31200 28.07900 22.49600
H  -5.88500 27.46300 21.07100
H  -4.33600 28.42900 19.74700
H  -2.99000 28.07300 20.73400
H  -3.94000 29.44300 21.13500
H  -2.09500 30.28800 26.56900
H  -1.53500 29.07100 25.25500
H  -0.93500 29.05900 26.89800
H  -3.90400 27.59100 31.02500
H  -2.27100 25.61800 34.14000
H  -0.80600 25.60100 33.22800
H  -2.15100 24.33800 33.04400

