158

Mg 25.17000 1.11900 29.97400
C  27.23900 0.86800 32.86100
C  22.38100 1.14200 31.99900
C  23.31400 0.91500 27.18800
C  28.04900 0.61100 27.99400
N  24.88700 1.07700 32.21700
C  25.84700 1.11300 33.20900
C  25.20000 1.22500 34.62100
C  23.70400 1.14900 34.21800
C  23.63600 1.13200 32.68300
C  22.79000 0.05700 34.92100
C  25.70400 2.50100 35.42700
C  26.37700 2.19900 36.80900
H  26.16700 3.14200 37.97300
N  23.13500 1.03200 29.58900
C  22.12100 1.01200 30.56200
C  20.86100 0.70300 29.95300
C  21.12500 0.66500 28.55300
C  22.60000 0.92300 28.39000
C  19.58100 0.61100 30.65900
C  20.21500 0.30000 27.33900
O  20.56500 0.43500 26.18900
C  18.86400 -0.26200 27.62600
N  25.66400 0.91200 27.81600
C  24.72300 0.93000 26.85300
C  25.32600 0.99300 25.47900
C  26.79800 1.11600 25.81300
C  26.90200 0.91500 27.25200
C  24.97800 -0.19100 24.65200
C  27.56100 2.48100 25.38900
C  26.91000 3.80200 25.75700
N  27.16300 0.74400 30.30000
C  28.18600 0.49400 29.39400
C  29.38300 0.05600 30.12500
C  29.06700 0.29300 31.47600
C  27.72700 0.70500 31.56400
C  30.60500 -0.47000 29.53400
C  29.66300 0.21000 32.84700
O  30.81600 -0.11400 33.25600
C  28.47000 0.60900 33.81000
C  28.26700 -0.47600 34.73900
O  27.65100 -1.51300 34.47800
O  29.03200 -0.25000 35.84500
C  28.95900 -1.21400 36.82700
H  21.50000 1.00500 32.63000
H  22.71700 0.98000 26.27600
H  28.90900 0.44900 27.34100
H  25.57000 0.29800 35.06100
H  23.25700 2.09500 34.52500
H  21.90200 0.46700 35.40200
H  23.35300 -0.15800 35.83000
H  22.61000 -0.66200 34.12200
H  24.78200 3.07200 35.53100
H  26.22600 3.23900 34.81800
H  27.43300 2.16200 36.54300
H  26.07600 1.22000 37.18200
H  19.54100 0.90200 31.70900
H  19.28800 -0.43900 30.66500
H  18.90000 1.25100 30.09800
H  18.60100 -0.69800 26.66200
H  18.17200 0.56000 27.80800
H  18.99400 -0.97200 28.44300
H  24.99600 1.91600 25.00100
H  27.46300 0.33500 25.44500
H  25.79800 -0.88200 24.45900
H  24.65900 0.30800 23.73700
H  24.17300 -0.75900 25.11900
H  27.58200 2.59100 24.30400
H  28.60700 2.38800 25.68200
H  26.10700 3.63600 26.47500
H  26.51600 4.31500 24.88000
H  27.61700 4.51200 26.18600
H  31.26400 0.39300 29.43900
H  30.45500 -1.09700 28.65500
H  31.05700 -1.00400 30.37000
H  28.76500 1.51400 34.34000
H  27.95400 -1.17400 37.24800
H  29.64800 -0.86300 37.59500
H  29.17500 -2.23900 36.52400
Mg 29.71200 58.66300 40.59600
C  26.96900 56.62200 39.72900
C  31.79200 56.16700 39.30200
C  32.26500 60.83800 40.55200
C  27.45200 61.39400 41.01000
N  29.38200 56.49200 39.87900
C  28.19300 55.94700 39.53600
C  28.40300 54.65400 38.61800
C  29.93700 54.40500 38.72000
C  30.45300 55.72700 39.43200
C  30.36200 53.09900 39.42200
C  28.00300 54.82300 37.15100
C  27.16600 53.80200 36.37400
H  27.18100 53.74200 34.79400
N  31.79200 58.45900 40.11400
C  32.44000 57.37900 39.58500
C  33.90500 57.70300 39.45200
C  34.04300 58.99200 39.99200
C  32.66500 59.47900 40.28600
C  35.00000 56.73300 39.12600
C  35.37200 59.76300 40.12100
O  36.42700 59.23000 39.87900
C  35.43700 61.24400 40.51500
N  29.86100 60.80800 40.70700
C  31.05400 61.42200 40.71700
C  30.91000 62.95600 40.96600
C  29.35400 63.15200 41.18000
C  28.81800 61.67200 41.00200
C  31.72200 63.59700 42.07400
C  28.83200 64.29600 40.21800
C  27.56700 64.99900 40.81900
N  27.63800 58.90900 40.65300
C  26.89900 60.08200 40.72600
C  25.47700 59.74300 40.72300
C  25.47700 58.43600 40.19500
C  26.79300 57.96700 40.27600
C  24.34700 60.71300 41.02300
C  24.63900 57.37600 39.58300
O  23.44500 57.40600 39.29800
C  25.54000 56.13100 39.29300
C  25.01500 54.92700 39.99900
O  25.30100 54.61500 41.18300
O  24.16300 54.27200 39.07500
C  23.68600 52.90200 39.49900
H  32.42700 55.52900 38.68400
H  32.99200 61.64600 40.45000
H  26.80500 62.25500 41.18800
H  27.89300 53.89600 39.21200
H  30.48900 54.40300 37.78000
H  31.06200 53.43100 40.18800
H  30.90500 52.32800 38.87500
H  29.58200 52.65400 40.04000
H  28.89900 55.13700 36.61700
H  27.37900 55.71400 37.21600
H  26.13300 53.89500 36.71000
H  27.52400 52.82400 36.69700
H  35.32200 56.34700 40.09400
H  35.87100 57.19900 38.66700
H  34.71400 55.97300 38.39900
H  35.08300 61.37700 41.53700
H  34.87200 61.70300 39.70400
H  36.49600 61.50100 40.48600
H  31.12800 63.45700 40.02300
H  29.14900 63.46600 42.20400
H  32.53100 64.21800 41.69100
H  32.16100 62.79200 42.66300
H  31.19100 64.26200 42.75600
H  28.56400 63.84200 39.26400
H  29.58600 65.06000 40.03300
H  27.75400 66.05300 40.61400
H  27.44400 64.85400 41.89300
H  26.69900 64.57400 40.31600
H  24.21900 61.34100 40.14100
H  24.54200 61.32400 41.90500
H  23.38900 60.26800 41.29300
H  25.53800 55.92400 38.22300
H  22.60400 52.76500 39.49000
H  24.20700 52.60100 40.40700
H  24.02500 52.42200 38.58100

