158

Mg 1.71400 -2.82700 45.40700
C  5.10900 -2.92700 44.66800
C  1.41700 -0.15500 43.04700
C  -1.62300 -3.24400 45.33300
C  2.14200 -5.90800 47.14300
N  3.09300 -1.63600 44.08400
C  4.45500 -1.90300 43.92700
C  5.09900 -0.90000 42.88000
C  4.00100 0.13700 42.69400
C  2.75600 -0.60900 43.22600
C  4.16100 1.53900 43.28400
C  5.62200 -1.67100 41.56900
C  7.09400 -1.41300 41.10700
H  7.34900 -0.87700 39.70500
N  0.17800 -1.70200 44.54500
C  0.24800 -0.67900 43.61200
C  -1.08900 -0.18400 43.31900
C  -1.96200 -1.08400 43.85700
C  -1.14900 -2.06300 44.66100
C  -1.32200 0.97100 42.38500
C  -3.44900 -1.11200 43.63500
O  -3.85400 -0.20500 42.93800
C  -4.34200 -2.13300 44.24000
N  0.51200 -4.33000 46.08300
C  -0.85500 -4.20800 46.05100
C  -1.54600 -5.44100 46.72900
C  -0.33000 -6.17100 47.31500
C  0.85300 -5.49600 46.78000
C  -2.60400 -5.07500 47.83900
C  -0.33500 -7.67600 47.23800
C  0.40300 -8.40600 46.11500
N  3.28200 -4.15000 45.92600
C  3.33900 -5.28700 46.70100
C  4.68800 -5.74000 46.83000
C  5.41800 -4.79300 46.08900
C  4.48800 -3.84600 45.53600
C  5.24300 -6.91600 47.59600
C  6.74300 -4.49500 45.59700
O  7.86000 -5.04800 45.78800
C  6.60700 -3.22800 44.69500
C  7.37700 -2.14100 45.20600
O  7.36100 -1.71900 46.35000
O  7.96100 -1.40800 44.18300
C  8.58800 -0.09000 44.34400
H  1.30200 0.73900 42.43100
H  -2.69000 -3.46900 45.38800
H  2.05800 -6.72200 47.86600
H  5.94100 -0.43500 43.39400
H  3.79800 0.42700 41.66400
H  4.86700 1.41900 44.10600
H  3.19900 1.89700 43.65200
H  4.61200 2.22700 42.57000
H  4.91400 -1.42000 40.78000
H  5.41900 -2.72600 41.75200
H  7.70000 -2.31300 41.20600
H  7.43500 -0.67000 41.82800
H  -1.66200 0.65700 41.39800
H  -0.42000 1.58200 42.35400
H  -2.12300 1.56000 42.83200
H  -4.14800 -3.09000 43.75600
H  -5.34200 -1.80900 43.95000
H  -4.41500 -2.21300 45.32400
H  -1.97200 -6.09100 45.96500
H  -0.28200 -5.99400 48.39000
H  -2.82800 -4.01100 47.90500
H  -2.18600 -5.43600 48.77900
H  -3.58700 -5.50600 47.65100
H  -1.34100 -8.06800 47.38900
H  0.17700 -7.98800 48.14900
H  -0.30400 -9.08200 45.63400
H  1.22800 -8.99800 46.51000
H  0.85500 -7.74900 45.37100
H  4.77700 -7.84400 47.26300
H  4.84900 -6.83900 48.60900
H  6.31200 -6.70800 47.55900
H  7.00200 -3.43500 43.70100
H  9.26000 -0.07800 45.20200
H  7.80000 0.63200 44.56000
H  9.25700 0.23400 43.54700
Mg 24.37000 -5.09300 46.11900
C  25.89200 -2.18300 44.63800
C  21.71700 -4.36800 44.12600
C  23.25300 -8.04600 46.67500
C  27.48800 -5.87200 47.51800
N  23.83300 -3.25500 44.70500
C  24.63500 -2.40300 44.11200
C  23.96700 -1.52300 43.03500
C  22.48300 -2.15300 43.08300
C  22.61400 -3.31300 44.09500
C  21.53000 -1.03700 43.55200
C  24.70700 -1.65600 41.67700
C  25.39800 -0.37100 41.09500
H  25.51900 -0.34800 39.56100
N  22.59500 -6.04800 45.61000
C  21.66600 -5.64700 44.73700
C  20.59100 -6.60600 44.65900
C  21.08500 -7.79700 45.27500
C  22.35100 -7.35200 45.90900
C  19.29600 -6.38200 43.80300
C  20.54400 -9.15800 45.22100
O  19.50300 -9.43000 44.68000
C  21.14300 -10.38400 45.78400
N  25.26800 -6.72900 46.96800
C  24.53900 -7.85400 47.16100
C  25.33300 -8.82200 47.95000
C  26.65600 -8.12500 48.33000
C  26.43600 -6.83700 47.61700
C  24.59200 -9.46100 49.12500
C  27.97100 -8.89300 47.94500
C  29.12000 -8.92300 49.02600
N  26.36500 -4.16200 46.28400
C  27.44900 -4.59600 46.87200
C  28.49800 -3.66200 46.78700
C  27.95800 -2.72900 45.82500
C  26.62700 -3.07900 45.53700
C  29.86800 -3.80100 47.30500
C  28.26800 -1.59300 45.11500
O  29.33500 -0.97100 45.19500
C  26.99600 -1.19000 44.21100
C  26.70200 0.27200 44.62500
O  25.83700 0.67100 45.40500
O  27.24300 1.10400 43.67200
C  26.67900 2.42000 43.51300
H  20.86700 -4.16000 43.47300
H  22.83700 -9.03200 46.89300
H  28.39400 -6.24100 48.00200
H  23.94700 -0.47000 43.31700
H  22.33400 -2.53900 42.07400
H  21.14700 -0.50600 42.68000
H  22.06500 -0.31400 44.16700
H  20.75300 -1.46400 44.18700
H  23.98800 -1.98600 40.92600
H  25.48100 -2.42200 41.72500
H  26.37700 -0.10600 41.49500
H  24.71200 0.41400 41.41400
H  18.42800 -6.87800 44.23700
H  19.34400 -6.69700 42.76100
H  18.86000 -5.38300 43.78800
H  20.52900 -11.28200 45.70400
H  21.32700 -10.17100 46.83700
H  22.09100 -10.60100 45.29300
H  25.55700 -9.59100 47.21100
H  26.76600 -7.80100 49.36500
H  23.73000 -8.86100 49.41500
H  25.28400 -9.46100 49.96700
H  24.28400 -10.47000 48.85100
H  28.50600 -8.50300 47.07900
H  27.67600 -9.94100 47.90300
H  30.09000 -8.73700 48.56400
H  29.14800 -9.84400 49.60700
H  29.10400 -8.10000 49.74100
H  30.22100 -2.77400 47.39800
H  30.35800 -4.32800 46.48600
H  29.88500 -4.46200 48.17100
H  27.23400 -1.25300 43.14900
H  27.52800 3.09200 43.38700
H  26.16500 2.95300 44.31300
H  26.00700 2.33500 42.65900

