158

Mg -1.41700 17.21800 27.28900
C  -1.97600 14.90500 29.85800
C  -2.14900 19.71300 29.51400
C  -1.13100 19.39000 24.67300
C  -1.46300 14.58900 24.99700
N  -1.98200 17.26800 29.46300
C  -1.99400 16.23500 30.37300
C  -2.30200 16.74900 31.81500
C  -2.47900 18.30200 31.59700
C  -2.21600 18.49500 30.10400
C  -3.88900 18.86800 32.15500
C  -1.27700 16.30800 32.88900
C  -1.01400 17.27600 34.06000
H  -0.36200 16.72100 35.32900
N  -1.55100 19.26600 27.15100
C  -1.83700 20.11300 28.17300
C  -1.94500 21.51900 27.63400
C  -1.53700 21.41400 26.27600
C  -1.36000 19.97500 25.95100
C  -2.15900 22.71900 28.47900
C  -1.44000 22.47700 25.27200
O  -0.97800 22.34200 24.13700
C  -1.94700 23.79900 25.58800
N  -1.27100 16.99500 25.11100
C  -1.09300 18.06000 24.31400
C  -0.76800 17.58000 22.83000
C  -0.70200 16.05900 22.97700
C  -1.13800 15.83900 24.43400
C  -1.90900 17.96000 21.80800
C  0.67600 15.46600 22.51500
C  1.93200 15.96400 23.32400
N  -1.68700 15.20800 27.31500
C  -1.63600 14.26400 26.36300
C  -1.84800 12.98800 26.92400
C  -1.91800 13.23100 28.29500
C  -1.79600 14.55000 28.49900
C  -2.06000 11.62800 26.23400
C  -2.13600 12.47000 29.52100
O  -2.33300 11.28600 29.76600
C  -2.14000 13.58300 30.64300
C  -1.04600 13.26300 31.53900
O  0.14500 13.37300 31.28800
O  -1.58200 12.92300 32.74000
C  -0.61600 12.75900 33.81400
H  -2.36200 20.53800 30.19700
H  -1.03800 20.06600 23.82000
H  -1.33200 13.74900 24.31100
H  -3.27400 16.37500 32.13800
H  -1.67600 18.84200 32.10000
H  -4.27700 18.23300 32.95200
H  -4.53100 18.97200 31.28000
H  -3.82100 19.88700 32.53600
H  -0.30300 16.11500 32.43900
H  -1.72600 15.49200 33.45600
H  -1.96400 17.76400 34.27500
H  -0.32200 18.00300 33.63500
H  -3.23600 22.72800 28.64400
H  -1.79500 23.65100 28.04500
H  -1.74800 22.48200 29.46000
H  -2.23000 24.24100 24.63200
H  -1.13400 24.38600 26.01400
H  -2.81100 23.58400 26.21700
H  0.25800 17.81700 22.54900
H  -1.44700 15.63500 22.30400
H  -1.71900 17.65000 20.78000
H  -2.16100 19.01700 21.89800
H  -2.74700 17.40500 22.22900
H  0.72900 15.49500 21.42600
H  0.55000 14.39900 22.69500
H  1.62800 16.71900 24.04900
H  2.55300 16.44300 22.56700
H  2.43500 15.11000 23.77800
H  -1.26800 11.51300 25.49400
H  -3.04600 11.63400 25.76900
H  -1.95300 10.84300 26.98200
H  -3.10100 13.70600 31.14200
H  -1.29800 12.32900 34.54700
H  -0.21000 13.73100 34.09400
H  0.16000 12.00800 33.66000
Mg 23.77600 -5.49100 46.13900
C  26.12300 -3.21400 44.76800
C  21.40300 -4.13700 44.18200
C  21.78600 -8.21500 46.93900
C  26.38200 -6.88400 48.02700
N  23.82000 -3.88500 44.63700
C  24.82400 -2.98100 44.36800
C  24.32600 -1.86400 43.44300
C  22.78100 -2.04900 43.45400
C  22.67100 -3.46200 44.03800
C  21.88000 -1.05800 44.27000
C  25.06300 -2.06500 42.07500
C  25.21800 -0.75600 41.27500
H  24.58200 -0.76400 39.88000
N  21.86700 -6.03100 45.63600
C  21.01600 -5.34000 44.80500
C  19.77800 -6.03100 44.72200
C  19.82500 -7.14800 45.51500
C  21.18600 -7.19200 46.10400
C  18.67200 -5.53500 43.78600
C  18.69100 -8.20200 45.61500
O  17.63600 -8.00200 45.00000
C  18.76200 -9.37100 46.63800
N  24.04400 -7.43800 47.19500
C  23.11600 -8.31100 47.46300
C  23.60000 -9.47300 48.33000
C  25.00300 -8.88500 48.95100
C  25.15200 -7.65600 48.02000
C  22.54400 -10.00200 49.47600
C  26.22600 -9.84800 48.83400
C  26.87900 -10.18400 50.14200
N  25.86600 -5.17300 46.43800
C  26.75800 -5.81900 47.19900
C  27.97700 -5.12900 47.14900
C  27.81100 -4.11900 46.21700
C  26.52000 -4.21700 45.70700
C  29.20800 -5.28800 47.92900
C  28.44500 -2.98700 45.51700
O  29.66000 -2.64000 45.58000
C  27.38100 -2.37700 44.53100
C  27.26500 -0.94400 44.75200
O  26.59500 -0.44400 45.61800
O  27.99700 -0.29700 43.81100
C  27.91800 1.13000 43.81300
H  20.57100 -3.64200 43.67800
H  21.31400 -9.17200 47.17000
H  27.18900 -7.31300 48.62500
H  24.60700 -0.87800 43.81400
H  22.31000 -1.87900 42.48600
H  22.60600 -0.53800 44.89500
H  21.12500 -1.58300 44.85500
H  21.41600 -0.43400 43.50600
H  24.61700 -2.83300 41.44300
H  26.11200 -2.34900 42.16400
H  26.28500 -0.58000 41.14200
H  24.78000 0.07800 41.82300
H  18.64100 -6.36100 43.07500
H  18.77200 -4.55900 43.31000
H  17.75100 -5.55200 44.36800
H  17.85000 -9.93900 46.81900
H  19.18800 -9.06900 47.59500
H  19.45600 -10.11700 46.25400
H  23.72000 -10.34100 47.68100
H  24.82300 -8.47500 49.94500
H  21.58000 -9.51300 49.33500
H  22.89400 -9.87700 50.50100
H  22.29900 -11.03200 49.22000
H  26.90100 -9.49900 48.05300
H  25.85700 -10.85100 48.62000
H  27.91600 -9.85700 50.22200
H  26.83200 -11.27300 50.17200
H  26.39300 -9.76700 51.02400
H  30.06000 -5.70100 47.38800
H  28.97000 -5.81900 48.85100
H  29.58600 -4.31400 48.23900
H  27.74900 -2.44000 43.50700
H  27.94800 1.63800 44.77600
H  26.98300 1.53300 43.42400
H  28.76500 1.55500 43.27500

