158

Mg -1.82100 17.43800 26.72500
C  -2.10300 14.92600 29.20500
C  -2.44600 19.90100 28.93400
C  -1.86900 19.66200 24.07900
C  -1.92900 14.86200 24.39200
N  -2.13500 17.35300 28.89600
C  -2.23500 16.25700 29.74400
C  -2.45600 16.72300 31.22000
C  -2.63100 18.33500 31.01900
C  -2.46100 18.58000 29.49800
C  -4.08000 18.75600 31.49000
C  -1.48100 16.11500 32.27400
C  -1.28100 16.85100 33.64100
H  -1.55100 16.00900 34.94900
N  -2.02800 19.48300 26.51000
C  -2.21200 20.36400 27.60500
C  -2.19800 21.76600 27.09700
C  -2.11000 21.66500 25.69000
C  -1.98800 20.23100 25.37400
C  -2.39600 22.95000 28.00100
C  -2.19600 22.75300 24.69200
O  -1.89200 22.64900 23.49800
C  -2.60600 24.10900 25.04700
N  -1.88400 17.24400 24.55800
C  -1.81200 18.29600 23.65800
C  -1.68600 17.79800 22.15100
C  -1.72300 16.30800 22.30200
C  -1.83500 16.10800 23.83400
C  -2.78300 18.28200 21.14800
C  -0.45400 15.64900 21.62400
C  0.81400 15.25100 22.49500
N  -1.91600 15.38200 26.73500
C  -1.83400 14.48000 25.71000
C  -1.86500 13.11600 26.16000
C  -2.02800 13.25400 27.55600
C  -2.00600 14.65800 27.82200
C  -1.85300 11.90200 25.26700
C  -2.11200 12.53300 28.81700
O  -2.10200 11.34500 29.06100
C  -2.24100 13.64700 29.91000
C  -1.25500 13.32200 31.01400
O  -0.10100 13.72100 31.05200
O  -1.85500 12.55900 31.99200
C  -1.24000 12.31200 33.25400
H  -2.32500 20.64000 29.72900
H  -1.77700 20.40300 23.28200
H  -2.03700 14.10500 23.61300
H  -3.37700 16.17300 31.41200
H  -1.79800 18.73600 31.59700
H  -3.84400 19.40400 32.33400
H  -4.76600 17.94100 31.72000
H  -4.56100 19.34800 30.71100
H  -0.49000 16.04200 31.82500
H  -1.74000 15.09000 32.54000
H  -1.98700 17.68000 33.68000
H  -0.35100 17.41600 33.69800
H  -3.44100 23.25600 27.97600
H  -1.84200 23.86000 27.76900
H  -2.29800 22.62500 29.03700
H  -3.46000 24.13900 25.72300
H  -2.97700 24.46300 24.08500
H  -1.73000 24.73600 25.21300
H  -0.70400 18.02400 21.73500
H  -2.65400 15.97600 21.84100
H  -3.16800 19.25900 21.44200
H  -3.68400 17.67300 21.21000
H  -2.37700 18.39600 20.14300
H  -0.06800 16.15200 20.73800
H  -0.87000 14.67900 21.35300
H  0.96100 16.02300 23.25000
H  1.76400 15.23000 21.96100
H  0.61000 14.28100 22.94900
H  -1.03600 12.03500 24.55700
H  -2.67900 11.79400 24.56400
H  -1.67000 10.91400 25.69100
H  -3.23400 13.49400 30.33200
H  -0.95000 11.26300 33.19100
H  -1.82100 12.44000 34.16700
H  -0.32500 12.87500 33.43900
Mg 24.54300 -6.77200 46.66500
C  27.00800 -4.39800 46.21800
C  22.71000 -5.25900 44.12300
C  22.47400 -9.38300 46.64300
C  26.91800 -8.54800 48.71800
N  24.96400 -5.13800 45.16500
C  26.03500 -4.28500 45.29400
C  25.87300 -3.14900 44.30200
C  24.37900 -3.35100 43.85800
C  23.98000 -4.71700 44.39500
C  23.33300 -2.26800 44.24500
C  27.00800 -3.41400 43.16100
C  27.91500 -2.15900 42.94200
H  27.95700 -1.80100 41.43700
N  22.74100 -7.16500 45.70300
C  22.13800 -6.40300 44.64200
C  20.88000 -7.04200 44.32900
C  20.83500 -8.21500 45.13800
C  22.04100 -8.29900 45.85400
C  19.81800 -6.53100 43.34700
C  19.59300 -9.05800 45.21700
O  18.70200 -8.92900 44.39600
C  19.38400 -10.03400 46.41300
N  24.66400 -8.71000 47.43600
C  23.68300 -9.59900 47.34800
C  23.96300 -10.88300 48.13300
C  25.36300 -10.56000 48.73500
C  25.72700 -9.13600 48.27400
C  22.85600 -11.19500 49.25000
C  26.37700 -11.60400 48.35500
C  27.16600 -12.17300 49.61900
N  26.57500 -6.59500 47.40100
C  27.34300 -7.29700 48.27800
C  28.54600 -6.49000 48.63200
C  28.43700 -5.35400 47.76300
C  27.25800 -5.47400 47.09700
C  29.57300 -6.95100 49.65400
C  29.18000 -4.15000 47.46200
O  30.20300 -3.69200 47.86400
C  28.20700 -3.45300 46.34500
C  27.81000 -2.18100 46.86700
O  27.16500 -1.97300 47.87500
O  28.29700 -1.20400 46.07500
C  27.70500 0.13200 46.21800
H  22.11700 -4.69100 43.40400
H  21.83700 -10.25800 46.49900
H  27.52600 -9.12300 49.42100
H  26.01600 -2.22200 44.85600
H  24.31700 -3.34400 42.77000
H  23.88600 -1.36400 44.50100
H  22.68900 -2.54000 45.08200
H  22.70900 -2.03800 43.38200
H  26.52500 -3.73700 42.23900
H  27.67400 -4.21300 43.48700
H  28.95500 -2.26300 43.25100
H  27.58500 -1.27300 43.48500
H  18.91600 -6.46700 43.95500
H  19.63000 -7.13800 42.46100
H  20.12900 -5.54500 43.00200
H  18.31200 -10.14400 46.57900
H  19.86100 -9.58000 47.28200
H  19.95900 -10.93700 46.21100
H  24.08300 -11.66000 47.37700
H  25.19700 -10.27200 49.77300
H  22.33200 -12.12900 49.04500
H  22.16000 -10.36400 49.36600
H  23.37300 -11.13900 50.20800
H  27.14000 -11.25400 47.65900
H  25.80900 -12.48700 48.06300
H  26.49100 -12.41300 50.44100
H  27.83900 -11.36000 49.89100
H  27.66500 -13.07200 49.25700
H  29.83000 -7.98000 49.40400
H  29.19600 -6.86200 50.67300
H  30.49100 -6.36500 49.60900
H  28.66200 -3.33800 45.36100
H  27.46300 0.51800 45.22800
H  28.40400 0.86200 46.62600
H  26.75900 0.13800 46.75900

