158

Mg 24.43500 -5.20500 45.88400
C  26.87800 -3.42000 44.27800
C  22.12500 -3.99800 43.84800
C  22.29200 -7.69800 46.89600
C  27.01500 -6.96700 47.65200
N  24.56400 -3.96700 44.25100
C  25.61500 -3.21800 43.79800
C  25.15600 -2.29000 42.70000
C  23.60400 -2.26200 42.84700
C  23.42600 -3.48300 43.69200
C  22.87000 -1.13400 43.55600
C  25.69400 -2.69000 41.31500
C  26.18100 -1.50400 40.50500
H  27.01200 -1.75300 39.14800
N  22.45000 -5.77200 45.45300
C  21.62400 -5.04400 44.62400
C  20.30200 -5.65900 44.64600
C  20.34900 -6.84900 45.48200
C  21.76100 -6.78200 46.04000
C  19.17100 -5.11900 43.72800
C  19.21400 -7.72800 45.77400
O  18.09300 -7.48800 45.26200
C  19.23100 -8.70300 46.86400
N  24.67700 -7.01000 47.26000
C  23.63900 -7.87300 47.40400
C  24.13100 -9.14600 48.09100
C  25.42000 -8.62400 48.77400
C  25.72100 -7.45500 47.88500
C  23.22900 -9.90300 49.05300
C  26.52700 -9.78600 48.86300
C  27.06300 -10.03400 50.32100
N  26.57900 -5.24400 45.97000
C  27.47200 -5.92600 46.78800
C  28.79000 -5.36400 46.65800
C  28.70800 -4.43400 45.57600
C  27.31800 -4.37100 45.26900
C  30.03600 -5.63400 47.34300
C  29.41900 -3.49100 44.82500
O  30.61500 -3.17300 44.92200
C  28.31300 -2.72400 43.90200
C  28.28300 -1.28600 44.39800
O  28.16400 -0.93000 45.56500
O  28.36000 -0.42500 43.37200
C  28.11400 1.01600 43.80400
H  21.32800 -3.40700 43.39100
H  21.66100 -8.58200 47.01200
H  27.92900 -7.44300 48.01300
H  25.54000 -1.28300 42.86200
H  23.04300 -2.43600 41.92900
H  23.54500 -0.41800 44.02400
H  22.22000 -1.54200 44.33000
H  22.22900 -0.64200 42.82500
H  24.90100 -3.24900 40.81900
H  26.51100 -3.40000 41.43700
H  26.73700 -0.76300 41.07900
H  25.24100 -1.08700 40.14500
H  18.40400 -4.63100 44.32900
H  18.68600 -5.87300 43.10900
H  19.46600 -4.39600 42.96700
H  18.21400 -8.92600 47.18700
H  19.67900 -8.18300 47.71100
H  19.85100 -9.55300 46.57800
H  24.36500 -9.78500 47.23900
H  25.31100 -8.16700 49.75800
H  22.37700 -9.25000 49.24000
H  23.93200 -9.99800 49.88100
H  22.89300 -10.83900 48.60700
H  27.42600 -9.44900 48.34700
H  26.15900 -10.71600 48.42900
H  26.67000 -9.27200 50.99400
H  28.15200 -10.00500 50.37300
H  26.72800 -11.03300 50.59800
H  29.79700 -5.61000 48.40700
H  30.75700 -4.95600 46.88700
H  30.45400 -6.63900 47.30100
H  28.42600 -2.75200 42.81800
H  27.75600 1.56400 42.93300
H  28.94500 1.48700 44.32800
H  27.17500 1.10900 44.35000
Mg 30.11600 57.94900 40.98500
C  27.11900 56.05200 40.10700
C  31.86000 55.36900 39.64500
C  32.63700 59.93400 41.08100
C  28.01900 60.36500 42.27600
N  29.49700 55.95300 39.97700
C  28.27600 55.35700 39.75800
C  28.45900 54.07200 38.91500
C  29.93700 53.66400 39.21200
C  30.44800 55.10600 39.59000
C  30.21000 52.66700 40.39500
C  27.84300 54.14400 37.49900
C  28.03000 55.49800 36.69300
H  27.30900 55.54700 35.35300
N  32.05300 57.72600 40.49000
C  32.58000 56.57600 39.98500
C  34.01100 56.74700 40.05900
C  34.32800 58.00000 40.59600
C  33.01500 58.61900 40.67300
C  34.91500 55.61600 39.65800
C  35.67900 58.54300 40.86800
O  36.65600 57.98100 40.54100
C  35.81600 59.94300 41.44100
N  30.20400 60.02700 41.33100
C  31.43300 60.53500 41.48700
C  31.35600 62.01200 41.94300
C  29.89300 62.08700 42.47500
C  29.36500 60.73200 42.04600
C  32.43300 62.52400 42.99200
C  29.21500 63.41200 41.95600
C  28.32300 64.17100 42.84700
N  27.99400 58.26200 41.13500
C  27.30500 59.34800 41.61700
C  25.90300 59.17700 41.49200
C  25.77300 57.93600 40.81000
C  27.08200 57.36200 40.71000
C  24.83700 60.09300 41.99300
C  24.83700 56.95000 40.35300
O  23.62900 57.03700 40.24100
C  25.67400 55.70200 39.85800
C  25.21100 54.47300 40.51500
O  25.05000 54.42000 41.72400
O  25.10100 53.36100 39.63300
C  24.58800 52.09600 40.18400
H  32.47400 54.54400 39.27600
H  33.53300 60.55600 41.12900
H  27.47300 61.11400 42.85300
H  27.89300 53.41700 39.57800
H  30.38200 53.35600 38.26600
H  30.40600 53.14400 41.35600
H  31.04100 51.99800 40.17700
H  29.28700 52.08700 40.41200
H  26.77500 53.96200 37.61900
H  28.40900 53.43700 36.89400
H  29.07700 55.77600 36.57200
H  27.57500 56.28700 37.29200
H  35.56800 56.00900 38.87800
H  34.38600 54.76200 39.23600
H  35.52600 55.19600 40.45700
H  35.60100 60.66300 40.65200
H  36.82900 60.07200 41.82200
H  35.20200 60.07800 42.33100
H  31.41500 62.65700 41.06600
H  29.78400 62.05100 43.55900
H  31.95600 62.96300 43.86900
H  32.99600 63.29700 42.46900
H  33.22300 61.80400 43.20600
H  28.51500 63.25100 41.13600
H  29.98000 64.09400 41.58500
H  27.49800 64.53900 42.23600
H  28.94200 64.98300 43.22900
H  27.95400 63.67300 43.74400
H  24.51000 60.61500 41.09400
H  25.33900 60.69800 42.74800
H  23.99600 59.66400 42.53900
H  25.53700 55.69600 38.77700
H  25.43800 51.51500 40.53900
H  23.92000 51.54600 39.52100
H  23.97900 52.33300 41.05700

