158

Mg 42.18400 41.75800 25.93300
C  41.47700 44.11400 28.47100
C  43.21900 39.62600 28.55900
C  43.04700 39.53200 23.69700
C  41.77800 44.22200 23.59200
N  42.25300 41.88200 28.24400
C  41.71300 42.89700 29.02900
C  41.78100 42.49500 30.53000
C  42.39200 41.10700 30.51300
C  42.74000 40.88400 29.03100
C  43.51800 40.87400 31.43800
C  40.41700 42.55700 31.39200
C  40.54100 43.22500 32.78300
H  40.02100 42.44800 34.00100
N  42.95500 39.87100 26.08100
C  43.25400 39.15600 27.22500
C  43.56900 37.85600 26.83800
C  43.46600 37.75200 25.44500
C  43.20400 39.09300 24.99700
C  44.12000 36.85800 27.84000
C  43.70600 36.55300 24.55100
O  43.91400 36.64900 23.30100
C  43.72200 35.10600 25.18000
N  42.45900 41.88700 23.89400
C  42.74100 40.76800 23.14600
C  42.86800 41.19800 21.67500
C  42.10100 42.53100 21.65600
C  42.07400 42.92400 23.14000
C  44.30800 41.25700 21.10500
C  40.68500 42.63400 21.12800
C  39.48600 42.29500 22.02500
N  41.50800 43.72800 25.90700
C  41.54000 44.62600 24.88400
C  41.26900 45.97400 25.33700
C  41.10500 45.79100 26.73600
C  41.33100 44.40700 27.08100
C  41.11700 47.13400 24.54500
C  40.77200 46.43000 27.97600
O  40.42900 47.61300 28.13800
C  40.98300 45.37700 29.16600
C  42.02000 45.90500 30.10800
O  43.20900 46.00100 29.89800
O  41.36500 46.33400 31.28000
C  42.31800 46.98500 32.27200
H  43.46000 39.00300 29.42300
H  43.31800 38.79000 22.94300
H  41.56300 44.96600 22.82100
H  42.46200 43.22300 30.97100
H  41.57600 40.42100 30.73700
H  43.62700 41.62000 32.22500
H  44.49500 40.82100 30.95800
H  43.27800 39.89900 31.86300
H  40.09000 41.54000 31.60700
H  39.64300 43.10100 30.85100
H  39.88700 44.09700 32.79100
H  41.53900 43.59300 33.02200
H  43.52300 35.94600 27.87600
H  44.25400 37.32000 28.81800
H  45.08800 36.54400 27.44900
H  43.58300 34.45400 24.31800
H  42.89100 34.98800 25.87600
H  44.63900 34.82000 25.69600
H  42.29700 40.51000 21.05200
H  42.63600 43.34500 21.16600
H  44.95800 40.77400 21.83500
H  44.68700 42.27000 20.97100
H  44.40100 40.63200 20.21600
H  40.57200 41.97100 20.27000
H  40.52600 43.68400 20.88300
H  39.78200 41.93900 23.01200
H  38.92800 41.51400 21.50900
H  38.84000 43.16900 22.10000
H  40.57500 46.79800 23.66100
H  42.15500 47.35200 24.29400
H  40.57000 47.88300 25.11800
H  40.11100 45.10100 29.75900
H  42.66200 46.16200 32.89800
H  41.67400 47.55600 32.94100
H  43.12700 47.52900 31.78500
Mg 0.38600 43.41400 26.21800
C  2.59700 43.22500 29.07700
C  -2.18800 42.66100 28.35700
C  -1.56700 42.88400 23.65400
C  3.24700 43.63500 24.17400
N  0.24100 43.12200 28.48100
C  1.23000 43.18100 29.39800
C  0.73000 43.19800 30.77300
C  -0.78200 42.73500 30.58500
C  -0.97300 42.85500 29.04000
C  -1.22800 41.38100 31.27400
C  0.94300 44.53400 31.52200
C  1.55100 44.47800 32.90600
H  1.09200 43.30600 33.75600
N  -1.54600 42.76200 26.01100
C  -2.43700 42.62100 27.00000
C  -3.77600 42.37100 26.48300
C  -3.64300 42.40600 25.06300
C  -2.25000 42.70700 24.82900
C  -5.02600 42.34300 27.40400
C  -4.65400 42.24000 23.92500
O  -4.49300 42.44300 22.75300
C  -6.01800 42.07000 24.34600
N  0.87400 43.20500 24.23900
C  -0.18200 43.16000 23.31000
C  0.29600 43.22900 21.81400
C  1.75300 43.66200 22.07700
C  1.99200 43.43400 23.53900
C  0.14800 41.91200 21.04800
C  1.91000 45.19400 21.63600
C  1.72000 46.22700 22.71100
N  2.46300 43.60600 26.53500
C  3.48800 43.68700 25.58800
C  4.76900 43.64000 26.29100
C  4.46700 43.38500 27.61500
C  3.04400 43.44000 27.73100
C  6.12000 43.76600 25.66100
C  5.04000 43.10600 28.88100
O  6.21200 42.94200 29.24000
C  3.84600 43.08100 29.95700
C  4.03200 41.86300 30.70300
O  3.93100 40.70400 30.30400
O  4.41400 42.16700 31.98700
C  4.61200 40.93800 32.80200
H  -3.08100 42.45900 28.95100
H  -2.13700 42.85600 22.72300
H  4.10700 43.66900 23.50200
H  1.39400 42.56800 31.36500
H  -1.37100 43.54900 31.00800
H  -1.88000 41.69000 32.09100
H  -0.42900 40.86500 31.80600
H  -1.70600 40.70200 30.56800
H  -0.02500 45.03600 31.52900
H  1.64600 45.09000 30.90200
H  1.33200 45.34700 33.52600
H  2.61600 44.70100 32.84900
H  -5.85600 42.85800 26.91900
H  -4.89300 42.80500 28.38200
H  -5.15000 41.28700 27.64500
H  -6.74500 41.76100 23.59500
H  -6.36800 43.02700 24.73400
H  -6.08600 41.38700 25.19300
H  -0.24400 44.05400 21.34800
H  2.61900 43.15900 21.64700
H  -0.26400 41.10700 21.65700
H  1.12900 41.61500 20.67700
H  -0.47300 42.16800 20.19000
H  1.30900 45.51500 20.78500
H  2.94900 45.43800 21.41200
H  2.73300 46.40700 23.07000
H  1.06400 45.84000 23.49100
H  1.34100 47.15900 22.29400
H  6.05100 43.54800 24.59500
H  6.63500 43.00400 26.24500
H  6.58600 44.74200 25.79100
H  4.02600 44.00900 30.50000
H  3.68300 40.55200 33.22300
H  5.19200 41.26800 33.66400
H  5.18400 40.18300 32.26300

