158

Mg 41.82900 41.85200 26.99400
C  40.83200 44.21600 29.52800
C  42.49000 39.72600 29.27500
C  42.75100 39.90600 24.48900
C  41.19700 44.38300 24.70100
N  41.51200 42.01100 29.17200
C  41.18600 42.98300 30.05300
C  41.38100 42.58000 31.49300
C  41.96100 41.13200 31.39200
C  42.06300 40.90200 29.85900
C  43.36500 40.87500 32.12900
C  40.03200 42.71800 32.33700
C  39.90800 41.73300 33.51500
H  39.59000 42.32300 34.83800
N  42.57200 40.00500 26.92200
C  42.85100 39.23200 27.96000
C  43.36400 38.02800 27.54600
C  43.38100 38.02900 26.13800
C  42.87300 39.33600 25.76000
C  43.71900 36.97600 28.57600
C  43.69000 36.96200 25.05900
O  43.54200 37.12200 23.87400
C  44.17700 35.65800 25.46600
N  41.94200 42.12400 24.91800
C  42.37500 41.16200 24.10400
C  42.28800 41.63900 22.64500
C  41.52600 42.99400 22.68000
C  41.61800 43.24500 24.13600
C  43.72800 41.58500 22.00200
C  40.06400 43.07200 22.19900
C  39.09800 42.14200 22.92900
N  41.15900 43.94700 27.07200
C  41.01000 44.78600 26.00800
C  40.64000 46.07900 26.50900
C  40.52900 45.97500 27.84800
C  40.85200 44.59200 28.15700
C  40.33600 47.29200 25.63600
C  40.20500 46.62600 29.11700
O  39.84200 47.76500 29.39600
C  40.42100 45.49100 30.20600
C  41.34000 45.98500 31.33300
O  42.52900 46.26200 31.27600
O  40.52600 46.36000 32.30000
C  41.23300 46.93400 33.51000
H  42.72300 39.03800 30.09100
H  43.13300 39.35500 23.62700
H  41.06800 45.14500 23.93100
H  42.21400 43.20100 31.82200
H  41.25500 40.34500 31.65600
H  44.03100 41.61500 32.57200
H  44.01800 40.40500 31.39400
H  43.03500 40.13000 32.85400
H  39.16300 42.65700 31.68200
H  40.06400 43.67600 32.85700
H  40.79400 41.12800 33.71000
H  39.13200 41.04100 33.18700
H  44.80500 36.91400 28.64000
H  43.32800 36.01600 28.23800
H  43.24000 37.13200 29.54300
H  43.35100 35.21500 26.02200
H  45.15800 35.73000 25.93500
H  44.21700 35.04400 24.56500
H  41.69000 40.90900 22.09900
H  42.06200 43.86500 22.30300
H  44.51200 41.42200 22.74100
H  44.01100 42.48200 21.45300
H  43.58900 40.73900 21.32900
H  39.93900 42.90200 21.13000
H  39.72600 44.08300 22.42700
H  38.50900 42.64700 23.69400
H  39.61300 41.28100 23.35400
H  38.39000 41.66300 22.25200
H  41.11300 48.00500 25.91000
H  39.36700 47.75000 25.83500
H  40.33600 46.98600 24.59000
H  39.46600 45.38100 30.72000
H  41.80100 46.12500 33.97000
H  40.43900 47.21000 34.20500
H  41.96800 47.68600 33.22300
Mg -10.14400 17.54500 42.65300
C  -6.72300 16.53400 42.24600
C  -9.22600 20.65300 41.89100
C  -13.36800 18.00700 41.99900
C  -10.86900 13.95100 42.76000
N  -8.13500 18.44500 41.93500
C  -6.89100 17.90700 41.99300
C  -5.79000 19.10800 41.85700
C  -6.66100 20.33400 41.98000
C  -8.09000 19.78600 41.96200
C  -6.52500 21.40500 43.13600
C  -4.97800 19.04500 40.55400
C  -5.72000 18.52700 39.32000
H  -5.38700 19.01500 37.88900
N  -11.15900 19.14200 42.04700
C  -10.62700 20.36100 41.76800
C  -11.64700 21.26500 41.37200
C  -12.87700 20.50600 41.39800
C  -12.51300 19.18500 41.85600
C  -11.34900 22.69000 40.97900
C  -14.14400 21.12400 40.95800
O  -14.16400 22.25500 40.55700
C  -15.52200 20.44000 40.90600
N  -11.88700 16.17500 42.63000
C  -13.10500 16.69900 42.34000
C  -14.18800 15.59600 42.30200
C  -13.27600 14.33000 42.17700
C  -11.90200 14.86100 42.59800
C  -15.13700 15.46200 43.52000
C  -13.13700 13.71100 40.69900
C  -14.36900 12.89800 40.28000
N  -9.06200 15.62200 42.74500
C  -9.50900 14.30500 42.80600
C  -8.33600 13.49400 42.99900
C  -7.23500 14.34200 42.88200
C  -7.72800 15.63600 42.63700
C  -8.29900 12.07000 43.21000
C  -5.72300 14.42600 42.88500
O  -4.93100 13.55000 43.03200
C  -5.40300 15.88400 42.61400
C  -4.82600 16.51200 43.81100
O  -5.37800 16.76600 44.89800
O  -3.52200 16.89600 43.60100
C  -2.81800 17.50400 44.73200
H  -8.86500 21.66400 41.69600
H  -14.43600 18.12100 41.80000
H  -11.15100 12.89800 42.82900
H  -5.18300 19.06800 42.76200
H  -6.51300 20.96700 41.10500
H  -5.60100 21.16300 43.66200
H  -7.36600 21.34600 43.82700
H  -6.46100 22.43000 42.77000
H  -4.07400 18.46300 40.73300
H  -4.77400 20.09200 40.33100
H  -6.79600 18.51800 39.49400
H  -5.38000 17.50900 39.12700
H  -11.35600 22.79800 39.89400
H  -10.35500 23.02300 41.27800
H  -12.05800 23.42600 41.35800
H  -15.95500 20.46600 41.90600
H  -15.28400 19.48000 40.44900
H  -16.12300 20.98300 40.17700
H  -14.79100 15.68900 41.39900
H  -13.59700 13.54700 42.86400
H  -15.00200 14.52700 44.06400
H  -16.19700 15.55700 43.28700
H  -14.88500 16.31600 44.14900
H  -12.18100 13.21100 40.54600
H  -13.25900 14.53100 39.99100
H  -14.87400 13.54100 39.55800
H  -15.03700 12.63100 41.09900
H  -14.03600 11.93300 39.90000
H  -7.32000 11.59500 43.15000
H  -8.93500 11.63600 42.43900
H  -8.62400 11.83900 44.22400
H  -4.71400 15.97300 41.77400
H  -2.51000 18.39700 44.18900
H  -2.08300 16.75100 45.01700
H  -3.41500 17.76800 45.60500

