158

Mg 34.85600 2.45300 29.45900
C  32.80000 3.58000 32.00700
C  37.58300 2.40900 31.56500
C  36.81300 1.82400 26.81500
C  32.05600 3.02900 27.39000
N  35.16400 3.04000 31.53500
C  34.20400 3.37700 32.40000
C  34.75400 3.55200 33.80400
C  36.33200 3.38600 33.62200
C  36.42200 2.93000 32.15800
C  37.15400 4.69400 33.79500
C  34.18200 2.53800 34.76300
C  33.88700 3.05500 36.26600
H  34.90900 3.99800 36.93300
N  36.85600 2.02800 29.21500
C  37.78700 2.07000 30.21400
C  39.05900 1.56700 29.63000
C  38.94700 1.61600 28.21900
C  37.52200 1.88400 28.03500
C  40.17600 1.18100 30.59400
C  40.01800 1.48200 27.22400
O  39.73700 1.67500 26.02500
C  41.42600 1.14900 27.51900
N  34.54600 2.47600 27.40800
C  35.50500 2.09600 26.53200
C  34.92900 1.87500 25.11300
C  33.46200 2.26200 25.30800
C  33.31000 2.58100 26.81500
C  35.65500 2.48600 23.92700
C  32.49100 1.18600 24.64900
C  32.59000 -0.15700 25.31600
N  32.81000 3.25000 29.54000
C  31.83500 3.37600 28.66400
C  30.62800 3.82800 29.30600
C  31.00200 4.00500 30.64900
C  32.31200 3.57900 30.71000
C  29.32800 4.12200 28.59900
C  30.49600 4.47000 31.94000
O  29.36000 4.89500 32.22000
C  31.62400 4.09200 32.93300
C  31.95400 5.38900 33.74700
O  32.79900 6.22600 33.39700
O  31.31900 5.40100 34.98400
C  31.78500 6.37000 35.99600
H  38.45400 2.30400 32.21600
H  37.27700 1.55400 25.86400
H  31.20800 3.02400 26.70200
H  34.61000 4.57100 34.16400
H  36.74400 2.62400 34.28400
H  37.59600 5.05700 32.86700
H  37.85100 4.38100 34.57300
H  36.65000 5.58300 34.17500
H  34.88800 1.70900 34.71300
H  33.29500 1.99700 34.43400
H  33.93300 2.23100 36.97800
H  32.87100 3.45000 36.27400
H  41.01400 0.68800 30.10000
H  39.73000 0.57000 31.37900
H  40.47100 2.15600 30.98100
H  41.97600 1.03400 26.58500
H  41.46900 0.13400 27.91300
H  41.85200 1.86200 28.22500
H  35.00400 0.79400 24.98800
H  33.34900 3.25200 24.86600
H  35.89600 1.59900 23.34000
H  36.55500 3.07000 24.12100
H  34.97900 3.09200 23.32500
H  32.61200 1.19100 23.56500
H  31.49500 1.54600 24.90900
H  31.65900 -0.50200 25.76600
H  33.37000 -0.18000 26.07600
H  32.87300 -0.90100 24.57100
H  28.62900 3.30600 28.78200
H  29.48200 4.12400 27.51900
H  28.82600 5.03900 28.90600
H  31.20300 3.37100 33.63400
H  32.86500 6.26000 36.09500
H  31.38500 6.12200 36.97900
H  31.58700 7.41900 35.77500
Mg 27.19700 50.81600 25.86200
C  25.31300 51.94500 28.63000
C  29.42000 49.33800 28.19700
C  29.20400 49.98500 23.33900
C  25.20700 52.77000 23.86600
N  27.39100 50.70400 28.18400
C  26.42400 51.20400 29.09100
C  26.77300 50.72300 30.53300
C  28.11500 49.96300 30.32400
C  28.29400 49.95000 28.81700
C  29.30800 50.70600 30.97300
C  25.65200 50.00800 31.33500
C  25.23300 50.51800 32.79400
H  26.29000 50.77100 33.87100
N  29.04600 49.74500 25.78000
C  29.85300 49.30900 26.86400
C  30.99700 48.63900 26.27100
C  30.95600 48.88900 24.85900
C  29.70000 49.54700 24.62100
C  32.06100 47.80200 27.05900
C  32.00500 48.63300 23.77300
O  31.91400 48.84700 22.56800
C  33.29700 47.99700 24.25400
N  27.17800 51.31900 23.89300
C  28.07800 50.78400 22.99900
C  27.69000 51.09100 21.49400
C  26.32100 51.82900 21.61500
C  26.21800 52.01100 23.22600
C  28.73200 51.63400 20.52200
C  25.18800 51.05500 20.93500
C  24.20400 52.08100 20.33900
N  25.51900 52.10000 26.15400
C  24.84200 52.83600 25.21100
C  23.70100 53.54600 25.73900
C  23.85200 53.19300 27.11600
C  25.02700 52.37000 27.28300
C  22.69800 54.38100 25.05300
C  23.20200 53.28000 28.43300
O  22.02000 53.62100 28.70300
C  24.16000 52.52600 29.50900
C  24.62100 53.49600 30.55300
O  25.63600 54.17300 30.58500
O  23.67100 53.48100 31.58300
C  23.97000 54.25800 32.83600
H  30.00200 48.84700 28.98100
H  29.75500 49.63600 22.46300
H  24.50700 53.28100 23.20300
H  26.93100 51.71200 30.96400
H  28.06600 48.93800 30.69000
H  29.83900 51.33400 30.25900
H  30.00200 49.99200 31.41700
H  28.93800 51.33200 31.78500
H  26.00500 49.01200 31.60000
H  24.69600 49.80900 30.85100
H  24.57700 49.74400 33.19200
H  24.72400 51.47900 32.71900
H  32.63100 47.02800 26.54500
H  31.78100 47.32800 28.00000
H  32.89800 48.45700 27.30100
H  33.89300 48.07400 23.34400
H  33.18200 46.95900 24.56400
H  33.69900 48.71200 24.97200
H  27.45300 50.06800 21.20200
H  26.55400 52.82800 21.24700
H  29.68000 51.37100 20.99200
H  28.69100 52.72000 20.43300
H  28.79800 51.02600 19.62000
H  24.73000 50.56400 21.79300
H  25.62500 50.42700 20.15800
H  23.37400 51.46900 19.98600
H  24.55400 52.58700 19.44000
H  23.81400 52.85200 21.00300
H  21.74200 53.87800 24.90600
H  22.97900 54.66000 24.03800
H  22.55900 55.32300 25.58300
H  23.74500 51.67300 30.04600
H  25.04200 54.31700 33.02600
H  23.42000 53.95000 33.72500
H  23.61600 55.27500 32.67100

