158

Mg 8.86500 3.05700 26.73000
C  10.11100 1.64300 29.72800
C  7.11100 5.31700 28.69700
C  7.35100 4.17900 24.02200
C  10.55200 0.59200 24.92200
N  8.63900 3.42000 29.01500
C  9.40400 2.78500 30.00500
C  9.02400 3.41100 31.37700
C  7.89700 4.45800 31.02600
C  7.83000 4.43800 29.46100
C  6.48900 4.15000 31.66600
C  10.20100 4.04200 32.20000
C  9.81700 4.58000 33.55200
H  10.25600 3.83800 34.81900
N  7.42700 4.59400 26.42500
C  6.93600 5.42400 27.33600
C  6.04100 6.40200 26.65400
C  6.06500 6.03700 25.29500
C  6.96900 4.87600 25.19000
C  5.19000 7.44600 27.31200
C  5.36800 6.76900 24.08600
O  5.30000 6.27800 22.96700
C  4.55900 8.09600 24.27200
N  8.88900 2.46300 24.76600
C  8.20700 3.09900 23.78500
C  8.30200 2.38600 22.45200
C  9.45600 1.42000 22.70400
C  9.65100 1.45400 24.21900
C  6.94400 1.64500 22.09000
C  10.73400 1.67000 21.97300
C  11.62000 0.48700 21.43700
N  10.06700 1.40400 27.21000
C  10.68200 0.50900 26.35800
C  11.41600 -0.47700 27.16300
C  11.32400 0.01200 28.50900
C  10.36000 1.06600 28.47000
C  12.30600 -1.46200 26.56500
C  11.72300 -0.19500 29.85900
O  12.52800 -0.92400 30.47500
C  11.00400 0.89500 30.67200
C  10.25200 0.24800 31.77900
O  9.18000 -0.35700 31.65500
O  10.81400 0.53600 32.97200
C  10.13600 0.04200 34.18500
H  6.55100 6.02200 29.31600
H  6.95900 4.59300 23.09100
H  11.07000 -0.15000 24.31000
H  8.63200 2.61100 32.00400
H  8.17500 5.49300 31.22200
H  5.76900 3.78900 30.93200
H  6.05300 5.08000 32.03000
H  6.56400 3.38500 32.44000
H  10.67100 4.91100 31.74200
H  11.09900 3.42500 32.19400
H  8.73800 4.67200 33.43000
H  10.34600 5.52200 33.69800
H  5.78500 8.35500 27.40600
H  4.89500 7.10100 28.30300
H  4.27000 7.78400 26.83500
H  3.62400 7.96400 24.81600
H  4.30700 8.54200 23.31000
H  5.28100 8.81200 24.66400
H  8.58700 3.11500 21.69400
H  9.18600 0.40200 22.42300
H  6.12300 1.90300 22.75900
H  7.10100 0.56700 22.14100
H  6.72200 1.85700 21.04500
H  11.49200 2.20600 22.54400
H  10.56900 2.36100 21.14700
H  11.19600 -0.49400 21.65200
H  12.58600 0.64200 21.91800
H  11.89000 0.59900 20.38700
H  11.67400 -2.04800 25.89700
H  12.75300 -2.05900 27.36000
H  13.10900 -0.94400 26.04200
H  11.72300 1.52000 31.20100
H  9.11900 0.43000 34.23900
H  10.67400 0.43900 35.04600
H  10.14800 -1.04700 34.15100
Mg -10.55200 39.69000 41.50900
C  -9.48300 36.41000 40.86500
C  -7.59100 40.88300 40.17800
C  -11.99700 42.69700 41.36000
C  -13.58400 38.39300 42.70000
N  -8.76100 38.75600 40.71800
C  -8.59700 37.39800 40.45500
C  -7.22700 37.12100 39.70400
C  -6.50000 38.54200 39.71100
C  -7.66800 39.45600 40.23600
C  -5.18300 38.68600 40.49400
C  -7.36700 36.51100 38.24800
C  -6.17700 35.56200 37.87000
H  -5.22900 35.94800 36.74300
N  -9.83400 41.50000 40.96600
C  -8.52900 41.83700 40.54400
C  -8.46100 43.29700 40.43000
C  -9.75300 43.81400 40.71800
C  -10.62300 42.66600 41.03100
C  -7.28800 44.05300 39.83000
C  -9.98500 45.32400 40.92400
O  -9.03600 46.08600 40.83500
C  -11.33600 45.93700 41.25100
N  -12.59900 40.36900 41.79700
C  -12.89800 41.65100 41.72300
C  -14.38400 41.97500 42.07100
C  -14.89300 40.64500 42.65900
C  -13.65700 39.69000 42.30900
C  -14.67700 43.16200 43.00300
C  -16.26300 40.13300 42.08700
C  -17.58100 40.36600 43.00300
N  -11.43000 37.77100 41.79200
C  -12.55700 37.39200 42.41200
C  -12.53900 35.93700 42.53100
C  -11.37200 35.53000 41.92600
C  -10.73600 36.70600 41.47500
C  -13.72500 35.09400 42.95900
C  -10.55200 34.34700 41.64000
O  -10.71000 33.17200 41.92800
C  -9.24300 34.92200 41.01200
C  -8.01800 34.62000 41.82300
O  -7.77900 35.11700 42.92000
O  -7.15900 33.88800 41.14000
C  -5.86500 33.69500 41.72900
H  -6.68200 41.21100 39.67000
H  -12.39500 43.71400 41.32400
H  -14.31400 38.01100 43.41600
H  -6.67000 36.48000 40.38700
H  -6.31700 38.97900 38.73000
H  -4.52900 39.31200 39.88700
H  -4.77100 37.67900 40.57000
H  -5.16700 39.13900 41.48600
H  -7.38700 37.26600 37.46100
H  -8.34900 36.06000 38.10800
H  -6.64900 34.59400 37.69900
H  -5.55600 35.47900 38.76100
H  -6.53900 43.36400 39.44000
H  -6.84100 44.69200 40.59100
H  -7.71400 44.61200 38.99700
H  -11.97600 45.85800 40.37100
H  -11.17100 47.00900 41.35300
H  -11.68800 45.55200 42.20800
H  -14.79300 42.26700 41.10400
H  -14.93900 40.82300 43.73400
H  -13.80700 43.33600 43.63700
H  -15.56700 42.98200 43.60500
H  -14.85000 44.09700 42.47000
H  -16.23700 39.04300 42.08700
H  -16.50800 40.51800 41.09800
H  -18.50600 40.05900 42.51500
H  -17.80400 41.39900 43.26900
H  -17.56600 39.79800 43.93300
H  -13.79800 34.26000 42.26100
H  -14.65800 35.65500 42.91000
H  -13.51000 34.67200 43.94100
H  -9.07100 34.36200 40.09300
H  -6.07800 33.04000 42.57400
H  -5.48000 34.68900 41.95500
H  -5.12600 33.20400 41.09500

