158

Mg 48.77100 35.20500 27.92100
C  46.77800 33.57000 30.33500
C  48.58400 38.01200 30.00400
C  50.14600 36.98300 25.46900
C  48.43600 32.38400 25.88100
N  47.90900 35.72100 30.01400
C  47.20800 34.82300 30.81900
C  47.15200 35.37800 32.20000
C  47.17000 36.88400 31.86000
C  47.93500 36.92700 30.59100
C  45.72800 37.60400 31.83100
C  48.43200 34.97900 33.08700
C  48.05400 34.80100 34.58600
H  47.21900 35.85600 35.26900
N  49.38000 37.19800 27.75400
C  49.29100 38.12500 28.80600
C  49.91700 39.35200 28.24900
C  50.33900 39.15500 26.89500
C  49.99600 37.71900 26.64000
C  50.07800 40.58800 29.12400
C  51.08100 40.08400 25.78600
O  51.56600 39.75600 24.72400
C  51.37100 41.52400 26.15600
N  49.15900 34.74200 25.96300
C  49.81000 35.65400 25.11100
C  49.94300 35.08300 23.75700
C  49.63000 33.58300 23.94000
C  49.08200 33.52800 25.35500
C  49.00800 35.89400 22.73000
C  50.92500 32.65600 23.86100
C  50.87300 31.75100 22.63600
N  47.76900 33.35300 28.01600
C  47.77200 32.34400 27.10700
C  47.00200 31.20000 27.71900
C  46.48600 31.68200 28.93000
C  47.08800 32.95900 29.12600
C  46.84700 29.81900 27.20700
C  45.79500 31.31700 30.12900
O  45.20700 30.28400 30.41700
C  45.78900 32.60600 30.97200
C  45.93700 32.20100 32.39000
O  46.99400 31.95500 32.92700
O  44.68800 32.19100 33.01800
C  44.74500 32.04200 34.49000
H  48.63100 38.90500 30.63100
H  50.51200 37.52800 24.59700
H  48.50800 31.49000 25.25800
H  46.31300 35.04300 32.80800
H  47.84700 37.40000 32.54000
H  44.87500 36.95500 32.03300
H  45.51600 37.95700 30.82100
H  45.67000 38.55400 32.36200
H  49.27300 35.67000 33.13400
H  48.78000 34.02000 32.70300
H  49.01700 34.65800 35.07800
H  47.44800 33.91200 34.75800
H  49.22200 41.26200 29.08400
H  50.95100 41.20700 28.91900
H  50.10500 40.34500 30.18700
H  52.07900 41.73700 26.95800
H  50.34300 41.83000 26.34800
H  51.78100 42.03500 25.28500
H  50.96200 35.22900 23.40100
H  48.82800 33.31600 23.25100
H  48.45200 36.50900 23.43700
H  48.21700 35.27300 22.31100
H  49.51400 36.49400 21.97400
H  50.96900 31.95200 24.69200
H  51.88400 33.17100 23.82400
H  51.13900 30.72300 22.88300
H  51.70400 32.01500 21.98100
H  49.97400 31.77700 22.02000
H  47.68400 29.48900 26.59100
H  45.95300 29.80000 26.58400
H  46.69700 29.18200 28.07800
H  44.79600 33.03300 30.83100
H  43.75200 32.01000 34.93700
H  45.22800 32.94400 34.86700
H  45.39400 31.21900 34.79300
Mg 36.43800 49.77400 24.61300
C  36.99300 48.32900 27.57100
C  34.95500 52.55900 26.25900
C  35.56000 51.09500 21.58400
C  37.55700 46.94300 22.91400
N  36.15000 50.39500 26.71600
C  36.36600 49.61400 27.79800
C  35.99300 50.29600 29.10700
C  35.05400 51.42900 28.60500
C  35.42300 51.51600 27.10100
C  33.52300 51.26400 29.06200
C  37.19000 50.76200 29.96600
C  37.31900 50.23900 31.41500
H  36.06800 50.12300 32.21400
N  35.58600 51.65400 24.01400
C  35.03600 52.65400 24.82900
C  34.55300 53.75400 24.01200
C  34.56700 53.29000 22.63600
C  35.33300 51.98200 22.68600
C  34.01100 55.05100 24.58400
C  34.01400 53.92300 21.34500
O  34.04200 53.28500 20.25300
C  33.51500 55.37300 21.49100
N  36.50500 49.08400 22.55100
C  36.11700 49.81600 21.53200
C  36.34900 49.10400 20.08600
C  37.11500 47.85100 20.48600
C  37.01500 47.90600 22.12600
C  35.02700 48.89600 19.36100
C  38.60800 47.65200 19.98900
C  39.61600 48.77200 20.39500
N  37.04100 47.98300 25.11200
C  37.55100 46.94600 24.33700
C  37.95800 45.83200 25.15400
C  37.72800 46.34700 26.52600
C  37.19700 47.65800 26.39600
C  38.33800 44.42400 24.70800
C  37.88000 45.98000 27.90000
O  38.14100 44.90500 28.46700
C  37.43000 47.30600 28.64200
C  36.29600 46.79700 29.54400
O  35.11300 46.72400 29.28300
O  36.87500 46.37800 30.77500
C  35.94300 45.78200 31.70900
H  34.55400 53.42000 26.79900
H  35.15500 51.40600 20.61900
H  37.81400 46.01000 22.40800
H  35.43500 49.50900 29.61400
H  35.33700 52.39300 29.02900
H  33.30300 52.24700 29.47800
H  33.35700 50.45800 29.77600
H  32.88200 51.06600 28.20300
H  37.23400 51.84500 30.08500
H  38.09200 50.48500 29.42000
H  38.08000 50.82000 31.93800
H  37.70600 49.22000 31.42900
H  34.61800 55.88200 24.22500
H  34.07600 55.01900 25.67100
H  32.96300 55.09500 24.28800
H  32.68700 55.32800 22.20000
H  33.24200 55.80600 20.52900
H  34.31000 56.00800 21.88300
H  36.93200 49.84600 19.53900
H  36.57900 46.98500 20.09800
H  34.15100 49.10800 19.97400
H  35.00400 47.83800 19.09900
H  34.81000 49.42600 18.43400
H  38.58800 47.62000 18.89900
H  38.91800 46.62700 20.19200
H  39.07300 49.59600 20.85900
H  40.10600 49.12000 19.48600
H  40.21500 48.48600 21.26000
H  38.41000 44.28400 23.63000
H  37.72000 43.65300 25.16900
H  39.39800 44.34800 24.94700
H  38.22700 47.50700 29.35800
H  35.09100 46.46200 31.72600
H  36.38700 45.65600 32.69600
H  35.60200 44.80700 31.36200

