158

Mg 17.76300 -1.93700 28.31700
C  16.61800 0.01100 31.18400
C  19.46000 -3.77400 30.44500
C  19.24800 -3.16200 25.51500
C  16.20900 0.59200 26.36200
N  18.13000 -1.77300 30.64700
C  17.48700 -1.03700 31.53200
C  17.82900 -1.42600 32.91000
C  18.95100 -2.61700 32.69200
C  18.84300 -2.76800 31.14300
C  20.49300 -2.30600 33.04300
C  16.64400 -1.68500 33.88100
C  16.46000 -0.72800 35.15000
H  17.69600 -0.09900 35.74000
N  19.14100 -3.39500 28.02200
C  19.63700 -4.12200 29.06600
C  20.46100 -5.22800 28.51800
C  20.47700 -4.97000 27.05400
C  19.59800 -3.78100 26.73500
C  21.02100 -6.32300 29.35400
C  21.28100 -5.70300 26.01700
O  21.24300 -5.35000 24.79600
C  22.00300 -6.89600 26.42100
N  17.90600 -1.29200 26.22000
C  18.54400 -2.03000 25.27900
C  18.33200 -1.37700 23.91300
C  17.32200 -0.24400 24.20800
C  17.06900 -0.33100 25.67900
C  19.59300 -1.10200 23.09100
C  16.11100 0.01200 23.38900
C  16.20900 1.04200 22.29000
N  16.51400 -0.18500 28.62100
C  15.82800 0.65500 27.75900
C  14.99100 1.63900 28.38700
C  15.31600 1.45000 29.73200
C  16.24600 0.35700 29.82300
C  14.10200 2.67700 27.67000
C  15.03400 1.81100 31.06300
O  14.15200 2.57100 31.41100
C  15.80600 0.99400 32.06000
C  16.63300 1.90100 32.84100
O  17.79400 2.25000 32.64800
O  15.86800 2.46200 33.81900
C  16.37600 3.53200 34.63400
H  19.92300 -4.44300 31.17400
H  19.55700 -3.57900 24.55400
H  15.58700 1.32600 25.84600
H  18.42400 -0.66800 33.41900
H  18.60000 -3.55200 33.12900
H  21.11100 -1.98700 32.20400
H  20.92500 -3.23000 33.42600
H  20.56800 -1.58900 33.86100
H  16.88100 -2.68800 34.23600
H  15.73800 -1.64400 33.27600
H  16.14100 -1.55200 35.78900
H  15.67400 -0.01300 34.90800
H  20.56300 -7.29700 29.18300
H  20.86500 -6.19500 30.42500
H  22.11100 -6.30500 29.38200
H  21.42800 -7.69400 26.89000
H  22.67300 -6.50700 27.18800
H  22.40800 -7.33100 25.50700
H  17.98400 -2.18400 23.26900
H  17.80000 0.73200 24.13300
H  19.55900 -0.07700 22.72100
H  19.67400 -1.69900 22.18300
H  20.47600 -1.33300 23.68700
H  15.26100 0.22500 24.03700
H  15.91400 -0.95800 22.93300
H  17.13900 1.60200 22.18900
H  15.43400 1.77400 22.51300
H  16.01700 0.52000 21.35200
H  13.98600 2.44400 26.61100
H  14.43600 3.70200 27.82900
H  13.15200 2.61300 28.20100
H  15.10600 0.41300 32.66000
H  16.31800 4.52100 34.18000
H  17.43700 3.42100 34.85800
H  15.79200 3.56700 35.55300
Mg 47.88200 34.78700 26.63900
C  45.70600 33.25000 29.04000
C  48.19300 37.59800 28.75000
C  49.71100 36.30600 24.32500
C  47.21300 32.19300 24.51400
N  46.93500 35.28800 28.63800
C  46.26200 34.46600 29.47400
C  46.42200 34.99400 30.95000
C  46.86400 36.55400 30.64500
C  47.40500 36.53900 29.22800
C  45.62700 37.53100 30.89700
C  47.52400 34.32100 31.84700
C  47.30000 34.45900 33.43000
H  46.11500 35.26900 33.92400
N  48.79900 36.70200 26.56500
C  48.77900 37.69800 27.46700
C  49.40000 38.89100 26.97300
C  49.80700 38.52600 25.65200
C  49.43600 37.12000 25.45000
C  49.40700 40.22200 27.79100
C  50.42500 39.43900 24.58200
O  50.65800 39.14100 23.43200
C  50.86500 40.78000 25.03700
N  48.21800 34.42700 24.61300
C  49.14200 35.10400 23.95200
C  49.63200 34.32600 22.72400
C  48.80200 33.04400 22.65900
C  48.03800 33.19800 24.02800
C  49.56900 35.09300 21.42900
C  49.66500 31.67100 22.57800
C  49.64300 31.03100 21.16900
N  46.65300 33.14300 26.66400
C  46.57300 32.11500 25.75000
C  45.64600 31.06800 26.24900
C  45.27800 31.49200 27.46400
C  45.93100 32.74000 27.73200
C  45.18100 29.94700 25.46200
C  44.45400 31.18300 28.63100
O  43.77300 30.19800 28.81400
C  44.71400 32.22300 29.70000
C  45.09700 31.66100 30.95300
O  46.08900 31.04100 31.13600
O  44.13400 31.90800 31.92000
C  44.40000 31.32400 33.25800
H  48.14800 38.40900 29.48000
H  50.43100 36.65700 23.58200
H  46.99500 31.37400 23.82500
H  45.52700 34.94100 31.56900
H  47.68200 36.79000 31.32600
H  44.73100 36.97000 31.16200
H  45.45300 38.09100 29.97800
H  45.87700 38.13500 31.76900
H  48.52600 34.57400 31.50000
H  47.45100 33.24700 31.67500
H  48.20300 34.91700 33.83500
H  47.32300 33.41800 33.75100
H  48.91200 40.96500 27.16600
H  50.44600 40.51500 27.94200
H  48.75900 40.15200 28.66400
H  50.00800 41.43600 25.18400
H  51.64500 41.10100 24.34700
H  51.36100 40.73500 26.00700
H  50.68800 34.13700 22.91900
H  48.00400 33.10700 21.91900
H  49.01300 34.57800 20.64500
H  50.54300 35.38400 21.03600
H  49.06000 36.02900 21.65700
H  49.07200 31.03500 23.23500
H  50.69700 31.65000 22.92900
H  49.26300 31.68300 20.38300
H  49.06200 30.10900 21.19400
H  50.65500 30.88600 20.79000
H  45.90000 29.12700 25.48600
H  44.99200 30.33000 24.45900
H  44.20800 29.62000 25.83000
H  43.67400 32.54500 29.65700
H  43.64500 30.56600 33.46800
H  44.15600 32.00200 34.07500
H  45.45900 31.13700 33.43300

