158

Mg 42.18700 41.09800 27.05300
C  41.36300 43.35000 29.45300
C  43.00800 38.71300 29.12200
C  42.91500 38.99300 24.34600
C  41.29500 43.52300 24.58500
N  42.40000 41.15900 29.11900
C  41.93700 42.12900 29.95800
C  41.96200 41.70600 31.45300
C  42.58300 40.17800 31.31100
C  42.64500 39.96600 29.77200
C  43.86900 39.81500 32.00400
C  40.58600 41.88600 32.22000
C  40.58200 42.71800 33.56100
H  39.85400 42.12400 34.78400
N  42.97200 39.15500 26.79800
C  43.21700 38.31500 27.83300
C  43.65900 37.01700 27.32100
C  43.80900 37.11100 25.94800
C  43.25000 38.51100 25.63500
C  43.90100 35.85200 28.29000
C  44.34800 36.21000 24.89900
O  44.69200 36.56300 23.76300
C  44.67600 34.85000 25.24600
N  42.14400 41.26500 24.76600
C  42.29300 40.19200 23.97400
C  42.04900 40.54300 22.46500
C  41.51900 42.04100 22.54000
C  41.60700 42.30800 24.06200
C  43.34700 40.43400 21.46300
C  40.11200 42.24800 21.91700
C  40.11400 42.25400 20.41900
N  41.62200 43.07300 26.97400
C  41.22900 43.86000 25.88500
C  40.68900 45.11600 26.40600
C  40.71400 44.95600 27.78900
C  41.33000 43.73100 28.10200
C  40.10700 46.27200 25.60500
C  40.38700 45.59300 28.98400
O  39.88600 46.73000 29.23800
C  40.77900 44.55700 30.18400
C  41.71600 45.07200 31.16100
O  42.89200 45.18500 31.01800
O  41.08100 45.47700 32.27400
C  41.88300 46.22600 33.22600
H  43.08000 37.88300 29.82800
H  42.91700 38.23400 23.56100
H  40.79400 44.23500 23.92600
H  42.80400 42.19500 31.94300
H  41.89500 39.37700 31.58300
H  43.94900 40.44100 32.89300
H  44.73800 39.86000 31.34900
H  43.87600 38.76900 32.31000
H  40.23900 40.87900 32.45200
H  39.88500 42.36600 31.53600
H  39.97100 43.61900 33.50400
H  41.57600 43.04900 33.86200
H  43.41200 34.96800 27.88000
H  43.62600 36.02400 29.33100
H  44.97400 35.69100 28.39200
H  45.07900 34.81500 26.25800
H  45.39400 34.31800 24.62200
H  43.68100 34.40900 25.29500
H  41.33800 39.79000 22.12600
H  42.11500 42.72800 21.94000
H  44.29600 40.40400 21.99800
H  43.41000 41.31200 20.82000
H  43.23600 39.52200 20.87600
H  39.78200 43.19400 22.34800
H  39.40700 41.49100 22.26100
H  39.50200 43.08300 20.06600
H  39.62600 41.37300 20.00000
H  41.05700 42.38500 19.88900
H  39.22000 45.97900 25.04300
H  40.77400 46.55300 24.79000
H  40.03900 47.17200 26.21500
H  39.82000 44.24800 30.60100
H  41.19900 46.73700 33.90300
H  42.44000 46.98700 32.68000
H  42.44500 45.42700 33.70900
Mg -13.20500 16.42000 42.13100
C  -10.16800 14.68100 41.84300
C  -11.61700 19.18300 40.96200
C  -16.31500 17.81100 41.70800
C  -14.79100 13.27600 42.86400
N  -11.17400 16.79900 41.43800
C  -10.10200 15.97100 41.42300
C  -8.83500 16.65400 40.98800
C  -9.23400 18.17100 40.95700
C  -10.78000 18.01900 41.16000
C  -8.51300 19.04400 42.03700
C  -8.31800 16.08800 39.60900
C  -6.85900 15.68800 39.54700
H  -6.40600 14.53400 38.70300
N  -13.86500 18.29400 41.46400
C  -13.05800 19.29600 41.04400
C  -13.87900 20.40500 40.61000
C  -15.21800 20.03300 40.88700
C  -15.20400 18.62100 41.30800
C  -13.28100 21.65600 40.02300
C  -16.45100 21.05100 40.59500
O  -16.23800 22.15900 40.04000
C  -17.83700 20.56100 40.96100
N  -15.28000 15.61500 42.21800
C  -16.33400 16.44300 42.09800
C  -17.69300 15.68300 42.24200
C  -17.22400 14.23300 42.65500
C  -15.69500 14.34700 42.59600
C  -18.80200 16.24000 43.20000
C  -17.75500 13.02400 41.73900
C  -18.74900 12.04600 42.40900
N  -12.65900 14.39900 42.39300
C  -13.36400 13.27700 42.73500
C  -12.53100 12.11400 42.75600
C  -11.27200 12.62200 42.45400
C  -11.38700 14.00900 42.28700
C  -12.85700 10.69500 43.16600
C  -9.89900 12.25600 42.31100
O  -9.33800 11.20900 42.38600
C  -9.05000 13.62900 41.94200
C  -7.96600 13.87600 42.90200
O  -8.05100 14.25800 44.07700
O  -6.77800 13.66300 42.21900
C  -5.54600 13.72200 42.93600
H  -10.94600 20.02300 40.76900
H  -17.32400 18.04400 41.36200
H  -15.36700 12.39100 43.14000
H  -8.03000 16.63800 41.72200
H  -9.11300 18.58100 39.95400
H  -7.89200 19.86900 41.68600
H  -7.78500 18.45300 42.59300
H  -9.21800 19.39600 42.79000
H  -8.52000 16.74600 38.76400
H  -8.94700 15.20500 39.49600
H  -6.39800 15.66300 40.53500
H  -6.33700 16.48100 39.01200
H  -13.63300 22.37700 40.76000
H  -13.62200 21.92600 39.02300
H  -12.19300 21.71800 40.02600
H  -18.11200 19.78500 40.24600
H  -18.53500 21.39500 40.88800
H  -17.78800 20.26700 42.01000
H  -18.07200 15.79400 41.22600
H  -17.52400 13.96700 43.66800
H  -18.46000 16.96900 43.93500
H  -19.25400 15.35200 43.64200
H  -19.56700 16.68500 42.56300
H  -16.86600 12.50700 41.37700
H  -18.13100 13.56400 40.87000
H  -19.27200 12.46600 43.26700
H  -18.09000 11.26200 42.78300
H  -19.38400 11.68700 41.59900
H  -13.12200 10.04500 42.33200
H  -13.71300 10.80200 43.83200
H  -11.95600 10.23800 43.57600
H  -8.59900 13.41800 40.97200
H  -5.48700 12.81100 43.53300
H  -5.53600 14.65000 43.50800
H  -4.67300 13.62900 42.29100

