158

Mg 26.71200 50.02800 26.27000
C  24.90000 51.36300 28.77400
C  28.92600 48.87200 28.82600
C  28.70200 48.83800 23.93200
C  24.83300 51.59500 23.85500
N  26.96100 50.31900 28.52400
C  25.95600 50.71700 29.32000
C  26.15900 50.40900 30.82100
C  27.58000 49.80000 30.73400
C  27.87500 49.68300 29.26600
C  28.75900 50.39600 31.54400
C  25.12500 49.43800 31.49700
C  24.40900 49.88900 32.83200
H  24.65500 49.23500 34.19500
N  28.51400 48.90500 26.38900
C  29.24000 48.44700 27.50000
C  30.41200 47.76000 26.99400
C  30.37300 47.79000 25.57200
C  29.10400 48.50400 25.21000
C  31.37200 47.13600 28.01600
C  31.38300 47.14000 24.56500
O  31.43100 47.32200 23.37000
C  32.43200 46.27900 25.19000
N  26.80300 50.22900 24.16200
C  27.65800 49.58300 23.44000
C  27.24000 49.64000 21.85000
C  25.97700 50.46400 21.91600
C  25.81700 50.77600 23.39800
C  28.23900 50.37500 20.94500
C  24.62900 49.75400 21.36700
C  24.85100 48.94100 20.06600
N  25.21600 51.32900 26.26400
C  24.47400 51.88100 25.22300
C  23.33900 52.59300 25.82600
C  23.36600 52.28300 27.17900
C  24.55500 51.57000 27.39700
C  22.19100 53.37000 25.07900
C  22.81100 52.51200 28.41100
O  21.82600 53.18700 28.64900
C  23.70500 51.94000 29.53500
C  24.09700 52.92200 30.52900
O  24.81300 53.87200 30.41300
O  23.31800 52.69700 31.63800
C  23.28800 53.72000 32.69000
H  29.47900 48.41400 29.64900
H  29.32000 48.37200 23.16200
H  24.17800 52.17200 23.19900
H  26.21500 51.33500 31.39400
H  27.51400 48.74000 30.98000
H  29.53500 50.73300 30.85600
H  29.34400 49.62400 32.04300
H  28.44900 51.21500 32.19400
H  25.52800 48.45100 31.72600
H  24.36400 49.31500 30.72700
H  23.32100 49.88600 32.76500
H  24.58900 50.93500 33.07700
H  32.39800 47.40600 27.76600
H  31.28500 46.05800 28.14900
H  31.32000 47.62900 28.98700
H  31.92600 45.54100 25.81200
H  33.07800 46.93000 25.78000
H  32.97400 45.66500 24.47100
H  27.08300 48.61400 21.51700
H  26.04500 51.45500 21.46700
H  27.91000 51.26700 20.41300
H  28.66900 49.66200 20.24100
H  29.08700 50.58000 21.59800
H  23.97200 50.62400 21.34800
H  24.24500 49.09600 22.14700
H  24.10400 49.28200 19.35000
H  24.61300 47.88500 20.20000
H  25.85400 49.15000 19.69700
H  21.56000 53.93000 25.77000
H  21.75800 52.74400 24.29900
H  22.60500 54.08000 24.36200
H  22.98500 51.29300 30.03600
H  23.67700 54.68800 32.37200
H  23.75000 53.36200 33.61000
H  22.25100 53.80100 33.01800
Mg 6.33000 54.13900 41.31600
C  5.93800 50.55200 41.00300
C  9.39700 54.03100 39.97300
C  6.28400 57.47800 41.27400
C  2.94000 54.13100 42.44700
N  7.41200 52.44100 40.55100
C  7.14400 51.07600 40.48400
C  8.38700 50.30500 39.93100
C  9.54000 51.40000 39.90400
C  8.74500 52.72000 40.17400
C  10.71200 51.25200 40.92600
C  8.21600 49.58800 38.54400
C  7.50000 50.34100 37.37600
H  6.81800 49.53300 36.19100
N  7.71400 55.62600 40.72600
C  8.94500 55.38300 40.18500
C  9.59700 56.58600 39.98900
C  8.70200 57.60400 40.31700
C  7.48900 56.91100 40.80500
C  11.00700 56.60100 39.44200
C  8.93500 59.12500 40.17600
O  9.98700 59.60800 39.70500
C  7.86800 60.22300 40.37500
N  4.71500 55.59200 41.66300
C  5.04200 56.90400 41.69500
C  3.81200 57.78600 41.94100
C  2.67900 56.64800 42.12500
C  3.49000 55.39600 42.09900
C  3.97500 58.77500 43.16400
C  1.59500 56.79900 41.00300
C  0.38000 57.59500 41.43500
N  4.71300 52.66800 41.60000
C  3.50600 52.82300 42.19500
C  2.95300 51.50900 42.59900
C  3.85600 50.54900 42.01200
C  4.90200 51.37400 41.43300
C  1.68900 51.26800 43.40400
C  4.17100 49.14500 41.89800
O  3.52000 48.22600 42.42100
C  5.55400 49.09700 41.21100
C  5.43300 48.17100 40.00600
O  4.88800 48.47500 38.89900
O  5.90200 46.89800 40.26700
C  5.50400 45.97000 39.21100
H  10.42600 54.01700 39.60900
H  6.29200 58.55300 41.46500
H  1.89700 54.06500 42.76300
H  8.66000 49.56800 40.68700
H  9.98500 51.40900 38.90900
H  11.70500 51.26600 40.47600
H  10.60400 50.24500 41.32800
H  10.63000 52.11200 41.59100
H  7.88000 48.56900 38.73700
H  9.20400 49.40000 38.12500
H  8.19800 51.04600 36.92500
H  6.73500 50.94000 37.87000
H  11.67300 56.08800 40.13600
H  11.28500 57.65000 39.34000
H  11.12500 56.20500 38.43400
H  8.21400 61.17000 39.96300
H  7.54000 60.27700 41.41300
H  7.03300 59.98400 39.71500
H  3.52700 58.36300 41.06100
H  2.24200 56.88000 43.09600
H  3.73900 59.82900 43.01200
H  5.03900 58.81400 43.39700
H  3.50800 58.56900 44.12700
H  1.28400 55.80900 40.66800
H  2.01600 57.33800 40.15400
H  0.15300 58.31400 40.64800
H  0.58800 58.18800 42.32500
H  -0.50000 56.97400 41.60400
H  1.71900 51.87100 44.31100
H  1.77700 50.26500 43.82300
H  0.78000 51.41200 42.82100
H  6.34100 48.60600 41.78400
H  4.41900 45.98900 39.10900
H  5.68400 44.93400 39.49900
H  5.97500 46.08000 38.23400

