158

Mg 30.20300 58.91800 40.68200
C  27.42000 57.10700 39.67200
C  32.31700 56.73700 39.23000
C  32.69100 61.34100 41.01200
C  27.81800 61.56000 41.67800
N  29.88300 57.18600 39.54500
C  28.71000 56.53600 39.34500
C  28.95100 55.33500 38.42800
C  30.48200 54.98200 38.62100
C  30.95400 56.35700 39.16400
C  30.79500 53.76400 39.48500
C  28.48700 55.65900 36.99000
C  27.55700 54.61500 36.28900
H  27.71800 54.50800 34.75600
N  32.29500 58.98800 40.13500
C  32.94100 57.94900 39.59300
C  34.30100 58.34900 39.35400
C  34.49200 59.67100 39.91400
C  33.08700 60.09700 40.40200
C  35.29000 57.56800 38.57400
C  35.82800 60.44900 39.86100
O  36.84200 59.86200 39.48000
C  35.87100 61.94300 39.98900
N  30.24600 61.15600 41.13800
C  31.41700 61.84900 41.25000
C  31.22700 63.24000 41.83500
C  29.67800 63.36500 42.13900
C  29.19100 61.95000 41.64800
C  32.08500 63.42800 43.25500
C  28.92300 64.57400 41.52700
C  28.25600 65.53000 42.55700
N  28.08200 59.23100 40.85600
C  27.32300 60.33200 41.17900
C  25.91200 59.96300 41.09800
C  25.95800 58.65700 40.59100
C  27.26000 58.33700 40.38900
C  24.82200 60.64800 41.66900
C  25.07800 57.55700 40.19100
O  23.87600 57.31800 40.30300
C  26.04200 56.54600 39.47800
C  25.72300 55.22800 40.00800
O  26.39000 54.68400 40.91100
O  24.63400 54.67300 39.39400
C  24.13300 53.37100 39.75500
H  32.81700 55.94100 38.67400
H  33.51000 62.01300 41.28000
H  27.02300 62.25600 41.95300
H  28.33100 54.49100 38.73100
H  30.97800 54.88700 37.65500
H  31.61400 53.18300 39.06200
H  29.96100 53.07500 39.62500
H  31.20400 54.16000 40.41400
H  29.34100 55.76800 36.32200
H  28.03000 56.64300 37.08900
H  26.56200 54.99200 36.52500
H  27.54100 53.61100 36.71300
H  36.18100 57.38900 39.17600
H  35.52800 58.01100 37.60600
H  34.75000 56.63500 38.41200
H  35.10700 62.40900 39.36700
H  36.85200 62.29800 39.67200
H  35.77500 62.27500 41.02300
H  31.45200 63.98300 41.07000
H  29.51700 63.34100 43.21600
H  32.05900 62.51800 43.85500
H  31.73300 64.30100 43.80400
H  33.11300 63.60500 42.93900
H  28.11900 64.19400 40.89600
H  29.55300 65.23100 40.92800
H  28.30800 66.55500 42.18900
H  28.81100 65.54700 43.49600
H  27.22700 65.24900 42.77800
H  25.19300 61.27000 42.48300
H  23.99000 60.03200 42.01100
H  24.45200 61.25900 40.84600
H  25.73900 56.51700 38.43100
H  24.76000 52.96200 40.54700
H  23.92300 52.70400 38.91800
H  23.14400 53.54800 40.17900
Mg 9.53000 48.55100 26.43400
C  7.36100 48.46200 29.22900
C  12.07300 49.37500 28.65400
C  11.44100 48.84000 23.74000
C  6.68900 48.32800 24.34300
N  9.62300 48.76100 28.70900
C  8.65000 48.70100 29.63300
C  9.11400 48.99000 31.04200
C  10.56200 49.51000 30.89800
C  10.80000 49.24900 29.27900
C  10.80800 50.96800 31.35400
C  8.94200 47.72800 32.03200
C  9.92500 47.32400 33.08200
H  9.25800 46.66800 34.36600
N  11.46900 49.02300 26.21900
C  12.38300 49.27600 27.29000
C  13.71800 49.45800 26.72300
C  13.60100 49.30700 25.35600
C  12.14600 49.02800 25.00500
C  14.98500 49.73200 27.47900
C  14.74500 49.43700 24.38700
O  14.47700 49.64200 23.23400
C  16.14700 49.22700 24.75200
N  9.13200 48.57700 24.27500
C  10.12200 48.62800 23.39800
C  9.65800 48.22300 22.06500
C  8.07000 48.12400 22.24400
C  7.93300 48.36900 23.70400
C  10.09500 49.09600 20.89700
C  7.58000 46.67200 21.86900
C  6.21800 46.54500 21.19400
N  7.43700 48.32800 26.69100
C  6.40000 48.30200 25.74500
C  5.12500 48.17400 26.36800
C  5.49700 48.25900 27.71300
C  6.90600 48.23900 27.88100
C  3.79300 47.98500 25.66000
C  4.85700 48.31200 29.04300
O  3.69500 48.41400 29.45100
C  6.10300 48.38800 30.03700
C  5.97400 47.11800 30.84500
O  6.64100 46.13200 30.72500
O  4.98600 47.27200 31.75200
C  4.91600 46.21800 32.75500
H  12.93200 49.55500 29.30300
H  12.24400 48.85200 23.00100
H  5.78300 48.27500 23.73600
H  8.46500 49.74900 31.47800
H  11.31900 48.86500 31.34300
H  11.50700 50.85100 32.18200
H  9.85400 51.31000 31.75500
H  11.21000 51.62100 30.57900
H  9.01000 46.89000 31.33800
H  7.96700 47.75600 32.51800
H  10.37700 48.25000 33.43700
H  10.75400 46.67500 32.80100
H  15.56900 48.82500 27.64000
H  14.84200 50.11000 28.49100
H  15.60300 50.46800 26.96500
H  16.81300 48.97400 23.92800
H  16.10100 48.39400 25.45400
H  16.51700 50.14800 25.20200
H  10.07700 47.24700 21.82200
H  7.48300 48.87700 21.71700
H  9.48300 49.96400 20.65200
H  10.00400 48.52900 19.97100
H  11.10300 49.48900 21.03200
H  7.48900 46.05100 22.75900
H  8.40000 46.30900 21.24900
H  5.54600 46.02600 21.87700
H  6.39300 45.93400 20.30800
H  5.75800 47.51800 21.02100
H  3.77700 47.12600 24.98900
H  3.47000 48.84900 25.07900
H  3.00100 47.88700 26.40200
H  5.98300 49.17400 30.78300
H  5.81200 46.26400 33.37300
H  4.75800 45.19200 32.42100
H  4.05100 46.38600 33.39600

