158

Mg 46.51700 25.70300 28.26800
C  47.77200 27.93100 30.73100
C  45.91900 23.47600 30.71900
C  46.04500 23.47400 25.78400
C  47.85500 27.93700 25.77300
N  46.71500 25.76300 30.48200
C  47.12400 26.81100 31.28000
C  46.84000 26.55800 32.73400
C  46.45700 25.05200 32.74900
C  46.39400 24.66600 31.19600
C  47.46800 24.09300 33.58800
C  45.62400 27.46100 33.26100
C  45.12500 27.03300 34.65200
H  44.76700 28.15000 35.66300
N  45.81100 23.76800 28.29800
C  45.74100 22.97500 29.40200
C  45.46200 21.63000 28.96300
C  45.42400 21.59100 27.53100
C  45.72900 22.97500 27.13400
C  45.45200 20.48400 29.94000
C  45.18700 20.43600 26.51000
O  45.24200 20.55700 25.29100
C  44.91500 19.20200 27.09700
N  46.77600 25.79000 26.08800
C  46.46700 24.71500 25.35500
C  46.62400 25.08200 23.83900
C  47.08000 26.50200 23.79600
C  47.27800 26.74600 25.32700
C  47.71200 24.14200 23.27900
C  45.97500 27.41200 23.15600
C  46.05700 27.50800 21.61800
N  47.64000 27.51700 28.18800
C  48.13000 28.27200 27.12100
C  48.86800 29.41300 27.65200
C  48.72900 29.38500 29.06300
C  47.96600 28.20100 29.33300
C  49.54400 30.51200 26.81500
C  48.97900 30.04700 30.37500
O  49.59300 31.07700 30.60900
C  48.32500 29.21600 31.46700
C  49.34900 28.87500 32.52000
O  50.42500 28.35400 32.26900
O  48.90600 29.18800 33.76100
C  49.90000 29.07900 34.88400
H  45.56600 22.86000 31.54900
H  45.85600 22.71800 25.02000
H  48.17600 28.64800 25.00800
H  47.75700 26.87000 33.23300
H  45.44900 24.87100 33.12300
H  46.97100 23.61600 34.43300
H  48.27600 24.64000 34.07400
H  47.91800 23.33300 32.94900
H  44.82200 27.44200 32.52400
H  46.04900 28.46400 33.22300
H  45.92800 26.40900 35.04500
H  44.21400 26.46100 34.47800
H  45.90500 19.53900 29.64200
H  44.43500 20.19100 30.19800
H  45.88100 20.76400 30.90200
H  44.17800 19.25400 27.89800
H  45.86100 18.83200 27.49300
H  44.52200 18.47800 26.38300
H  45.68200 24.86500 23.33600
H  48.04900 26.66400 23.32400
H  48.52400 24.08500 24.00300
H  48.05100 24.53800 22.32200
H  47.33500 23.12200 23.19900
H  46.12200 28.41100 23.56500
H  44.94600 27.09000 23.31500
H  46.38600 28.49300 21.28700
H  45.04400 27.44900 21.21900
H  46.71400 26.74400 21.20300
H  49.81900 31.37000 27.42900
H  49.02100 30.84200 25.91800
H  50.45300 29.96500 26.56300
H  47.57500 29.81100 31.98700
H  49.63200 28.32400 35.62200
H  49.86300 30.02100 35.43100
H  50.91900 28.92600 34.52900
Mg 6.75900 54.72900 41.03800
C  5.57400 51.33500 40.57600
C  9.52800 53.75800 39.29600
C  7.70300 58.00800 41.07900
C  3.68100 55.54500 42.32200
N  7.30100 52.78700 39.76900
C  6.78300 51.56600 39.89700
C  7.61600 50.53900 39.12800
C  9.02300 51.24400 39.20700
C  8.61400 52.68100 39.49000
C  9.95400 50.76700 40.31700
C  6.98000 50.46400 37.66400
C  7.17200 49.17000 36.91200
H  6.48400 49.05700 35.53900
N  8.42800 55.70300 40.38200
C  9.50400 55.10900 39.68100
C  10.42200 56.14700 39.34500
C  10.00100 57.29800 39.93700
C  8.66900 57.04500 40.53200
C  11.73300 55.79800 38.52900
C  10.78500 58.62900 39.81700
O  11.65600 58.75800 38.94200
C  10.37700 59.85000 40.64600
N  5.86800 56.48100 41.66000
C  6.44900 57.66100 41.59700
C  5.48200 58.74700 42.17800
C  4.19500 57.96900 42.73400
C  4.55400 56.59900 42.09600
C  5.97100 59.83600 43.16300
C  2.85900 58.52000 42.26500
C  1.76500 58.69600 43.34200
N  4.98000 53.73300 41.37100
C  3.81500 54.22100 41.87900
C  2.95400 53.15000 42.19300
C  3.57600 51.99200 41.70700
C  4.82200 52.39700 41.17100
C  1.63500 53.23800 42.83900
C  3.39700 50.54100 41.44800
O  2.48800 49.80800 41.70400
C  4.74100 50.07400 40.89900
C  4.51800 49.06900 39.85600
O  3.67100 49.16700 38.91300
O  5.38300 47.98900 39.97500
C  4.96800 46.75800 39.23200
H  10.46000 53.38100 38.87000
H  7.82700 59.08500 40.94900
H  2.65800 55.66000 42.68600
H  7.58400 49.59600 39.67300
H  9.45900 51.17600 38.21100
H  9.35800 50.26200 41.07600
H  10.44500 51.66900 40.68200
H  10.74700 50.09800 39.98300
H  7.47400 51.25900 37.10600
H  5.90900 50.66400 37.62500
H  6.79400 48.33200 37.49700
H  8.24700 49.12000 36.74000
H  11.97300 54.75200 38.34000
H  12.59700 56.12900 39.10400
H  11.86600 56.18500 37.51900
H  11.19600 60.56600 40.58000
H  10.17400 59.62900 41.69400
H  9.59200 60.41000 40.13800
H  5.11500 59.28900 41.30700
H  4.22600 57.89900 43.82200
H  5.76600 60.81700 42.73200
H  7.05400 59.86300 43.28400
H  5.57300 59.74000 44.17300
H  2.43100 57.88500 41.48900
H  3.04600 59.50100 41.82900
H  1.62000 59.72900 43.65500
H  2.03400 58.13000 44.23400
H  0.74900 58.39300 43.08800
H  1.74200 53.41600 43.90900
H  1.10900 52.28900 42.73900
H  1.07500 54.10000 42.47500
H  5.20200 49.47200 41.68400
H  3.88800 46.66200 39.34100
H  5.47100 45.96800 39.79000
H  5.24800 46.76800 38.17900

