158

Mg 1.38000 -1.46600 42.76700
C  4.70300 -0.38000 41.73600
C  0.30400 1.55600 41.40000
C  -1.66800 -2.82500 42.36200
C  2.74400 -4.68300 43.26400
N  2.47100 0.41000 41.71900
C  3.78900 0.60800 41.42000
C  4.01600 2.01700 40.91000
C  2.59000 2.64100 40.86300
C  1.73200 1.48400 41.41400
C  2.54700 3.95600 41.73000
C  4.68400 2.08000 39.54400
C  3.94700 1.23000 38.46800
H  4.84900 0.42400 37.57800
N  -0.46700 -0.66200 42.30600
C  -0.63900 0.65600 41.86700
C  -2.07400 0.77700 41.66300
C  -2.70700 -0.48100 41.93200
C  -1.64700 -1.39600 42.23400
C  -2.62900 2.05100 41.20200
C  -4.21100 -0.79900 41.87900
O  -4.98000 -0.01900 41.34300
C  -4.76400 -2.05600 42.47700
N  0.68800 -3.53500 42.55400
C  -0.60700 -3.81000 42.50900
C  -0.82700 -5.36100 42.63400
C  0.51200 -5.82100 43.19300
C  1.38500 -4.58600 43.05000
C  -2.04600 -5.67900 43.53900
C  1.16700 -7.20100 42.61300
C  1.10200 -8.38900 43.67100
N  3.31500 -2.40100 42.66100
C  3.70000 -3.66300 42.92800
C  5.11900 -3.70700 42.95500
C  5.56100 -2.47000 42.50100
C  4.39900 -1.67200 42.29300
C  5.78600 -5.03800 43.38200
C  6.75000 -1.71700 42.21400
O  7.93800 -1.86300 42.47400
C  6.20200 -0.39100 41.56300
C  6.89300 0.78300 42.19900
O  7.60600 1.54300 41.55200
O  6.61900 0.87900 43.54200
C  7.39300 1.94100 44.21100
H  -0.10500 2.40000 40.84100
H  -2.57500 -3.39400 42.14700
H  3.19300 -5.61500 43.61600
H  4.73000 2.59700 41.49400
H  2.33800 2.87100 39.82800
H  3.38200 4.17200 42.39700
H  1.58100 3.83800 42.22100
H  2.51700 4.73900 40.97200
H  5.73000 1.78800 39.63300
H  4.61800 3.07100 39.09400
H  3.31900 1.91600 37.90100
H  3.11700 0.68400 38.91700
H  -2.25300 2.34700 40.22300
H  -2.40900 2.81000 41.95300
H  -3.71300 2.10600 41.09400
H  -5.82900 -1.84700 42.57400
H  -4.41100 -2.12700 43.50600
H  -4.51600 -2.88800 41.81700
H  -0.88000 -5.65000 41.58400
H  0.41800 -5.84000 44.27800
H  -2.31100 -4.91100 44.26500
H  -1.89600 -6.63200 44.04600
H  -2.87100 -5.85100 42.84800
H  2.24600 -7.12400 42.47800
H  0.72300 -7.58500 41.69400
H  0.24700 -9.05100 43.53200
H  1.03000 -7.90100 44.64300
H  2.02100 -8.97500 43.64800
H  6.10300 -5.68900 42.56600
H  5.17800 -5.61200 44.08100
H  6.67100 -4.67300 43.90200
H  6.42600 -0.61700 40.52000
H  6.69600 2.58300 44.74900
H  7.89400 2.66200 43.56300
H  7.99900 1.62600 45.06000
Mg 6.50200 54.96400 40.84100
C  5.29700 51.86100 40.31500
C  9.40700 54.14200 39.06500
C  7.44600 58.17400 40.98800
C  3.42400 55.77300 42.43100
N  7.08800 53.30500 39.49900
C  6.40200 52.11800 39.57900
C  7.21700 51.05100 38.70100
C  8.68300 51.66200 38.83100
C  8.41600 53.15900 39.04900
C  9.79300 50.97600 39.75400
C  6.59700 50.99100 37.19700
C  6.67600 49.54000 36.52900
H  5.53400 48.96000 35.73900
N  8.21500 56.05100 40.11900
C  9.27000 55.46900 39.43200
C  10.18600 56.53400 39.15800
C  9.67300 57.72400 39.80500
C  8.37200 57.40600 40.35200
C  11.48500 56.34500 38.45400
C  10.43700 59.00600 39.95300
O  11.45500 59.29800 39.31000
C  9.97500 60.02100 40.96300
N  5.43300 56.73100 41.45300
C  6.11900 57.92100 41.45100
C  5.13700 59.07700 41.96700
C  3.88800 58.26500 42.48400
C  4.21600 56.84500 42.18400
C  5.61100 60.14900 43.04900
C  2.56900 58.73400 41.83800
C  1.57100 59.42300 42.74800
N  4.63800 54.03200 41.29900
C  3.57300 54.40200 42.06400
C  2.60600 53.29300 42.17000
C  3.32200 52.22000 41.51900
C  4.50200 52.80100 41.01300
C  1.28900 53.24300 42.99000
C  3.19900 50.88200 41.23600
O  2.35000 50.09400 41.49900
C  4.53100 50.53900 40.46700
C  4.05600 49.88400 39.18000
O  3.16100 50.30400 38.40800
O  4.65400 48.66500 39.08200
C  4.01200 47.84500 38.17500
H  10.39300 53.75400 38.80000
H  7.62200 59.25100 40.96700
H  2.48200 56.03700 42.91700
H  7.31800 50.07700 39.18100
H  9.08100 51.64700 37.81600
H  9.87600 51.62700 40.62400
H  10.72700 50.88600 39.19900
H  9.37600 50.03900 40.12100
H  7.17600 51.64700 36.54800
H  5.53700 51.23900 37.24800
H  6.76400 48.83500 37.35500
H  7.50400 49.45600 35.82500
H  11.41200 55.42300 37.87600
H  12.12900 56.33000 39.33300
H  11.86900 57.24900 37.98100
H  10.79100 60.69600 41.22100
H  9.63000 59.43400 41.81300
H  9.14200 60.68900 40.74000
H  4.90000 59.75800 41.15000
H  3.77500 58.35800 43.56400
H  5.67600 61.16800 42.66700
H  6.65800 59.88100 43.19700
H  5.01700 60.14800 43.96300
H  2.02000 57.89400 41.41300
H  2.78400 59.41800 41.01600
H  0.65500 58.84100 42.84100
H  1.44100 60.41800 42.32200
H  1.95800 59.43800 43.76700
H  0.76500 54.19200 42.88300
H  1.46200 52.86000 43.99600
H  0.65000 52.51900 42.48400
H  5.17700 49.93000 41.09800
H  3.37800 47.20200 38.78500
H  4.71900 47.08100 37.85000
H  3.41000 48.24000 37.35700

