158

Mg 1.85700 -2.75500 44.64600
C  5.05100 -1.52000 43.80300
C  0.44500 -0.71700 42.27700
C  -1.07300 -4.41100 45.09600
C  3.46100 -5.42500 46.44000
N  2.71900 -1.37800 43.14400
C  4.00600 -0.88000 43.08300
C  4.07100 0.35600 42.13100
C  2.55500 0.49100 41.63100
C  1.78500 -0.59200 42.49500
C  1.98400 1.89900 41.80100
C  5.09300 0.28500 40.96200
C  5.90300 1.56600 40.69700
H  5.44300 2.27500 39.47000
N  -0.13400 -2.43200 43.87800
C  -0.47900 -1.52900 42.94200
C  -1.93800 -1.54800 42.77700
C  -2.40900 -2.59900 43.67000
C  -1.18500 -3.25100 44.25400
C  -2.73100 -0.61400 41.86200
C  -3.86800 -2.93000 44.02600
O  -4.74000 -2.34400 43.41700
C  -4.18500 -3.95100 45.01400
N  1.29600 -4.60600 45.69300
C  0.01900 -4.94800 45.75400
C  -0.22400 -6.22200 46.59700
C  1.27900 -6.50300 47.09000
C  2.08900 -5.45200 46.36800
C  -1.41500 -6.28600 47.69100
C  1.78500 -7.96700 47.16200
C  2.14400 -8.48000 48.61400
N  3.83000 -3.36700 45.09300
C  4.33000 -4.42600 45.89100
C  5.69600 -4.21900 46.00300
C  6.01000 -3.05600 45.28200
C  4.85900 -2.62800 44.64400
C  6.65200 -5.05700 46.77900
C  7.15000 -2.25500 44.85600
O  8.35900 -2.33300 45.08500
C  6.48900 -1.08200 44.03400
C  6.61100 0.15500 44.81300
O  5.93700 0.52900 45.75500
O  7.79000 0.79800 44.53300
C  7.93800 2.11200 45.25000
H  0.04500 0.02100 41.57800
H  -2.00600 -4.88700 45.40400
H  3.90000 -6.16600 47.11100
H  4.25500 1.16700 42.83500
H  2.48100 0.21700 40.57800
H  1.04400 1.98400 42.34500
H  1.83200 2.37400 40.83200
H  2.66900 2.56800 42.32200
H  4.64100 -0.07100 40.03600
H  5.84300 -0.44300 41.27300
H  6.95300 1.30400 40.56900
H  5.87500 2.25800 41.53900
H  -2.06200 -0.15300 41.13500
H  -3.24700 0.07600 42.52900
H  -3.60600 -1.09000 41.41900
H  -3.85500 -4.90400 44.59800
H  -5.24200 -3.97600 45.27700
H  -3.67400 -3.62800 45.92000
H  -0.49600 -6.96100 45.84300
H  1.20500 -6.19700 48.13400
H  -2.12600 -7.05200 47.38300
H  -1.77600 -5.27100 47.52300
H  -1.15600 -6.34800 48.74800
H  2.66700 -8.05000 46.52600
H  0.97900 -8.62800 46.84400
H  3.09600 -8.99900 48.50200
H  1.44400 -9.21100 49.01900
H  2.39500 -7.60500 49.21400
H  6.46100 -5.10300 47.85200
H  7.64700 -4.61900 46.70200
H  6.76600 -6.08700 46.44100
H  7.00600 -1.02600 43.07600
H  9.02600 2.13200 45.30900
H  7.52300 2.14900 46.25700
H  7.66800 3.01800 44.70800
Mg -10.95300 15.61700 41.63400
C  -7.85700 14.07900 41.21800
C  -9.52100 18.51700 40.28700
C  -13.92800 16.82800 41.04700
C  -12.24900 12.48800 42.44400
N  -8.85000 16.27300 41.06100
C  -7.88500 15.39300 40.86000
C  -6.68000 16.14400 40.14600
C  -7.13500 17.63100 40.13000
C  -8.58000 17.49300 40.56200
C  -6.34100 18.71500 40.94100
C  -6.34400 15.58500 38.69000
C  -4.85700 15.42600 38.36600
H  -4.38000 16.26400 37.12200
N  -11.63900 17.43800 40.82700
C  -10.91200 18.44600 40.34000
C  -11.78100 19.57400 40.02200
C  -13.14100 19.13000 40.14100
C  -12.96500 17.74800 40.66800
C  -11.28600 21.00000 39.73000
C  -14.37200 19.95800 39.99000
O  -14.36900 21.14000 39.73000
C  -15.73200 19.31200 40.17100
N  -12.82800 14.73200 41.70000
C  -13.93700 15.45000 41.44300
C  -15.24300 14.68100 41.69100
C  -14.74900 13.37000 42.32400
C  -13.21400 13.43700 42.07700
C  -16.20000 15.51600 42.62000
C  -15.40300 12.03600 41.86600
C  -16.00400 11.06700 42.94300
N  -10.23100 13.75100 42.07400
C  -10.85900 12.62700 42.46900
C  -9.86500 11.62500 42.59200
C  -8.62700 12.14600 42.10800
C  -8.97200 13.40200 41.69900
C  -10.15900 10.22600 42.98200
C  -7.25100 11.77400 41.68100
O  -6.73000 10.65300 41.61400
C  -6.66900 13.06500 41.09200
C  -5.57700 13.42800 41.98700
O  -5.63200 13.65000 43.16600
O  -4.38000 13.25500 41.36300
C  -3.13800 13.57800 42.13300
H  -8.99500 19.32300 39.77100
H  -14.91900 17.27600 40.94800
H  -12.71200 11.50300 42.53600
H  -5.74300 15.93500 40.66400
H  -7.18400 17.96100 39.09200
H  -5.25900 18.59900 41.00000
H  -6.83400 18.81400 41.90800
H  -6.42600 19.70900 40.49900
H  -6.79700 16.21400 37.92400
H  -6.79400 14.60000 38.56100
H  -4.66800 14.41100 38.01600
H  -4.27200 15.70300 39.24300
H  -11.07000 21.26900 38.69600
H  -10.26400 21.01600 40.10800
H  -11.89000 21.81100 40.13700
H  -15.80600 18.46000 39.49500
H  -16.59600 19.89700 39.85600
H  -15.90500 19.05900 41.21700
H  -15.68700 14.51200 40.71000
H  -14.84400 13.40800 43.40900
H  -15.67600 16.40900 42.96300
H  -16.36400 14.89200 43.49800
H  -17.15400 15.71900 42.13300
H  -14.73000 11.49400 41.20100
H  -16.24100 12.38600 41.26300
H  -15.92400 11.54000 43.92100
H  -15.43400 10.14100 42.86800
H  -17.06500 10.87000 42.78900
H  -11.07400 9.85000 42.52500
H  -10.33300 10.28000 44.05700
H  -9.28900 9.69700 42.59200
H  -6.22300 12.76800 40.14300
H  -2.44300 13.61700 41.29400
H  -2.91200 12.82400 42.88800
H  -3.36900 14.49000 42.68200

