158

Mg 26.01700 0.82000 29.19100
C  27.92200 0.58100 32.14000
C  23.25700 0.93200 31.16200
C  24.18700 1.16100 26.32500
C  28.81500 0.13900 27.26200
N  25.72700 0.93800 31.44700
C  26.63300 0.83100 32.49800
C  26.07800 1.15600 33.83600
C  24.52100 1.07600 33.51400
C  24.46000 0.92800 31.95600
C  23.75400 -0.08600 34.16200
C  26.59500 2.50200 34.41400
C  27.13800 2.55500 35.90000
H  26.42200 3.40000 36.88800
N  24.03400 0.98400 28.77100
C  23.03200 0.94600 29.74000
C  21.70700 0.99500 29.12600
C  22.04100 1.23800 27.70100
C  23.51400 1.19000 27.55800
C  20.42000 0.93600 29.92800
C  21.05800 1.25800 26.61000
O  21.38000 1.48600 25.39700
C  19.63400 1.01100 26.90200
N  26.46200 0.52000 27.09600
C  25.55100 0.88900 26.12000
C  26.09300 0.81300 24.72300
C  27.60700 0.41600 25.04500
C  27.64800 0.36300 26.52700
C  25.43500 -0.17200 23.73500
C  28.60100 1.41400 24.29300
C  29.53500 0.76300 23.28600
N  28.00900 0.45100 29.58400
C  29.03900 0.21900 28.68100
C  30.24600 0.09700 29.43200
C  29.85400 0.30300 30.80300
C  28.47500 0.45900 30.82800
C  31.60300 -0.15800 29.00900
C  30.34000 0.33600 32.15300
O  31.46700 0.19600 32.57800
C  29.12600 0.64200 33.03100
C  29.12000 -0.16200 34.24700
O  28.48200 -1.21200 34.38200
O  29.94100 0.45700 35.16700
C  29.96500 -0.21800 36.46600
H  22.33900 0.84500 31.74700
H  23.56300 1.44400 25.47400
H  29.76700 -0.10000 26.78300
H  26.26900 0.30900 34.49500
H  24.05400 2.01900 33.79800
H  23.53900 0.41800 35.10400
H  24.47100 -0.89300 34.31500
H  22.91100 -0.48900 33.60100
H  25.75000 3.18900 34.37500
H  27.42600 2.86300 33.80800
H  28.20000 2.79000 35.97200
H  27.00800 1.50700 36.17200
H  19.65900 1.51200 29.40000
H  20.54800 1.29200 30.95000
H  20.07900 -0.09900 29.92100
H  19.54500 0.11200 27.51200
H  19.13800 0.97300 25.93200
H  19.28100 1.85000 27.50200
H  26.02400 1.80900 24.28500
H  27.93700 -0.55100 24.66600
H  25.08000 0.50300 22.95600
H  24.57900 -0.67800 24.18200
H  26.14400 -0.90400 23.34800
H  29.22300 1.99200 24.97600
H  28.05500 2.23200 23.82400
H  30.59900 0.73100 23.52300
H  29.44000 1.26200 22.32200
H  29.12500 -0.23500 23.13200
H  31.97100 0.84100 28.77400
H  31.55700 -0.80900 28.13700
H  32.00800 -0.49100 29.96400
H  29.27000 1.69000 33.29400
H  29.77300 -1.28800 36.54200
H  29.15100 0.11800 37.10700
H  30.93400 -0.04800 36.93500
Mg -4.39600 25.12200 26.29700
C  -3.23800 26.90500 29.10800
C  -6.25900 23.25400 28.37400
C  -5.47600 23.38600 23.54700
C  -2.76100 27.27600 24.25600
N  -4.74600 25.15700 28.51200
C  -4.13600 25.88000 29.50900
C  -4.77400 25.61800 30.84200
C  -5.49400 24.23600 30.53600
C  -5.60600 24.26800 29.05900
C  -4.65000 23.09200 31.02700
C  -5.68900 26.82600 31.20600
C  -5.76300 27.00500 32.73400
H  -5.39900 25.86700 33.62900
N  -5.63100 23.42900 26.00200
C  -6.34600 22.91300 26.96900
C  -7.28700 21.91000 26.42000
C  -7.04600 21.90900 24.95600
C  -5.95200 22.91600 24.76600
C  -8.27500 21.21200 27.30900
C  -7.67100 21.00000 23.95800
O  -7.30500 20.85900 22.79400
C  -8.90300 20.23200 24.36800
N  -4.14500 25.25800 24.17000
C  -4.63400 24.43000 23.23100
C  -4.26000 24.79200 21.77700
C  -3.57700 26.18000 22.09500
C  -3.49100 26.27500 23.61400
C  -3.31400 23.72400 21.03300
C  -4.28100 27.42400 21.55100
C  -3.68600 28.13400 20.32700
N  -3.10200 26.62700 26.60300
C  -2.48700 27.39600 25.63800
C  -1.63500 28.39200 26.30000
C  -1.95500 28.27100 27.63800
C  -2.79500 27.17700 27.75000
C  -0.78200 29.40900 25.58800
C  -1.76600 28.84800 28.98100
O  -1.10900 29.89100 29.33100
C  -2.40800 27.79100 29.96000
C  -1.27600 27.11800 30.78600
O  -0.51000 26.20000 30.33500
O  -1.43700 27.44300 32.07200
C  -0.79000 26.59900 33.02300
H  -6.83900 22.66200 29.08600
H  -5.87200 22.85200 22.68100
H  -2.19900 27.93700 23.59300
H  -3.93000 25.47300 31.51600
H  -6.51700 24.13900 30.89900
H  -5.21700 22.42300 31.67400
H  -3.67200 23.33500 31.44300
H  -4.41300 22.39300 30.22500
H  -6.72600 26.66000 30.91300
H  -5.33800 27.72700 30.70300
H  -6.77600 27.29300 33.01300
H  -5.14500 27.87900 32.94100
H  -7.95600 21.00500 28.33100
H  -8.34000 20.17400 26.98200
H  -9.12200 21.89400 27.22600
H  -9.59300 20.69400 25.07300
H  -8.51800 19.26700 24.69900
H  -9.52200 19.91100 23.53000
H  -5.17800 24.88000 21.19600
H  -2.59900 26.13700 21.61600
H  -3.28600 22.83400 21.66200
H  -2.29100 24.09600 20.97400
H  -3.87300 23.57100 20.11000
H  -4.39400 28.23500 22.27100
H  -5.25600 27.23000 21.10500
H  -4.38000 28.55100 19.59700
H  -3.02700 27.39500 19.87100
H  -3.01400 28.93700 20.63000
H  0.20200 29.01200 25.83600
H  -0.85900 30.38700 26.06300
H  -1.07300 29.36400 24.53900
H  -2.97600 28.24300 30.77400
H  0.12300 27.07800 33.37800
H  -0.51500 25.61700 32.63700
H  -1.40500 26.46400 33.91200

