158

Mg 25.24800 0.69300 30.05000
C  27.27000 0.82100 32.97000
C  22.47300 1.19100 31.99300
C  23.41500 0.78100 27.24400
C  28.11600 0.56200 28.12900
N  24.92900 0.69200 32.22800
C  25.85300 0.86100 33.19600
C  25.21100 1.09100 34.53600
C  23.70700 0.91700 34.19600
C  23.66800 0.85500 32.70000
C  22.97100 -0.22600 34.99900
C  25.49800 2.53900 35.08300
C  26.12300 2.63700 36.51500
H  25.43600 3.58200 37.61200
N  23.22100 0.84500 29.69900
C  22.24900 1.06800 30.60900
C  20.97900 1.15100 29.92000
C  21.23900 0.76800 28.53000
C  22.68300 0.80200 28.44500
C  19.67100 1.45800 30.64300
C  20.36000 0.50800 27.31500
O  20.73300 0.08200 26.23900
C  18.93900 0.67000 27.54100
N  25.65300 0.41900 28.04200
C  24.73500 0.52300 27.00100
C  25.34400 0.69800 25.64900
C  26.84100 0.56500 25.95100
C  26.86400 0.63100 27.48400
C  24.84200 -0.23900 24.49500
C  27.67800 1.71100 25.21800
C  28.04000 2.95800 25.90800
N  27.28100 0.45400 30.40400
C  28.31400 0.51300 29.56000
C  29.55600 0.51000 30.26600
C  29.25700 0.54900 31.60400
C  27.82600 0.60300 31.63200
C  30.97900 0.60100 29.73400
C  29.68800 0.79600 32.99100
O  30.80900 1.04300 33.38800
C  28.44000 0.96300 33.86900
C  28.44300 -0.09400 34.98100
O  28.40100 -1.31100 34.86500
O  28.68600 0.55500 36.14500
C  28.75500 -0.39200 37.28700
H  21.61000 1.47500 32.59800
H  22.90800 1.04700 26.31400
H  28.93900 0.68700 27.42200
H  25.59700 0.39700 35.28300
H  23.06100 1.76900 34.40700
H  22.30600 0.20600 35.74600
H  23.70400 -0.77900 35.58700
H  22.42400 -0.94000 34.38300
H  24.65400 3.22100 34.98400
H  26.13400 3.08300 34.38600
H  27.15500 2.94800 36.35100
H  26.13600 1.62500 36.91700
H  19.02800 2.09500 30.03600
H  19.76700 1.81900 31.66700
H  19.24600 0.45500 30.67800
H  18.33900 0.42600 26.66400
H  18.62400 1.68200 27.79600
H  18.56800 0.02400 28.33600
H  25.02500 1.71000 25.40200
H  27.17600 -0.45000 25.74000
H  24.13200 -0.95700 24.90500
H  25.61600 -0.82300 23.99500
H  24.41800 0.42500 23.74200
H  26.94900 2.04700 24.48000
H  28.58500 1.23000 24.85100
H  27.81300 3.81000 25.26800
H  29.11300 3.01100 26.09200
H  27.56300 3.12600 26.87400
H  31.06000 1.63100 29.38800
H  30.97500 -0.07800 28.88100
H  31.70500 0.20000 30.44000
H  28.57500 1.96200 34.28200
H  27.75700 -0.37700 37.72500
H  29.26000 0.02200 38.15900
H  29.21100 -1.36500 37.10400
Mg 30.33700 59.27700 40.17400
C  27.81000 57.35900 38.85100
C  32.63900 56.89300 38.91200
C  32.98300 61.30700 40.70100
C  28.09400 61.90100 40.72000
N  30.18200 57.25700 39.04500
C  29.05300 56.68800 38.64400
C  29.24500 55.40900 37.85100
C  30.80000 55.07200 38.22300
C  31.28200 56.46100 38.68300
C  31.04500 53.97700 39.21900
C  29.18100 55.69200 36.30400
C  28.07200 54.90800 35.54900
H  27.21300 55.71500 34.56400
N  32.53200 59.12300 39.92100
C  33.27500 58.04600 39.51400
C  34.71000 58.30800 39.58600
C  34.83100 59.60400 40.13200
C  33.43700 60.06300 40.29300
C  35.84900 57.23800 39.26300
C  36.13100 60.26400 40.48000
O  37.16200 59.66700 40.27900
C  36.20600 61.57900 41.18400
N  30.51700 61.32500 40.59600
C  31.69500 61.86400 40.99100
C  31.55300 63.34200 41.34800
C  29.99400 63.60400 41.23900
C  29.43600 62.19100 40.81600
C  32.19400 63.75200 42.71000
C  29.53400 64.66300 40.25200
C  30.37600 65.92300 40.30600
N  28.31600 59.55700 40.00200
C  27.52300 60.70600 40.18000
C  26.09700 60.27300 40.03200
C  26.15600 58.98300 39.47900
C  27.54300 58.64900 39.41600
C  24.97300 61.13300 40.49800
C  25.38300 57.85900 39.04000
O  24.15600 57.81000 38.99200
C  26.37000 56.78900 38.49900
C  25.97500 55.55300 39.18900
O  26.58600 55.11900 40.16000
O  24.79300 55.11400 38.66700
C  24.19100 53.90900 39.30000
H  33.37000 56.19700 38.49400
H  33.71700 62.09400 40.88800
H  27.45500 62.74200 40.99400
H  28.59200 54.57500 38.10800
H  31.44900 54.76700 37.40200
H  30.07300 53.65100 39.58900
H  31.62800 54.63300 39.86600
H  31.66300 53.17000 38.82600
H  30.13700 55.32200 35.93400
H  29.05800 56.75800 36.11100
H  27.38100 54.53300 36.30400
H  28.55100 54.13200 34.95200
H  36.40700 57.50100 38.36400
H  35.49300 56.20800 39.29100
H  36.54000 57.30500 40.10300
H  37.15600 61.73300 41.69400
H  35.52800 61.57700 42.03800
H  36.05900 62.38300 40.46200
H  32.10900 63.93400 40.62100
H  29.47200 63.76900 42.18200
H  33.13300 64.28100 42.54700
H  32.62900 62.96200 43.32100
H  31.48600 64.39100 43.24000
H  28.49800 64.93800 40.44700
H  29.75800 64.28300 39.25500
H  30.87700 66.14200 39.36300
H  31.10300 65.85500 41.11500
H  29.83300 66.82900 40.57700
H  24.91100 62.07700 39.95600
H  25.24900 61.27600 41.54300
H  24.08200 60.50600 40.45600
H  26.27800 56.64900 37.42200
H  23.10800 53.98900 39.20600
H  24.55300 53.94900 40.32700
H  24.48300 52.97600 38.81700

