158

Mg 48.04300 35.72100 27.70200
C  46.31800 33.89800 30.22500
C  48.12400 38.41300 29.66500
C  49.25100 37.51900 25.03800
C  47.81900 33.02300 25.65700
N  47.31000 36.02800 29.69300
C  46.78800 35.13700 30.56300
C  46.65300 35.76700 31.94400
C  46.93000 37.31600 31.71300
C  47.41900 37.29100 30.21100
C  45.81000 38.34000 31.78700
C  47.69200 35.11900 32.94800
C  48.74500 35.96200 33.73600
H  48.30700 36.96100 34.86300
N  48.86000 37.69700 27.44300
C  48.75300 38.61700 28.38300
C  49.36400 39.86600 27.89900
C  49.67400 39.65700 26.50900
C  49.29400 38.22000 26.30600
C  49.48100 41.12700 28.73100
C  50.19800 40.65200 25.44400
O  50.44900 40.22900 24.29800
C  50.54900 42.13300 25.82500
N  48.45600 35.35300 25.60700
C  48.89600 36.24200 24.72800
C  48.91800 35.57800 23.28600
C  48.71900 34.07400 23.52900
C  48.33100 34.13400 25.01500
C  47.95600 36.35600 22.36100
C  50.00400 33.14900 23.29900
C  51.17700 33.22800 24.35100
N  47.20500 33.88800 27.83700
C  47.22500 32.87500 26.93500
C  46.48900 31.77400 27.43500
C  46.23700 32.12700 28.77800
C  46.55800 33.41700 28.89500
C  46.22400 30.46400 26.81100
C  45.65900 31.67000 29.99500
O  45.31600 30.51700 30.25600
C  45.46300 32.92000 30.90200
C  45.76900 32.53800 32.28800
O  46.82000 32.01600 32.63900
O  44.63000 32.76300 33.03800
C  44.57700 32.19200 34.34500
H  48.19500 39.17700 30.44200
H  49.51500 38.12100 24.16600
H  47.57100 32.15900 25.03600
H  45.59400 35.73200 32.19800
H  47.75400 37.68200 32.32600
H  46.11800 39.10700 32.49800
H  44.92900 37.83500 32.18500
H  45.49600 38.74600 30.82500
H  48.35500 34.42800 32.42600
H  47.05500 34.55700 33.63000
H  49.38400 36.55700 33.08300
H  49.46300 35.26700 34.17200
H  48.53000 41.61800 28.52400
H  50.23700 41.87900 28.50700
H  49.72100 40.94800 29.77900
H  49.92100 42.47700 26.64700
H  50.47700 42.63800 24.86100
H  51.59700 42.10700 26.12400
H  49.91500 35.81600 22.91500
H  47.85900 33.58600 23.07000
H  47.34400 37.14200 22.80300
H  47.35000 35.58400 21.88700
H  48.54200 36.72400 21.51900
H  50.55300 33.47200 22.41400
H  49.79300 32.13000 22.97500
H  51.09500 34.22000 24.79500
H  52.13900 33.04000 23.87500
H  50.98400 32.45800 25.09900
H  46.35200 29.65300 27.52800
H  46.88200 30.28900 25.96000
H  45.23700 30.63400 26.38100
H  44.42700 33.25300 30.84700
H  44.10800 32.94800 34.97500
H  45.55400 31.92500 34.74700
H  43.91400 31.32700 34.33300
Mg 1.96300 42.72000 26.41100
C  3.43500 42.61400 29.49400
C  -1.06700 41.69500 28.28200
C  0.39900 42.10600 23.57700
C  4.92000 42.95600 24.79100
N  1.31700 42.32100 28.67900
C  2.06100 42.46500 29.67700
C  1.35500 42.38900 31.10700
C  -0.09600 41.97100 30.60900
C  0.03500 42.07900 29.05700
C  -0.55100 40.56700 31.06900
C  1.39500 43.76900 31.73800
C  1.90800 43.80500 33.22300
H  1.49500 42.69600 34.21900
N  -0.09900 42.22900 25.93700
C  -1.13100 41.79900 26.83300
C  -2.33000 41.47200 26.07800
C  -1.96500 41.63700 24.73200
C  -0.53500 41.98700 24.66800
C  -3.62200 40.97200 26.70000
C  -2.76200 41.35100 23.42400
O  -2.31600 41.45100 22.25200
C  -4.08100 40.82500 23.51900
N  2.60500 42.72400 24.33700
C  1.77400 42.43700 23.33900
C  2.51700 42.43300 21.95100
C  3.96600 42.71500 22.42900
C  3.85400 42.84800 23.91600
C  2.29400 41.12300 21.17700
C  4.44800 44.00500 21.75900
C  3.90300 45.33600 22.37700
N  3.77700 42.85300 26.90300
C  4.94800 42.93100 26.22200
C  6.05400 43.00800 27.06500
C  5.50600 42.96600 28.38600
C  4.10500 42.85000 28.20000
C  7.45400 43.18000 26.62100
C  5.87300 42.95100 29.84100
O  6.98500 43.02200 30.39800
C  4.50100 42.71200 30.55600
C  4.76700 41.47100 31.36900
O  4.59300 40.33700 30.98500
O  5.21800 41.86600 32.57600
C  5.52600 40.76100 33.46300
H  -2.04900 41.51000 28.72100
H  -0.02900 41.87000 22.60100
H  5.86800 43.07700 24.26100
H  1.76400 41.70100 31.84700
H  -0.87700 42.60500 31.02800
H  -1.24700 40.64500 31.90500
H  0.35200 40.08900 31.45100
H  -0.94800 40.01300 30.21800
H  0.44400 44.24200 31.49300
H  2.13500 44.43700 31.29700
H  1.47000 44.77400 33.46200
H  2.97900 43.98300 33.32500
H  -4.42400 41.71000 26.70700
H  -3.47300 40.37900 27.60300
H  -4.00100 40.24000 25.98700
H  -4.63700 41.01700 22.60200
H  -4.56800 41.50700 24.21600
H  -4.03500 39.79200 23.86600
H  2.10800 43.27700 21.39600
H  4.67400 41.89300 22.31700
H  1.85200 41.36000 20.20900
H  1.68300 40.41200 21.73300
H  3.22900 40.59900 20.97900
H  4.23000 44.00100 20.69100
H  5.53600 43.98000 21.69200
H  3.47100 45.96100 21.59500
H  4.82000 45.78000 22.76400
H  3.16900 45.29300 23.18200
H  7.53100 42.96000 25.55600
H  8.16800 42.59100 27.19700
H  7.70400 44.23800 26.69400
H  4.33600 43.59200 31.17800
H  5.99900 41.19200 34.34500
H  6.33600 40.20200 32.99500
H  4.65000 40.12300 33.58300

