158

Mg 47.29900 24.67600 27.67000
C  48.01000 26.97900 30.26800
C  46.58000 22.34300 30.14500
C  46.96800 22.20700 25.31300
C  48.42900 26.89300 25.45600
N  47.32600 24.69900 29.95600
C  47.48000 25.76200 30.78600
C  47.10400 25.50300 32.27000
C  46.99000 23.91900 32.21800
C  46.97000 23.62200 30.69900
C  47.90000 23.12100 33.08300
C  45.79300 26.21100 32.78800
C  45.97700 27.39300 33.78600
H  46.80400 26.97500 34.99900
N  46.71900 22.60300 27.76600
C  46.52500 21.85300 28.88800
C  46.19500 20.55000 28.53200
C  46.20500 20.42800 27.15800
C  46.58300 21.81500 26.66600
C  45.91000 19.45600 29.59400
C  45.86100 19.21100 26.28000
O  45.99200 19.22900 25.07000
C  45.23800 17.94000 26.88500
N  47.70000 24.48400 25.62200
C  47.41100 23.41300 24.87700
C  47.67800 23.80100 23.40100
C  47.97900 25.36400 23.47900
C  48.07100 25.57400 24.91000
C  48.77200 23.00800 22.59700
C  46.92100 26.35000 22.73500
C  45.62000 26.69500 23.55300
N  48.18700 26.49200 27.78400
C  48.55800 27.28900 26.77300
C  49.07700 28.54500 27.21500
C  48.87200 28.46100 28.55800
C  48.30500 27.21500 28.90700
C  49.70400 29.55700 26.29000
C  49.08500 29.19000 29.79600
O  49.62300 30.29200 29.96000
C  48.40100 28.31800 30.95000
C  49.46400 28.24600 32.02300
O  50.29400 27.35800 32.08300
O  49.25500 29.22400 32.86000
C  50.13000 29.25000 34.04100
H  46.35400 21.70800 31.00500
H  46.93000 21.39700 24.58100
H  48.78200 27.67100 24.77500
H  47.99500 25.88300 32.76900
H  45.93200 23.71100 32.37700
H  48.60700 22.47800 32.55900
H  47.33000 22.50300 33.77700
H  48.46200 23.87100 33.64000
H  45.13200 25.51300 33.30300
H  45.19100 26.56900 31.95300
H  45.01800 27.72100 34.18700
H  46.39000 28.24600 33.24700
H  46.36700 18.51100 29.30200
H  44.89400 19.32500 29.96600
H  46.38800 19.73400 30.53300
H  45.96700 17.44700 27.52800
H  45.00300 17.20600 26.11400
H  44.36000 18.27200 27.44000
H  46.78100 23.73200 22.78500
H  48.95500 25.72300 23.15100
H  49.64000 23.64900 22.43900
H  48.45300 22.77100 21.58200
H  49.06200 22.12100 23.16100
H  46.63700 25.85200 21.80700
H  47.36700 27.32800 22.55500
H  45.70300 27.76100 23.76100
H  45.55200 25.98000 24.37300
H  44.77500 26.57600 22.87400
H  50.39900 30.15100 26.88400
H  49.03400 30.17700 25.69400
H  50.39000 29.15100 25.54600
H  47.52100 28.84900 31.31300
H  51.04900 29.65400 33.61600
H  50.46500 28.31300 34.48600
H  49.61400 29.83600 34.80200
Mg 8.72700 48.95500 26.36900
C  6.36700 49.26000 28.93900
C  11.17000 49.87200 28.47200
C  10.89200 48.75800 23.79500
C  6.01600 48.63400 24.04700
N  8.73600 49.42700 28.48200
C  7.69700 49.49300 29.39000
C  8.15900 49.92700 30.76800
C  9.65100 50.39000 30.51400
C  9.92600 49.85000 29.08500
C  9.89600 51.88900 30.51700
C  8.02500 48.70400 31.74400
C  8.78400 48.73100 33.07800
H  8.35700 47.82100 34.19500
N  10.82900 49.13400 26.18100
C  11.62000 49.55200 27.17700
C  12.98000 49.51000 26.70700
C  12.94300 49.07100 25.30900
C  11.52900 48.96000 25.05300
C  14.23200 49.86800 27.56000
C  14.16300 48.77000 24.38100
O  14.07300 48.38200 23.21500
C  15.53500 48.93500 24.90400
N  8.43400 48.75700 24.28300
C  9.54200 48.53100 23.45300
C  9.18700 48.46000 21.97800
C  7.65300 48.19500 22.05000
C  7.30300 48.49300 23.54000
C  9.61900 49.79500 21.19100
C  7.19200 46.85300 21.48400
C  6.36300 46.82700 20.16000
N  6.62100 48.97300 26.36600
C  5.63900 48.86200 25.40800
C  4.36400 48.72900 26.05000
C  4.50500 49.00300 27.39200
C  5.97300 49.04500 27.58200
C  3.12200 48.37000 25.39900
C  3.79900 49.05500 28.65100
O  2.63800 49.01400 28.89500
C  5.00200 49.18600 29.68900
C  4.93200 47.94300 30.57100
O  5.17400 46.87800 30.12300
O  4.47400 48.27200 31.84900
C  4.22500 47.04200 32.66400
H  11.98100 50.20300 29.12400
H  11.61700 48.59300 22.99500
H  5.28100 48.35000 23.29100
H  7.53300 50.75600 31.09900
H  10.29500 49.93100 31.26500
H  9.05700 52.37800 31.01400
H  10.07900 52.31500 29.53100
H  10.74000 52.21800 31.12300
H  8.21500 47.72200 31.31100
H  6.99100 48.82700 32.06600
H  8.68800 49.75100 33.44800
H  9.85000 48.52700 32.98000
H  13.99600 49.98100 28.61800
H  14.61700 50.78500 27.11400
H  15.08000 49.18500 27.50400
H  16.15400 48.87700 24.01000
H  15.82300 48.09500 25.53600
H  15.79600 49.89200 25.35700
H  9.84400 47.65000 21.66200
H  7.17800 48.92800 21.39700
H  10.03200 49.79900 20.18200
H  10.29600 50.45300 21.73500
H  8.78900 50.43700 20.89500
H  6.54800 46.37300 22.22000
H  8.04000 46.21900 21.22500
H  5.81500 47.76500 20.07500
H  5.56900 46.08600 20.26200
H  6.87200 46.53800 19.24100
H  3.32700 47.45700 24.83900
H  2.84000 49.12200 24.66300
H  2.49400 48.07200 26.23900
H  4.90900 50.06400 30.32700
H  3.16300 47.12200 32.89700
H  4.68400 47.16000 33.64500
H  4.51000 46.05900 32.28900

