158

Mg 17.25900 52.61900 25.68300
C  18.58600 51.08000 28.59000
C  14.72400 53.89300 27.68900
C  15.73600 53.64800 22.87900
C  19.68300 50.97800 23.76400
N  16.70800 52.44200 27.93900
C  17.42300 51.81600 28.92600
C  16.75800 51.95100 30.26400
C  15.44500 52.70400 29.90900
C  15.60400 53.01000 28.38800
C  14.05500 51.99900 30.37200
C  17.61100 52.53800 31.37500
C  17.69800 51.88800 32.80100
H  16.45900 51.00100 33.09900
N  15.52800 53.54000 25.36300
C  14.56100 53.92800 26.33400
C  13.43700 54.65200 25.64900
C  13.71500 54.56600 24.26300
C  15.01200 53.82600 24.09700
C  12.29700 55.30900 26.44200
C  13.00900 55.20900 23.16800
O  13.41100 55.11600 22.01100
C  11.82700 56.07900 23.49500
N  17.56900 52.16500 23.59300
C  16.91600 52.88200 22.70700
C  17.56800 52.87400 21.27500
C  18.80300 51.96700 21.60600
C  18.68600 51.65400 23.06900
C  16.72000 52.25500 20.13300
C  20.18100 52.66600 21.18500
C  21.43800 51.82100 20.95000
N  18.89500 51.36200 26.08000
C  19.78700 50.79500 25.18700
C  20.79200 49.95400 25.95200
C  20.33600 50.02300 27.28300
C  19.19400 50.90200 27.27900
C  21.93600 49.20500 25.30900
C  20.58200 49.56900 28.66500
O  21.43800 48.80200 29.08100
C  19.47500 50.29800 29.58100
C  18.83900 49.17300 30.37500
O  17.88100 48.47500 30.04500
O  19.54700 49.01700 31.56300
C  19.13800 47.88700 32.37200
H  13.98500 54.42700 28.28900
H  15.23500 53.93800 21.95300
H  20.54300 50.58400 23.21900
H  16.48100 50.91000 30.43400
H  15.30700 53.69000 30.35300
H  14.32200 51.02300 30.77600
H  13.42100 51.85900 29.49700
H  13.54600 52.54700 31.16500
H  17.08800 53.47700 31.55300
H  18.63400 52.77700 31.08500
H  17.82000 52.61200 33.60600
H  18.55700 51.22300 32.88800
H  11.28600 55.04800 26.12800
H  12.29700 56.39600 26.36300
H  12.44900 55.21600 27.51700
H  11.04500 55.46400 23.94100
H  11.41100 56.48800 22.57400
H  12.09700 56.92000 24.13200
H  17.71700 53.91700 20.99500
H  18.83800 50.94400 21.22900
H  16.02500 51.46300 20.41400
H  17.32800 51.78300 19.36100
H  16.00300 52.99200 19.77100
H  20.58600 53.22000 22.03200
H  19.94300 53.35800 20.37700
H  21.74100 51.98700 19.91600
H  21.31400 50.73900 20.99500
H  22.22300 52.10800 21.64900
H  22.16700 48.24900 25.78000
H  22.85800 49.69700 25.62100
H  21.93800 49.16800 24.22000
H  19.96700 51.01900 30.23300
H  18.10800 47.87500 32.72900
H  19.93500 47.89800 33.11500
H  19.37900 47.09100 31.66700
Mg -11.88400 38.04800 42.27600
C  -9.79800 35.35500 41.15500
C  -9.50100 40.16400 41.27700
C  -14.05000 40.50400 42.66400
C  -14.41800 35.68900 42.71600
N  -9.96400 37.77400 41.14200
C  -9.28800 36.59400 40.94600
C  -7.94600 36.88000 40.44700
C  -7.73000 38.41400 40.74300
C  -9.14400 38.84700 41.19400
C  -6.69400 38.66900 41.89800
C  -7.91500 36.49500 38.89500
C  -6.99400 35.34500 38.52900
H  -5.95400 35.61200 37.41500
N  -11.80200 40.11100 41.89700
C  -10.70400 40.75100 41.51900
C  -11.03100 42.19400 41.53700
C  -12.36700 42.29400 42.04800
C  -12.83000 40.95800 42.16000
C  -9.92200 43.24800 41.30400
C  -13.03900 43.53700 42.45400
O  -12.53900 44.60700 42.16500
C  -14.39100 43.74100 43.15100
N  -13.85200 38.11000 42.58700
C  -14.58200 39.22900 42.88900
C  -16.09100 39.05200 43.31700
C  -16.13000 37.50500 43.23000
C  -14.70700 37.02700 42.86000
C  -16.62700 39.63700 44.67400
C  -17.19500 36.94500 42.18900
C  -18.42700 36.38400 42.71900
N  -12.03000 35.91900 42.20500
C  -13.14700 35.09600 42.36400
C  -12.77600 33.77100 42.22200
C  -11.43100 33.76300 41.73900
C  -11.07900 35.10200 41.70000
C  -13.71000 32.61400 42.40200
C  -10.30300 32.96700 41.25600
O  -10.09900 31.81700 41.21200
C  -9.11300 33.98500 40.94500
C  -8.06400 33.62600 41.88600
O  -8.26300 33.72400 43.07800
O  -6.79900 33.32700 41.25100
C  -5.59900 32.93700 42.06900
H  -8.71600 40.90500 41.11500
H  -14.87300 41.17300 42.92400
H  -15.08500 34.87300 43.00200
H  -7.27000 36.27300 41.05000
H  -7.26200 38.86600 39.86900
H  -5.77100 38.09500 41.81400
H  -6.98000 38.56300 42.94400
H  -6.39700 39.71200 41.79000
H  -7.55900 37.30600 38.25900
H  -8.89000 36.20400 38.50500
H  -7.66900 34.53100 38.26500
H  -6.49500 34.88700 39.38300
H  -9.64800 43.81500 42.19300
H  -10.31700 43.86000 40.49300
H  -9.00300 42.81000 40.91400
H  -14.53000 43.05200 43.98300
H  -15.09300 43.35200 42.41300
H  -14.65200 44.76600 43.41700
H  -16.69400 39.47400 42.51300
H  -16.44700 37.15500 44.21300
H  -17.09200 38.90100 45.33000
H  -17.33900 40.44000 44.48400
H  -15.71600 40.01300 45.14000
H  -16.75100 36.22200 41.50500
H  -17.55000 37.68700 41.47400
H  -18.62200 35.43900 42.21000
H  -19.27900 36.98800 42.40800
H  -18.41100 36.10900 43.77300
H  -14.75800 32.85500 42.22700
H  -13.46800 32.20200 43.38200
H  -13.50000 31.82800 41.67700
H  -8.79500 33.77200 39.92500
H  -5.89200 32.30900 42.91000
H  -4.89900 33.75300 42.24900
H  -5.00600 32.20900 41.51500

