158

Mg 4.89100 55.07100 41.53000
C  3.72600 51.73100 41.50700
C  7.64400 54.06700 39.70800
C  5.57100 58.42500 41.01400
C  1.73600 55.97600 42.93300
N  5.53100 53.14900 40.62100
C  4.93600 51.92000 40.80800
C  5.69100 50.86200 39.95700
C  7.05400 51.56000 39.70900
C  6.77500 53.02300 40.08300
C  8.28600 51.01900 40.49200
C  4.95100 50.43300 38.62700
C  4.94200 48.91500 38.26800
H  5.55800 48.41300 36.99600
N  6.39800 56.12500 40.55200
C  7.46700 55.47300 39.90400
C  8.41400 56.56100 39.36400
C  7.79800 57.78400 39.77200
C  6.54200 57.49400 40.49200
C  9.57900 56.18200 38.42700
C  8.45000 59.18000 39.43800
O  9.52900 59.22700 38.80500
C  7.82900 60.53900 39.76900
N  3.77500 56.91700 41.87000
C  4.32400 58.21400 41.66500
C  3.45600 59.36400 42.12200
C  2.13200 58.47700 42.50200
C  2.59700 57.01200 42.53400
C  3.97500 60.38300 43.22400
C  0.98700 58.62700 41.46900
C  -0.05900 59.83200 41.74100
N  3.12300 54.07100 42.17400
C  2.03400 54.60600 42.80600
C  1.19600 53.48400 43.25200
C  1.88600 52.37300 42.74900
C  2.98700 52.73900 42.06700
C  -0.03100 53.61600 43.95600
C  1.75700 50.89700 42.65900
O  0.99000 50.13300 43.20000
C  3.09000 50.41100 42.00200
C  2.97000 49.33200 41.02500
O  2.12100 49.33700 40.11500
O  3.81100 48.34800 41.40200
C  3.63800 46.99600 40.95200
H  8.51600 53.68800 39.17100
H  5.89400 59.43100 40.73900
H  0.78300 56.25200 43.39000
H  5.86100 49.96000 40.54500
H  7.20100 51.53600 38.63000
H  8.80700 50.45700 39.71700
H  8.04700 50.31300 41.28800
H  8.98000 51.77300 40.86300
H  5.41900 51.04000 37.85200
H  3.94600 50.85200 38.59200
H  3.96800 48.44100 38.38900
H  5.55700 48.44700 39.03700
H  9.15200 55.63600 37.58600
H  10.36700 55.63200 38.94100
H  10.06300 57.08800 38.06200
H  8.40200 61.41600 39.46800
H  7.80700 60.58800 40.85800
H  6.90700 60.69300 39.20900
H  3.36700 59.94800 41.20600
H  1.69600 58.67400 43.48100
H  3.11000 60.65000 43.83200
H  4.37000 61.27900 42.74700
H  4.69600 59.94300 43.91400
H  0.25900 57.81700 41.51200
H  1.33900 58.88900 40.47100
H  0.08300 60.09600 42.78900
H  -1.03300 59.39700 41.51500
H  0.13600 60.72500 41.14600
H  -0.72800 53.95400 43.18900
H  -0.10000 54.33300 44.77400
H  -0.45400 52.69100 44.35000
H  3.59600 49.91700 42.83200
H  2.82900 46.43000 41.41600
H  4.59700 46.48000 40.99200
H  3.37000 47.05400 39.89700
Mg 9.86100 48.36800 26.12900
C  8.07800 48.17600 29.06600
C  12.35100 50.01200 27.90000
C  11.67600 48.66500 23.33800
C  7.21300 47.46300 24.31000
N  10.30200 48.88100 28.30900
C  9.34300 48.67100 29.31500
C  9.84100 49.19200 30.70800
C  11.08700 50.11000 30.21600
C  11.25700 49.68900 28.70900
C  10.84500 51.67000 30.32600
C  10.24200 48.08000 31.78100
C  9.50000 48.18900 33.16200
H  9.58700 46.96900 34.04800
N  11.78600 49.13300 25.69700
C  12.63700 49.68000 26.58300
C  13.96000 49.85700 25.94200
C  13.78300 49.39300 24.59200
C  12.34500 49.16100 24.44200
C  15.17500 50.39600 26.71700
C  14.80800 49.25700 23.49100
O  14.55800 48.93500 22.35200
C  16.24100 49.48100 23.92900
N  9.48600 48.15700 24.08500
C  10.33700 48.25200 23.11100
C  9.63700 48.08000 21.68600
C  8.47500 47.23500 22.13400
C  8.39500 47.62200 23.57100
C  9.32700 49.55000 21.16800
C  8.63800 45.66500 21.89700
C  8.57000 44.62500 23.00600
N  7.97800 48.01400 26.52600
C  6.94100 47.59600 25.69800
C  5.83800 47.20600 26.50700
C  6.20300 47.44000 27.84100
C  7.54000 47.80400 27.80200
C  4.45500 46.77900 25.96200
C  5.73700 47.39300 29.14500
O  4.60200 47.05000 29.54800
C  6.90000 47.84000 30.04100
C  7.20000 46.67400 30.91100
O  7.86800 45.71600 30.58700
O  6.57900 46.85100 32.12800
C  6.40400 45.67900 32.94800
H  12.93600 50.78100 28.40900
H  12.28300 48.68100 22.43100
H  6.40300 46.96800 23.77100
H  8.99100 49.75800 31.08800
H  12.03100 49.91600 30.72400
H  9.81300 51.94500 30.54100
H  11.02700 52.10300 29.34200
H  11.62400 52.02700 31.00000
H  11.30900 48.26300 31.90500
H  10.09300 47.12600 31.27500
H  8.50100 48.59400 33.00000
H  10.04000 49.04900 33.55700
H  15.88900 49.59100 26.89500
H  14.82300 50.84100 27.64700
H  15.65000 51.15700 26.09800
H  16.54700 50.49600 24.18100
H  16.76300 49.18200 23.02000
H  16.57200 48.74800 24.66400
H  10.31600 47.61500 20.97100
H  7.57100 47.51300 21.59100
H  9.85400 50.37000 21.65600
H  8.26000 49.76600 21.13500
H  9.76500 49.60400 20.17100
H  9.70900 45.75100 21.70900
H  8.18900 45.33100 20.96200
H  8.63500 45.10100 23.98400
H  9.45300 44.02000 22.79900
H  7.67600 44.00600 22.93100
H  3.68700 47.46700 26.31600
H  4.25400 45.89700 26.56900
H  4.40300 46.61500 24.88500
H  6.41500 48.64100 30.60000
H  6.95500 44.80400 32.60300
H  5.35100 45.53600 33.19000
H  6.89700 45.86400 33.90300

