158

Mg 41.72300 41.14500 27.30500
C  41.50600 43.80900 29.67900
C  42.60400 39.16100 29.84100
C  42.35400 38.86100 25.05900
C  41.61900 43.59500 24.79600
N  42.03100 41.51600 29.49200
C  41.79300 42.59700 30.29200
C  41.68400 42.22900 31.74200
C  42.24800 40.75600 31.71700
C  42.24800 40.43500 30.26100
C  43.59400 40.66700 32.40000
C  40.22400 42.37400 32.27800
C  40.13400 42.77400 33.72800
H  39.56500 41.69700 34.69000
N  42.25200 39.26100 27.48000
C  42.66400 38.56600 28.59300
C  43.03200 37.18100 28.26100
C  42.88500 37.07200 26.82200
C  42.44400 38.47200 26.40800
C  43.43700 36.06100 29.30100
C  43.13900 35.97900 25.94200
O  42.75100 35.95100 24.79400
C  43.69900 34.61800 26.41100
N  42.02400 41.22800 25.24300
C  42.15000 40.08300 24.51100
C  42.09200 40.34600 22.99300
C  41.70800 41.93000 22.96200
C  41.85200 42.28900 24.38700
C  43.52400 40.14700 22.31100
C  40.30000 42.25300 22.42100
C  39.17600 41.52500 23.08900
N  41.55700 43.27400 27.16400
C  41.45500 44.06900 26.05700
C  41.15700 45.42100 26.52400
C  41.12400 45.38600 27.89500
C  41.45000 44.05900 28.24200
C  40.96500 46.61000 25.70100
C  40.81100 46.11300 29.09100
O  40.33200 47.24200 29.14000
C  41.03400 45.19700 30.33300
C  41.90000 45.77700 31.38700
O  43.09800 45.99700 31.24000
O  41.16900 45.82200 32.60500
C  42.06900 46.13300 33.71600
H  43.04600 38.45400 30.54600
H  42.43800 38.13400 24.24800
H  41.48200 44.37700 24.04600
H  42.37300 42.78300 32.37900
H  41.57000 40.05300 32.20100
H  44.22300 39.87800 31.98900
H  43.27100 40.44100 33.41600
H  44.17800 41.58300 32.49000
H  39.70700 41.43500 32.08200
H  39.70700 43.08100 31.63000
H  39.46500 43.63400 33.74700
H  41.03800 43.13300 34.22100
H  44.36300 35.52000 29.10400
H  42.63100 35.33200 29.38800
H  43.65600 36.47500 30.28500
H  42.93000 34.18500 27.05100
H  44.55800 34.81000 27.05400
H  44.06900 33.95200 25.63100
H  41.36300 39.82100 22.37500
H  42.40600 42.57000 22.42300
H  43.85800 41.13900 22.00500
H  43.50300 39.42000 21.49900
H  44.15800 39.69100 23.07200
H  40.17300 42.03200 21.36100
H  40.11000 43.32700 22.40500
H  38.37200 42.21000 23.35900
H  39.39200 40.96900 24.00100
H  38.71200 40.83900 22.38000
H  40.98000 46.53300 24.61400
H  41.80800 47.26700 25.91800
H  40.06500 47.13700 26.01500
H  40.02400 45.05700 30.71800
H  43.07600 46.47000 33.47100
H  41.96500 45.29500 34.40700
H  41.62900 47.01600 34.17900
Mg 9.50600 48.95300 25.43800
C  7.87400 48.76600 28.41600
C  12.26000 50.21600 27.10600
C  11.08500 48.99400 22.51900
C  6.67800 47.72600 23.83700
N  9.88700 49.63200 27.56200
C  9.16100 49.25100 28.60200
C  9.92500 49.62400 29.90800
C  10.99200 50.58800 29.44500
C  11.09700 50.12400 27.95000
C  10.72400 52.14900 29.48400
C  10.43500 48.46900 30.83100
C  9.67400 48.33900 32.12000
H  10.24500 49.24300 33.20400
N  11.40500 49.46700 24.89800
C  12.36500 49.89000 25.68900
C  13.61300 49.95800 24.96400
C  13.37200 49.67900 23.65600
C  11.86900 49.40100 23.60000
C  14.93000 50.48700 25.54200
C  14.29700 49.58900 22.41600
O  13.83100 49.31400 21.29800
C  15.77700 49.77400 22.59200
N  8.85600 48.51400 23.38000
C  9.72300 48.61000 22.36000
C  9.17700 48.20600 20.97300
C  7.83600 47.56200 21.45500
C  7.72900 47.96200 22.93900
C  8.96600 49.27500 19.90100
C  7.82600 46.00000 21.21400
C  7.20900 45.59600 19.86000
N  7.61000 48.39200 25.92400
C  6.59800 48.01400 25.19800
C  5.47900 47.79700 26.05000
C  5.93400 48.06000 27.33200
C  7.24900 48.45900 27.19000
C  4.09300 47.29200 25.58200
C  5.53000 48.10400 28.70300
O  4.43500 47.84500 29.21900
C  6.85400 48.49400 29.51400
C  7.07400 47.27800 30.36500
O  7.65300 46.29900 29.99200
O  6.55500 47.40000 31.66700
C  6.65100 46.24000 32.60600
H  13.04300 50.70500 27.68900
H  11.53900 49.04200 21.52700
H  5.80800 47.26100 23.36900
H  9.32800 50.32600 30.49000
H  11.96900 50.41000 29.89500
H  10.81200 52.62300 28.50600
H  11.34300 52.69400 30.19600
H  9.70500 52.40700 29.77200
H  11.45300 48.61400 31.19200
H  10.44300 47.47700 30.38100
H  9.82200 47.28900 32.37300
H  8.63800 48.63400 31.95100
H  14.74800 50.82000 26.56400
H  15.35700 51.30500 24.96100
H  15.66600 49.68400 25.57300
H  16.00700 50.83900 22.63200
H  16.33700 49.31500 21.77800
H  16.21200 49.28900 23.46500
H  9.89900 47.51900 20.53100
H  6.92100 48.05600 21.12800
H  8.01000 49.79900 19.89300
H  9.16200 48.83800 18.92300
H  9.72800 50.03100 20.09100
H  7.31100 45.49600 22.03300
H  8.87700 45.71300 21.24200
H  6.68300 46.34100 19.26300
H  6.45900 44.81700 19.99500
H  7.98700 45.17700 19.22300
H  4.43300 46.38400 25.08400
H  3.63100 48.07400 24.97900
H  3.36800 47.08600 26.36900
H  6.65200 49.32100 30.19400
H  7.47600 45.54600 32.44300
H  5.72900 45.66100 32.54700
H  6.74200 46.55500 33.64600

