158

Mg 46.45400 25.97400 28.19600
C  47.13600 28.09100 30.85300
C  45.58000 23.50100 30.62000
C  46.02400 23.88300 25.70900
C  48.02800 28.15800 26.09000
N  46.28100 25.87100 30.50000
C  46.57600 26.91700 31.33200
C  46.30300 26.54600 32.77800
C  46.06500 25.03100 32.67400
C  45.99500 24.70600 31.20500
C  47.11100 24.15100 33.41700
C  45.13800 27.44200 33.38100
C  44.84600 27.12700 34.80500
H  44.90300 28.24400 35.80900
N  45.86500 23.97300 28.13500
C  45.58400 23.16500 29.22200
C  45.35000 21.84600 28.65000
C  45.47500 21.89900 27.21400
C  45.75600 23.30000 26.97500
C  45.12200 20.60700 29.58100
C  45.44100 20.82700 26.18900
O  45.76400 20.99200 25.00400
C  45.01600 19.50200 26.61900
N  47.00200 25.99400 26.23200
C  46.54600 25.05300 25.35500
C  46.60800 25.50100 23.86100
C  47.27000 26.95500 23.97100
C  47.37800 27.06800 25.53700
C  47.32500 24.57900 22.86900
C  46.48800 28.12100 23.27700
C  47.40800 29.07800 22.39100
N  47.34500 27.79900 28.33700
C  48.05900 28.56800 27.42000
C  48.56200 29.72800 28.03400
C  48.22900 29.65700 29.37800
C  47.54100 28.40400 29.53500
C  49.42000 30.75700 27.35000
C  48.35500 30.27200 30.67800
O  48.85200 31.31300 31.09500
C  47.69500 29.20700 31.73700
C  48.81300 28.68600 32.64000
O  49.67600 27.93400 32.28100
O  48.80400 29.39500 33.79000
C  49.95400 29.13400 34.67000
H  45.13500 22.75700 31.28400
H  45.97200 23.31500 24.77800
H  48.33600 28.85400 25.30700
H  47.18400 26.78300 33.37500
H  45.06900 24.95100 33.10900
H  47.75800 24.68300 34.11500
H  47.71000 23.65300 32.65400
H  46.56900 23.40300 33.99500
H  44.21300 27.15900 32.87800
H  45.42300 28.48900 33.27900
H  45.65100 26.47400 35.14300
H  43.91300 26.56300 34.81000
H  44.20400 20.11000 29.26700
H  44.91800 20.77600 30.63800
H  45.94100 19.89800 29.46200
H  45.83300 19.09100 27.21100
H  45.00100 18.78700 25.79700
H  44.05300 19.56200 27.12600
H  45.61600 25.64800 23.43400
H  48.26000 26.83800 23.53200
H  46.51600 23.91500 22.56600
H  48.13300 24.06600 23.39000
H  47.75800 25.10600 22.01900
H  46.12300 28.69600 24.12800
H  45.65400 27.61000 22.79700
H  47.21400 29.03000 21.32000
H  48.45700 28.78500 22.43800
H  47.33400 30.08800 22.79400
H  49.71100 30.61400 26.31000
H  50.36100 30.92600 27.87200
H  48.81900 31.65700 27.48400
H  47.05200 29.92400 32.24700
H  50.31100 28.10500 34.62700
H  49.67400 29.48500 35.66300
H  50.73600 29.86500 34.46300
Mg 30.50800 58.00900 39.21800
C  27.79200 55.90600 38.36500
C  32.53600 55.35800 38.19800
C  32.98500 60.09900 39.18600
C  28.26400 60.55700 39.86300
N  30.16200 55.82900 38.22400
C  28.96500 55.21700 38.12400
C  29.17200 53.73600 37.86100
C  30.70800 53.52200 38.18100
C  31.18500 54.98000 38.12700
C  31.03900 52.79500 39.51700
C  28.78200 53.24700 36.41900
C  29.17800 54.35000 35.26700
H  28.10100 54.89800 34.38500
N  32.54700 57.72900 38.70000
C  33.21000 56.55100 38.38500
C  34.62800 56.90200 38.19000
C  34.77300 58.30700 38.42900
C  33.43200 58.82000 38.74400
C  35.64700 55.91000 37.78000
C  36.04400 59.15300 38.44700
O  37.14800 58.66700 38.19500
C  36.04500 60.58200 38.79500
N  30.67700 60.02700 39.46400
C  31.81300 60.67500 39.52400
C  31.71000 62.12500 39.94600
C  30.14700 62.26800 40.16900
C  29.64900 60.85600 39.81200
C  32.54200 62.61300 41.18900
C  29.45000 63.40800 39.31400
C  28.60900 64.39300 40.08900
N  28.37300 58.23100 39.22800
C  27.63100 59.32900 39.51000
C  26.27000 59.01900 39.36300
C  26.25100 57.66500 38.94800
C  27.61000 57.24300 38.78900
C  25.12400 59.91300 39.63600
C  25.38100 56.52500 38.62600
O  24.17900 56.48400 38.69900
C  26.37000 55.30000 38.28800
C  26.06800 54.22800 39.27000
O  26.52700 54.13800 40.39900
O  25.06000 53.49900 38.80000
C  24.49500 52.63400 39.76700
H  33.21400 54.52400 38.00300
H  33.66100 60.93000 39.40000
H  27.50700 61.34400 39.85700
H  28.43700 53.27000 38.51700
H  31.23300 52.92800 37.43200
H  30.11700 52.29600 39.81500
H  31.15400 53.55700 40.28900
H  31.84700 52.09400 39.31300
H  27.72400 52.99800 36.34000
H  29.42100 52.41000 36.13800
H  29.87700 53.86300 34.58800
H  29.84200 55.13000 35.64000
H  35.21700 54.97900 37.40900
H  36.13400 55.76300 38.74400
H  36.40000 56.26100 37.07600
H  37.04600 61.00500 38.88400
H  35.64800 60.49500 39.80600
H  35.44900 61.08300 38.03200
H  32.03300 62.75900 39.12000
H  29.83000 62.54800 41.17400
H  33.37300 61.96000 41.45800
H  31.96600 62.81300 42.09200
H  33.01400 63.54500 40.87700
H  28.84500 63.09000 38.46500
H  30.11300 64.16600 38.89800
H  28.01900 65.01100 39.41300
H  29.20100 65.11500 40.65000
H  27.92500 63.83900 40.73200
H  25.22600 60.99400 39.74100
H  24.57500 59.63300 40.53500
H  24.47400 59.69500 38.78900
H  26.04100 55.06000 37.27800
H  24.17500 53.13300 40.68200
H  25.16600 51.84600 40.10900
H  23.62000 52.12700 39.35900

