158

Mg 0.29000 7.66900 26.21800
C  0.87100 9.23600 29.16300
C  0.44600 4.70300 27.85600
C  0.01200 6.00500 23.22100
C  0.36400 10.63500 24.40300
N  0.56000 7.07900 28.22000
C  0.68500 7.83700 29.32800
C  0.79300 7.06900 30.70400
C  0.90900 5.63500 30.10200
C  0.57700 5.82000 28.63200
C  2.36200 5.00900 30.37000
C  -0.55200 7.23200 31.53100
C  -0.34400 7.57600 33.01700
H  0.88300 6.92800 33.74000
N  0.31400 5.55900 25.56800
C  0.33100 4.51400 26.43500
C  0.14700 3.35000 25.74200
C  0.06000 3.70200 24.30500
C  0.12700 5.15500 24.31900
C  0.08800 2.00600 26.47200
C  0.03800 2.73500 23.10000
O  0.00200 3.28800 21.98500
C  0.04000 1.22200 23.22600
N  0.39100 8.25200 24.05900
C  0.15700 7.38000 23.05700
C  -0.01000 8.04000 21.61700
C  -0.20400 9.50400 22.12100
C  0.23200 9.47500 23.58000
C  1.14800 7.79500 20.53600
C  -1.64400 10.00500 21.96800
C  -1.98500 10.69200 20.65600
N  0.63200 9.56200 26.66800
C  0.62400 10.67300 25.85000
C  0.96000 11.84500 26.66100
C  1.06200 11.34700 28.01300
C  0.76400 9.97200 27.90500
C  1.10400 13.22300 26.17700
C  1.33900 11.69300 29.38200
O  1.70500 12.69900 29.84700
C  1.11500 10.30500 30.21000
C  2.31600 10.15300 31.05000
O  3.42000 9.86700 30.71900
O  1.87600 10.51700 32.31400
C  2.90100 11.02600 33.20400
H  0.63200 3.78600 28.42000
H  -0.26500 5.50800 22.28800
H  0.41800 11.51200 23.75500
H  1.69400 7.41700 31.20700
H  0.18200 4.92500 30.49500
H  2.23500 3.94900 30.59200
H  2.85000 5.55700 31.17700
H  3.02000 4.99800 29.50100
H  -1.16900 6.33500 31.58300
H  -1.19300 7.97600 31.05800
H  -1.25500 7.20900 33.49000
H  -0.15400 8.63800 33.16900
H  1.13000 1.83600 26.74300
H  -0.20600 1.25400 25.73900
H  -0.62200 2.00600 27.29900
H  0.92000 0.91600 23.79100
H  0.24400 0.80000 22.24200
H  -0.85800 0.80700 23.68400
H  -0.91800 7.70100 21.11800
H  0.55900 10.09200 21.61100
H  1.62500 6.81800 20.61200
H  1.86500 8.60900 20.64200
H  0.68500 7.89700 19.55500
H  -1.92500 10.68900 22.76800
H  -2.22500 9.09900 22.14200
H  -2.84200 10.14000 20.27200
H  -1.18700 10.54700 19.92800
H  -2.31900 11.72400 20.76900
H  0.79900 13.20800 25.13100
H  2.11300 13.59000 26.36500
H  0.38800 13.89700 26.64900
H  0.21400 10.47200 30.80000
H  2.41800 11.83600 33.75100
H  3.78100 11.38600 32.67000
H  3.13700 10.32400 34.00400
Mg 26.18600 -0.57900 28.97000
C  28.01800 -0.90900 31.85700
C  23.28900 -0.16800 30.83500
C  24.30700 -0.78900 26.08000
C  29.01000 -1.35100 27.12800
N  25.76800 -0.42200 31.12500
C  26.67600 -0.53700 32.14800
C  26.00100 -0.28100 33.53000
C  24.54500 -0.18800 33.14800
C  24.48400 -0.16900 31.59300
C  23.70100 -1.30000 33.83000
C  26.53700 1.03500 34.35300
C  27.13800 0.74500 35.74300
H  27.01000 1.82000 36.82800
N  24.11400 -0.38300 28.52900
C  23.10800 -0.16300 29.43200
C  21.85200 0.03000 28.74800
C  22.13300 -0.08800 27.37400
C  23.58900 -0.46900 27.29400
C  20.55900 0.27900 29.53600
C  21.19700 0.03300 26.18100
O  21.54900 0.05100 25.01700
C  19.84000 0.29600 26.51000
N  26.55000 -1.14100 26.94100
C  25.64300 -1.11200 25.93100
C  26.22200 -1.35400 24.57300
C  27.63900 -1.73300 25.06500
C  27.73000 -1.35500 26.47000
C  25.62000 -2.52000 23.73700
C  28.72400 -1.02700 24.04300
C  29.40800 0.30100 24.45800
N  28.21200 -0.88300 29.31000
C  29.28600 -1.10500 28.50300
C  30.48600 -1.27700 29.26400
C  30.09700 -1.20800 30.62500
C  28.65800 -0.99700 30.57900
C  31.83200 -1.59000 28.68000
C  30.60000 -1.28800 31.99500
O  31.75000 -1.42600 32.40500
C  29.24100 -1.10200 32.79700
C  29.04200 -2.29300 33.63700
O  28.68400 -3.42400 33.22300
O  29.37800 -1.94800 34.88400
C  29.06200 -2.95500 35.85100
H  22.31700 -0.26600 31.32300
H  23.78400 -0.87500 25.12600
H  29.91000 -1.69600 26.61600
H  26.15100 -1.19500 34.10500
H  24.05300 0.72700 33.47700
H  22.66400 -0.96900 33.89600
H  23.97900 -1.58600 34.84500
H  23.66500 -2.14100 33.13700
H  25.75000 1.76200 34.55600
H  27.24600 1.57400 33.72400
H  28.17800 0.49200 35.53800
H  26.59300 -0.11600 36.12900
H  19.99200 1.13000 29.15800
H  20.72100 0.41000 30.60600
H  19.91600 -0.59300 29.41400
H  19.49000 -0.44000 27.23300
H  19.22200 0.12300 25.62900
H  19.80100 1.31900 26.88600
H  26.28900 -0.40100 24.04900
H  27.83700 -2.78900 24.88100
H  25.58400 -2.13200 22.72000
H  24.61600 -2.75800 24.08800
H  26.32700 -3.34000 23.60600
H  28.23200 -0.92600 23.07600
H  29.55200 -1.73300 23.98600
H  30.48200 0.35500 24.63200
H  28.94200 0.75900 25.33000
H  29.15300 0.95100 23.62000
H  32.30000 -0.79400 28.10200
H  31.73200 -2.48900 28.07200
H  32.41700 -1.85300 29.56200
H  29.41700 -0.26800 33.47600
H  28.28800 -2.45600 36.43400
H  29.98200 -3.07200 36.42300
H  28.70200 -3.94800 35.58200

