158

Mg 17.65500 -0.28700 27.56600
C  16.80800 1.37800 30.61700
C  19.50600 -2.43800 29.43300
C  18.69100 -1.56300 24.70500
C  15.66400 2.07200 25.93300
N  18.28100 -0.34700 29.71700
C  17.67200 0.29300 30.77500
C  18.01400 -0.33000 32.14100
C  19.17600 -1.33500 31.73600
C  18.99600 -1.39500 30.21500
C  20.66300 -0.88300 31.92400
C  16.84700 -1.08000 32.83900
C  16.72200 -0.85900 34.33600
H  18.05300 -0.56100 35.09600
N  18.84300 -1.83200 27.15500
C  19.50100 -2.70100 28.03200
C  20.19000 -3.74100 27.27600
C  19.91300 -3.50300 25.92300
C  19.13700 -2.28200 25.85800
C  21.03500 -4.86400 27.98200
C  20.51000 -4.27200 24.77100
O  20.24100 -3.99900 23.60500
C  21.46800 -5.47600 24.97500
N  17.19500 0.16500 25.67000
C  17.89100 -0.42800 24.60200
C  17.79400 0.38500 23.36200
C  16.50800 1.27000 23.69500
C  16.44100 1.21200 25.22200
C  19.04300 1.18500 22.83000
C  15.11900 1.06100 22.95200
C  14.96600 1.97000 21.67100
N  16.54800 1.39400 28.12400
C  15.71400 2.26200 27.34500
C  15.03300 3.18700 28.16300
C  15.37000 2.82900 29.40800
C  16.39900 1.85900 29.37700
C  14.10600 4.28000 27.68000
C  15.08200 3.12300 30.88500
O  14.42600 4.03400 31.41600
C  15.99900 2.17800 31.63800
C  16.89300 3.05100 32.54900
O  17.99900 3.47500 32.23400
O  16.32200 3.27800 33.75600
C  17.05900 4.17100 34.65500
H  20.05100 -3.20900 29.98100
H  18.98100 -1.95000 23.72600
H  15.12800 2.75200 25.26700
H  18.27000 0.47800 32.82600
H  19.04300 -2.32100 32.18200
H  21.16800 -0.70600 30.97500
H  21.16900 -1.73800 32.37400
H  20.53500 -0.00900 32.56200
H  16.96200 -2.16300 32.82700
H  15.93200 -0.83600 32.29900
H  16.37700 -1.74500 34.86900
H  16.05400 -0.02100 34.53600
H  20.96000 -4.75900 29.06400
H  22.07800 -4.72800 27.69800
H  20.62000 -5.84400 27.74300
H  22.39100 -5.12300 25.43500
H  21.65200 -5.66600 23.91800
H  21.02600 -6.33700 25.47700
H  17.65300 -0.36200 22.58100
H  16.80100 2.30600 23.52500
H  19.99100 0.76700 23.16900
H  19.09500 2.26600 22.95700
H  19.24500 0.90600 21.79500
H  14.33900 1.26300 23.68700
H  14.97500 0.01000 22.70400
H  14.27100 2.80600 21.74600
H  14.59000 1.38900 20.82900
H  16.00700 2.25600 21.51700
H  14.11300 4.39500 26.59700
H  14.23500 5.22900 28.20000
H  13.13600 3.93200 28.03600
H  15.51400 1.53800 32.37500
H  17.11300 3.63400 35.60200
H  16.48000 5.08100 34.81700
H  18.07800 4.33900 34.30700
Mg -10.55500 39.11700 39.74600
C  -9.78100 35.73100 39.63700
C  -7.11500 39.70000 39.17900
C  -11.29700 42.28500 39.55800
C  -13.86700 38.24400 40.43900
N  -8.60900 37.87800 39.45800
C  -8.59200 36.50600 39.51500
C  -7.14100 35.95400 39.19700
C  -6.30700 37.26700 39.47200
C  -7.39100 38.35600 39.39000
C  -5.59900 37.36000 40.84700
C  -7.05800 35.23600 37.81500
C  -7.41400 35.99900 36.48800
H  -8.76400 35.86300 35.86000
N  -9.42100 40.80100 39.28800
C  -8.03700 40.83300 39.10900
C  -7.67100 42.20200 38.81400
C  -8.78900 43.05700 39.00500
C  -9.91900 42.08300 39.35500
C  -6.25200 42.66300 38.67400
C  -8.86800 44.57800 38.92400
O  -7.91800 45.18500 38.42500
C  -10.07300 45.39300 39.33400
N  -12.39700 40.06000 39.88200
C  -12.42700 41.39800 39.74200
C  -13.78900 41.99700 39.95700
C  -14.65600 40.68900 40.36800
C  -13.57000 39.56600 40.20100
C  -13.94800 43.22400 40.92700
C  -15.89400 40.52800 39.44500
C  -17.12700 40.25700 40.23600
N  -11.63700 37.31000 39.96300
C  -12.99100 37.14300 40.30500
C  -13.23500 35.79300 40.38000
C  -12.03700 35.13900 40.06000
C  -11.09700 36.13900 39.76300
C  -14.51600 35.17400 40.71900
C  -11.48100 33.88600 39.89700
O  -12.06700 32.82800 39.97000
C  -9.89700 34.15900 39.55700
C  -9.06000 33.35800 40.45300
O  -9.21500 33.16200 41.66200
O  -8.00400 32.91700 39.80300
C  -6.83800 32.40900 40.51000
H  -6.06800 39.90500 38.94200
H  -11.62400 43.32700 39.55000
H  -14.94600 38.14100 40.56700
H  -7.11200 35.25100 40.02900
H  -5.47900 37.32700 38.76600
H  -6.04600 38.12900 41.47700
H  -4.53600 37.56600 40.71900
H  -5.66100 36.40300 41.36600
H  -7.59100 34.28600 37.80800
H  -6.05600 34.83000 37.67200
H  -6.72500 35.70900 35.69600
H  -7.14900 37.05500 36.54900
H  -6.12900 43.48400 37.96700
H  -5.63700 41.81500 38.37200
H  -5.97700 43.07900 39.64300
H  -10.25400 45.15100 40.38100
H  -10.98100 45.23200 38.75300
H  -9.83700 46.44400 39.16200
H  -14.08200 42.27400 38.94400
H  -14.98700 40.63700 41.40500
H  -14.93100 43.17000 41.39400
H  -13.89300 44.11100 40.29500
H  -13.11000 43.35700 41.61100
H  -15.74600 39.67100 38.78700
H  -15.97400 41.33900 38.72000
H  -16.93100 40.60700 41.24900
H  -17.37800 39.19600 40.25200
H  -17.98100 40.87400 39.95600
H  -14.97400 34.89700 39.76900
H  -15.15200 35.84000 41.30100
H  -14.38300 34.25300 41.28700
H  -9.79100 33.92000 38.49900
H  -6.37100 31.51700 40.09200
H  -7.16000 32.11800 41.51000
H  -6.09700 33.20300 40.59900

