158

Mg 9.38700 2.55900 27.81900
C  10.67400 1.11200 30.72200
C  7.70400 4.82800 29.83800
C  8.13300 3.93700 24.98300
C  11.11100 0.11800 25.82300
N  9.25400 2.91700 30.03500
C  10.03100 2.32200 31.01500
C  9.73900 3.01900 32.36100
C  8.66900 4.19400 32.05600
C  8.48200 3.94900 30.55700
C  7.37500 3.95300 32.84600
C  11.06000 3.42000 33.12800
C  11.03700 4.50000 34.31800
H  10.81300 3.96100 35.69900
N  8.06100 4.11100 27.47800
C  7.44500 4.89800 28.42500
C  6.49400 5.75900 27.78200
C  6.69200 5.61900 26.38300
C  7.67100 4.49600 26.22100
C  5.72700 6.77900 28.53800
C  6.02400 6.37100 25.14300
O  6.25800 6.15100 23.98200
C  4.89500 7.34700 25.50400
N  9.60500 2.07300 25.65800
C  8.98100 2.83700 24.68800
C  9.41400 2.27400 23.30400
C  10.55000 1.22100 23.64800
C  10.38700 1.06800 25.14300
C  8.18400 1.65100 22.64500
C  12.04300 1.62400 23.16600
C  12.68700 0.61900 22.25300
N  10.46600 0.87100 28.10700
C  11.20300 -0.00500 27.22000
C  11.83000 -1.07000 28.00600
C  11.67500 -0.57500 29.34000
C  10.77900 0.51200 29.36300
C  12.57900 -2.16600 27.48100
C  12.12500 -0.80400 30.76100
O  12.86400 -1.65200 31.30000
C  11.55100 0.28100 31.55800
C  10.76600 -0.35000 32.63300
O  9.74400 -0.99900 32.56000
O  11.32700 -0.10700 33.88700
C  10.95200 -0.81600 35.11700
H  7.29500 5.58200 30.51400
H  7.69900 4.41600 24.10300
H  11.70700 -0.58900 25.24200
H  9.26800 2.20900 32.91800
H  8.95100 5.24000 32.17400
H  6.97300 4.94600 33.04800
H  7.47100 3.46100 33.81400
H  6.74000 3.25100 32.30500
H  11.65300 3.82100 32.30600
H  11.47700 2.53100 33.60200
H  10.15500 5.11500 34.14400
H  11.97300 5.05800 34.28800
H  4.67900 6.56000 28.33000
H  5.85900 7.78900 28.15000
H  5.82700 6.72500 29.62200
H  5.29800 8.26900 25.92200
H  4.29600 6.73800 26.18000
H  4.25300 7.59700 24.65900
H  9.81500 2.98700 22.58300
H  10.24000 0.25100 23.26000
H  7.26600 1.58600 23.23000
H  8.21400 0.69000 22.13200
H  7.96600 2.34500 21.83300
H  12.57500 1.91500 24.07200
H  11.73200 2.50600 22.60600
H  12.15200 -0.33100 22.26800
H  13.67400 0.51500 22.70300
H  12.64600 0.97700 21.22400
H  12.96100 -2.79600 28.28400
H  13.37200 -1.77800 26.84200
H  11.97300 -2.82400 26.85800
H  12.42700 0.84800 31.87200
H  10.23700 -1.62900 34.98700
H  10.64600 -0.07000 35.85100
H  11.79300 -1.32200 35.59000
Mg -11.86700 38.96800 41.22200
C  -9.88400 36.18300 40.17900
C  -9.15700 41.04500 40.20800
C  -13.82900 41.54000 41.52200
C  -14.48200 36.80900 42.03000
N  -9.79700 38.68400 40.36800
C  -9.28300 37.44600 40.01800
C  -7.87600 37.57600 39.36600
C  -7.56900 39.07500 39.75900
C  -8.94900 39.68800 40.05100
C  -6.54900 39.24800 40.96300
C  -7.90000 37.36400 37.84700
C  -7.06200 36.30700 37.12900
H  -5.79900 36.74000 36.35400
N  -11.55700 41.03900 40.85600
C  -10.40000 41.69900 40.49600
C  -10.58600 43.17200 40.47100
C  -11.93700 43.34000 41.00300
C  -12.52200 41.95000 41.12900
C  -9.55600 44.13100 39.92300
C  -12.58900 44.72800 41.22700
O  -11.94000 45.76600 41.01100
C  -13.89900 44.84800 41.89500
N  -13.92500 39.06600 41.62200
C  -14.42700 40.27500 41.78700
C  -15.87600 40.27000 42.55300
C  -16.01000 38.69800 42.79800
C  -14.73700 38.13500 42.07800
C  -15.95100 41.21900 43.79400
C  -17.36700 38.27000 42.26900
C  -17.95600 36.96900 42.97300
N  -12.18300 36.85400 41.19600
C  -13.30200 36.09000 41.55800
C  -12.92700 34.66300 41.44400
C  -11.62800 34.67900 40.87800
C  -11.21100 36.01000 40.73500
C  -13.74900 33.49400 41.99900
C  -10.48000 33.84200 40.56300
O  -10.40200 32.63900 40.60600
C  -9.37300 34.80000 39.92100
C  -8.03400 34.46100 40.40000
O  -7.65800 34.75300 41.51200
O  -7.30300 33.76200 39.43700
C  -5.93700 33.46400 39.89700
H  -8.23300 41.62500 40.15900
H  -14.54300 42.36300 41.60600
H  -15.25700 36.11600 42.36500
H  -7.21200 36.84700 39.83200
H  -7.08200 39.58900 38.93000
H  -5.56200 39.01200 40.56600
H  -6.79900 38.53300 41.74700
H  -6.60100 40.22900 41.43600
H  -7.82400 38.35100 37.39100
H  -8.92200 37.05000 37.63700
H  -7.68200 35.74600 36.43000
H  -6.64000 35.66100 37.89900
H  -8.57100 43.72300 39.69400
H  -9.35500 44.93500 40.63000
H  -10.00300 44.65500 39.07900
H  -14.74000 44.42700 41.34300
H  -14.11800 45.85400 42.25400
H  -13.71100 44.17900 42.73400
H  -16.62200 40.56500 41.81600
H  -15.88200 38.45800 43.85400
H  -15.01100 41.72500 44.01500
H  -16.32200 40.74900 44.70400
H  -16.64500 42.00000 43.48200
H  -17.17000 38.20000 41.19900
H  -18.06600 39.10200 42.35500
H  -18.98400 37.16600 43.27800
H  -17.40200 36.67900 43.86600
H  -17.89200 36.08700 42.33600
H  -14.83700 33.46200 42.05800
H  -13.45400 33.38200 43.04300
H  -13.57200 32.50100 41.58800
H  -9.34100 34.60000 38.85000
H  -5.30300 33.44900 39.01100
H  -5.74300 32.49400 40.35400
H  -5.56600 34.23400 40.57400

