158

Mg 8.92100 3.35100 27.86000
C  10.59900 1.86900 30.63000
C  6.96500 5.05800 29.94100
C  7.42900 4.51800 25.12700
C  10.62100 1.00000 25.79300
N  8.97500 3.56400 30.07000
C  9.73700 2.90300 30.97700
C  9.24900 3.25200 32.38800
C  7.93400 4.12200 32.16300
C  7.93600 4.22100 30.66500
C  6.66100 3.55200 32.83600
C  10.38900 4.02800 33.14400
C  10.89900 3.36400 34.38700
H  11.43400 4.38700 35.45400
N  7.42000 4.58600 27.62000
C  6.78600 5.29300 28.59400
C  5.94900 6.34900 28.01600
C  6.00600 6.17700 26.63500
C  6.98700 5.01900 26.40600
C  4.99400 7.22800 28.84700
C  5.21000 6.88700 25.53500
O  5.38800 6.66800 24.37100
C  4.15600 7.95400 25.96200
N  8.75300 2.48700 25.79000
C  8.19700 3.33900 24.84700
C  8.45600 2.81200 23.41600
C  9.64900 1.85900 23.61100
C  9.67600 1.76900 25.15800
C  7.25000 2.06400 22.83600
C  10.98300 2.32900 23.06900
C  11.40800 1.52300 21.80100
N  10.34800 1.81800 28.12200
C  10.84700 0.91900 27.23000
C  11.75600 -0.08300 27.84800
C  11.69800 0.25200 29.20000
C  10.85900 1.42900 29.34500
C  12.55300 -1.15900 27.20800
C  12.14300 -0.02800 30.48600
O  12.85300 -0.91500 30.91300
C  11.51500 1.01200 31.47400
C  10.70200 0.26700 32.47300
O  9.59700 -0.13100 32.40200
O  11.49200 0.20500 33.58900
C  10.88800 -0.27900 34.81100
H  6.43200 5.72100 30.62600
H  6.97500 5.07800 24.30700
H  11.20500 0.31500 25.17500
H  9.02600 2.30200 32.87400
H  8.01100 5.15800 32.49300
H  6.12400 4.32300 33.38800
H  6.89400 2.77100 33.56000
H  5.94000 3.33300 32.04800
H  9.97100 4.95400 33.53900
H  11.13800 4.33500 32.41400
H  11.76700 2.76900 34.10200
H  10.08400 2.81300 34.85700
H  4.06500 6.66600 28.75400
H  4.89900 8.28800 28.61300
H  5.35500 7.40200 29.86100
H  3.90700 8.64700 25.15800
H  4.54400 8.62000 26.73300
H  3.32500 7.45200 26.45700
H  8.58800 3.71500 22.82100
H  9.34600 0.97200 23.05400
H  6.35500 2.35900 23.38400
H  7.39100 0.98600 22.76100
H  7.12300 2.48700 21.83900
H  11.76300 2.25900 23.82700
H  10.95300 3.35500 22.70200
H  10.63300 1.00700 21.23400
H  12.11000 0.78800 22.19300
H  12.04500 2.08100 21.11400
H  13.31900 -0.88800 26.48200
H  11.84100 -1.90400 26.85100
H  13.12000 -1.61400 28.02100
H  12.19700 1.72000 31.94500
H  9.86900 -0.63400 34.65700
H  10.75000 0.56800 35.48400
H  11.61200 -0.93700 35.29100
Mg 43.22400 4.02900 47.22800
C  41.05200 6.68000 47.25900
C  40.40900 1.85500 47.29900
C  45.30300 1.40900 46.95300
C  45.88800 6.19300 46.91000
N  41.01500 4.27500 47.43900
C  40.40200 5.47000 47.33900
C  38.82700 5.25800 47.24600
C  38.61700 3.70200 47.34500
C  40.09300 3.22000 47.53000
C  37.65400 3.22100 48.47700
C  38.08900 5.84700 46.01500
C  38.75900 5.49800 44.62400
H  38.30900 6.30400 43.28500
N  42.89900 1.97100 47.13300
C  41.69100 1.26600 47.11800
C  41.97800 -0.07700 46.90000
C  43.39700 -0.26800 46.80200
C  43.92300 1.09400 46.98700
C  40.85800 -1.12000 46.73600
C  44.12000 -1.58500 46.56900
O  43.52900 -2.64000 46.38400
C  45.53800 -1.70200 46.48500
N  45.29600 3.76000 46.75900
C  45.95000 2.62500 46.86800
C  47.45800 2.79400 46.64600
C  47.61500 4.35700 46.79100
C  46.16400 4.82000 46.73900
C  48.34700 1.82600 47.44700
C  48.51400 5.08300 45.74900
C  49.64600 4.20600 45.15100
N  43.53400 6.10600 47.01700
C  44.62300 6.88800 46.97200
C  44.31100 8.34300 46.91100
C  42.92700 8.25700 47.06600
C  42.49900 6.87500 47.17600
C  45.21400 9.57500 46.90900
C  41.75600 9.10800 47.29400
O  41.63200 10.33100 47.34600
C  40.47500 8.11800 47.28000
C  39.61700 8.51100 48.44900
O  39.77600 8.03200 49.56600
O  38.51200 9.23100 48.09000
C  37.40300 9.32600 49.09000
H  39.48800 1.26900 47.24900
H  46.07700 0.66000 46.76900
H  46.80400 6.78300 46.83200
H  38.30300 5.63300 48.12500
H  38.27200 3.22700 46.42600
H  38.03600 2.38000 49.05500
H  36.72900 2.93800 47.97500
H  37.35100 3.98200 49.19700
H  37.97400 6.93000 46.06100
H  37.13100 5.32800 46.04500
H  38.61700 4.42600 44.48400
H  39.83100 5.61300 44.78000
H  40.67200 -1.23100 45.66800
H  39.97800 -0.72800 47.24500
H  41.12600 -2.05000 47.23800
H  46.04500 -1.70100 47.45000
H  45.94600 -1.00500 45.75300
H  45.75000 -2.67000 46.03200
H  47.64400 2.59700 45.59000
H  47.97500 4.72300 47.75200
H  48.84300 1.13200 46.76700
H  47.78100 1.23000 48.16200
H  49.06000 2.43300 48.00500
H  49.07700 5.87500 46.24300
H  47.96300 5.44300 44.88000
H  50.53200 4.84100 45.13100
H  49.29100 3.82300 44.19500
H  49.93000 3.43500 45.86700
H  45.32000 10.03200 47.89300
H  44.74800 10.33300 46.28100
H  46.13500 9.21600 46.45000
H  40.04900 8.18900 46.27900
H  37.47300 10.30100 49.57200
H  37.49800 8.62100 49.91600
H  36.43300 9.26800 48.59700

