158

Mg 47.57800 25.56100 28.14300
C  48.80100 27.65000 30.68200
C  46.90000 23.21500 30.49300
C  47.06200 23.44600 25.68000
C  49.24400 27.65500 25.74700
N  47.98600 25.39600 30.31900
C  48.27900 26.43900 31.18000
C  47.98600 26.06600 32.68900
C  47.53900 24.53000 32.59800
C  47.45100 24.34600 31.03900
C  48.60200 23.64600 33.28300
C  47.11200 27.12700 33.43300
C  46.24600 26.65700 34.60000
H  46.16300 27.61300 35.71400
N  46.96200 23.57000 28.07300
C  46.69800 22.76200 29.14500
C  46.11600 21.50000 28.67000
C  46.14900 21.55800 27.28500
C  46.71700 22.90600 26.90200
C  45.63700 20.50400 29.60500
C  45.59100 20.54900 26.33200
O  45.62800 20.75900 25.13200
C  45.03100 19.19100 26.93100
N  48.30800 25.48000 25.99000
C  47.76400 24.51900 25.21300
C  48.05600 24.73500 23.69900
C  48.68400 26.20400 23.73900
C  48.73600 26.50700 25.21700
C  48.96800 23.66100 23.04300
C  47.99700 27.28500 22.88900
C  48.68500 27.82900 21.60600
N  48.68300 27.32700 28.14500
C  49.21500 28.09200 27.14200
C  49.74700 29.30300 27.75400
C  49.62500 29.14600 29.10800
C  48.98500 27.97100 29.33300
C  50.50300 30.46500 27.02200
C  49.85700 29.87000 30.40600
O  50.35000 30.96400 30.65800
C  49.29300 28.87200 31.44700
C  50.48500 28.51200 32.29200
O  51.27000 27.61100 32.06200
O  50.40700 29.22700 33.44500
C  51.30000 28.88200 34.55600
H  46.72600 22.55200 31.34300
H  46.77000 22.91500 24.77200
H  49.85700 28.27500 25.09000
H  48.93900 26.31000 33.15700
H  46.60900 24.41900 33.15500
H  49.29300 24.25100 33.87200
H  49.21400 23.09600 32.56800
H  48.16500 22.93000 33.97900
H  46.56200 27.65800 32.65600
H  47.78000 27.87900 33.85300
H  46.55900 25.69000 34.99200
H  45.25700 26.49600 34.17100
H  46.41500 19.74200 29.65600
H  44.61900 20.24700 29.31300
H  45.30700 20.89400 30.56800
H  45.78700 18.77300 27.59600
H  44.87200 18.53800 26.07300
H  44.09600 19.30400 27.48000
H  47.08600 24.67800 23.20500
H  49.74300 26.21400 23.48000
H  49.72500 24.19200 22.46500
H  48.34600 23.14600 22.31200
H  49.38600 23.01500 23.81600
H  47.86400 28.18500 23.48900
H  47.06200 26.87500 22.50700
H  48.96300 28.87700 21.70900
H  47.87400 27.83900 20.87700
H  49.53900 27.28300 21.20500
H  49.90500 30.98400 26.27200
H  51.45600 30.11800 26.62400
H  50.71100 31.17500 27.82300
H  48.44100 29.18300 32.05200
H  50.83300 28.03000 35.05200
H  51.36800 29.74000 35.22500
H  52.28900 28.64400 34.16600
Mg 29.84700 57.67400 40.25400
C  27.11300 55.65300 39.15800
C  32.01600 55.34700 39.48100
C  32.32400 60.04900 40.59300
C  27.49500 60.04800 41.27800
N  29.59900 55.86400 39.28600
C  28.40900 55.13500 39.08800
C  28.70000 53.65700 38.65300
C  30.27000 53.64200 38.72400
C  30.67100 55.06800 39.22500
C  30.81300 52.49500 39.71100
C  28.01100 53.13100 37.42800
C  27.61100 54.07700 36.24100
H  28.38300 54.02100 34.97500
N  31.96400 57.66300 40.00300
C  32.66500 56.55500 39.77700
C  34.09300 56.78300 39.74100
C  34.25200 58.11000 40.18800
C  32.83000 58.72400 40.27400
C  35.08600 55.72100 39.44500
C  35.60400 58.79600 40.46900
O  36.64300 58.09700 40.41400
C  35.66000 60.15000 40.79600
N  29.80900 59.76700 40.80600
C  31.01400 60.50100 40.86200
C  30.69100 61.91600 41.30900
C  29.16100 61.86000 41.54900
C  28.75200 60.41900 41.28700
C  31.43200 62.38200 42.59500
C  28.44000 62.91200 40.71500
C  27.28800 63.73700 41.42500
N  27.66700 57.87700 40.18700
C  26.88700 58.92700 40.64800
C  25.56300 58.66300 40.39100
C  25.55300 57.34400 39.84100
C  26.87400 56.93000 39.74300
C  24.38200 59.51700 40.72700
C  24.71300 56.22600 39.34600
O  23.48900 56.20700 39.28000
C  25.66600 55.10800 38.87700
C  25.25400 53.78600 39.63500
O  25.70800 53.39500 40.70000
O  24.22400 53.18900 38.93500
C  23.82200 51.92500 39.52400
H  32.69500 54.50600 39.32900
H  33.11900 60.76700 40.80400
H  26.79500 60.74000 41.75200
H  28.33600 52.97800 39.42400
H  30.84500 53.34500 37.84700
H  30.94200 52.79400 40.75100
H  31.78100 52.22400 39.29000
H  30.15700 51.63100 39.81600
H  27.15100 52.54900 37.76000
H  28.73100 52.43200 37.00400
H  27.76100 55.09700 36.59300
H  26.54100 54.06500 36.03500
H  36.10400 56.09700 39.33700
H  34.97900 55.12500 38.53900
H  35.02300 54.97200 40.23400
H  36.74000 60.29200 40.76700
H  35.11500 60.30400 41.72800
H  35.21500 60.83400 40.07300
H  30.97600 62.56800 40.48300
H  28.91200 62.06200 42.59100
H  32.25900 61.69700 42.78300
H  30.76300 62.43700 43.45400
H  31.88700 63.36100 42.44300
H  27.85100 62.35700 39.98400
H  29.15900 63.58000 40.24100
H  27.42900 63.55900 42.49100
H  26.24900 63.48500 41.21400
H  27.46800 64.78600 41.19300
H  23.60400 58.80500 40.99900
H  24.04100 60.14000 39.90000
H  24.60000 59.98700 41.68600
H  25.58700 55.00900 37.79400
H  24.70700 51.28900 39.50600
H  23.08600 51.39000 38.92500
H  23.56200 52.09500 40.56900

