158

Mg 42.00500 40.68500 27.32900
C  41.44000 43.30000 29.75600
C  42.67800 38.54000 30.04800
C  42.64900 38.21800 25.27400
C  41.59900 43.02400 24.90600
N  41.88200 40.87500 29.65400
C  41.61800 42.01100 30.35500
C  41.72300 41.71100 31.80000
C  42.32700 40.24700 31.92000
C  42.29100 39.81800 30.45600
C  43.81200 40.28600 32.56200
C  40.38500 41.92500 32.56200
C  40.29800 42.82500 33.75900
H  39.45800 42.15700 35.00000
N  42.59800 38.68700 27.59200
C  42.84200 38.01500 28.77400
C  43.21100 36.65000 28.44500
C  43.18300 36.50100 27.07200
C  42.78300 37.83700 26.60600
C  43.54300 35.60100 29.52200
C  43.34500 35.22600 26.24700
O  43.22900 35.18300 25.02700
C  43.48400 33.97300 26.91800
N  42.08600 40.65600 25.41100
C  42.39100 39.51900 24.69100
C  42.33500 39.68400 23.22400
C  41.67500 41.12500 23.13300
C  41.85900 41.67600 24.55200
C  43.73100 39.55600 22.62600
C  40.26900 41.27000 22.42900
C  39.03500 40.99200 23.31000
N  41.63400 42.73300 27.27300
C  41.43200 43.57600 26.16600
C  41.13800 44.92500 26.55100
C  41.10400 44.85600 27.97900
C  41.42700 43.49700 28.31000
C  40.78700 45.98500 25.60500
C  40.98000 45.60400 29.23600
O  40.79800 46.78600 29.27900
C  41.04700 44.63700 30.42300
C  42.10200 45.09600 31.35600
O  43.30900 44.98200 31.38100
O  41.31200 45.68800 32.33300
C  41.99700 46.19700 33.45500
H  42.84800 37.86500 30.89000
H  42.75000 37.30500 24.68400
H  41.69900 43.72000 24.07000
H  42.41300 42.45700 32.19500
H  41.70800 39.53800 32.46900
H  43.99700 41.21600 33.10000
H  44.42600 40.37600 31.66600
H  44.05000 39.42900 33.19200
H  39.97800 40.99400 32.95600
H  39.67600 42.17000 31.77100
H  39.78500 43.73800 33.45600
H  41.31700 43.07500 34.05500
H  44.62000 35.44200 29.47000
H  43.03600 34.65000 29.36000
H  43.32300 35.95000 30.53100
H  42.63300 33.74500 27.55900
H  44.45500 33.97100 27.41200
H  43.45700 33.27000 26.08500
H  41.61000 38.97000 22.83100
H  42.38300 41.69900 22.53600
H  44.38600 38.97900 23.27900
H  44.13200 40.51800 22.30600
H  43.53200 39.07700 21.66800
H  40.20700 40.70200 21.50000
H  40.22800 42.31100 22.10900
H  38.32000 40.23800 22.98200
H  38.46400 41.91100 23.44600
H  39.35400 40.78700 24.33200
H  40.52800 45.58500 24.62500
H  41.72600 46.53800 25.60300
H  40.07700 46.66600 26.07300
H  40.08900 44.40900 30.89100
H  41.47000 46.99400 33.97900
H  43.05600 46.38700 33.27900
H  41.85900 45.37300 34.15500
Mg -2.66300 35.04200 26.85200
C  -4.52300 33.47400 29.21300
C  -1.83100 37.50700 29.09600
C  -0.64400 36.44900 24.52400
C  -3.93400 32.98000 24.41800
N  -3.20300 35.45200 28.88200
C  -3.91200 34.60200 29.69500
C  -3.85700 35.10400 31.16300
C  -3.42300 36.58200 30.98200
C  -2.73900 36.53400 29.53900
C  -4.57600 37.58500 30.95900
C  -2.88100 34.28900 32.11000
C  -3.41000 33.70100 33.38600
H  -2.52500 33.59000 34.67100
N  -1.39100 36.74300 26.82300
C  -1.13000 37.59200 27.85400
C  -0.04900 38.44000 27.50100
C  0.33000 38.15200 26.17600
C  -0.53700 37.07200 25.76500
C  0.38700 39.51100 28.47600
C  1.31900 38.78700 25.20700
O  1.57000 38.21700 24.16800
C  1.96200 40.07500 25.55400
N  -2.38200 34.83400 24.70100
C  -1.39500 35.47100 24.06000
C  -1.18600 34.87600 22.62100
C  -2.30100 33.72200 22.58800
C  -2.92400 33.86800 24.01000
C  -1.36700 35.94800 21.48800
C  -1.73000 32.33600 22.19800
C  -2.70900 31.38100 21.46000
N  -4.09200 33.63000 26.75900
C  -4.54500 32.88100 25.68600
C  -5.49900 31.89600 26.18900
C  -5.45300 32.04900 27.58400
C  -4.58900 33.12100 27.83500
C  -6.14000 30.76700 25.43400
C  -5.91300 31.51400 28.83500
O  -6.51700 30.46500 29.07400
C  -5.31500 32.44800 29.97400
C  -6.45800 33.11600 30.69900
O  -7.20700 33.93300 30.23500
O  -6.64700 32.52200 31.91500
C  -7.49100 33.31400 32.78400
H  -1.42600 38.12200 29.90300
H  -0.00700 36.76300 23.69400
H  -4.31200 32.32100 23.63400
H  -4.91900 34.99500 31.38100
H  -2.67200 36.90600 31.70200
H  -5.43600 37.00500 31.29400
H  -4.68600 37.91300 29.92600
H  -4.57800 38.32300 31.76100
H  -2.00500 34.91700 32.27300
H  -2.54500 33.43100 31.52900
H  -3.76500 32.71400 33.09000
H  -4.34400 34.17400 33.69000
H  0.85600 39.23500 29.42000
H  -0.41000 40.18000 28.80000
H  1.01300 40.25600 27.98400
H  2.41800 40.40900 24.62200
H  2.67100 39.79500 26.33400
H  1.20000 40.76600 25.91500
H  -0.18300 34.44900 22.58900
H  -3.04600 33.98100 21.83400
H  -2.13500 36.56900 21.94800
H  -1.75800 35.46600 20.59200
H  -0.44800 36.47600 21.23200
H  -1.59600 31.78000 23.12600
H  -0.70000 32.35300 21.84300
H  -2.15900 30.90700 20.64800
H  -3.49200 32.05500 21.11100
H  -3.06300 30.58400 22.11300
H  -5.76500 30.81700 24.41200
H  -7.21700 30.69900 25.59100
H  -5.60400 29.95400 25.92300
H  -4.64800 31.88200 30.62400
H  -7.24100 34.37100 32.86900
H  -7.60100 32.87400 33.77500
H  -8.47700 33.31300 32.32000

