158

Mg 25.54100 -8.77000 47.62000
C  27.62400 -6.27400 46.32400
C  23.10500 -7.87900 45.29200
C  23.67100 -11.42100 48.72600
C  28.29100 -9.79400 49.59200
N  25.43600 -7.27800 45.98000
C  26.37900 -6.34400 45.64400
C  25.86500 -5.31500 44.61900
C  24.38800 -5.78500 44.47900
C  24.27300 -7.06200 45.23900
C  23.31900 -4.75200 44.85300
C  26.76300 -5.28400 43.30400
C  27.25100 -3.92300 42.87900
H  26.82700 -3.38200 41.47800
N  23.65100 -9.57100 47.13200
C  22.80200 -9.00000 46.16200
C  21.59000 -9.75600 46.15200
C  21.74800 -10.78200 47.10800
C  23.04700 -10.66000 47.70900
C  20.42200 -9.60300 45.26300
C  20.74100 -11.98800 47.36700
O  19.58600 -11.96300 46.91600
C  21.24800 -13.15700 48.10700
N  25.97500 -10.39900 48.69400
C  24.96500 -11.23300 49.19600
C  25.52700 -12.10400 50.36200
C  26.98100 -11.75300 50.49700
C  27.11700 -10.57100 49.52300
C  24.71000 -11.95200 51.64700
C  28.07900 -12.84200 50.32400
C  28.69800 -12.98300 48.91800
N  27.53400 -8.26600 47.89500
C  28.51900 -8.69100 48.70800
C  29.71900 -7.90800 48.55600
C  29.34100 -6.89600 47.68900
C  28.06800 -7.18800 47.22000
C  31.05600 -7.89500 49.29300
C  29.74300 -5.61300 47.18100
O  30.70100 -4.95600 47.46000
C  28.65300 -5.22900 46.19700
C  28.21900 -3.87700 46.53100
O  27.43500 -3.51800 47.37900
O  28.72300 -3.04800 45.56800
C  28.37400 -1.63300 45.71100
H  22.26100 -7.61100 44.65300
H  23.21500 -12.18700 49.35700
H  29.07200 -10.20300 50.23700
H  25.92600 -4.35500 45.13100
H  24.15000 -6.09200 43.46100
H  23.69000 -3.87100 45.37700
H  22.50100 -5.13600 45.46300
H  22.93500 -4.31500 43.93100
H  26.06200 -5.63000 42.54500
H  27.57200 -6.01400 43.29600
H  28.33900 -3.98400 42.86100
H  27.02700 -3.10600 43.56500
H  20.44400 -8.63800 44.75800
H  19.49200 -9.72700 45.81700
H  20.47200 -10.34000 44.46200
H  22.17100 -13.47100 47.62100
H  20.57400 -14.00200 47.96500
H  21.31600 -12.86800 49.15500
H  25.39600 -13.13900 50.04500
H  27.22300 -11.42200 51.50700
H  24.44900 -12.98400 51.88500
H  23.79200 -11.39900 51.44900
H  25.21500 -11.59600 52.54500
H  27.61800 -13.79300 50.58900
H  28.90100 -12.55500 50.98000
H  28.18700 -12.33100 48.21000
H  28.55000 -14.04900 48.74200
H  29.77200 -12.80000 48.90100
H  31.89100 -7.90600 48.59200
H  31.10800 -8.84200 49.83100
H  31.06100 -7.03000 49.95500
H  29.04800 -5.12500 45.18600
H  28.27100 -1.27300 46.73500
H  27.49300 -1.38400 45.12000
H  29.16500 -1.00900 45.29500
Mg 47.63000 46.71800 44.50700
C  44.26500 46.29100 43.17800
C  48.49500 43.77500 43.09000
C  50.76300 47.65900 44.95100
C  46.47600 50.16300 45.15700
N  46.45900 45.25900 43.13500
C  45.15500 45.30100 42.74100
C  44.89400 43.95200 41.95600
C  46.13100 43.07300 42.19700
C  47.14500 44.10400 42.82700
C  45.90500 41.84900 43.09400
C  44.47800 44.19700 40.46400
C  43.07500 43.62800 39.95400
H  42.96900 42.31600 39.16000
N  49.40600 45.77300 44.24700
C  49.57600 44.51900 43.73000
C  50.99900 44.14600 43.90200
C  51.69800 45.31100 44.43600
C  50.65900 46.32600 44.53500
C  51.51000 42.81000 43.58300
C  53.21600 45.32000 44.74000
O  53.87200 44.28700 44.66600
C  53.85500 46.68600 44.95700
N  48.47100 48.64500 44.85800
C  49.84300 48.73800 44.95600
C  50.23000 50.14200 45.59800
C  48.85300 50.88200 45.72100
C  47.86400 49.83200 45.19700
C  50.91700 50.08100 46.97900
C  48.73900 52.24500 44.97900
C  48.45500 53.49600 45.82600
N  45.76500 47.90900 44.33000
C  45.52800 49.27300 44.61400
C  44.11700 49.48100 44.58400
C  43.52100 48.39600 43.95000
C  44.59100 47.49100 43.82300
C  43.43800 50.63500 45.16200
C  42.27800 47.69200 43.53500
O  41.11100 48.06000 43.56000
C  42.74900 46.26300 43.10000
C  42.18200 45.19700 43.94300
O  41.67800 44.18900 43.45900
O  42.23200 45.29500 45.27700
C  41.99000 44.11300 46.16700
H  48.79300 42.75100 42.85600
H  51.75300 48.02900 45.22400
H  46.15900 51.09400 45.63100
H  44.07600 43.43100 42.45200
H  46.59700 42.68300 41.29200
H  45.10700 41.15100 42.84100
H  45.65100 42.29700 44.05500
H  46.76000 41.18700 43.23200
H  45.25500 43.84900 39.78500
H  44.35700 45.28000 40.43200
H  42.88400 44.42800 39.24000
H  42.28500 43.68200 40.70400
H  51.80800 42.44000 44.56400
H  52.40400 42.91600 42.96800
H  50.81900 42.17400 43.03000
H  53.73800 47.43300 44.17200
H  54.91200 46.48800 45.13500
H  53.55300 47.05000 45.93900
H  50.83500 50.72900 44.90700
H  48.56500 50.94100 46.77000
H  51.93800 50.46100 46.93300
H  50.80700 49.05800 47.33700
H  50.45000 50.73000 47.72000
H  47.94800 52.24300 44.22900
H  49.66500 52.50600 44.46700
H  48.15700 53.22300 46.83800
H  47.74800 54.12600 45.28600
H  49.38100 54.04800 45.98800
H  43.89800 50.93400 46.10400
H  42.40600 50.31900 45.31100
H  43.29900 51.50200 44.51600
H  42.38300 46.03200 42.10000
H  40.99400 44.31000 46.56500
H  42.75800 43.93200 46.91900
H  41.80600 43.16800 45.65800

