158

Mg 54.79100 23.38400 45.29100
C  52.34400 25.71600 44.27300
C  52.65600 20.90300 44.32700
C  57.23400 21.22200 45.89300
C  56.87400 26.03200 46.26300
N  52.87500 23.35300 44.12000
C  51.95400 24.42300 44.03900
C  50.58500 23.89000 43.40400
C  50.58500 22.43700 43.94500
C  52.13800 22.21700 44.09600
C  49.87400 22.18900 45.22100
C  50.39900 24.13000 41.87200
C  49.05200 24.63600 41.40000
H  48.50700 23.98100 40.14200
N  54.88800 21.29600 45.09000
C  53.93500 20.39600 44.72900
C  54.44100 19.05200 44.80200
C  55.76200 19.11800 45.17700
C  56.01700 20.58400 45.45600
C  53.58900 17.86400 44.55100
C  56.73500 17.95400 45.46900
O  56.38000 16.75700 45.38600
C  58.18300 18.15300 45.84700
N  56.79400 23.64100 45.74600
C  57.53400 22.53600 46.09200
C  58.93600 22.92600 46.50500
C  58.83500 24.48500 46.47000
C  57.39800 24.78500 46.25500
C  59.39700 22.41900 47.92700
C  59.75300 25.23900 45.45500
C  60.79800 26.24200 46.06900
N  54.70000 25.50700 45.22900
C  55.59100 26.37300 45.74900
C  54.99400 27.73100 45.62600
C  53.69700 27.47200 44.99700
C  53.62000 26.09800 44.79500
C  55.54600 29.06400 46.04000
C  52.45100 28.11700 44.58100
O  52.09800 29.26400 44.72100
C  51.67000 26.97400 43.91500
C  51.69100 27.21300 42.48600
O  52.54800 26.90200 41.67700
O  50.57000 27.98100 42.22200
C  50.44900 28.35900 40.80900
H  51.90200 20.11400 44.30300
H  58.05200 20.54900 46.16000
H  57.55500 26.86200 46.45900
H  49.82400 24.40400 43.99200
H  50.23200 21.73600 43.18900
H  48.98100 22.79400 45.37400
H  50.50200 22.39200 46.08900
H  49.46600 21.18000 45.27200
H  50.72300 23.16400 41.48500
H  51.16300 24.82400 41.52000
H  49.17100 25.67100 41.08000
H  48.34500 24.52200 42.22200
H  52.69300 18.04800 45.14400
H  54.03300 16.98500 45.01800
H  53.38000 17.76000 43.48600
H  58.77600 18.77700 45.17900
H  58.68300 17.22000 46.10800
H  58.15900 18.57400 46.85200
H  59.58500 22.56600 45.70700
H  59.12200 24.60400 47.51400
H  59.29100 23.12800 48.74800
H  60.40200 22.01000 47.82800
H  58.78900 21.53900 48.13700
H  59.14800 25.73500 44.69600
H  60.31100 24.44700 44.95400
H  61.78600 26.08000 45.63600
H  60.74400 26.09100 47.14700
H  60.46400 27.24200 45.79200
H  56.57300 29.21700 45.71100
H  55.48000 29.17700 47.12200
H  54.94200 29.87900 45.64000
H  50.66200 27.01200 44.32700
H  50.33100 29.43200 40.65600
H  49.60600 27.77800 40.43400
H  51.32500 28.29600 40.16300
Mg 30.95100 57.68600 40.11300
C  28.51900 55.34900 39.01100
C  33.29800 55.27200 39.64200
C  33.25500 60.07500 40.25600
C  28.39400 60.12800 40.13000
N  30.85600 55.49000 39.35200
C  29.80300 54.82600 38.90800
C  30.29800 53.43000 38.41600
C  31.71400 53.25700 39.03700
C  32.00900 54.77900 39.38600
C  31.94400 52.18800 40.14900
C  30.22900 53.27100 36.80700
C  28.97700 52.49400 36.28400
H  28.08300 53.18600 35.15900
N  32.95500 57.63000 40.03600
C  33.75600 56.54600 39.86700
C  35.14300 56.93700 39.84800
C  35.21000 58.26600 40.10800
C  33.75700 58.73400 40.17700
C  36.34000 55.92200 39.61700
C  36.43400 59.08100 40.34300
O  37.52600 58.51700 40.40200
C  36.34200 60.52400 40.70700
N  30.80900 59.93200 40.05500
C  31.93000 60.60200 40.28000
C  31.55800 62.13900 40.54300
C  29.98700 62.11900 40.77900
C  29.67100 60.66200 40.35700
C  32.30000 62.97800 41.60800
C  29.18000 63.26500 40.09300
C  28.04200 63.86500 40.97900
N  28.84000 57.82500 39.73100
C  27.92900 58.86900 39.91800
C  26.62800 58.40300 39.39100
C  26.79200 56.98800 39.19200
C  28.14500 56.65600 39.41900
C  25.44600 59.25100 39.02600
C  26.13400 55.80500 38.79500
O  24.93900 55.65100 38.62100
C  27.22200 54.63900 38.66100
C  26.86800 53.36400 39.34900
O  27.13500 53.17000 40.49600
O  26.18300 52.41900 38.63400
C  25.70300 51.29300 39.32500
H  34.06900 54.50300 39.55600
H  34.09400 60.75600 40.41300
H  27.64500 60.92100 40.17900
H  29.65600 52.72600 38.94600
H  32.43400 53.08600 38.23600
H  32.44600 52.59000 41.02900
H  32.59300 51.38900 39.78900
H  31.00100 51.70200 40.39800
H  31.08300 52.64700 36.54200
H  30.32700 54.24500 36.32800
H  28.27600 52.31200 37.09800
H  29.32600 51.56300 35.83500
H  37.18100 56.42600 39.14000
H  36.12200 54.99300 39.08900
H  36.58800 55.51900 40.59900
H  37.26200 60.93400 41.12200
H  35.65300 60.56800 41.55100
H  36.03200 61.17000 39.88600
H  31.68600 62.69800 39.61600
H  29.83500 62.06500 41.85700
H  32.77500 62.28800 42.30500
H  31.56500 63.51100 42.21200
H  32.96900 63.69400 41.13000
H  28.58800 62.80500 39.30100
H  29.77300 64.07000 39.66000
H  28.06900 64.95400 41.02100
H  28.15000 63.50400 42.00200
H  27.09300 63.67600 40.47800
H  24.63300 59.26900 39.75200
H  24.96600 58.72400 38.20100
H  25.61900 60.29200 38.75200
H  27.12300 54.53000 37.58100
H  24.99400 50.72400 38.72300
H  25.19800 51.71900 40.19300
H  26.54900 50.69900 39.67100

