158

Mg 42.90800 42.19400 25.77300
C  42.19200 44.43400 28.36500
C  44.13800 40.11900 28.26500
C  44.02200 40.27400 23.39700
C  42.41400 44.81300 23.52700
N  43.04000 42.29600 28.10200
C  42.66300 43.31100 28.91200
C  42.91000 42.92100 30.43500
C  43.82600 41.68100 30.29600
C  43.60100 41.28900 28.79400
C  45.35300 41.84300 30.62500
C  41.57100 42.69100 31.16700
C  41.83700 42.11600 32.63800
H  41.13100 42.81800 33.86400
N  43.82300 40.31700 25.81400
C  44.20400 39.57700 26.93800
C  44.75400 38.29900 26.49600
C  44.56500 38.36000 25.07400
C  44.12200 39.64900 24.69300
C  45.20000 37.26800 27.45100
C  44.81100 37.19300 24.10100
O  44.69800 37.27800 22.88400
C  45.28800 35.88800 24.64300
N  43.22400 42.50600 23.74500
C  43.72900 41.61400 22.97900
C  43.58500 41.96500 21.49200
C  42.84500 43.31200 21.55900
C  42.81200 43.55700 23.05400
C  44.89000 41.88100 20.62000
C  41.42700 43.44600 20.86600
C  40.07300 43.17800 21.49500
N  42.32200 44.19000 25.85900
C  42.16800 45.09500 24.83500
C  41.58000 46.35200 25.37000
C  41.41800 46.02800 26.74400
C  42.04500 44.76100 26.98700
C  41.35800 47.66400 24.66700
C  41.23400 46.67500 28.07500
O  40.96500 47.85600 28.30700
C  41.69600 45.64500 29.13100
C  42.77200 46.20000 30.02000
O  43.96900 46.11800 29.75300
O  42.17900 46.69800 31.16100
C  43.12900 47.23600 32.16300
H  44.50200 39.43100 29.03000
H  44.23500 39.61100 22.55600
H  42.23800 45.61100 22.80400
H  43.38800 43.78600 30.89300
H  43.50300 40.85200 30.92500
H  45.66700 42.87100 30.80700
H  45.95300 41.44500 29.80700
H  45.53100 41.38600 31.59800
H  40.95500 42.04500 30.54200
H  41.21700 43.72100 31.12600
H  42.88100 41.97100 32.91400
H  41.45800 41.09400 32.62100
H  45.39500 37.64800 28.45400
H  46.05600 36.67200 27.13600
H  44.35100 36.58500 27.48600
H  45.42300 35.12800 23.87300
H  44.63400 35.44900 25.39700
H  46.28000 36.04300 25.06700
H  42.94900 41.17400 21.09600
H  43.40700 44.14400 21.13400
H  45.13900 42.91700 20.39000
H  44.65900 41.44900 19.64600
H  45.75200 41.39800 21.08200
H  41.36400 42.76100 20.02000
H  41.42300 44.48400 20.53300
H  39.53500 42.45000 20.88800
H  39.47500 44.07200 21.67200
H  40.05200 42.69400 22.47200
H  42.19600 48.35600 24.74900
H  40.48700 48.14200 25.11400
H  41.16800 47.45300 23.61400
H  40.77300 45.42000 29.66600
H  44.02400 47.65800 31.70500
H  43.35000 46.46300 32.90000
H  42.60300 48.11600 32.53300
Mg -11.56200 16.23500 41.24100
C  -8.48100 14.65800 40.76100
C  -10.12800 19.13500 39.74500
C  -14.62500 17.58000 41.04100
C  -13.00900 13.05600 41.59300
N  -9.47500 16.79100 40.15600
C  -8.33000 16.00200 40.32000
C  -7.12400 16.69500 39.73800
C  -7.65200 18.15600 39.52300
C  -9.20700 18.05200 39.89100
C  -6.82100 19.21100 40.38700
C  -6.63700 16.00100 38.43600
C  -5.10400 16.31200 37.99800
H  -5.11900 17.03400 36.57000
N  -12.22700 18.10200 40.72300
C  -11.50000 19.16300 40.17900
C  -12.34900 20.35800 40.19900
C  -13.69200 19.96100 40.58000
C  -13.56500 18.48900 40.88300
C  -11.89400 21.79100 39.76000
C  -14.89500 20.84300 40.49500
O  -14.79300 22.03000 40.25500
C  -16.16600 20.38100 41.11600
N  -13.55400 15.38600 41.36800
C  -14.57800 16.17300 41.18200
C  -15.88200 15.33900 41.34500
C  -15.35700 13.92300 41.28400
C  -13.87000 14.09300 41.42900
C  -16.65200 15.79100 42.61600
C  -15.60900 13.17700 39.92900
C  -16.53300 11.88000 39.91900
N  -10.90000 14.30000 41.38900
C  -11.59500 13.11400 41.52700
C  -10.60400 12.03700 41.78900
C  -9.35700 12.60300 41.48100
C  -9.65100 13.98400 41.18700
C  -10.90000 10.54300 41.99400
C  -8.02200 12.32200 41.30800
O  -7.46300 11.25000 41.45100
C  -7.36800 13.63300 40.96700
C  -6.46800 14.06400 42.07300
O  -6.76900 14.44900 43.17800
O  -5.14100 13.75100 41.66600
C  -4.13900 13.75800 42.73600
H  -9.66100 20.10900 39.58500
H  -15.63100 18.00400 41.07600
H  -13.46500 12.07800 41.75700
H  -6.36600 16.65200 40.52000
H  -7.63600 18.42600 38.46700
H  -6.46600 19.95300 39.67200
H  -6.15100 18.68700 41.06800
H  -7.53100 19.67600 41.07200
H  -7.27800 16.38800 37.64400
H  -6.90400 14.94500 38.40200
H  -4.53700 15.39300 37.84800
H  -4.73000 16.99800 38.75800
H  -12.56900 21.91500 38.91400
H  -10.82600 21.79800 39.54100
H  -12.14300 22.57500 40.47600
H  -16.75200 21.26300 41.37300
H  -16.02100 19.89600 42.08200
H  -16.79800 19.80400 40.44200
H  -16.43700 15.61900 40.44900
H  -15.72700 13.43300 42.18400
H  -16.71200 16.87700 42.67700
H  -16.06600 15.42500 43.46000
H  -17.64100 15.33400 42.64700
H  -14.69300 12.80000 39.47500
H  -16.19900 13.81900 39.27400
H  -15.96100 10.97300 39.72800
H  -17.36100 11.89300 39.21000
H  -16.95200 11.73100 40.91400
H  -11.40300 10.11500 41.12700
H  -11.57800 10.39500 42.83400
H  -9.93100 10.06800 42.14600
H  -6.71900 13.50400 40.10000
H  -4.39000 12.95700 43.43100
H  -4.08800 14.67200 43.32900
H  -3.11300 13.62100 42.39300

