158

Mg 46.81400 24.77800 28.40200
C  47.23900 26.68900 31.29500
C  46.00000 22.08200 30.47400
C  47.04600 22.80900 25.79100
C  47.88100 27.40800 26.47300
N  46.61600 24.41000 30.65300
C  46.80000 25.39200 31.54500
C  46.37200 24.84300 32.97900
C  46.04300 23.37600 32.69800
C  46.17500 23.26700 31.20100
C  46.98000 22.31500 33.45500
C  45.20200 25.62800 33.59700
C  45.49800 26.24800 34.96100
H  44.37800 26.43400 35.98600
N  46.52700 22.74500 28.18600
C  46.20500 21.78800 29.08500
C  46.04400 20.41100 28.42900
C  46.17700 20.68500 27.03000
C  46.64000 22.13100 26.96800
C  45.66800 19.11300 29.14200
C  45.95400 19.83200 25.87000
O  46.20900 20.20600 24.71300
C  45.74300 18.39600 26.14100
N  47.40600 25.10300 26.43000
C  47.37100 24.13900 25.52800
C  47.70900 24.63400 24.09000
C  47.55100 26.15600 24.32600
C  47.57100 26.26000 25.79100
C  49.09400 24.32800 23.56800
C  46.31600 26.89000 23.70700
C  46.54700 28.15700 22.77500
N  47.46500 26.60700 28.76600
C  47.81000 27.61300 27.89400
C  48.35800 28.77300 28.65600
C  48.12400 28.42700 29.94200
C  47.59500 27.10600 29.98700
C  48.65300 30.11400 28.22200
C  48.27500 28.94000 31.34700
O  48.77400 29.97500 31.75400
C  47.72500 27.80300 32.24300
C  48.84600 27.33400 33.15800
O  49.77900 26.65200 32.81700
O  48.61600 27.83200 34.46400
C  49.56000 27.69200 35.51200
H  45.75100 21.20300 31.07200
H  47.25800 22.18200 24.92300
H  48.20300 28.31400 25.95600
H  47.27200 24.70000 33.57600
H  44.98000 23.22000 32.88100
H  46.84200 22.51800 34.51700
H  47.98200 22.49400 33.06500
H  46.61700 21.30100 33.28900
H  44.30300 25.03600 33.77200
H  44.84300 26.40700 32.92400
H  46.06800 27.16200 34.79700
H  46.17000 25.54400 35.45200
H  44.67500 18.88300 28.75500
H  45.54300 19.19800 30.22200
H  46.45600 18.38600 28.94400
H  44.75500 18.27100 26.58400
H  46.57400 17.91500 26.65700
H  45.68200 17.87800 25.18300
H  47.02600 24.31600 23.30200
H  48.31100 26.66200 23.73100
H  48.90800 23.52500 22.85500
H  49.64900 23.85200 24.37700
H  49.61800 25.15800 23.09400
H  45.71100 27.23900 24.54400
H  45.78800 26.13700 23.12300
H  47.62300 28.28100 22.66100
H  46.02800 29.02200 23.18900
H  46.03800 27.90800 21.84400
H  48.85500 30.04600 27.15300
H  49.57300 30.14200 28.80600
H  47.84900 30.80400 28.47900
H  46.87200 28.20100 32.79300
H  49.81300 28.69700 35.85100
H  50.54000 27.27700 35.27600
H  49.27000 27.18100 36.43000
Mg 36.29500 49.53400 24.65700
C  36.46400 48.02200 27.81300
C  35.46700 52.56000 26.34500
C  36.02800 50.98900 21.64800
C  36.94900 46.38300 23.14300
N  35.91600 50.18000 26.81300
C  36.10300 49.38900 27.94200
C  35.73400 50.18500 29.19900
C  35.50800 51.64900 28.70400
C  35.63100 51.45200 27.16300
C  34.25500 52.36000 29.17700
C  36.64700 50.02600 30.49700
C  35.96000 49.65500 31.84700
H  34.43400 49.98400 32.05300
N  35.78600 51.51100 24.04400
C  35.54400 52.56600 24.87400
C  35.28100 53.70900 23.95100
C  35.37200 53.22200 22.62600
C  35.76900 51.84700 22.71000
C  35.00800 55.09700 24.48200
C  35.31500 54.10500 21.42100
O  35.44800 53.63100 20.31500
C  35.18700 55.59800 21.47500
N  36.44600 48.81600 22.65900
C  36.24900 49.63800 21.61700
C  36.38200 48.78800 20.30500
C  36.82300 47.34600 20.77000
C  36.80600 47.53600 22.25800
C  35.11500 48.74500 19.45400
C  38.29100 47.03100 20.37100
C  38.48600 45.58200 19.80500
N  36.65100 47.69300 25.24500
C  36.85200 46.47400 24.52700
C  36.92700 45.40500 25.41700
C  36.81100 45.99700 26.69400
C  36.64100 47.39100 26.55000
C  37.06200 43.92900 25.13500
C  36.83800 45.66000 28.12100
O  37.03800 44.62700 28.70300
C  36.44800 46.93300 28.85700
C  35.13800 46.77600 29.50700
O  34.07100 47.21500 29.14600
O  35.27800 45.96200 30.61500
C  34.08700 45.54400 31.27800
H  35.28000 53.49400 26.88000
H  35.91100 51.37900 20.63500
H  37.13300 45.37400 22.76800
H  34.74300 49.83700 29.49200
H  36.34300 52.30800 28.94400
H  33.54400 52.40300 28.35200
H  34.60900 53.30200 29.59500
H  33.81500 51.69000 29.91600
H  37.40900 50.80600 30.51100
H  37.23200 49.14200 30.24400
H  36.40900 50.21100 32.67000
H  36.14900 48.61600 32.11600
H  33.98900 55.28100 24.14100
H  35.73900 55.81200 24.10400
H  34.98900 55.07700 25.57100
H  34.33500 55.94900 22.05700
H  35.00800 55.96200 20.46300
H  36.02400 56.14800 21.90500
H  37.14000 49.30600 19.71600
H  36.12300 46.58800 20.41700
H  34.48200 47.92000 19.77900
H  35.62900 48.48300 18.52900
H  34.69200 49.74100 19.31900
H  38.81500 47.19100 21.31400
H  38.76500 47.73100 19.68300
H  37.62600 44.93200 19.97000
H  39.26600 45.08000 20.37700
H  38.71100 45.58100 18.73900
H  37.86900 43.68000 24.44600
H  36.17200 43.45600 24.72100
H  37.23100 43.36600 26.05300
H  37.17300 47.17800 29.63400
H  33.99100 46.19500 32.14700
H  34.25500 44.55400 31.70400
H  33.16200 45.63600 30.70900

