158

Mg 1.14900 8.30700 26.58600
C  1.78000 10.19000 29.34400
C  1.29400 5.47700 28.49800
C  1.30200 6.58900 23.73900
C  1.47100 11.36400 24.67500
N  1.64400 7.92400 28.64600
C  1.78300 8.83000 29.63400
C  1.54800 8.09900 31.00800
C  1.56800 6.60500 30.67800
C  1.44700 6.65200 29.18600
C  2.85200 5.88500 31.17100
C  0.21300 8.51000 31.69500
C  0.30600 8.58900 33.20700
H  1.48500 7.93000 33.96800
N  1.28000 6.29000 26.14400
C  1.26900 5.32200 27.09900
C  1.38000 3.99700 26.43300
C  1.44400 4.29500 25.02500
C  1.39900 5.77700 24.89600
C  1.26300 2.62100 27.11100
C  1.44300 3.40000 23.86600
O  1.45800 3.77100 22.72200
C  1.49500 1.90000 24.08700
N  1.18400 8.86300 24.60700
C  1.31400 8.00600 23.58400
C  1.54000 8.65600 22.26500
C  1.05700 10.09100 22.51800
C  1.25000 10.15400 24.00100
C  3.01800 8.52400 21.78700
C  -0.39800 10.52400 21.98000
C  -0.61500 12.02500 21.68600
N  1.42000 10.42500 26.90500
C  1.60300 11.50300 26.05800
C  1.94500 12.65500 26.84000
C  2.08200 12.14500 28.10900
C  1.74300 10.80400 28.12800
C  2.04400 14.04000 26.31800
C  2.32100 12.57300 29.43600
O  2.68000 13.61100 29.90300
C  1.85400 11.36300 30.34100
C  2.81600 11.21100 31.40200
O  3.98400 10.94900 31.23300
O  2.16600 11.39900 32.56900
C  2.81800 11.50900 33.87100
H  1.11600 4.50300 28.95800
H  1.19200 6.04800 22.79700
H  1.51800 12.24800 24.03600
H  2.38100 8.24300 31.69700
H  0.74400 6.00800 31.06900
H  2.58200 5.29000 32.04400
H  3.61700 6.57900 31.51900
H  3.17700 5.25700 30.34200
H  -0.54900 7.87400 31.24400
H  0.01300 9.56500 31.50600
H  -0.58400 8.14100 33.64800
H  0.38500 9.65500 33.42000
H  2.14000 2.00500 26.91500
H  0.39700 2.09600 26.70900
H  1.10900 2.62400 28.19000
H  2.27700 1.50600 24.73700
H  1.51100 1.30100 23.17700
H  0.55400 1.69300 24.59700
H  0.90800 8.21700 21.49300
H  1.84200 10.78600 22.22000
H  3.47700 7.94000 22.58400
H  3.52800 9.45400 21.53900
H  2.94800 7.89300 20.90000
H  -1.21900 10.26000 22.64700
H  -0.54200 9.88300 21.11100
H  -1.20500 12.03300 20.76900
H  0.36000 12.50000 21.58000
H  -1.20600 12.49600 22.47200
H  1.62800 14.39700 25.37600
H  3.11100 14.25400 26.24600
H  1.69700 14.70100 27.11200
H  0.84600 11.60500 30.67700
H  3.86000 11.19100 33.83200
H  2.20200 11.00900 34.61800
H  2.85100 12.54800 34.19700
Mg 9.37000 48.34100 25.73300
C  7.12600 49.09100 28.37300
C  11.92300 49.23500 27.69900
C  11.36200 47.88600 23.04300
C  6.54800 48.20000 23.57400
N  9.47300 49.18200 27.79000
C  8.46600 49.22300 28.73400
C  9.05800 49.46300 30.17200
C  10.53000 49.87700 29.81600
C  10.66900 49.36000 28.36900
C  10.88800 51.38800 29.91800
C  8.75000 48.21300 31.13900
C  9.78500 48.01700 32.27500
H  9.41600 47.07800 33.41000
N  11.37600 48.52700 25.40200
C  12.29500 48.87000 26.36800
C  13.61800 48.62700 25.87000
C  13.44400 48.13000 24.55000
C  12.04100 48.20400 24.22400
C  14.90700 48.90600 26.64300
C  14.53600 47.67200 23.61000
O  14.36900 47.18100 22.51100
C  15.98300 47.83300 24.03500
N  8.99100 47.93900 23.67400
C  10.01400 47.73500 22.76400
C  9.32900 47.30600 21.44300
C  7.81000 47.45300 21.65700
C  7.81000 48.01100 22.97000
C  9.90900 48.02400 20.21700
C  7.15600 46.16400 21.49300
C  7.44300 45.00600 22.44600
N  7.25000 48.54500 25.88800
C  6.24500 48.37700 24.95900
C  4.95000 48.49100 25.64000
C  5.31400 48.79700 26.99700
C  6.68200 48.77200 27.08600
C  3.56800 48.26400 25.01000
C  4.75400 49.13600 28.27400
O  3.60500 49.29000 28.65200
C  5.88500 49.13900 29.26700
C  5.54000 47.89000 30.15500
O  5.62300 46.72000 29.77800
O  5.05200 48.31500 31.34700
C  4.26800 47.26400 32.11500
H  12.76500 49.54900 28.31900
H  11.99000 47.79300 22.15500
H  5.70500 48.09300 22.88900
H  8.53900 50.31700 30.60700
H  11.19000 49.21000 30.37000
H  10.12000 51.94200 30.45800
H  10.90200 51.64300 28.85900
H  11.87000 51.48100 30.38200
H  8.82200 47.32000 30.51800
H  7.72000 48.19700 31.49400
H  10.05800 48.86300 32.90600
H  10.66500 47.48100 31.92100
H  14.71200 49.15700 27.68600
H  15.42100 49.80400 26.30100
H  15.66900 48.12700 26.60200
H  16.08900 47.05700 24.79300
H  16.18300 48.84500 24.39000
H  16.61100 47.68700 23.15700
H  9.67500 46.27400 21.38600
H  7.43500 48.13700 20.89500
H  10.45300 47.33800 19.56700
H  10.56900 48.82000 20.56300
H  9.11700 48.48400 19.62600
H  7.43800 45.84500 20.49000
H  6.07600 46.31000 21.45400
H  8.10900 44.37200 21.86300
H  6.49500 44.50400 22.64000
H  7.93400 45.32500 23.36600
H  2.82500 47.65300 25.52300
H  3.72800 47.85300 24.01400
H  3.21700 49.28400 24.85500
H  5.75900 50.02900 29.88400
H  3.44700 46.82600 31.54800
H  3.87900 47.64300 33.06000
H  4.98400 46.46900 32.32300

