158

Mg 55.28300 25.00300 44.03000
C  52.33500 26.73900 43.12800
C  53.97900 22.12600 42.79500
C  58.33600 23.51300 44.47200
C  56.71000 28.06800 45.27100
N  53.47400 24.59300 42.81100
C  52.42400 25.40800 42.62400
C  51.38900 24.70900 41.70400
C  51.66900 23.24500 42.14300
C  53.20800 23.27200 42.49600
C  50.77200 22.84700 43.37100
C  51.75400 24.90700 40.16400
C  50.54000 25.16900 39.24700
H  50.87600 25.90500 37.93400
N  56.01100 23.06200 43.79700
C  55.28200 22.04200 43.38300
C  56.00300 20.76800 43.50200
C  57.29600 21.13200 44.00300
C  57.28900 22.62800 44.09300
C  55.46400 19.44100 43.12900
C  58.43100 20.13400 44.30900
O  58.35000 18.94300 44.08500
C  59.75100 20.54700 44.98300
N  57.29100 25.71900 44.68300
C  58.38600 24.91000 44.70000
C  59.68500 25.71900 45.00900
C  59.09200 27.13000 45.33200
C  57.58300 26.98100 45.13600
C  60.55200 25.10500 46.11800
C  59.80200 28.31800 44.57500
C  60.03600 29.52900 45.56300
N  54.71000 27.06700 44.18100
C  55.34100 28.18600 44.75600
C  54.34200 29.25700 44.89700
C  53.18400 28.73900 44.22200
C  53.43200 27.41200 43.79400
C  54.71700 30.54700 45.57700
C  51.82900 29.09300 43.84600
O  51.12400 30.11100 43.95700
C  51.26300 27.76900 43.10000
C  50.81500 28.17900 41.72200
O  51.51000 28.27500 40.70600
O  49.46300 28.35400 41.79700
C  48.91400 28.71200 40.49400
H  53.60000 21.14800 42.49100
H  59.34200 23.09600 44.54900
H  57.12500 28.87000 45.88500
H  50.37800 25.07100 41.89200
H  51.46500 22.52700 41.34900
H  51.42500 22.80800 44.24300
H  50.42300 21.84100 43.14000
H  49.91000 23.48600 43.56300
H  52.21900 23.96300 39.87900
H  52.50900 25.68000 40.02000
H  49.78100 25.70500 39.81800
H  50.31500 24.18000 38.84700
H  55.42300 19.41200 42.04000
H  54.45600 19.57300 43.52200
H  55.93800 18.59400 43.62500
H  59.52400 21.09600 45.89700
H  60.24100 21.23300 44.29100
H  60.42100 19.71600 45.19900
H  60.39900 25.74100 44.18600
H  59.11800 27.37000 46.39500
H  60.01600 24.28600 46.59600
H  60.80900 25.84700 46.87400
H  61.48300 24.76000 45.66800
H  59.18300 28.52200 43.70200
H  60.78300 28.07100 44.16900
H  60.33800 30.45200 45.06800
H  60.85800 29.16900 46.18100
H  59.14300 29.69000 46.16700
H  55.61800 30.50700 46.19000
H  53.85600 30.80100 46.19500
H  54.94800 31.34300 44.87000
H  50.43200 27.31700 43.64100
H  48.20200 27.92100 40.25900
H  49.58500 28.74000 39.63600
H  48.46100 29.70200 40.55900
Mg 0.29600 43.67700 25.93000
C  2.47200 43.92600 28.67900
C  -2.16400 42.72700 28.14400
C  -1.62700 42.96500 23.29700
C  3.08900 43.97800 23.77100
N  0.16300 43.50000 28.14500
C  1.14700 43.76800 29.05400
C  0.64700 43.83600 30.47700
C  -0.83500 43.25100 30.39200
C  -0.99700 43.09400 28.81400
C  -1.17100 41.95100 31.22200
C  0.69000 45.22400 31.22500
C  0.81100 45.39000 32.81800
H  0.57800 44.08700 33.59800
N  -1.64100 42.98200 25.82300
C  -2.50700 42.70000 26.79000
C  -3.83600 42.29200 26.21000
C  -3.63400 42.23900 24.82200
C  -2.26600 42.74200 24.59200
C  -4.99900 42.10300 27.07400
C  -4.67200 41.84700 23.66000
O  -4.39100 41.74300 22.46000
C  -6.11400 41.46000 24.10500
N  0.69100 43.54000 23.88000
C  -0.31400 43.34400 23.05600
C  0.25100 43.44000 21.57100
C  1.67300 43.96600 21.70600
C  1.82900 43.80200 23.20900
C  0.08000 42.14300 20.72100
C  1.82300 45.44700 21.30700
C  1.20200 46.59700 22.17000
N  2.34300 44.03500 26.09900
C  3.33500 44.16600 25.12900
C  4.65900 44.30700 25.83800
C  4.43400 44.22200 27.19000
C  2.96500 44.02600 27.28600
C  6.00900 44.52200 25.16400
C  4.95100 44.16500 28.55100
O  6.10000 44.15500 29.02000
C  3.76900 44.08600 29.56100
C  4.06700 42.79500 30.26400
O  4.26500 41.67100 29.82600
O  3.95100 43.10200 31.63300
C  4.34000 42.01400 32.54600
H  -3.03600 42.45900 28.74300
H  -2.30000 42.93900 22.43800
H  3.72300 44.03100 22.88300
H  1.16600 43.05500 31.03200
H  -1.53100 44.04500 30.66300
H  -1.47900 41.23600 30.45900
H  -1.91500 42.14500 31.99500
H  -0.24100 41.59700 31.66600
H  -0.21600 45.76600 30.95300
H  1.52100 45.70300 30.70900
H  0.09900 46.15700 33.12300
H  1.84000 45.72800 32.94700
H  -5.88900 42.54300 26.62400
H  -4.87600 42.67000 27.99700
H  -5.25900 41.13400 27.50100
H  -5.94300 40.71400 24.88000
H  -6.57100 40.99600 23.23100
H  -6.61100 42.35300 24.48400
H  -0.24200 44.32800 21.17500
H  2.42300 43.41000 21.14400
H  -0.56400 41.41100 21.20800
H  0.98300 41.63700 20.37900
H  -0.49700 42.45900 19.85200
H  1.36400 45.44200 20.31800
H  2.86800 45.68500 21.11200
H  0.78600 46.24000 23.11100
H  0.43500 46.92100 21.46600
H  1.96600 47.36400 22.29700
H  6.54000 43.57100 25.20400
H  6.57300 45.22800 25.77300
H  5.82100 44.82500 24.13400
H  3.75700 44.98200 30.18100
H  5.39800 41.88000 32.31800
H  3.94900 41.03400 32.27200
H  4.16800 42.39500 33.55300

