158

Mg 49.80000 46.30600 41.98400
C  46.90500 48.06800 41.11700
C  48.56700 43.60300 40.26100
C  52.78200 44.89400 41.95500
C  51.20600 49.31800 43.17000
N  47.81600 45.88100 40.95200
C  46.79100 46.73000 40.72300
C  45.65500 46.01900 39.92800
C  46.33300 44.58400 39.75100
C  47.68900 44.63400 40.34200
C  45.47500 43.42600 40.26800
C  45.29900 46.71300 38.53300
C  43.97800 46.19000 37.88900
H  44.00500 45.02500 36.90100
N  50.49400 44.38100 41.43900
C  49.80700 43.41200 40.79900
C  50.64500 42.24100 40.65300
C  51.94700 42.61700 41.11000
C  51.78200 44.01200 41.57100
C  50.15800 40.85800 40.04000
C  53.09100 41.69100 41.24300
O  53.00500 40.49700 40.80200
C  54.37600 41.96400 41.95600
N  51.75700 47.08600 42.54900
C  52.84500 46.25200 42.36900
C  54.08800 47.07400 42.76800
C  53.58400 48.47100 43.18200
C  52.10000 48.30000 43.02900
C  55.08300 46.27700 43.65200
C  54.32600 49.72000 42.49700
C  55.71500 50.06700 43.16700
N  49.16000 48.27200 42.18600
C  49.88900 49.36000 42.69700
C  48.90600 50.50600 42.79600
C  47.76000 49.98200 42.21100
C  47.94100 48.63400 41.85800
C  49.09100 51.91200 43.31200
C  46.40900 50.31600 41.83000
O  45.76100 51.31200 41.95700
C  45.93600 49.12000 40.93900
C  44.67300 48.63300 41.45400
O  44.48900 48.14300 42.55100
O  43.73700 48.68700 40.47600
C  42.36400 48.42000 41.03400
H  48.11200 42.73500 39.77900
H  53.73500 44.36500 41.89000
H  51.66300 50.25700 43.49000
H  44.77400 46.05500 40.56800
H  46.42200 44.34500 38.69100
H  45.33300 42.73000 39.44100
H  44.49900 43.74800 40.63200
H  46.09100 42.90100 40.99900
H  46.12100 46.43400 37.87400
H  45.36900 47.79900 38.57700
H  43.46000 47.04300 37.45000
H  43.31500 45.80300 38.66200
H  50.78700 40.69100 39.16500
H  49.09400 40.80000 39.81200
H  50.25300 40.06900 40.78600
H  54.92500 41.02200 41.94400
H  54.15200 42.34200 42.95400
H  54.98000 42.62500 41.33600
H  54.62900 47.36600 41.86900
H  53.65800 48.61900 44.25900
H  54.48800 45.43800 44.01100
H  55.43400 46.81800 44.53000
H  55.85100 45.91800 42.96700
H  53.62200 50.54800 42.58500
H  54.53500 49.51500 41.44700
H  56.53900 50.11900 42.45600
H  55.96400 49.30200 43.90200
H  55.61300 51.02600 43.67500
H  50.01500 52.34500 42.92900
H  49.14300 51.85000 44.39900
H  48.29400 52.48700 42.84100
H  45.82400 49.49600 39.92200
H  42.24500 47.68100 41.82600
H  41.93300 47.92700 40.16200
H  41.91800 49.40200 41.19200
Mg 1.18200 42.62500 25.49800
C  2.09700 42.56500 29.06200
C  -1.61300 40.85200 26.46900
C  0.77100 41.77500 22.26900
C  4.27700 43.85200 24.82900
N  0.31300 41.96100 27.57900
C  0.80000 42.02600 28.82800
C  -0.19200 41.51700 29.90600
C  -1.22600 40.83200 28.94700
C  -0.77200 41.14000 27.55800
C  -1.34900 39.23600 29.13000
C  -0.76900 42.71900 30.74300
C  -0.85300 42.51700 32.25800
H  -1.42500 41.19400 32.83500
N  -0.35000 41.72500 24.45200
C  -1.45300 41.05000 25.03100
C  -2.32800 40.59700 23.97600
C  -1.65700 40.89300 22.70000
C  -0.31700 41.49800 23.06000
C  -3.68900 39.95400 24.31100
C  -2.05300 40.63300 21.26300
O  -1.35700 40.85300 20.27900
C  -3.48700 40.17300 20.98700
N  2.36500 42.69000 23.83200
C  1.98800 42.30300 22.61100
C  3.13500 42.50700 21.63300
C  4.04800 43.56200 22.33400
C  3.49900 43.46900 23.72800
C  3.82100 41.11300 21.27600
C  3.92400 45.05000 21.87200
C  2.50200 45.58400 21.77800
N  2.81100 43.26000 26.65400
C  4.06800 43.74600 26.22200
C  4.88800 44.00800 27.34200
C  4.15000 43.54200 28.45100
C  2.92000 43.08200 28.01200
C  6.28600 44.60700 27.30400
C  4.15700 43.36000 29.94500
O  5.02500 43.67400 30.76700
C  2.82400 42.70400 30.31500
C  3.03800 41.52400 31.08500
O  3.74800 40.57300 30.72800
O  2.28600 41.56800 32.22000
C  2.21700 40.38200 33.04700
H  -2.51200 40.36700 26.85500
H  0.75400 41.53000 21.20500
H  5.26800 44.16100 24.48900
H  0.26100 40.77700 30.56500
H  -2.21100 41.28500 29.06200
H  -2.39300 39.05700 29.38900
H  -0.72000 38.85100 29.93200
H  -1.14700 38.70400 28.20000
H  -1.74600 43.01200 30.35700
H  -0.15700 43.61000 30.60300
H  -1.53700 43.25900 32.67100
H  0.14800 42.74100 32.62600
H  -3.80800 39.35800 25.21600
H  -3.80600 39.22600 23.50900
H  -4.52100 40.65700 24.27100
H  -4.27400 40.60700 21.60400
H  -3.60600 39.09300 21.07400
H  -3.74200 40.39100 19.94900
H  2.79200 42.95200 20.69900
H  5.07400 43.19600 22.28800
H  3.15000 40.27200 21.44700
H  4.68800 41.01400 21.92900
H  4.11400 41.05800 20.22700
H  4.20100 44.91100 20.82700
H  4.78900 45.56500 22.28900
H  2.40700 45.78900 20.71100
H  2.42800 46.48600 22.38600
H  1.67400 44.96500 22.12200
H  6.33800 45.64800 26.98300
H  7.01300 44.01700 26.74600
H  6.69400 44.59200 28.31500
H  2.30700 43.38000 30.99600
H  2.10600 39.43000 32.52900
H  1.43800 40.47000 33.80500
H  3.14800 40.25700 33.60000

