158

Mg 17.33000 -0.54700 27.70500
C  15.97100 1.35800 30.31400
C  19.02900 -2.40400 29.97900
C  18.90600 -2.11500 25.13700
C  15.47200 1.34000 25.53900
N  17.36200 -0.54600 29.90300
C  16.80100 0.31300 30.78800
C  17.12500 -0.00800 32.22700
C  18.16900 -1.03700 32.10000
C  18.21200 -1.37700 30.58700
C  19.61100 -0.70600 32.66200
C  15.87700 -0.33300 33.08900
C  15.89200 0.27200 34.44000
H  17.22800 0.60700 34.98100
N  18.70700 -2.14100 27.55500
C  19.26100 -2.76800 28.62400
C  20.16200 -3.80700 28.16600
C  20.19200 -3.69100 26.76800
C  19.26400 -2.63400 26.42700
C  20.90000 -4.73400 29.17200
C  20.98300 -4.52000 25.71500
O  20.95300 -4.23200 24.49500
C  21.83600 -5.65100 26.17400
N  17.25200 -0.33000 25.66100
C  18.04000 -1.06500 24.80200
C  17.89400 -0.56600 23.35900
C  16.64100 0.32900 23.52600
C  16.38800 0.45700 24.98700
C  19.12600 0.13500 22.78200
C  15.33400 0.12800 22.66300
C  14.09500 -0.44400 23.33300
N  15.98400 1.06700 27.79800
C  15.27500 1.71400 26.84700
C  14.57200 2.85500 27.41500
C  14.86100 2.83500 28.81000
C  15.59200 1.60500 28.96200
C  13.58100 3.82300 26.76300
C  14.70400 3.48200 30.04000
O  14.06700 4.49500 30.34400
C  15.39600 2.51000 31.07600
C  16.37000 3.29400 31.91600
O  17.61800 3.31900 31.71300
O  15.74200 3.83100 33.03500
C  16.55000 4.58500 33.98100
H  19.63300 -2.90700 30.73700
H  19.39500 -2.58100 24.27900
H  14.91200 1.85200 24.75400
H  17.57200 0.92200 32.58000
H  17.84900 -1.94000 32.62000
H  19.88600 0.34600 32.72700
H  20.39400 -1.27200 32.15700
H  19.67500 -1.09100 33.68000
H  15.79200 -1.40200 33.28500
H  15.04300 0.08500 32.52600
H  15.38800 -0.49200 35.03000
H  15.13500 1.05500 34.38300
H  21.15200 -4.33100 30.15300
H  21.75800 -5.14100 28.63800
H  20.31700 -5.61900 29.42700
H  21.15900 -6.20200 26.82700
H  22.61200 -5.12800 26.73400
H  22.14100 -6.25200 25.31700
H  17.53600 -1.42000 22.78300
H  16.93100 1.30500 23.13900
H  19.87400 0.21700 23.57100
H  18.79200 1.13800 22.52000
H  19.44500 -0.40400 21.89000
H  15.55100 -0.66900 21.95300
H  15.01200 1.00600 22.10300
H  13.50500 0.37500 23.74300
H  14.35700 -1.21800 24.05400
H  13.50600 -0.95300 22.56900
H  14.17200 4.62200 26.31600
H  12.69500 4.19500 27.27600
H  13.14400 3.30500 25.90900
H  14.60700 2.18500 31.75500
H  16.23700 5.62800 34.03100
H  17.62700 4.49900 33.83800
H  16.21200 4.20200 34.94400
Mg 56.00900 23.00300 44.92000
C  53.70900 25.45200 43.98400
C  53.73100 20.59400 43.93600
C  58.35300 20.60900 45.32800
C  58.24200 25.39900 45.55600
N  53.94800 23.08100 43.99800
C  53.18000 24.20800 43.75200
C  51.80800 23.82600 43.06400
C  51.80700 22.31100 43.53000
C  53.22400 21.92300 43.80800
C  50.85400 22.07600 44.74300
C  51.70800 24.12800 41.55200
C  50.38100 24.58000 41.01900
H  49.77900 23.81600 39.87600
N  56.06800 20.88700 44.56100
C  55.00400 20.09500 44.26900
C  55.26200 18.64500 44.42700
C  56.60400 18.64300 44.81200
C  57.13800 20.03200 44.79300
C  54.25400 17.51000 44.14600
C  57.39800 17.33600 45.33600
O  56.74100 16.30000 45.54000
C  58.89800 17.26800 45.74800
N  58.08000 22.99400 45.07100
C  58.80000 21.90100 45.47800
C  60.06800 22.34000 46.17800
C  60.12100 23.83100 45.76500
C  58.72500 24.11100 45.52900
C  59.93300 22.01000 47.68700
C  60.96100 24.24700 44.53800
C  61.99000 25.32000 44.74700
N  55.97400 24.99700 44.93700
C  56.97000 25.86500 45.30300
C  56.48600 27.19000 45.40600
C  55.19200 27.10600 44.81900
C  54.94700 25.72700 44.51400
C  57.19900 28.38500 45.78400
C  54.03100 27.87900 44.43300
O  53.80500 29.09200 44.55800
C  53.08200 26.78900 43.79700
C  52.83400 27.14000 42.39300
O  53.64900 27.06700 41.44200
O  51.57500 27.73700 42.30500
C  51.32300 28.54000 41.06700
H  53.03500 19.75900 43.83800
H  59.14900 19.91500 45.60400
H  58.87300 26.06800 46.14500
H  51.01000 24.37300 43.56700
H  51.53700 21.66400 42.69600
H  51.32900 21.67300 45.63800
H  50.16000 21.34400 44.33100
H  50.32800 22.95600 45.11300
H  51.78400 23.15900 41.05900
H  52.49700 24.70000 41.06400
H  50.52800 25.60500 40.67800
H  49.61500 24.53000 41.79300
H  53.51800 17.73200 44.91900
H  54.59600 16.48600 44.29200
H  53.79700 17.69200 43.17300
H  59.49000 17.78600 44.99400
H  59.26100 16.25900 45.94500
H  59.03100 17.69000 46.74400
H  60.85800 21.76600 45.69300
H  60.40400 24.34100 46.68600
H  58.96900 21.52200 47.82800
H  59.96700 22.96800 48.20500
H  60.64300 21.26100 48.03500
H  60.32800 24.70900 43.78100
H  61.56500 23.42000 44.16500
H  61.95800 26.20900 44.11800
H  62.99400 24.90500 44.83900
H  61.71300 25.71700 45.72300
H  58.25900 28.14100 45.71800
H  57.01700 28.81200 46.77000
H  56.96200 29.15200 45.04600
H  52.11600 26.66000 44.28600
H  50.36700 28.11400 40.76000
H  52.05400 28.50200 40.26000
H  51.21900 29.59700 41.31300

