158

Mg 35.59200 2.57300 30.07400
C  33.14900 3.63200 32.32800
C  37.86400 2.49800 32.70300
C  37.98800 2.11200 27.94000
C  33.40400 3.47800 27.46800
N  35.47200 3.07900 32.27900
C  34.39300 3.47700 32.95200
C  34.65200 3.59200 34.52800
C  36.27300 3.40000 34.64200
C  36.59700 2.89600 33.12600
C  37.22700 4.61400 34.89700
C  33.85000 2.61500 35.34900
C  33.53700 2.88400 36.88700
H  34.36600 4.01600 37.57100
N  37.61500 2.28400 30.35500
C  38.33900 2.21000 31.47000
C  39.71700 1.90200 31.21800
C  39.75400 1.73200 29.77600
C  38.41500 2.03900 29.31900
C  40.76500 1.59400 32.26000
C  40.93500 1.23300 28.92600
O  40.86500 1.09000 27.70600
C  42.31400 0.88900 29.55400
N  35.67900 2.83600 27.94800
C  36.79300 2.45300 27.28800
C  36.59400 2.52900 25.78900
C  35.09600 2.96500 25.60300
C  34.65600 3.05300 27.06700
C  37.66600 3.37600 24.99200
C  34.27100 1.95600 24.73800
C  33.62200 0.73700 25.39200
N  33.62100 3.23400 29.92300
C  32.83300 3.51500 28.77700
C  31.46700 3.76400 29.24200
C  31.50700 3.85500 30.62400
C  32.85800 3.53100 30.98600
C  30.37700 3.95500 28.31300
C  30.74700 4.21000 31.80900
O  29.56100 4.43100 31.95300
C  31.76500 4.02400 32.96600
C  31.78100 5.34600 33.64800
O  32.52300 6.25800 33.31900
O  30.77100 5.40100 34.57400
C  30.78800 6.62400 35.41600
H  38.55800 2.67500 33.52800
H  38.73300 1.82700 27.19300
H  32.60800 3.64600 26.73900
H  34.47600 4.64300 34.75600
H  36.47300 2.59400 35.34800
H  36.60900 5.49700 35.05600
H  37.84400 4.82000 34.02200
H  37.90100 4.36200 35.71600
H  34.29300 1.62700 35.47700
H  32.89200 2.43700 34.86000
H  33.61400 1.96800 37.47300
H  32.51900 3.26500 36.96000
H  41.80500 1.69400 31.95000
H  40.69200 0.61400 32.73200
H  40.69400 2.38200 33.01000
H  42.79100 0.37200 28.72100
H  42.21500 0.18200 30.37800
H  42.90000 1.79900 29.67900
H  36.78500 1.52500 25.40800
H  35.09500 4.02600 25.35300
H  38.35500 3.84800 25.69200
H  37.09300 4.11400 24.43000
H  38.24000 2.77300 24.28900
H  34.99500 1.60900 24.00100
H  33.62800 2.59000 24.12700
H  34.00700 0.71500 26.41200
H  34.00900 -0.13900 24.87200
H  32.53300 0.73300 25.35800
H  29.42400 4.16400 28.79800
H  30.28300 3.10200 27.64200
H  30.44000 4.87400 27.73100
H  31.29400 3.29900 33.63100
H  30.48500 7.51300 34.86300
H  31.71800 6.82300 35.94900
H  29.97100 6.52400 36.13000
Mg 55.46200 25.37100 45.57100
C  52.59600 27.10200 44.47100
C  54.08600 22.45600 44.79900
C  58.56000 24.09300 45.74400
C  56.79300 28.58500 46.59900
N  53.66100 24.92700 44.80000
C  52.59800 25.65600 44.37200
C  51.30700 24.80800 44.03700
C  51.71600 23.36100 44.65600
C  53.30800 23.55700 44.86600
C  51.07300 22.90000 45.95600
C  51.05900 24.76000 42.51500
C  49.51500 24.70600 42.23300
H  49.04100 23.59300 41.23700
N  56.19300 23.47000 45.41900
C  55.50400 22.43800 44.91500
C  56.38300 21.33100 44.74400
C  57.62500 21.70300 45.18300
C  57.52700 23.12700 45.57700
C  55.86800 20.00000 44.28600
C  58.87200 20.79600 45.23800
O  58.79600 19.64400 44.82700
C  60.23000 21.22000 45.78400
N  57.37800 26.21500 46.01500
C  58.50500 25.46900 46.04100
C  59.77400 26.25000 46.49600
C  59.18200 27.69900 46.61400
C  57.63900 27.53600 46.41100
C  60.47900 25.69000 47.75200
C  60.01400 28.69200 45.67800
C  59.57500 28.84700 44.19400
N  54.79100 27.44500 45.54800
C  55.46000 28.60900 46.04100
C  54.52200 29.71100 45.87600
C  53.40000 29.19000 45.27500
C  53.63100 27.82500 45.08000
C  54.87200 31.04000 46.42200
C  52.08600 29.49600 44.70400
O  51.43800 30.49400 44.58600
C  51.62300 28.10300 44.05400
C  51.51100 28.32000 42.54400
O  52.37900 28.58200 41.76300
O  50.24200 28.22000 42.20700
C  49.90900 28.43500 40.80000
H  53.65300 21.48500 44.54600
H  59.59200 23.74400 45.67500
H  57.33200 29.48000 46.91600
H  50.40000 25.12000 44.55500
H  51.58100 22.56400 43.92500
H  50.53200 21.95700 45.87300
H  50.31100 23.55000 46.38700
H  51.81000 22.92400 46.75900
H  51.46700 23.82400 42.13400
H  51.55300 25.61200 42.04700
H  49.24800 25.70400 41.88500
H  48.96200 24.54800 43.15900
H  54.93400 19.92000 44.84300
H  56.31500 19.07400 44.64900
H  55.73800 19.98200 43.20400
H  60.86200 21.60500 44.98400
H  60.68900 20.40400 46.34400
H  60.01800 21.94600 46.56900
H  60.49300 26.15200 45.68200
H  59.32000 28.02900 47.64400
H  61.54100 25.93800 47.74200
H  60.47800 24.60500 47.85800
H  59.98900 25.99600 48.67700
H  61.05400 28.37200 45.62300
H  60.05400 29.68400 46.12800
H  59.51800 29.86000 43.79700
H  58.63300 28.30900 44.08700
H  60.29600 28.44500 43.48300
H  55.92300 31.14000 46.69400
H  54.39700 31.26100 47.37800
H  54.53900 31.72400 45.64200
H  50.62000 27.90000 44.42900
H  49.51700 29.44800 40.70600
H  49.11900 27.73900 40.51700
H  50.68800 28.50500 40.04000

