158

Mg 9.17500 4.42100 28.15500
C  10.46200 2.66200 30.90700
C  7.04600 6.03400 30.13100
C  8.05700 6.02100 25.42900
C  10.83000 2.10700 26.05800
N  8.72400 4.22900 30.26600
C  9.56000 3.69300 31.21500
C  9.13600 4.07100 32.67300
C  7.90300 4.99300 32.40600
C  7.88700 5.10200 30.81300
C  6.48200 4.58700 32.90500
C  10.27700 4.70100 33.45800
C  10.01500 4.99000 34.98300
H  11.29700 4.82800 35.87200
N  7.79300 5.87500 27.84200
C  6.98200 6.39500 28.80800
C  6.22100 7.56300 28.20500
C  6.61900 7.56600 26.85000
C  7.55300 6.47800 26.63000
C  5.36100 8.44900 29.00600
C  6.18800 8.50600 25.79600
O  6.62300 8.44000 24.65400
C  5.13000 9.52600 26.06300
N  9.27400 4.01200 26.00300
C  8.78100 4.86800 25.03300
C  9.21700 4.54900 23.55300
C  9.97900 3.18800 23.79800
C  10.07800 3.10700 25.36600
C  8.03700 4.45900 22.53000
C  11.35200 3.16200 23.02000
C  11.51700 1.98500 22.01700
N  10.44900 2.81300 28.35500
C  11.05200 1.94800 27.42100
C  11.75700 0.95500 28.10100
C  11.65200 1.19200 29.43300
C  10.84500 2.34600 29.54400
C  12.44900 -0.25100 27.43200
C  12.06900 0.83200 30.76200
O  12.83500 -0.03400 31.11500
C  11.46200 1.91200 31.73600
C  10.89100 1.14200 32.86600
O  9.97900 0.30900 32.82700
O  11.62300 1.39700 34.03100
C  11.23000 0.69600 35.25100
H  6.44800 6.70400 30.75300
H  8.00500 6.64600 24.53500
H  11.34700 1.38700 25.42100
H  8.76200 3.18100 33.18000
H  8.09200 6.01800 32.72300
H  5.67600 4.69400 32.17900
H  6.21400 5.18700 33.77400
H  6.50800 3.54200 33.21300
H  10.66900 5.60700 32.99700
H  11.11800 4.01500 33.35600
H  9.41700 4.20700 35.44900
H  9.57600 5.95700 35.23000
H  4.99700 8.09900 29.97200
H  4.43600 8.60200 28.45100
H  5.80200 9.42000 29.23300
H  5.19600 10.16500 26.94300
H  4.21800 8.97200 26.28700
H  4.89000 10.15200 25.20400
H  9.86700 5.39900 23.34500
H  9.38900 2.29500 23.59100
H  7.10200 4.81500 22.96400
H  7.95300 3.44500 22.13900
H  8.17900 5.15400 21.70200
H  12.11900 3.07900 23.79000
H  11.55600 4.06600 22.44700
H  10.62400 1.71000 21.45700
H  11.84100 1.07300 22.51800
H  12.32700 2.21500 21.32500
H  13.46600 -0.04600 27.09700
H  11.90400 -0.66900 26.58600
H  12.41600 -0.98200 28.24000
H  12.22000 2.60400 32.10400
H  12.02000 0.03300 35.60500
H  10.38600 0.00900 35.18000
H  10.96400 1.47200 35.96900
Mg 47.50800 24.95600 27.91600
C  48.32700 27.05200 30.78700
C  46.71800 22.48000 30.20000
C  46.94200 23.02600 25.41100
C  48.78300 27.46200 25.85600
N  47.60100 24.74100 30.27900
C  47.86800 25.76500 31.21900
C  47.69500 25.29400 32.68100
C  47.09500 23.82100 32.50700
C  47.15800 23.65800 30.93600
C  47.97500 22.67200 33.12300
C  46.68000 26.17500 33.47600
C  46.16800 25.60600 34.82800
H  45.93200 26.56600 35.95700
N  46.86200 22.98000 27.82500
C  46.59500 22.14400 28.84600
C  46.11200 20.88400 28.27700
C  46.03400 21.05900 26.85100
C  46.55900 22.43900 26.61300
C  45.84200 19.59600 29.04700
C  45.51900 20.10100 25.79100
O  45.49000 20.30800 24.57700
C  44.87000 18.80800 26.24300
N  47.69800 25.29200 25.91500
C  47.45400 24.25200 25.08400
C  47.65200 24.67400 23.64800
C  47.96700 26.20800 23.78400
C  48.27600 26.32300 25.23400
C  48.75400 23.93800 22.86500
C  46.71800 27.06200 23.41300
C  46.91700 28.24500 22.50300
N  48.48000 26.82000 28.22800
C  48.80700 27.73300 27.24600
C  49.24400 28.95000 27.91500
C  49.02300 28.74700 29.25600
C  48.49300 27.42800 29.45300
C  49.71400 30.14300 27.09200
C  49.07500 29.39100 30.53900
O  49.55000 30.43700 30.89800
C  48.52400 28.40300 31.65500
C  49.46000 28.28500 32.79100
O  50.44400 27.60200 32.84500
O  49.11600 29.25300 33.70200
C  49.63000 28.98500 35.08000
H  46.42400 21.71600 30.92300
H  46.81200 22.41000 24.51900
H  49.18200 28.21300 25.17100
H  48.63000 25.24500 33.24000
H  46.05100 23.80100 32.82200
H  48.68800 23.02700 33.86600
H  48.62500 22.28600 32.33800
H  47.33100 21.96600 33.64700
H  45.83000 26.33600 32.81300
H  47.25500 27.08700 33.63900
H  46.82100 24.80000 35.16400
H  45.19000 25.16400 34.63900
H  44.77300 19.41400 29.15400
H  46.33100 19.58400 30.02100
H  46.39300 18.78100 28.57700
H  45.47200 18.08900 26.80000
H  44.58100 18.21100 25.37900
H  43.99900 18.97900 26.87600
H  46.74700 24.47700 23.07400
H  48.82600 26.53200 23.19700
H  49.58400 24.54800 22.50800
H  48.24700 23.46700 22.02400
H  49.13300 23.10300 23.45400
H  46.31600 27.40300 24.36700
H  45.99000 26.40800 22.93300
H  46.51400 28.08600 21.50300
H  47.99200 28.41500 22.43800
H  46.39400 29.15300 22.80400
H  50.65000 29.83300 26.62700
H  49.85400 30.96500 27.79400
H  49.00100 30.41200 26.31200
H  47.56100 28.77200 32.00800
H  50.07200 29.92300 35.41600
H  50.43700 28.25400 35.08900
H  48.89900 28.62200 35.80300

