158

Mg 47.12900 24.27700 28.21700
C  48.20400 26.67300 30.54300
C  46.71000 22.14000 30.71200
C  46.54200 22.05800 25.81400
C  48.52300 26.54600 25.72700
N  47.09200 24.53600 30.39000
C  47.56200 25.56500 31.09800
C  47.59400 25.25400 32.60400
C  47.30200 23.67500 32.63200
C  46.92900 23.43500 31.15000
C  48.41100 22.67300 33.15700
C  46.66300 26.23800 33.38900
C  47.30800 26.86800 34.66000
H  46.49500 26.85400 36.03100
N  46.50300 22.47700 28.23400
C  46.39600 21.68800 29.37700
C  45.96300 20.36100 29.00800
C  45.87000 20.33800 27.56300
C  46.23900 21.67700 27.10200
C  45.74100 19.23900 30.03400
C  45.45200 19.22800 26.68800
O  45.29200 19.35600 25.49900
C  45.10800 17.86800 27.20100
N  47.46300 24.34600 26.06900
C  47.12800 23.24400 25.36000
C  47.22800 23.49300 23.88000
C  47.86100 24.91100 23.80100
C  47.94100 25.33300 25.28300
C  47.86600 22.40200 23.02200
C  47.15700 25.99400 22.90700
C  48.07800 26.36300 21.65800
N  48.10700 26.30200 28.11100
C  48.67500 27.01000 27.05600
C  49.16800 28.29400 27.54600
C  49.17800 28.14700 28.89700
C  48.45900 26.93500 29.17500
C  49.60000 29.49200 26.76500
C  49.57200 28.69300 30.14600
O  50.24100 29.70000 30.36000
C  49.01900 27.71700 31.23900
C  50.22800 27.14900 32.02000
O  51.00400 26.32200 31.55500
O  50.24100 27.64600 33.21800
C  51.55500 27.38500 33.92900
H  46.58100 21.38600 31.49200
H  46.34900 21.30300 25.05000
H  48.84200 27.29200 24.99600
H  48.63800 25.25600 32.91900
H  46.47100 23.49000 33.31300
H  48.82600 22.03300 32.38000
H  47.94900 22.06200 33.93300
H  49.22900 23.23400 33.60900
H  45.73000 25.71800 33.60600
H  46.35500 27.07800 32.76600
H  47.48100 27.92100 34.44000
H  48.24700 26.35700 34.87300
H  45.22900 18.35300 29.66000
H  45.07900 19.66500 30.78800
H  46.68000 19.02000 30.54200
H  44.25300 17.85700 27.87800
H  45.96800 17.39600 27.67600
H  44.87700 17.35400 26.26800
H  46.18700 23.65300 23.59700
H  48.89000 24.89800 23.44100
H  47.68400 21.34200 23.19600
H  48.93400 22.54600 23.18700
H  47.47200 22.47500 22.00900
H  47.10700 26.89900 23.51200
H  46.17500 25.58900 22.66200
H  48.61800 27.29000 21.84800
H  47.36500 26.61000 20.87200
H  48.82600 25.65400 21.30400
H  49.15800 30.42400 27.11600
H  49.33600 29.41300 25.71100
H  50.68900 29.51700 26.81600
H  48.51000 28.35100 31.96400
H  51.74500 26.31200 33.94400
H  51.69000 27.76600 34.94100
H  52.33200 27.84600 33.32100
Mg 6.93500 53.76700 40.07400
C  6.39800 50.31400 40.21000
C  10.10100 53.14700 39.30900
C  7.24200 57.08500 39.37600
C  3.45600 54.10700 40.52000
N  8.01800 51.93300 39.56100
C  7.68100 50.61600 39.74900
C  8.77700 49.65500 39.36000
C  9.98400 50.58900 39.49400
C  9.35900 52.01000 39.38000
C  10.74200 50.47000 40.84000
C  8.65100 48.94100 37.98000
C  7.89700 49.57700 36.81400
H  8.72400 50.10900 35.60800
N  8.55300 54.94100 39.41900
C  9.79100 54.54200 39.15000
C  10.58400 55.67100 38.79500
C  9.76500 56.84400 38.81000
C  8.47600 56.33200 39.19600
C  12.08000 55.63400 38.42500
C  10.18500 58.22700 38.47700
O  11.37900 58.47500 38.31500
C  9.19700 59.36200 38.26200
N  5.53400 55.35100 40.05100
C  5.88700 56.64700 39.72800
C  4.67700 57.59900 39.66000
C  3.54700 56.67100 40.20100
C  4.22000 55.25800 40.27900
C  4.90300 58.91200 40.55000
C  2.19600 56.75600 39.42400
C  1.07600 57.42900 40.25400
N  5.16400 52.57200 40.49000
C  3.85100 52.80700 40.72300
C  3.16200 51.65600 41.14600
C  4.11900 50.57200 40.96400
C  5.33600 51.24300 40.52400
C  1.74400 51.61600 41.67400
C  4.36000 49.15200 41.07900
O  3.63600 48.26400 41.45800
C  5.79300 48.97400 40.61700
C  5.73000 47.99600 39.51900
O  5.49300 48.26200 38.34900
O  5.99800 46.77000 39.97100
C  5.77300 45.69400 38.97700
H  11.18100 53.00600 39.24100
H  7.26200 58.15400 39.15100
H  2.38400 54.25800 40.66500
H  8.81200 48.79700 40.03100
H  10.71500 50.39600 38.70800
H  10.17600 49.80900 41.49700
H  10.95600 51.43000 41.31000
H  11.70700 49.99300 40.66300
H  8.11100 48.03700 38.26200
H  9.64600 48.67900 37.62000
H  7.40100 50.44800 37.24300
H  7.11800 48.93800 36.39800
H  12.68100 56.17400 39.15600
H  12.21900 55.91500 37.38100
H  12.35100 54.59100 38.58900
H  8.84700 59.73700 39.22400
H  8.36100 59.17100 37.58900
H  9.89300 60.02500 37.74900
H  4.45800 57.72100 38.59900
H  3.30200 56.92800 41.23200
H  4.07000 58.98600 41.24900
H  4.85600 59.72600 39.82700
H  5.89300 58.99200 41.00000
H  1.83100 55.78100 39.10400
H  2.26500 57.36700 38.52400
H  1.39500 57.80500 41.22600
H  0.28400 56.69400 40.40300
H  0.74900 58.32400 39.72500
H  1.11100 50.85600 41.21500
H  1.23700 52.58000 41.62900
H  1.78800 51.18800 42.67600
H  6.38900 48.43200 41.35300
H  4.69600 45.57300 38.86700
H  6.20900 44.73700 39.26600
H  6.12500 45.73000 37.94600

