158

Mg 48.37700 14.31600 27.88800
C  46.47400 14.84400 30.96000
C  50.77100 16.39200 29.38800
C  49.91100 14.14800 24.94400
C  45.67300 12.53400 26.59000
N  48.53100 15.63200 29.94600
C  47.67000 15.61300 30.99400
C  48.32100 16.29700 32.18300
C  49.52800 16.99900 31.60800
C  49.67700 16.24300 30.29500
C  49.50200 18.59900 31.37800
C  48.51700 15.32600 33.33700
C  47.89700 15.68000 34.69600
H  48.79700 15.49300 35.91900
N  50.08000 15.15200 27.21100
C  50.99800 15.91800 28.04900
C  52.16700 16.03800 27.19000
C  51.91300 15.45100 25.89700
C  50.58800 14.89300 25.96800
C  53.38500 16.88600 27.70900
C  52.86300 15.46000 24.61500
O  52.48800 15.00500 23.52500
C  54.20900 16.09000 24.60600
N  47.78900 13.62600 25.94900
C  48.65500 13.59700 24.91500
C  48.23900 12.58500 23.79400
C  46.81800 12.20800 24.24000
C  46.72200 12.80300 25.71200
C  48.26500 13.33000 22.37400
C  46.42300 10.70900 24.22400
C  47.44400 9.77600 24.94500
N  46.44400 13.76000 28.59600
C  45.50400 12.94800 27.95700
C  44.37300 12.76000 28.91600
C  44.71100 13.42200 30.02900
C  45.96900 14.03300 29.84300
C  43.07100 12.07000 28.57600
C  44.16900 13.75700 31.37800
O  43.19200 13.44000 31.98300
C  45.38300 14.60800 32.02900
C  44.79500 15.83500 32.49900
O  44.66300 16.85500 31.85100
O  44.33700 15.53800 33.77600
C  43.61100 16.64700 34.36500
H  51.61300 16.89800 29.86600
H  50.32700 13.84000 23.98200
H  44.83800 12.04500 26.08400
H  47.67600 17.12900 32.46400
H  50.36300 16.73100 32.25500
H  48.51100 19.02400 31.53500
H  49.64100 18.83000 30.32200
H  50.28300 19.03700 31.99900
H  49.59000 15.15600 33.42400
H  47.98100 14.39800 33.13800
H  46.94400 15.16600 34.82100
H  47.58600 16.72500 34.69300
H  54.29900 16.36500 27.99700
H  53.15200 17.59400 28.50500
H  53.85300 17.53100 26.96600
H  54.79600 15.76100 25.46300
H  54.02300 17.15700 24.72800
H  54.71300 16.00000 23.64300
H  48.86100 11.69100 23.82100
H  46.04300 12.79000 23.74200
H  48.40700 14.38000 22.63100
H  47.36000 13.27400 21.76800
H  49.10600 12.91500 21.81800
H  46.51300 10.55700 23.14900
H  45.38500 10.49400 24.47800
H  46.84600 9.01800 25.45000
H  48.03000 10.45000 25.57000
H  48.14300 9.25900 24.28700
H  43.36500 11.02000 28.59000
H  42.83300 12.32300 27.54200
H  42.28800 12.33700 29.28600
H  45.77200 14.01300 32.85500
H  44.21500 17.31600 34.97900
H  42.87000 16.21900 35.04100
H  42.98900 17.31600 33.77100
Mg 47.23500 24.96700 29.00100
C  47.88100 27.24900 31.50900
C  46.56900 22.58300 31.55500
C  46.93200 22.43600 26.68400
C  48.11000 27.12800 26.62600
N  47.31900 24.89900 31.25300
C  47.43100 26.06900 31.99800
C  47.12300 25.79500 33.50000
C  46.88600 24.23500 33.53600
C  46.87000 23.85500 32.02700
C  48.00600 23.55800 34.28400
C  45.95400 26.59300 34.09300
C  46.25600 27.25500 35.52300
H  45.16100 27.19000 36.56700
N  46.63700 22.86100 29.12100
C  46.52600 22.08600 30.20800
C  46.20100 20.75400 29.88500
C  46.29500 20.63100 28.51000
C  46.67300 21.97200 28.02800
C  45.61000 19.71600 30.85800
C  46.04200 19.40500 27.59600
O  46.07400 19.47700 26.35400
C  45.83000 18.03500 28.28600
N  47.64500 24.74000 27.00300
C  47.23200 23.70400 26.23500
C  47.46800 23.94200 24.76600
C  47.50700 25.50400 24.76000
C  47.66500 25.86800 26.19100
C  48.83700 23.36900 24.29900
C  46.33300 26.18300 24.11900
C  45.35600 26.92000 25.05000
N  48.05000 26.77400 29.05400
C  48.30400 27.59800 27.97500
C  48.76700 28.82500 28.43700
C  48.52900 28.77800 29.85600
C  48.12300 27.51700 30.15500
C  49.16200 29.99200 27.60800
C  48.65900 29.56700 31.13700
O  49.11200 30.70200 31.38300
C  48.11200 28.61500 32.20500
C  49.00000 28.60000 33.35400
O  49.92600 27.84200 33.47900
O  48.62200 29.60000 34.22500
C  49.43300 29.71200 35.43200
H  46.22000 21.94100 32.36600
H  46.84800 21.66500 25.91400
H  48.14200 27.77300 25.74500
H  47.93600 26.05900 34.17700
H  45.96500 23.78100 33.90200
H  48.62700 22.95500 33.62200
H  47.52500 22.84400 34.95300
H  48.70200 24.19800 34.82700
H  45.20100 25.83300 34.30300
H  45.67300 27.42500 33.44700
H  46.25700 28.33000 35.34200
H  47.24500 27.05400 35.93400
H  44.63900 19.41400 30.46500
H  45.65200 19.90300 31.93100
H  46.28600 18.86400 30.78700
H  46.61800 17.75600 28.98500
H  45.84700 17.32200 27.46100
H  44.80600 18.10000 28.65500
H  46.64300 23.54500 24.17600
H  48.43300 25.89800 24.33900
H  49.31700 22.79800 25.09400
H  49.57200 24.13000 24.03500
H  48.68500 22.65700 23.48900
H  45.84300 25.44400 23.48600
H  46.79800 26.91200 23.45600
H  45.53700 27.98900 24.94400
H  45.22300 26.53300 26.06100
H  44.33300 26.90900 24.67700
H  48.39200 30.22600 26.87400
H  50.14900 29.81900 27.17900
H  49.33100 30.80600 28.31300
H  47.12200 29.03400 32.38800
H  49.23100 28.92900 36.16300
H  49.28100 30.62700 36.00500
H  50.51100 29.59800 35.31300

