158

Mg 39.62700 10.38400 29.16700
C  41.65200 11.86400 31.65700
C  37.68200 9.09000 31.75600
C  38.06900 8.67500 26.83700
C  42.20000 11.03400 26.90200
N  39.58400 10.62800 31.43800
C  40.49200 11.36800 32.21000
C  40.13000 11.32300 33.69500
C  38.98200 10.19900 33.69000
C  38.76800 9.86000 32.22400
C  39.16600 8.91200 34.57900
C  39.61300 12.62200 34.35000
C  39.11800 12.48100 35.80300
H  39.90300 13.26500 36.80200
N  37.98000 9.21400 29.24900
C  37.33600 8.68000 30.35800
C  36.23500 7.87200 29.89500
C  36.28400 7.89000 28.46000
C  37.50900 8.57000 28.10900
C  35.25500 7.16000 30.80000
C  35.23700 7.34000 27.47700
O  35.29200 7.55500 26.28500
C  34.03800 6.65200 28.01900
N  40.15400 9.83400 27.10800
C  39.26800 9.18300 26.35000
C  39.73900 9.26100 24.85300
C  40.99300 10.24700 24.93600
C  41.12800 10.36900 26.39300
C  40.14100 7.85500 24.20600
C  40.81900 11.53200 24.16700
C  40.08100 12.79000 24.96500
N  41.50900 11.20400 29.23200
C  42.41500 11.41900 28.18900
C  43.59000 12.15600 28.69700
C  43.34500 12.35000 30.06200
C  42.11600 11.77100 30.33500
C  44.82000 12.64200 27.92300
C  43.85800 12.90900 31.25200
O  44.88700 13.60400 31.40400
C  42.75600 12.73000 32.28100
C  43.32200 12.17800 33.61000
O  43.72500 11.05300 33.78900
O  43.19900 13.08900 34.60400
C  43.56600 12.70600 35.91800
H  37.00200 8.77000 32.54900
H  37.53700 8.08900 26.08400
H  42.96100 11.35500 26.18800
H  40.95500 10.87100 34.24500
H  38.04600 10.60800 34.06900
H  38.28400 8.67500 35.17400
H  39.96700 9.11600 35.29000
H  39.37800 8.02900 33.97700
H  38.86200 13.09800 33.71900
H  40.50900 13.24100 34.41100
H  39.08900 11.50200 36.28100
H  38.09800 12.84300 35.66900
H  34.35500 7.77500 30.82400
H  35.71100 7.17900 31.79000
H  34.94400 6.14700 30.54700
H  33.47000 6.32000 27.15000
H  33.47400 7.24000 28.74300
H  34.41400 5.72000 28.44200
H  38.90500 9.67300 24.28600
H  41.80000 9.74800 24.39900
H  41.22800 7.78000 24.17600
H  39.74200 7.75900 23.19700
H  39.52800 7.21400 24.84000
H  40.12800 11.42500 23.33000
H  41.75600 11.82800 23.69500
H  40.11000 12.51700 26.02000
H  39.12800 13.12300 24.55300
H  40.69700 13.68400 24.87200
H  44.65800 13.52400 27.30400
H  45.28000 11.84300 27.34000
H  45.56400 12.82200 28.69900
H  42.22800 13.66900 32.44700
H  44.64900 12.66000 36.03100
H  43.11700 11.76600 36.23700
H  43.24500 13.45000 36.64700
Mg 10.46100 48.17900 26.19200
C  8.36600 47.80000 29.00900
C  12.78600 49.41200 28.01700
C  12.06900 48.66500 23.25400
C  7.47500 47.32800 24.30500
N  10.39900 48.71000 28.25700
C  9.60000 48.24300 29.28000
C  10.19800 48.64200 30.66300
C  11.44000 49.42700 30.24100
C  11.56500 49.16100 28.73200
C  11.60600 50.94600 30.60100
C  10.54800 47.45300 31.62400
C  9.96900 47.48100 33.07100
H  10.49200 46.44900 34.14300
N  12.21000 48.89800 25.74500
C  13.16000 49.25200 26.65100
C  14.49100 49.22800 26.05100
C  14.25500 49.08400 24.69300
C  12.79900 48.81800 24.47400
C  15.71500 49.56400 26.82600
C  15.23100 49.03900 23.55900
O  14.89600 48.88800 22.40800
C  16.67800 49.30600 23.82200
N  9.92600 47.98500 24.05400
C  10.73900 48.33400 23.02800
C  10.01400 48.32000 21.68600
C  8.69200 47.58300 22.04200
C  8.63800 47.70900 23.58900
C  9.85300 49.74000 21.19100
C  8.49100 46.15500 21.37400
C  9.30100 45.05000 22.00000
N  8.36600 47.53000 26.46700
C  7.37900 47.20200 25.66700
C  6.14600 46.92200 26.43200
C  6.49000 47.15100 27.71300
C  7.82900 47.52400 27.69400
C  4.77100 46.56300 25.91300
C  5.94100 47.06600 29.07700
O  4.89300 46.61700 29.55300
C  7.21100 47.49200 29.96000
C  7.45700 46.27500 30.77400
O  7.96500 45.20400 30.37800
O  7.02400 46.51300 32.00500
C  7.00900 45.33000 32.85500
H  13.58400 49.63200 28.72900
H  12.61800 48.88400 22.33600
H  6.68600 46.93300 23.66200
H  9.64100 49.44200 31.14900
H  12.40700 49.07600 30.60100
H  12.33800 51.00500 31.40600
H  10.75600 51.52200 30.96900
H  11.95100 51.44000 29.69300
H  11.63000 47.32900 31.56100
H  10.09700 46.60100 31.11500
H  8.88200 47.55400 33.07400
H  10.29500 48.41200 33.53500
H  16.20400 50.43500 26.39200
H  16.30800 48.64900 26.84400
H  15.36500 49.84700 27.81800
H  16.92700 50.36700 23.80300
H  17.14500 48.58000 23.15700
H  17.00100 49.04200 24.83000
H  10.37300 47.58800 20.96200
H  7.78500 48.10300 21.73600
H  8.82300 50.09100 21.25300
H  9.85600 49.78900 20.10200
H  10.64700 50.39500 21.55000
H  8.64000 46.15100 20.29400
H  7.42300 45.97300 21.48700
H  9.76400 45.41000 22.91900
H  10.04400 44.71000 21.27800
H  8.62600 44.27500 22.36200
H  4.88700 45.64300 25.34000
H  4.31800 47.41300 25.40400
H  4.16000 46.25700 26.76200
H  6.91800 48.30300 30.62700
H  6.73000 45.62300 33.86800
H  8.01400 44.91200 32.90000
H  6.24000 44.63300 32.52300

