158

Mg 25.66700 0.20300 29.02900
C  27.75500 -0.34400 31.83400
C  23.11100 0.67900 31.16800
C  23.64100 0.33900 26.32000
C  28.43100 -0.62500 27.01000
N  25.49800 0.04000 31.26200
C  26.48500 0.01200 32.24100
C  25.97700 0.22800 33.71700
C  24.42300 0.29100 33.35900
C  24.30500 0.38300 31.78900
C  23.52900 -0.86100 33.88200
C  26.66600 1.36100 34.56800
C  27.15400 1.12000 36.01300
H  26.42600 1.95100 37.13300
N  23.66100 0.44500 28.85100
C  22.75400 0.68900 29.83100
C  21.48000 0.97800 29.29700
C  21.59100 0.75700 27.86800
C  23.01500 0.50400 27.63000
C  20.27000 1.32900 30.13800
C  20.54100 0.76600 26.79100
O  20.70300 0.33100 25.67900
C  19.16600 1.31900 27.06600
N  26.02300 0.11800 27.00600
C  25.06000 0.21700 26.05000
C  25.63100 0.02000 24.61600
C  27.10100 -0.27800 24.81500
C  27.19000 -0.30000 26.39000
C  24.86300 -1.00400 23.70400
C  28.13400 0.72900 24.16000
C  29.35800 0.03500 23.54400
N  27.65900 -0.42600 29.26600
C  28.66200 -0.74100 28.39100
C  29.82100 -1.07400 29.05600
C  29.53700 -0.91500 30.45600
C  28.17200 -0.49800 30.50400
C  31.19300 -1.38000 28.47600
C  30.13900 -1.03500 31.73400
O  31.28900 -1.37000 32.08000
C  28.98400 -0.54200 32.71300
C  28.85300 -1.49600 33.74700
O  28.17600 -2.49900 33.67200
O  29.50400 -1.06100 34.86000
C  29.40300 -1.93200 35.99700
H  22.28400 0.81500 31.86900
H  22.98100 0.47700 25.46100
H  29.21800 -1.00000 26.35300
H  26.14500 -0.71400 34.23700
H  24.07900 1.22400 33.80600
H  23.13900 -0.38200 34.78100
H  24.15600 -1.70800 34.15900
H  22.74800 -1.20500 33.20300
H  25.82500 2.04900 34.65200
H  27.43900 1.79000 33.93000
H  28.19900 1.43000 36.02300
H  27.04000 0.04700 36.16700
H  19.37800 0.81800 29.77800
H  20.18800 2.39900 29.94300
H  20.45200 1.10900 31.19000
H  18.65200 1.36500 26.10600
H  19.35300 2.28900 27.52700
H  18.63500 0.66300 27.75600
H  25.57900 0.97800 24.09800
H  27.25900 -1.31700 24.52700
H  25.39600 -1.87800 23.33000
H  24.30400 -0.47700 22.93000
H  24.18900 -1.50000 24.40300
H  28.41600 1.46500 24.91300
H  27.72600 1.28300 23.31400
H  29.54400 0.52100 22.58700
H  29.14400 -1.02100 23.38000
H  30.11800 0.14700 24.31700
H  32.05800 -1.08100 29.06800
H  31.26600 -0.77000 27.57600
H  31.22300 -2.40400 28.10100
H  29.32600 0.39700 33.14900
H  28.69700 -1.55800 36.73800
H  30.40200 -2.09000 36.40300
H  28.96900 -2.92300 35.86400
Mg 6.58000 56.60200 42.28700
C  5.85100 53.16900 42.49800
C  9.55700 55.74900 40.82000
C  6.90300 59.79800 41.37100
C  3.60800 57.29600 43.94200
N  7.57400 54.66500 41.75600
C  7.10600 53.37300 41.90700
C  8.09500 52.38200 41.16500
C  9.47700 53.13100 41.10400
C  8.86600 54.62700 41.21100
C  10.51200 52.73700 42.24000
C  7.58900 52.09100 39.66700
C  7.78200 50.57800 39.27300
H  6.77100 50.04300 38.36100
N  8.05100 57.65600 41.20900
C  9.18500 57.15200 40.74400
C  10.00600 58.22700 40.23200
C  9.17800 59.42700 40.33300
C  7.92000 59.00000 40.94100
C  11.35000 57.93500 39.66200
C  9.66300 60.84300 39.85900
O  10.75800 60.89700 39.33300
C  8.82200 62.05400 39.94800
N  5.27500 58.23000 42.37200
C  5.74800 59.51200 42.09200
C  4.95000 60.64000 42.82000
C  4.05800 59.79100 43.78900
C  4.35300 58.36000 43.35200
C  5.80600 61.72700 43.51600
C  2.49500 60.13100 43.80300
C  1.88900 60.36300 45.22100
N  4.93600 55.50900 42.97300
C  3.78600 55.94400 43.62800
C  2.85800 54.77800 43.80000
C  3.70300 53.62400 43.42000
C  4.91300 54.15300 42.97400
C  1.58600 54.79900 44.51800
C  3.77400 52.22700 43.27600
O  2.89500 51.37700 43.48400
C  5.25400 51.88800 42.93100
C  5.26600 50.75600 41.93500
O  4.67500 50.76300 40.86900
O  6.04200 49.67900 42.35400
C  5.97000 48.40600 41.67600
H  10.57800 55.49200 40.53200
H  6.97400 60.86400 41.14900
H  2.76800 57.63600 44.55100
H  8.23500 51.50100 41.79200
H  10.07600 53.12100 40.19300
H  10.56500 53.58400 42.92400
H  11.38600 52.46000 41.65100
H  10.14500 51.93700 42.88400
H  8.25800 52.62200 38.98900
H  6.53100 52.34200 39.59200
H  7.90600 49.97700 40.17300
H  8.76100 50.50200 38.80000
H  11.19900 57.73700 38.60000
H  11.84800 57.09500 40.14700
H  11.95900 58.83900 39.65500
H  8.37500 62.11300 40.94100
H  8.13300 61.85500 39.12800
H  9.49100 62.90200 39.79900
H  4.36100 61.20300 42.09600
H  4.40200 59.85600 44.82100
H  5.74700 62.72000 43.07200
H  6.86700 61.52200 43.37600
H  5.64000 61.81600 44.59000
H  2.02400 59.23300 43.40400
H  2.35700 61.01600 43.18200
H  1.22900 61.21600 45.06400
H  2.69900 60.66400 45.88400
H  1.31900 59.48500 45.52400
H  1.67400 55.36700 45.44500
H  1.32000 53.75800 44.70200
H  0.77600 55.20400 43.91200
H  5.65500 51.44200 43.84100
H  6.15100 47.69700 42.48400
H  6.78700 48.27500 40.96600
H  4.99400 48.16300 41.25400

