158

Mg 47.72700 44.89000 43.02400
C  44.37000 44.75500 42.24000
C  48.08700 41.61000 42.16800
C  51.16100 45.32500 42.92000
C  47.52000 48.41500 43.29400
N  46.43700 43.38500 42.07900
C  45.01500 43.53900 42.12400
C  44.32600 42.18200 42.16500
C  45.50100 41.14600 42.11900
C  46.76600 42.06800 42.16300
C  45.53600 40.09600 43.31400
C  43.26000 42.02700 41.01000
C  43.44100 42.76300 39.60200
H  43.39700 41.97300 38.29300
N  49.31500 43.62700 42.82900
C  49.27500 42.30600 42.39800
C  50.60300 41.76100 42.29000
C  51.48600 42.85800 42.49600
C  50.67500 44.04700 42.68900
C  50.87500 40.33800 41.79400
C  53.05600 42.80100 42.57700
O  53.58600 41.65500 42.59400
C  53.97500 43.93200 42.75800
N  49.16400 46.64600 43.12000
C  50.47800 46.53200 43.15300
C  51.22000 47.86900 43.51800
C  49.96400 48.84900 43.42300
C  48.83300 47.92500 43.26100
C  51.89900 47.81400 44.97200
C  49.99200 50.08600 42.51100
C  49.41200 51.41500 43.08700
N  46.30800 46.36300 42.76800
C  46.33200 47.72800 43.00600
C  44.98700 48.26200 42.91300
C  44.18200 47.15200 42.62400
C  44.98800 45.96200 42.56500
C  44.55900 49.71900 43.12600
C  42.82600 46.71900 42.39400
O  41.80700 47.41500 42.35900
C  42.90200 45.21800 42.22200
C  42.15600 44.46200 43.37800
O  41.31200 43.58300 43.16300
O  42.37800 45.04400 44.59700
C  41.51200 44.53400 45.73800
H  48.32200 40.54400 42.16400
H  52.22900 45.54900 42.92700
H  47.41700 49.46600 43.57300
H  43.81200 42.21700 43.12600
H  45.45700 40.51600 41.23000
H  45.65300 39.07200 42.95900
H  44.64700 40.23800 43.92800
H  46.34600 40.35400 43.99700
H  42.33300 42.36000 41.47600
H  43.13100 40.94800 40.93200
H  44.37600 43.31500 39.69400
H  42.48700 43.29100 39.61600
H  50.51900 39.79300 40.91900
H  50.53600 39.82900 42.69600
H  51.95600 40.20500 41.75300
H  53.93700 44.62200 41.91400
H  55.00300 43.59300 42.89100
H  53.79500 44.36000 43.74400
H  51.92700 47.98800 42.69700
H  49.78500 49.07400 44.47500
H  51.69800 46.86900 45.47800
H  51.53900 48.61000 45.62500
H  52.95600 48.00100 44.78400
H  49.71700 49.87500 41.47800
H  51.05200 50.27900 42.34800
H  48.60100 51.74800 42.43900
H  50.23500 52.12800 43.09200
H  49.03300 51.12900 44.06800
H  43.51700 49.80700 42.81900
H  45.21000 50.31900 42.49000
H  44.49400 50.01000 44.17400
H  42.39500 44.87400 41.32100
H  41.33900 43.46100 45.81800
H  40.54300 45.02600 45.66400
H  41.95400 44.79000 46.70100
Mg 26.06200 51.97000 26.39000
C  23.91900 52.93000 28.94200
C  28.33000 51.13500 28.77500
C  28.28800 51.61100 23.86700
C  23.79400 53.48900 24.05800
N  26.02700 51.80500 28.57200
C  25.05700 52.25400 29.38600
C  25.39000 52.03100 30.88000
C  26.93700 51.66300 30.82900
C  27.12400 51.55200 29.31400
C  27.84500 52.76100 31.45400
C  24.45300 50.94900 31.62000
C  23.72500 51.57000 32.86900
H  23.54400 50.54400 34.03100
N  28.07400 51.47600 26.32300
C  28.80600 50.99700 27.44400
C  30.12700 50.58500 26.95200
C  30.14600 50.88000 25.58300
C  28.84100 51.34800 25.18000
C  31.26800 50.05500 27.85000
C  31.33000 50.79600 24.62300
O  31.20900 51.17400 23.41200
C  32.69600 50.47100 25.04400
N  26.05200 52.47300 24.32600
C  27.07100 52.15100 23.50900
C  26.77500 52.54500 22.02900
C  25.25200 52.88100 22.04200
C  25.03300 52.96900 23.54300
C  27.65600 53.71400 21.47100
C  24.42000 51.74200 21.31600
C  23.79700 52.25600 20.02900
N  24.13400 52.75900 26.45900
C  23.42700 53.39400 25.42100
C  22.10900 53.87100 25.97400
C  22.30200 53.66200 27.33800
C  23.54600 53.05600 27.59500
C  20.99300 54.60800 25.20000
C  21.64300 53.79800 28.59700
O  20.49000 54.16000 28.81500
C  22.67000 53.34500 29.67800
C  22.90300 54.48200 30.60800
O  23.80400 55.24000 30.44200
O  21.95800 54.45100 31.58000
C  22.02400 55.54100 32.63000
H  29.09800 50.92600 29.52200
H  28.97200 51.41800 23.03800
H  23.07000 53.69400 23.26700
H  25.18000 53.00600 31.32000
H  27.18800 50.67900 31.22400
H  27.45100 53.77600 31.48500
H  28.82100 52.78000 30.96800
H  28.19900 52.51200 32.45400
H  24.91400 49.99500 31.87200
H  23.68900 50.70700 30.88100
H  22.75100 51.83800 32.46000
H  24.28100 52.45500 33.17600
H  32.20300 50.52200 27.53900
H  31.27000 48.96900 27.75800
H  30.99300 50.37800 28.85400
H  32.70500 49.39400 25.21300
H  33.17200 51.09500 25.80100
H  33.29500 50.63600 24.14900
H  26.91500 51.60300 21.49900
H  25.08100 53.87600 21.63100
H  27.95100 54.42900 22.24000
H  27.01100 54.15900 20.71400
H  28.54600 53.32400 20.97800
H  23.66200 51.26800 21.94100
H  25.05800 50.96300 20.89800
H  24.42800 52.02700 19.17000
H  23.63400 53.33100 20.11000
H  22.73100 52.13600 19.83600
H  20.05800 54.10200 25.43800
H  21.05200 54.53600 24.11400
H  21.07000 55.65800 25.48300
H  22.18200 52.53700 30.22400
H  22.96100 55.58600 33.18600
H  21.27500 55.36300 33.40200
H  21.93500 56.50100 32.12200

