158

Mg -0.41900 7.28300 27.27200
C  0.57700 9.36400 29.99000
C  -0.40100 4.64500 29.33100
C  -0.62900 5.31000 24.55400
C  0.28600 10.08200 25.24400
N  0.16500 7.05000 29.37700
C  0.27500 8.03700 30.31900
C  0.07400 7.44200 31.75800
C  0.09600 5.91200 31.49500
C  -0.01900 5.82500 29.96200
C  1.31600 5.13100 32.11500
C  -1.18800 8.10500 32.37600
C  -1.10700 8.50000 33.83600
H  -0.21800 7.64100 34.80700
N  -0.62700 5.25000 27.06100
C  -0.62500 4.32300 28.00500
C  -1.04800 3.02300 27.50900
C  -1.17800 3.22300 26.04800
C  -0.73300 4.61300 25.84300
C  -1.44900 1.79100 28.36300
C  -1.52700 2.26700 25.03600
O  -1.49100 2.55900 23.82000
C  -1.98100 0.96800 25.44900
N  -0.49400 7.65600 25.12400
C  -0.52200 6.68900 24.22100
C  -0.49900 7.23100 22.77500
C  -0.37100 8.80600 23.09500
C  -0.15300 8.86900 24.59100
C  0.49200 6.70400 21.73300
C  -1.68600 9.57400 22.68600
C  -1.69700 11.11900 22.79300
N  0.20400 9.34900 27.49900
C  0.47200 10.34800 26.61200
C  0.74200 11.62200 27.25800
C  0.79500 11.21800 28.58700
C  0.52700 9.82200 28.69300
C  0.84100 12.93100 26.55800
C  1.12500 11.77800 29.94500
O  1.55200 12.88800 30.23400
C  0.84100 10.57700 30.91000
C  2.03000 10.39700 31.81900
O  3.02000 9.90400 31.35400
O  1.90900 11.00400 33.03100
C  3.03300 10.73200 33.92700
H  -0.44100 3.76300 29.97300
H  -0.88000 4.73300 23.66200
H  0.49100 10.93900 24.59900
H  0.96700 7.62200 32.35600
H  -0.75400 5.37700 31.92100
H  0.89400 4.19700 32.48600
H  1.76000 5.72200 32.91500
H  2.09500 4.84200 31.40900
H  -1.99000 7.36900 32.31700
H  -1.42600 9.03700 31.86400
H  -2.12100 8.42000 34.22900
H  -0.85500 9.56000 33.88600
H  -2.52800 1.66600 28.27600
H  -1.35700 1.91700 29.44200
H  -0.99600 0.87300 27.99000
H  -1.21500 0.31800 25.87100
H  -2.27400 0.58000 24.47400
H  -2.87200 0.99000 26.07800
H  -1.44800 6.98400 22.29900
H  0.46200 9.34600 22.64400
H  0.95200 7.58800 21.29100
H  0.01700 6.03700 21.01300
H  1.29000 6.15800 22.23600
H  -2.48100 9.40800 23.41300
H  -1.99800 9.22100 21.70300
H  -2.14200 11.51100 23.70700
H  -2.22100 11.49200 21.91300
H  -0.68100 11.43600 22.55600
H  0.23900 12.97800 25.65100
H  1.84700 13.25500 26.29000
H  0.37200 13.67200 27.20700
H  -0.00800 10.94900 31.48300
H  3.37500 11.65700 34.39200
H  3.87000 10.19900 33.47600
H  2.63000 10.07000 34.69400
Mg 16.10900 -1.56900 28.61300
C  15.07000 0.15700 31.53500
C  18.19300 -3.30600 30.63100
C  17.43000 -3.04200 25.92200
C  14.39100 0.61500 26.63200
N  16.51200 -1.61000 30.84700
C  15.93400 -0.87400 31.80600
C  16.50700 -1.18700 33.20400
C  17.55700 -2.33400 32.82300
C  17.41200 -2.43800 31.33500
C  19.04400 -2.07100 33.33700
C  15.37500 -1.56400 34.20700
C  15.33500 -0.80600 35.59300
H  16.69500 -0.40000 36.25200
N  17.46900 -3.06500 28.32900
C  18.22300 -3.66600 29.28200
C  19.23100 -4.51700 28.69300
C  19.04400 -4.46700 27.32700
C  17.92200 -3.51700 27.13700
C  20.13200 -5.23500 29.57900
C  19.67500 -5.27600 26.17000
O  19.39100 -5.13100 24.96900
C  20.57100 -6.39800 26.47200
N  15.97200 -1.16600 26.57800
C  16.62000 -1.91000 25.63500
C  16.39700 -1.33100 24.21900
C  15.16600 -0.41600 24.49600
C  15.16400 -0.34000 25.96900
C  17.66000 -0.73400 23.56000
C  13.81000 -0.92000 24.01800
C  13.37900 -0.45500 22.63600
N  14.89200 0.07500 28.92300
C  14.21000 0.86100 28.02200
C  13.39500 1.77400 28.71100
C  13.69100 1.56200 30.08300
C  14.55100 0.49400 30.23400
C  12.55700 2.77600 28.08100
C  13.39800 2.02800 31.45000
O  12.61400 2.83700 31.90700
C  14.33500 1.11800 32.40200
C  15.24400 2.07600 33.00100
O  16.34500 2.34400 32.57300
O  14.78100 2.60900 34.18800
C  15.69900 3.33600 35.05700
H  18.90800 -3.83200 31.26700
H  17.86000 -3.53100 25.04500
H  13.80100 1.30600 26.02600
H  17.06100 -0.33600 33.60000
H  17.18300 -3.25300 33.27500
H  19.37800 -2.75300 34.11800
H  19.14600 -1.11200 33.84400
H  19.82900 -2.27200 32.60700
H  15.43600 -2.60700 34.51700
H  14.40100 -1.50500 33.72100
H  14.90900 -1.58500 36.22500
H  14.64300 0.02900 35.48000
H  20.74800 -4.60300 30.21900
H  20.85100 -5.77700 28.96500
H  19.56700 -6.01300 30.09200
H  19.99500 -7.02300 27.15400
H  21.54500 -6.06800 26.83300
H  20.63000 -7.05000 25.60000
H  16.06300 -2.09300 23.51400
H  15.51300 0.58600 24.24500
H  18.48100 -0.78000 24.27600
H  17.58600 0.32800 23.32500
H  17.99100 -1.24700 22.65700
H  12.99000 -0.59500 24.65900
H  13.81300 -2.00900 24.00300
H  13.92000 0.44300 22.33600
H  12.32800 -0.20700 22.78600
H  13.47600 -1.28300 21.93500
H  11.79900 2.30800 27.45300
H  13.08900 3.45300 27.41300
H  12.04400 3.32800 28.86800
H  13.65100 0.70900 33.14600
H  15.63300 4.40000 34.82900
H  16.75100 3.05100 35.02300
H  15.31200 3.31600 36.07600

