158

Mg 2.46500 -1.58000 44.25900
C  5.53000 -0.47200 43.37400
C  0.96800 0.86000 42.32500
C  -0.51800 -3.24100 44.49200
C  4.07100 -4.44200 45.70800
N  3.19500 -0.08300 42.96800
C  4.50300 0.30100 42.84600
C  4.62100 1.52800 41.92900
C  3.25400 2.11000 42.05200
C  2.40100 0.89100 42.38300
C  3.03800 3.30200 43.03600
C  5.12300 1.04800 40.58200
C  6.21200 1.90600 39.94200
H  5.72000 2.57700 38.63300
N  0.49600 -1.14700 43.62700
C  0.04300 -0.07900 42.83900
C  -1.30000 -0.18900 42.59400
C  -1.81700 -1.32400 43.27700
C  -0.60700 -1.94900 43.88000
C  -2.08700 0.71000 41.70900
C  -3.29200 -1.78200 43.37200
O  -4.16800 -1.14100 42.74700
C  -3.69600 -3.10400 44.07100
N  1.88000 -3.40800 45.09600
C  0.59800 -3.90700 45.05900
C  0.42200 -5.33700 45.62500
C  1.97000 -5.66000 45.88600
C  2.66800 -4.45600 45.55900
C  -0.39700 -5.47000 46.96800
C  2.51600 -6.87200 44.98900
C  3.39700 -7.93300 45.61500
N  4.38500 -2.24600 44.70700
C  4.91200 -3.40200 45.30300
C  6.32300 -3.34300 45.31100
C  6.66400 -2.23600 44.54300
C  5.39200 -1.63400 44.20100
C  7.34300 -4.40600 45.88900
C  7.68000 -1.35700 44.01700
O  8.89500 -1.43200 44.03300
C  7.00000 -0.19800 43.27300
C  7.38200 1.11200 44.00500
O  6.72400 1.54900 44.94800
O  8.50200 1.60700 43.39800
C  8.83000 2.96900 43.94900
H  0.54600 1.62400 41.66900
H  -1.41200 -3.86800 44.44800
H  4.47900 -5.36900 46.11500
H  5.27000 2.24900 42.42700
H  2.89800 2.51700 41.10500
H  3.97700 3.68600 43.43600
H  2.50600 2.93600 43.91400
H  2.36000 4.06400 42.65200
H  4.19000 1.10700 40.02200
H  5.38000 -0.00400 40.71200
H  7.09100 1.36500 39.59400
H  6.45500 2.73500 40.60600
H  -2.77300 1.30200 42.31500
H  -2.65400 0.06200 41.04100
H  -1.63400 1.34900 40.95100
H  -4.76300 -3.13900 44.29300
H  -3.24500 -3.15600 45.06200
H  -3.40300 -3.95900 43.46200
H  -0.03100 -5.87400 44.79100
H  2.16200 -5.97100 46.91200
H  0.17400 -5.69000 47.87000
H  -1.15700 -6.24100 46.84300
H  -0.87500 -4.50000 47.11100
H  3.13600 -6.47900 44.18400
H  1.64500 -7.43700 44.65700
H  2.93900 -8.92100 45.57400
H  3.41900 -7.60000 46.65300
H  4.35900 -8.00200 45.10700
H  7.42000 -5.19500 45.14100
H  6.86800 -4.76000 46.80500
H  8.35000 -4.01100 46.01800
H  7.27200 -0.13500 42.21900
H  9.70300 2.71800 44.55000
H  8.09700 3.54800 44.51100
H  9.16600 3.48400 43.04900
Mg 40.67800 8.40100 29.07200
C  42.55600 9.55300 31.76100
C  38.61500 6.84500 31.28300
C  38.96200 7.19900 26.46400
C  42.97800 9.66400 26.89500
N  40.57900 8.29800 31.26800
C  41.31700 9.02900 32.10400
C  40.66800 9.08000 33.52300
C  39.43100 8.06700 33.36800
C  39.53500 7.64500 31.92100
C  39.40900 6.90600 34.40500
C  40.33300 10.56600 34.03200
C  39.32800 10.72300 35.20300
H  40.07500 10.93800 36.49900
N  39.01900 7.18600 28.89500
C  38.33900 6.63500 29.91200
C  37.14900 6.02300 29.41100
C  37.27100 6.12700 27.95700
C  38.42700 6.91100 27.72600
C  35.94600 5.29100 30.17600
C  36.33000 5.55000 26.85000
O  36.56400 5.62600 25.65300
C  35.01100 4.93000 27.26500
N  41.03300 8.38300 26.94900
C  40.08500 7.91300 26.10500
C  40.33900 8.32000 24.68900
C  41.67200 9.16900 24.80700
C  41.85100 9.21700 26.33600
C  40.21500 7.24900 23.60300
C  41.66900 10.51100 23.99700
C  40.48800 11.47600 24.11700
N  42.57300 9.28700 29.24100
C  43.37400 9.73500 28.28400
C  44.60700 10.24700 28.92500
C  44.29000 10.24200 30.31600
C  43.04800 9.64300 30.43100
C  45.80800 10.82600 28.14700
C  44.69500 10.72300 31.61200
O  45.67000 11.39200 32.00700
C  43.56300 10.34700 32.66000
C  44.11100 9.56300 33.87900
O  44.93300 8.64400 33.74700
O  43.61200 10.07900 35.06700
C  44.12200 9.40500 36.26600
H  37.91400 6.32700 31.94000
H  38.37100 7.11400 25.55000
H  43.68500 10.16800 26.23400
H  41.40200 8.60200 34.17200
H  38.47300 8.58800 33.37600
H  38.41000 6.85400 34.83700
H  40.09200 7.08600 35.23600
H  39.64300 5.95700 33.92200
H  39.94800 11.13800 33.18800
H  41.30800 10.99600 34.26200
H  38.63900 9.88300 35.29000
H  38.76900 11.64100 35.02100
H  35.03500 5.77900 29.82900
H  36.08200 5.56500 31.22200
H  35.87400 4.21400 30.02700
H  34.62100 4.50000 26.34200
H  34.30700 5.63100 27.71200
H  35.09600 4.02800 27.87100
H  39.56700 9.09000 24.67900
H  42.50600 8.50900 24.56900
H  39.96100 6.28900 24.05300
H  41.22100 7.11200 23.20700
H  39.56800 7.51400 22.76600
H  41.83600 10.13400 22.98800
H  42.54700 11.04400 24.36200
H  40.00700 11.73300 23.17300
H  40.92700 12.40400 24.48400
H  39.70300 11.12000 24.78400
H  45.77100 10.48300 27.11300
H  46.58400 10.33900 28.73700
H  45.89900 11.91200 28.16500
H  43.14700 11.27400 33.05500
H  45.21000 9.33400 36.29600
H  43.66800 8.46600 36.58300
H  43.85900 10.20700 36.95700

