158

Mg 8.67000 5.34500 27.31800
C  9.58100 3.58200 30.07500
C  6.03600 6.87400 29.08500
C  7.45900 6.94300 24.46800
C  10.42200 3.16800 25.23800
N  8.01400 5.32400 29.35200
C  8.55600 4.49400 30.32900
C  7.90700 4.80500 31.77200
C  6.58900 5.53200 31.18900
C  6.89800 5.97000 29.82400
C  5.33300 4.53200 31.09900
C  8.77000 5.75500 32.58500
C  9.08600 5.37200 34.02000
H  10.14400 6.02700 34.85900
N  7.08100 6.83400 26.87100
C  6.14700 7.27900 27.73600
C  5.28000 8.30400 27.10100
C  5.79800 8.53600 25.79200
C  6.80900 7.42000 25.64900
C  4.34700 9.14100 27.90000
C  5.39200 9.50400 24.69800
O  5.97500 9.55900 23.57000
C  4.32200 10.45800 24.97200
N  8.74300 4.97800 25.13100
C  8.26600 5.85300 24.19400
C  8.78900 5.49200 22.71900
C  9.64700 4.19600 23.08400
C  9.65400 4.10400 24.59100
C  7.62000 5.27100 21.63300
C  11.08300 4.15700 22.56500
C  11.44300 2.84500 21.89000
N  9.86000 3.79600 27.51100
C  10.54400 2.96600 26.63100
C  11.31200 1.98400 27.34700
C  11.04100 2.23800 28.70800
C  10.08700 3.31500 28.74800
C  12.20300 0.83200 26.74100
C  11.47400 1.88500 30.01700
O  12.41800 1.17100 30.32600
C  10.51400 2.69300 30.95800
C  9.69300 1.79400 31.75700
O  8.84300 1.02600 31.33800
O  10.08900 2.02500 33.08700
C  9.50600 1.02400 33.99100
H  5.12300 7.05300 29.65700
H  7.16300 7.39000 23.51700
H  11.15900 2.59800 24.66800
H  7.70800 3.89100 32.33000
H  6.37000 6.35400 31.87100
H  4.61900 4.77300 31.88600
H  5.56300 3.46700 31.09700
H  4.72200 4.63800 30.20300
H  8.36100 6.76300 32.52300
H  9.80300 5.82500 32.24500
H  9.30400 4.30800 34.10800
H  8.13900 5.36800 34.56000
H  4.31600 8.83000 28.94400
H  3.37300 9.09600 27.41200
H  4.62700 10.19500 27.87600
H  3.42100 9.92500 25.27400
H  4.31100 11.03800 24.04900
H  4.59500 11.09400 25.81500
H  9.42700 6.33700 22.45800
H  9.03500 3.41400 22.63500
H  6.73000 5.77500 22.00900
H  7.38800 4.20600 21.64300
H  7.80600 5.70000 20.64800
H  11.75100 4.38100 23.39700
H  11.33500 4.99100 21.91000
H  12.13000 3.07200 21.07400
H  10.61800 2.22900 21.53400
H  12.07800 2.25600 22.55200
H  13.26500 1.07400 26.70400
H  11.84100 0.62700 25.73300
H  12.05900 -0.04600 27.37000
H  11.18600 3.27000 31.59300
H  8.45800 0.82100 33.77100
H  9.34900 1.55600 34.92900
H  10.13200 0.14600 34.15500
Mg 48.10700 16.05600 29.04000
C  45.79700 15.60900 31.62400
C  49.83600 18.12000 31.29100
C  50.06500 16.86300 26.57200
C  45.62600 14.85800 26.72000
N  47.87400 16.71900 31.23600
C  46.89800 16.36200 32.10400
C  47.09900 16.78600 33.52300
C  48.24000 17.86600 33.32000
C  48.66600 17.59200 31.83700
C  47.79500 19.35600 33.48500
C  47.64500 15.52500 34.28600
C  47.99900 15.69200 35.78900
H  47.44300 16.74800 36.73100
N  49.82300 17.15500 29.01600
C  50.38200 17.91800 30.04700
C  51.63300 18.46300 29.57200
C  51.65500 18.23600 28.15300
C  50.52000 17.33900 27.80800
C  52.52600 19.26500 30.48300
C  52.66900 18.75300 27.09800
O  52.47600 18.56400 25.88800
C  53.87000 19.41500 27.62900
N  47.92200 15.75800 27.00700
C  48.92400 16.11100 26.18800
C  48.73000 15.78200 24.70600
C  47.37200 14.96300 24.84000
C  46.93800 15.16000 26.29500
C  48.53100 17.05500 23.81900
C  47.56300 13.40000 24.59100
C  46.77000 12.71500 23.52500
N  46.11100 15.36900 29.12600
C  45.27500 14.77800 28.13100
C  44.04600 14.30900 28.72300
C  44.30500 14.58800 30.05900
C  45.51100 15.18900 30.29700
C  42.90500 13.56200 28.21100
C  43.70400 14.34400 31.35200
O  42.65600 13.88900 31.73500
C  44.65800 15.01300 32.42400
C  43.87800 16.06600 33.08900
O  43.22500 16.95300 32.58500
O  43.96200 15.81700 34.43200
C  43.33200 16.79300 35.32500
H  50.37500 18.85100 31.89700
H  50.75300 17.13000 25.76700
H  44.87600 14.44700 26.04100
H  46.16800 17.04700 34.02700
H  49.13100 17.66700 33.91600
H  46.70600 19.37900 33.44400
H  48.23000 19.98200 32.70500
H  48.03400 19.74100 34.47700
H  48.61300 15.27100 33.85600
H  46.95800 14.72300 34.01500
H  49.08800 15.64800 35.79100
H  47.61900 14.84400 36.35900
H  53.36400 18.62900 30.77100
H  52.09000 19.65800 31.40200
H  52.84000 20.20100 30.02000
H  54.59200 19.50600 26.81800
H  54.31900 18.78400 28.39600
H  53.54000 20.37200 28.03200
H  49.48400 15.07300 24.36600
H  46.71500 15.29600 24.03700
H  47.54400 17.29600 23.42400
H  49.08500 16.79800 22.91600
H  49.03300 17.86500 24.34800
H  47.21500 12.84600 25.46400
H  48.62600 13.16400 24.55600
H  45.99600 12.04000 23.89100
H  47.40900 12.07400 22.91900
H  46.33600 13.48100 22.88200
H  42.80600 13.54700 27.12500
H  42.01500 14.02000 28.64200
H  42.97900 12.55600 28.62500
H  44.93400 14.29500 33.19700
H  43.25600 17.76700 34.84100
H  43.99000 16.86400 36.19100
H  42.37300 16.56700 35.79100

