158

Mg 17.61500 -1.71000 27.01400
C  16.89700 0.45800 29.73000
C  19.64000 -3.62200 29.00700
C  18.73000 -3.44100 24.31600
C  15.66500 0.32300 24.99700
N  18.12400 -1.54200 29.09800
C  17.67200 -0.65400 30.11000
C  18.08900 -1.09900 31.55100
C  19.08500 -2.30000 31.12800
C  18.93600 -2.55900 29.61700
C  20.61300 -2.18500 31.56300
C  16.90000 -1.44600 32.40100
C  17.00900 -1.24600 33.91600
H  18.18800 -0.54900 34.56900
N  18.90700 -3.35300 26.73500
C  19.64700 -4.03600 27.66700
C  20.34600 -5.15800 27.11100
C  20.10600 -5.13700 25.69300
C  19.26400 -3.92900 25.54300
C  21.16800 -6.20000 27.91000
C  20.64200 -6.13300 24.65800
O  20.37400 -6.04100 23.43200
C  21.51300 -7.35100 24.93300
N  17.29900 -1.46000 24.95400
C  17.92000 -2.27000 24.08000
C  17.49500 -1.82200 22.61000
C  16.34700 -0.83500 22.86300
C  16.37300 -0.60300 24.33800
C  18.68100 -1.28000 21.80200
C  14.91300 -1.27200 22.44000
C  14.12500 -2.25000 23.34000
N  16.40700 -0.02900 27.29900
C  15.65700 0.64300 26.37700
C  15.07100 1.76100 27.05900
C  15.53600 1.73400 28.37000
C  16.31300 0.60900 28.43200
C  14.11100 2.73300 26.49700
C  15.39300 2.38900 29.64300
O  14.65000 3.33100 29.96800
C  16.22300 1.51800 30.63000
C  17.21400 2.33700 31.44100
O  18.32800 2.71200 31.15800
O  16.54200 2.77300 32.60700
C  17.24100 3.62600 33.57400
H  20.10100 -4.27100 29.75500
H  19.09500 -3.90400 23.39600
H  15.09700 1.03300 24.39300
H  18.70800 -0.31500 31.98700
H  18.79600 -3.23000 31.61600
H  20.94000 -1.25300 32.02300
H  21.24800 -2.43700 30.71300
H  20.88700 -2.94100 32.29900
H  16.83100 -2.52300 32.24400
H  16.02300 -0.94200 31.99600
H  16.87300 -2.28300 34.22300
H  16.13600 -0.69200 34.26100
H  22.20100 -6.25700 27.56900
H  20.61600 -7.11900 27.71600
H  21.35900 -5.98300 28.96100
H  22.37800 -7.15000 25.56600
H  21.97300 -7.81000 24.05800
H  20.94600 -8.08000 25.51200
H  17.04800 -2.69900 22.14000
H  16.50400 0.12200 22.36600
H  18.37400 -0.82000 20.86200
H  19.35800 -2.12700 21.69200
H  19.20800 -0.45700 22.28400
H  15.06800 -1.81000 21.50400
H  14.37300 -0.37000 22.15300
H  13.31000 -1.68600 23.79300
H  14.71300 -2.69000 24.14600
H  13.67000 -3.00400 22.69700
H  13.65200 2.55400 25.52500
H  14.69300 3.65500 26.48200
H  13.35600 2.99600 27.23900
H  15.53500 1.06400 31.34300
H  16.85600 4.64500 33.55000
H  18.27200 3.78800 33.25900
H  17.16000 3.26100 34.59800
Mg 48.20700 34.70300 27.37100
C  45.99200 33.38100 29.76900
C  48.35600 37.40400 29.27200
C  49.44500 36.29900 24.78700
C  47.24900 31.89700 25.21500
N  47.46800 35.17800 29.44600
C  46.60500 34.53000 30.16100
C  46.69000 35.08800 31.59700
C  46.96300 36.55900 31.27400
C  47.57800 36.44400 29.84100
C  45.78000 37.65100 31.36100
C  47.83600 34.49700 32.40600
C  48.39500 35.10100 33.71100
H  47.38500 35.65900 34.68300
N  49.05700 36.55400 27.14200
C  49.10100 37.53400 28.07000
C  49.96400 38.63100 27.59500
C  50.09300 38.41600 26.22400
C  49.55100 37.05100 25.98700
C  50.33500 39.87700 28.43500
C  50.72700 39.29000 25.13600
O  50.84900 38.81900 23.98500
C  51.34300 40.67900 25.49400
N  48.10400 34.22800 25.26300
C  48.89200 35.08100 24.46800
C  49.27400 34.36100 23.11600
C  48.58400 32.93800 23.29300
C  47.99700 32.94300 24.67600
C  48.95000 35.11900 21.78400
C  49.44000 31.67400 23.01800
C  50.74900 31.59500 23.86600
N  46.97500 32.91800 27.45900
C  46.63500 31.91700 26.52800
C  45.84300 30.93000 27.14500
C  45.43600 31.50400 28.37100
C  46.20500 32.73500 28.51800
C  45.27600 29.71100 26.39100
C  44.72600 31.25900 29.61700
O  44.01700 30.31800 29.99000
C  44.95900 32.56100 30.53900
C  45.04600 32.06400 31.92200
O  45.80700 31.18700 32.39500
O  43.90000 32.49500 32.60000
C  43.78800 31.98300 34.03000
H  48.37100 38.32300 29.86100
H  49.90200 36.77800 23.91800
H  47.19300 31.00800 24.58400
H  45.78200 34.90900 32.17200
H  47.78800 37.04600 31.79400
H  44.86600 37.14500 31.67100
H  45.69700 38.16400 30.40300
H  46.01200 38.41000 32.10900
H  48.64400 34.18000 31.74700
H  47.44000 33.53300 32.72500
H  49.19300 35.82400 33.54600
H  48.83700 34.27400 34.26700
H  51.41100 40.04400 28.47300
H  50.03200 39.69000 29.46500
H  49.79000 40.72600 28.02300
H  51.59200 41.18100 24.55900
H  52.23200 40.49300 26.09700
H  50.54200 41.22700 25.98900
H  50.35800 34.25300 23.06900
H  47.73300 32.89600 22.61400
H  48.44500 36.02500 22.12100
H  48.31200 34.60000 21.06900
H  49.90400 35.38800 21.32900
H  49.62900 31.55500 21.95100
H  48.85600 30.81300 23.33900
H  50.56000 30.73700 24.51100
H  50.76500 32.48700 24.49200
H  51.73000 31.31800 23.48100
H  46.02400 28.94400 26.19000
H  44.95200 30.02900 25.40000
H  44.43500 29.31400 26.95900
H  44.02700 33.12000 30.62100
H  42.99700 31.31300 34.36700
H  43.73800 32.85200 34.68500
H  44.65000 31.38200 34.32100

