158

Mg 0.12000 7.39400 27.23600
C  0.77100 9.36900 30.07400
C  0.69700 4.58200 29.13200
C  -0.12200 5.60000 24.38400
C  0.08200 10.37700 25.38600
N  0.62400 7.06400 29.41100
C  0.66000 8.02100 30.36400
C  0.71600 7.36300 31.77500
C  0.97300 5.80800 31.36300
C  0.77400 5.81000 29.87000
C  2.48300 5.35900 31.49800
C  -0.65300 7.57600 32.52500
C  -0.53200 8.15400 33.86800
H  0.69500 7.88600 34.71600
N  0.16100 5.34700 26.82500
C  0.36100 4.32200 27.77000
C  0.22800 3.09300 27.06800
C  -0.00900 3.37600 25.67800
C  0.04300 4.80900 25.59000
C  0.32900 1.70400 27.87300
C  -0.03300 2.36700 24.63200
O  -0.03500 2.74800 23.47900
C  -0.23600 0.90700 24.93400
N  -0.24100 7.89800 25.15200
C  -0.21700 6.96700 24.14300
C  -0.19900 7.59700 22.75000
C  -0.40200 9.13200 23.10100
C  -0.22100 9.15600 24.65600
C  1.05500 7.41100 21.85400
C  -1.78300 9.73400 22.72700
C  -1.87500 10.22900 21.32200
N  0.32400 9.40300 27.57000
C  0.40300 10.51700 26.75000
C  0.71900 11.71400 27.42200
C  0.83600 11.30700 28.73800
C  0.60800 9.91700 28.80800
C  0.76400 13.02200 26.76500
C  1.10200 11.75900 30.07000
O  1.30300 12.91200 30.42700
C  0.95900 10.48200 31.04300
C  2.22000 10.48700 31.81100
O  3.30200 9.96700 31.51200
O  1.91000 11.15400 32.95700
C  3.06500 11.56600 33.80300
H  0.77500 3.63100 29.66300
H  -0.13200 5.09500 23.41500
H  0.18400 11.22400 24.70400
H  1.60100 7.75500 32.27700
H  0.30500 5.10100 31.85600
H  2.62000 4.27900 31.54200
H  2.92800 5.83000 32.37500
H  3.18200 5.55800 30.68600
H  -1.23200 6.65900 32.62600
H  -1.25700 8.29200 31.96700
H  -1.21200 7.56800 34.48500
H  -0.91300 9.17500 33.84600
H  -0.40100 0.95200 27.57400
H  0.15600 1.83500 28.94200
H  1.32900 1.30600 27.69700
H  0.42100 0.34800 25.60000
H  -0.19400 0.42400 23.95800
H  -1.25500 0.77100 25.29800
H  -1.09600 7.31400 22.19900
H  0.39200 9.74200 22.67000
H  0.69100 6.81700 21.01500
H  1.81400 6.89800 22.44400
H  1.43100 8.38800 21.55000
H  -1.96800 10.51300 23.46600
H  -2.55200 8.96900 22.83200
H  -0.93400 10.02600 20.81000
H  -2.14700 11.27900 21.22100
H  -2.68800 9.72600 20.79800
H  1.33800 13.69900 27.39700
H  -0.25500 13.36800 26.58600
H  1.25400 12.91600 25.79700
H  0.11700 10.75700 31.67800
H  2.64300 11.89700 34.75100
H  3.59300 12.36200 33.27700
H  3.81700 10.81200 34.03400
Mg 24.11700 -5.21200 45.22300
C  26.34200 -3.10700 43.53900
C  21.71800 -4.20600 43.01400
C  22.19100 -7.99000 46.01700
C  26.87200 -6.59300 46.88100
N  24.14700 -3.94400 43.41400
C  25.09700 -3.06200 43.04000
C  24.62700 -2.08500 41.90600
C  23.09300 -2.34600 41.97600
C  22.95300 -3.58400 42.82500
C  22.22100 -1.11400 42.45200
C  25.29300 -2.25200 40.49100
C  25.24100 -1.03100 39.61400
H  24.85500 -1.27600 38.09800
N  22.13300 -5.96700 44.64200
C  21.31400 -5.36100 43.74300
C  20.08800 -6.09600 43.70000
C  20.13300 -7.11300 44.69000
C  21.52500 -7.08300 45.17100
C  18.93900 -5.60000 42.78600
C  18.99500 -8.03700 45.11800
O  17.90200 -7.93700 44.52300
C  19.15700 -9.01200 46.27900
N  24.48100 -7.05600 46.13800
C  23.57200 -8.03400 46.45000
C  24.21700 -9.10000 47.28500
C  25.58700 -8.58000 47.74600
C  25.67700 -7.37400 46.78400
C  23.31900 -9.73700 48.44200
C  26.78600 -9.57700 47.61500
C  27.59100 -9.79800 48.90200
N  26.21700 -4.78000 45.39100
C  27.18400 -5.42700 46.13600
C  28.50400 -4.78500 45.96900
C  28.21400 -3.81400 44.92900
C  26.82700 -3.89500 44.62700
C  29.76000 -5.17200 46.60800
C  28.76200 -2.80600 44.04900
O  29.93400 -2.44700 43.93000
C  27.54400 -2.21500 43.21400
C  27.29000 -0.84000 43.69300
O  26.60800 -0.53600 44.65600
O  27.93900 0.13400 42.87500
C  27.87400 1.49600 43.47400
H  20.97500 -3.70400 42.39000
H  21.70700 -8.88300 46.41700
H  27.70200 -7.00300 47.45900
H  24.87100 -1.07000 42.22000
H  22.73600 -2.62900 40.98700
H  22.89100 -0.25600 42.51200
H  21.77600 -1.40300 43.40400
H  21.38200 -0.97500 41.77000
H  24.82600 -3.13000 40.04500
H  26.33400 -2.54700 40.62200
H  26.23100 -0.60600 39.78000
H  24.53300 -0.43300 40.18900
H  18.31300 -4.85000 43.27000
H  18.17900 -6.36600 42.63100
H  19.33000 -5.08300 41.90900
H  18.17000 -9.17900 46.71000
H  19.76400 -8.56800 47.06800
H  19.57400 -9.96000 45.94000
H  24.43400 -9.94700 46.63500
H  25.56800 -8.20400 48.76900
H  24.07400 -10.05200 49.16200
H  22.69100 -10.51800 48.01400
H  22.71900 -8.94200 48.88600
H  27.48000 -9.17700 46.87600
H  26.38700 -10.55200 47.33400
H  28.66800 -9.78900 48.73600
H  27.24100 -10.79100 49.18500
H  27.16400 -9.04500 49.56300
H  30.63000 -4.98400 45.98000
H  29.76000 -6.18000 47.02400
H  29.88900 -4.45500 47.41900
H  27.77500 -2.33200 42.15500
H  27.01600 1.89100 44.01900
H  27.94800 2.22200 42.66400
H  28.68900 1.52600 44.19700

