158

Mg 8.19500 3.50600 27.81900
C  9.82300 1.98400 30.53300
C  5.98000 5.03200 30.20000
C  6.36400 4.71900 25.38900
C  9.68500 1.33100 25.77900
N  7.86000 3.39400 30.12000
C  8.72800 2.78500 30.96500
C  8.46000 3.28400 32.39200
C  7.29800 4.27500 32.31200
C  6.98100 4.18100 30.76700
C  6.07900 4.16100 33.26300
C  9.70600 3.84400 33.23600
C  9.41700 4.55600 34.56200
H  10.27900 4.33700 35.75600
N  6.45500 4.75200 27.80100
C  5.76200 5.27700 28.81200
C  4.68000 6.12500 28.33200
C  4.73200 6.05500 26.87600
C  5.84200 5.21400 26.58200
C  3.87500 7.00700 29.20900
C  3.86800 6.72100 25.82200
O  4.01900 6.65200 24.62800
C  2.65300 7.54400 26.16000
N  7.95400 3.00100 25.84000
C  7.19300 3.65900 25.02800
C  7.47900 3.36700 23.54200
C  8.71100 2.40000 23.64800
C  8.83600 2.19600 25.16100
C  6.19900 3.04700 22.61700
C  10.06600 2.90500 23.11900
C  10.98200 3.91900 24.01300
N  9.60100 1.96500 28.06400
C  10.13500 1.20200 27.10400
C  11.16700 0.34400 27.66100
C  11.12800 0.75900 29.04700
C  10.09000 1.65300 29.21600
C  12.17700 -0.48400 26.85700
C  11.64500 0.43700 30.30700
O  12.56600 -0.31200 30.60600
C  10.78100 1.11500 31.33500
C  10.03600 0.16500 32.20300
O  9.22000 -0.67200 31.83000
O  10.36400 0.32100 33.51900
C  9.68500 -0.64200 34.38300
H  5.40700 5.63700 30.90600
H  5.94800 5.11200 24.45900
H  10.33800 0.68100 25.19200
H  8.13100 2.31200 32.76000
H  7.67000 5.28400 32.49100
H  5.18600 3.94600 32.67700
H  5.85600 5.00900 33.91100
H  6.13800 3.33100 33.96700
H  10.42400 4.37000 32.60700
H  10.25300 2.95100 33.54100
H  8.35300 4.38000 34.71500
H  9.52100 5.62300 34.36500
H  3.83900 7.93200 28.63300
H  4.34900 7.31600 30.14000
H  2.91200 6.55300 29.44500
H  2.07300 7.00000 26.90500
H  1.96200 7.72500 25.33700
H  3.12900 8.48800 26.42700
H  7.89700 4.27800 23.11300
H  8.36100 1.46400 23.21400
H  5.28700 3.26900 23.17200
H  6.30800 1.99600 22.34800
H  6.25600 3.73000 21.77000
H  9.86900 3.40100 22.16800
H  10.64000 1.99200 22.95600
H  10.30100 4.52300 24.61100
H  11.53400 4.58100 23.34500
H  11.62900 3.33200 24.66500
H  12.79200 -1.02400 27.57600
H  12.66800 0.24800 26.21500
H  11.65900 -1.20500 26.22600
H  11.48200 1.61800 32.00000
H  10.48500 -1.35500 34.58300
H  8.87000 -1.18800 33.90700
H  9.32000 -0.23300 35.32500
Mg 54.51500 23.55900 45.15800
C  52.01500 25.94200 44.53400
C  52.41100 21.14200 43.87000
C  57.20500 21.63100 44.62300
C  56.67200 26.14800 46.21800
N  52.51700 23.61300 44.38600
C  51.66400 24.65100 44.14300
C  50.40900 24.16400 43.45000
C  50.39200 22.60700 43.91600
C  51.87500 22.40000 44.11300
C  49.45200 22.21800 45.15800
C  50.49000 24.45100 41.81900
C  49.41000 23.69900 40.94600
H  48.85700 24.41100 39.73600
N  54.72600 21.67800 44.39000
C  53.79400 20.81600 43.91400
C  54.36300 19.49900 43.60200
C  55.75500 19.62000 43.80600
C  55.96000 21.06000 44.19600
C  53.58200 18.19500 43.25300
C  56.80100 18.47800 43.75800
O  56.46500 17.33900 43.43900
C  58.25800 18.65200 44.14000
N  56.58500 23.83000 45.39200
C  57.41800 22.79100 45.29600
C  58.82300 23.21000 45.81900
C  58.62000 24.54400 46.44000
C  57.15800 24.90400 46.02500
C  59.41900 22.04800 46.84700
C  59.63500 25.61000 46.15400
C  59.82800 26.54300 47.37800
N  54.35500 25.65200 45.45900
C  55.34800 26.60600 45.87700
C  54.77300 27.88500 45.78600
C  53.48500 27.67300 45.22600
C  53.25700 26.33000 45.13500
C  55.44400 29.20700 46.11800
C  52.22000 28.36600 44.86800
O  51.87100 29.51700 44.94700
C  51.25900 27.28200 44.40400
C  50.77900 27.61000 43.03500
O  51.51000 27.93700 42.09600
O  49.40300 27.50400 42.98500
C  48.68800 27.88100 41.75900
H  51.68500 20.36800 43.61200
H  58.12700 21.06800 44.46100
H  57.33500 26.92900 46.59700
H  49.58400 24.70600 43.91300
H  50.03000 22.02500 43.06800
H  48.80800 21.36100 44.96100
H  48.93800 23.05600 45.62800
H  50.07100 22.03200 46.03600
H  51.48000 24.06800 41.56800
H  50.34200 25.51800 41.65200
H  48.53600 23.35000 41.49600
H  49.89200 22.77000 40.64400
H  53.78900 17.94300 42.21300
H  52.53800 18.48400 43.13700
H  53.57200 17.47100 44.06900
H  58.71600 19.33800 43.42800
H  58.68400 17.64900 44.13300
H  58.26200 19.08400 45.14100
H  59.47000 23.35500 44.95300
H  58.39700 24.33700 47.48700
H  59.77300 22.39500 47.81700
H  60.24800 21.53400 46.36200
H  58.62400 21.30900 46.95100
H  59.27500 26.14800 45.27800
H  60.63400 25.21800 45.96400
H  60.88900 26.73500 47.53500
H  59.17400 26.34300 48.22700
H  59.35600 27.47800 47.07300
H  56.03200 29.05900 47.02400
H  54.81200 30.06500 46.34300
H  56.01300 29.37200 45.20400
H  50.43300 27.28600 45.11600
H  47.80500 28.33300 42.21300
H  48.40100 26.96600 41.24100
H  49.24000 28.64800 41.21600

