158

Mg 46.97000 45.67900 44.13800
C  43.71700 45.21000 43.26200
C  47.49100 42.25200 42.86500
C  50.39300 46.09600 43.68700
C  46.48700 49.05300 44.31000
N  45.74800 43.94400 43.08700
C  44.42000 43.99500 43.12500
C  43.87800 42.70000 42.46600
C  44.95800 41.68300 42.67500
C  46.13800 42.71300 42.91800
C  44.72500 40.62400 43.82600
C  43.49000 42.97600 40.94000
C  42.08800 42.37700 40.53000
H  41.91200 41.70000 39.19900
N  48.78500 44.31600 43.66000
C  48.70300 42.97200 43.14100
C  50.03300 42.41400 42.99000
C  50.90500 43.55000 43.33900
C  50.05200 44.73100 43.47400
C  50.31400 41.08300 42.46100
C  52.42400 43.41500 43.37700
O  52.94900 42.43200 42.95800
C  53.29700 44.50700 43.91900
N  48.21700 47.32200 44.17400
C  49.55800 47.23800 43.94200
C  50.17800 48.65700 44.20300
C  48.92200 49.65500 44.03500
C  47.80500 48.64000 44.18800
C  50.92500 48.91600 45.52400
C  48.68100 50.38000 42.67000
C  48.56700 51.89800 42.82000
N  45.36400 46.85400 44.07400
C  45.33200 48.21300 44.21800
C  43.91200 48.69900 43.99600
C  43.30200 47.59100 43.66200
C  44.16700 46.48200 43.72700
C  43.36800 50.08400 44.12400
C  41.98900 47.00800 43.27100
O  40.90600 47.65600 43.15600
C  42.22300 45.47300 43.02500
C  41.24100 44.73300 43.88700
O  40.29600 44.05800 43.43800
O  41.50700 45.04100 45.19400
C  40.54000 44.32900 46.08200
H  47.59700 41.21400 42.54300
H  51.45900 46.21900 43.48400
H  46.34700 50.11500 44.52500
H  42.97900 42.44900 43.03100
H  45.12400 41.17600 41.72500
H  43.65200 40.65400 44.01500
H  45.22500 40.99100 44.72200
H  45.08600 39.63200 43.55700
H  44.24000 42.52500 40.29000
H  43.54000 44.04800 40.75300
H  41.41000 43.23000 40.50500
H  41.73700 41.63900 41.25100
H  50.94600 41.22000 41.58300
H  49.46400 40.47300 42.15700
H  50.96700 40.57500 43.17000
H  53.44800 45.07600 43.00200
H  54.24400 44.12500 44.29900
H  52.92900 45.20500 44.67100
H  50.87300 48.81800 43.37900
H  48.77800 50.22600 44.95200
H  50.90600 48.04700 46.18200
H  50.47800 49.77500 46.02400
H  51.97500 49.16100 45.36400
H  47.86600 49.97100 42.07300
H  49.44400 50.16800 41.92100
H  48.57800 52.28300 43.83900
H  47.74300 52.26000 42.20500
H  49.49800 52.34800 42.47500
H  42.96100 50.44400 45.06900
H  42.61400 50.17500 43.34200
H  44.10200 50.84200 43.85100
H  42.04900 45.33100 41.95800
H  39.55800 44.67700 45.76200
H  40.79400 44.68100 47.08200
H  40.63500 43.25200 46.22000
Mg -8.73100 40.10800 43.19400
C  -8.07200 36.79900 42.29200
C  -5.91200 40.99700 41.32800
C  -9.64400 43.40400 43.30100
C  -11.79600 39.26500 44.33900
N  -7.16200 38.99800 42.07200
C  -7.07500 37.66500 41.90000
C  -5.90600 37.31300 40.99800
C  -5.05900 38.61400 40.94900
C  -6.09700 39.63800 41.41900
C  -3.81800 38.74000 41.82400
C  -6.49400 36.75100 39.68400
C  -5.59100 35.58500 38.99100
H  -4.74600 36.08900 37.77800
N  -7.87000 41.95800 42.43000
C  -6.72500 42.09000 41.73600
C  -6.46500 43.53300 41.41200
C  -7.56100 44.26700 41.99900
C  -8.43700 43.24300 42.61700
C  -5.34900 44.09400 40.55100
C  -7.64800 45.79700 42.05800
O  -6.88000 46.52800 41.44300
C  -8.79700 46.50700 42.85000
N  -10.49800 41.26200 43.62100
C  -10.63100 42.56400 43.77200
C  -11.97000 43.06600 44.30100
C  -12.61400 41.70700 44.71700
C  -11.55600 40.65300 44.15400
C  -11.87600 44.25300 45.33900
C  -14.14800 41.46000 44.44400
C  -14.48400 41.35800 42.92300
N  -9.69700 38.32200 43.52300
C  -11.00800 38.14200 43.94200
C  -11.28800 36.66200 43.88800
C  -10.12500 36.14900 43.29300
C  -9.21200 37.16800 43.06000
C  -12.52600 35.89800 44.42500
C  -9.50300 34.93500 42.95400
O  -9.98500 33.77700 43.02100
C  -8.19500 35.29600 42.14700
C  -7.08300 34.57800 42.69700
O  -6.44500 34.86400 43.69800
O  -6.57800 33.71200 41.73200
C  -5.29600 33.03500 42.00000
H  -5.00900 41.24900 40.76800
H  -9.88800 44.43500 43.56600
H  -12.72600 38.98800 44.83800
H  -5.35100 36.54200 41.53200
H  -4.96600 38.81300 39.88100
H  -3.88600 39.44600 42.65100
H  -2.92800 39.14000 41.33700
H  -3.62000 37.73200 42.19100
H  -6.48900 37.55200 38.94500
H  -7.52900 36.41100 39.69900
H  -6.27000 34.77600 38.72500
H  -4.87200 35.05300 39.61400
H  -5.63300 44.94100 39.92600
H  -4.95600 43.34200 39.86600
H  -4.60900 44.35900 41.30600
H  -8.74600 47.56900 42.61300
H  -8.70500 46.33000 43.92200
H  -9.75400 46.16500 42.45600
H  -12.53300 43.34400 43.41000
H  -12.44500 41.57600 45.78600
H  -10.82800 44.44000 45.57300
H  -12.37000 44.07600 46.29500
H  -12.27800 45.16800 44.90500
H  -14.69000 42.34800 44.76800
H  -14.42800 40.58300 45.02800
H  -14.82100 40.35100 42.67700
H  -13.59100 41.59000 42.34200
H  -15.17900 42.10500 42.53900
H  -12.68500 36.22200 45.45400
H  -12.28700 34.83500 44.43100
H  -13.43300 36.06500 43.84400
H  -8.37700 35.07700 41.09500
H  -4.51500 33.73300 42.30300
H  -4.89700 32.55200 41.10800
H  -5.34900 32.31200 42.81400

