158

Mg 30.12800 57.95100 39.92600
C  27.24300 56.04100 38.89700
C  32.04700 55.17300 39.06800
C  32.74200 59.98200 40.18900
C  27.97600 60.71200 40.47300
N  29.68400 55.85900 38.90200
C  28.40700 55.27400 38.72000
C  28.56300 53.85700 38.43700
C  30.06500 53.54900 38.91000
C  30.67200 54.92600 38.92800
C  30.22500 52.83000 40.32500
C  28.20100 53.21700 37.09800
C  28.77100 53.94700 35.93500
H  27.96400 54.71700 34.91600
N  32.13900 57.64500 39.63800
C  32.70900 56.42700 39.30300
C  34.12800 56.70300 39.18400
C  34.38500 58.07700 39.51300
C  33.04900 58.64200 39.75000
C  35.17600 55.64300 38.89800
C  35.71800 58.74900 39.48700
O  36.73800 58.04800 39.45500
C  35.83000 60.26100 39.52200
N  30.33400 60.14300 40.16400
C  31.51900 60.69700 40.30500
C  31.45900 62.18400 40.63700
C  29.93100 62.39500 40.95400
C  29.38400 61.04000 40.42300
C  32.42600 62.75200 41.79700
C  29.34200 63.68000 40.27400
C  28.92600 64.86300 41.18000
N  27.99700 58.33500 39.87600
C  27.33000 59.43800 40.11600
C  25.96300 59.11000 40.16900
C  25.84200 57.84900 39.58900
C  27.10300 57.32400 39.44200
C  24.85200 60.13600 40.33400
C  24.89800 56.77600 39.10100
O  23.65600 56.76200 38.99600
C  25.78700 55.62200 38.61500
C  25.24700 54.43200 39.36700
O  25.32200 54.25500 40.54400
O  24.61200 53.60400 38.43700
C  23.79200 52.64700 39.14100
H  32.67200 54.28000 39.01500
H  33.57800 60.68000 40.26800
H  27.26500 61.51400 40.68300
H  27.85300 53.29200 39.04100
H  30.60300 52.92000 38.20000
H  30.67600 51.84200 40.23400
H  29.27600 52.75500 40.85600
H  30.75400 53.46800 41.03300
H  27.14600 53.00300 36.92800
H  28.71800 52.25900 37.15400
H  29.42700 53.26600 35.39200
H  29.24600 54.79400 36.43000
H  34.76900 54.63800 39.01100
H  35.93300 55.75600 39.67500
H  35.50400 55.74300 37.86300
H  36.81000 60.58300 39.16800
H  35.69100 60.71900 40.50100
H  35.16400 60.64800 38.75100
H  31.71200 62.70900 39.71600
H  29.80400 62.45900 42.03400
H  32.76100 63.75700 41.54200
H  33.32000 62.17900 42.04600
H  31.80200 62.87600 42.68300
H  28.42400 63.47200 39.72300
H  30.01100 64.11700 39.53300
H  27.83800 64.91500 41.22000
H  29.41100 65.82300 40.99900
H  29.09000 64.62700 42.23200
H  23.95200 59.71800 40.78500
H  24.70500 60.53300 39.33000
H  25.18400 60.97800 40.94200
H  25.62400 55.47700 37.54700
H  24.35400 52.18400 39.95200
H  23.57000 51.80200 38.48900
H  22.82200 53.00700 39.48400
Mg -0.84400 34.34400 26.73100
C  -2.88900 32.77900 29.14200
C  0.33300 36.32100 29.11300
C  0.71700 36.02300 24.23200
C  -2.52300 32.45400 24.25000
N  -1.46100 34.72500 28.81800
C  -2.15900 33.85600 29.65700
C  -1.86200 34.13100 31.14700
C  -0.92800 35.34800 31.12600
C  -0.69400 35.55500 29.61900
C  -1.41100 36.62200 31.88900
C  -1.37500 32.87100 31.99100
C  -2.09800 32.64000 33.37200
H  -1.28400 32.62200 34.67200
N  0.32700 35.98600 26.67200
C  0.83400 36.59900 27.76300
C  1.86800 37.47500 27.34000
C  1.81900 37.57200 25.92900
C  0.93500 36.52600 25.54800
C  2.59800 38.13300 28.34200
C  2.60700 38.38100 24.95400
O  2.49600 38.27700 23.75400
C  3.59400 39.32900 25.53600
N  -0.79200 34.17600 24.47800
C  -0.08400 35.01400 23.66500
C  -0.36700 34.83700 22.15600
C  -1.28700 33.56000 22.24600
C  -1.64500 33.39100 23.71800
C  -1.06000 36.06400 21.50500
C  -0.79200 32.28600 21.54500
C  0.28700 31.45300 22.19600
N  -2.27000 32.85100 26.68100
C  -2.87000 32.18600 25.59500
C  -3.81400 31.23400 26.10200
C  -3.81700 31.39400 27.52900
C  -2.92500 32.41200 27.79000
C  -4.63900 30.44100 25.20000
C  -4.41700 30.96000 28.74700
O  -5.36300 30.20100 28.94200
C  -3.77200 31.86400 29.82400
C  -4.80200 32.45000 30.61400
O  -5.40500 33.44800 30.24800
O  -5.13600 31.64800 31.69200
C  -6.43000 32.02900 32.23200
H  0.89700 36.90100 29.84600
H  1.25100 36.51900 23.41900
H  -2.97500 31.78800 23.51200
H  -2.79500 34.41700 31.63300
H  0.04500 35.11700 31.56000
H  -1.35400 37.45500 31.18700
H  -0.81000 36.84400 32.77100
H  -2.45400 36.59100 32.20500
H  -0.32400 32.84200 32.28100
H  -1.53100 31.98800 31.37100
H  -2.56200 31.65900 33.27600
H  -2.87200 33.38500 33.55500
H  2.80600 37.50700 29.21000
H  2.14200 39.04200 28.73200
H  3.53300 38.49100 27.91100
H  3.07600 39.85100 26.34100
H  3.91800 40.03700 24.77300
H  4.48100 38.79600 25.87800
H  0.64700 34.76700 21.76200
H  -2.22800 33.70100 21.71400
H  -2.08000 35.94300 21.14200
H  -0.63800 36.33300 20.53700
H  -1.06900 36.91300 22.18900
H  -0.50900 32.56600 20.53000
H  -1.69500 31.70900 21.34500
H  1.25000 31.58500 21.70300
H  -0.03400 30.42300 22.04500
H  0.35800 31.54500 23.28000
H  -5.42500 30.01400 25.82200
H  -4.04800 29.65200 24.73400
H  -4.98500 31.04900 24.36400
H  -3.19000 31.21200 30.47500
H  -6.19300 32.20900 33.28000
H  -7.07400 31.15400 32.14600
H  -7.01100 32.86800 31.84900

