158

Mg 2.30100 -0.82500 43.56600
C  5.56800 0.46000 43.65200
C  1.26900 2.23600 42.40000
C  -0.46600 -2.22900 42.67500
C  3.70100 -3.95400 44.29000
N  3.30300 1.00800 42.99800
C  4.62300 1.30900 43.18000
C  4.86500 2.84300 42.95800
C  3.41300 3.41400 42.81100
C  2.56200 2.13100 42.73800
C  2.99400 4.35700 43.96800
C  5.88600 3.26900 41.84700
C  6.09100 2.48900 40.52900
H  5.68100 3.24200 39.24800
N  0.54800 -0.09600 42.73500
C  0.31300 1.19200 42.37500
C  -1.08200 1.27400 42.04600
C  -1.70600 0.01200 42.06500
C  -0.50300 -0.87300 42.46800
C  -1.66000 2.64500 41.89200
C  -3.16100 -0.26600 41.62400
O  -3.96500 0.59700 41.39400
C  -3.60900 -1.70800 41.54100
N  1.81000 -2.95500 43.16400
C  0.53200 -3.15500 43.06000
C  0.13400 -4.61800 43.41400
C  1.57700 -5.19000 43.81600
C  2.42200 -3.97800 43.73400
C  -0.95000 -4.64000 44.56900
C  2.08200 -6.36900 42.92800
C  1.66500 -7.76100 43.47000
N  4.25000 -1.67200 43.97600
C  4.71200 -2.89900 44.27200
C  6.08900 -2.88500 44.63100
C  6.44200 -1.55700 44.42600
C  5.32800 -0.87500 43.95800
C  6.93100 -4.04100 44.93900
C  7.56600 -0.59200 44.43800
O  8.77400 -0.77000 44.68800
C  7.03200 0.77500 44.00800
C  7.29800 1.76000 45.09900
O  8.15000 2.58000 44.99600
O  6.34900 1.70200 46.08500
C  6.48100 2.67500 47.15300
H  1.01000 3.18100 41.91800
H  -1.45000 -2.67100 42.50500
H  4.01200 -4.88100 44.77600
H  5.44800 3.09600 43.84400
H  3.27700 3.91500 41.85300
H  3.78300 4.30900 44.71900
H  2.03400 4.10500 44.42000
H  2.87400 5.39900 43.67200
H  6.82000 3.48000 42.36700
H  5.55200 4.27900 41.60700
H  5.33700 1.70200 40.53900
H  7.14300 2.22700 40.41300
H  -2.70100 2.74100 42.20000
H  -1.53200 2.89200 40.83800
H  -1.12700 3.36700 42.51200
H  -4.66700 -1.67000 41.27900
H  -3.58300 -2.17800 42.52400
H  -3.04800 -2.28400 40.80500
H  -0.36900 -5.25400 42.68600
H  1.64000 -5.36900 44.88900
H  -1.85700 -5.16300 44.26500
H  -1.15400 -3.65400 44.98700
H  -0.55900 -5.31700 45.32800
H  3.17000 -6.42400 42.96000
H  1.88200 -6.34000 41.85700
H  1.26000 -8.37700 42.66700
H  0.93700 -7.75600 44.28100
H  2.59200 -8.24900 43.76900
H  6.53900 -4.69700 45.71600
H  7.89500 -3.59100 45.17800
H  7.17300 -4.66500 44.08000
H  7.68800 1.01200 43.17000
H  6.30500 3.67900 46.76600
H  7.44200 2.65700 47.66600
H  5.69600 2.58000 47.90400
Mg 53.35900 24.45700 45.11000
C  50.52400 26.41700 44.17300
C  51.76700 21.72400 43.72100
C  56.24600 22.67400 45.43200
C  54.87300 27.31700 46.15800
N  51.48700 24.15600 43.98900
C  50.44100 25.04800 43.83200
C  49.20700 24.44100 43.16500
C  49.47000 22.94700 43.48700
C  51.00200 22.90000 43.78300
C  48.50400 22.29100 44.52300
C  49.18500 24.77400 41.69200
C  47.68000 24.88400 41.10900
H  46.98000 23.56400 40.70000
N  53.97600 22.48200 44.52400
C  53.09100 21.51400 44.08800
C  53.74200 20.23300 44.05000
C  55.07800 20.43500 44.50000
C  55.20900 21.89100 44.75900
C  53.08100 18.89500 43.85500
C  56.13500 19.33200 44.80800
O  55.99200 18.14600 44.48500
C  57.42600 19.62500 45.39000
N  55.30400 24.94700 45.70500
C  56.26900 24.03000 45.80200
C  57.62800 24.72800 46.17900
C  57.21800 26.23200 46.38900
C  55.68000 26.14700 46.07100
C  58.14500 24.12300 47.47900
C  57.98000 27.32200 45.57300
C  58.52700 28.48500 46.47100
N  52.78100 26.43500 45.32900
C  53.56300 27.47600 45.74600
C  52.76800 28.66300 45.85800
C  51.54300 28.32000 45.18100
C  51.65800 26.91900 44.88100
C  53.13500 29.95500 46.42500
C  50.20400 28.76800 44.81600
O  49.67200 29.88700 45.01900
C  49.51000 27.62200 44.06800
C  49.17500 28.08700 42.67800
O  49.95100 28.13200 41.71400
O  47.87900 28.38200 42.63000
C  47.24500 28.48300 41.35600
H  51.26800 20.76700 43.55400
H  57.05700 22.02700 45.77400
H  55.26800 28.25500 46.55500
H  48.25800 24.72800 43.61700
H  49.27800 22.34800 42.59700
H  48.55900 21.22500 44.74400
H  47.54200 22.71000 44.22900
H  48.78300 22.69900 45.49500
H  49.64200 23.91900 41.19400
H  49.73700 25.65700 41.37100
H  47.68500 25.55200 40.24700
H  46.98100 25.18100 41.89100
H  53.67700 18.40900 43.08400
H  52.05500 18.94500 43.48900
H  53.03100 18.20500 44.69800
H  58.10300 18.77400 45.46600
H  57.37700 19.99500 46.41400
H  57.90900 20.35000 44.73500
H  58.41600 24.62900 45.43300
H  57.28500 26.56300 47.42500
H  59.12200 23.70900 47.23100
H  57.42500 23.40100 47.86100
H  58.19300 24.87700 48.26500
H  57.32900 27.77700 44.82600
H  58.80900 26.87400 45.02400
H  58.54400 29.40400 45.88400
H  59.56000 28.24500 46.72200
H  57.96300 28.54700 47.40100
H  54.01300 29.95200 47.07200
H  52.27200 30.40500 46.91600
H  53.48500 30.44100 45.51400
H  48.57100 27.25400 44.48000
H  46.59200 27.62000 41.22900
H  47.98000 28.55100 40.55300
H  46.60500 29.36500 41.35300

