158

Mg 16.94800 -1.74400 27.76500
C  15.70900 0.64300 30.29000
C  18.74100 -3.21800 30.12200
C  18.60800 -3.31200 25.24700
C  15.47300 0.48000 25.38100
N  17.24400 -1.22700 29.91300
C  16.59500 -0.36200 30.79600
C  17.07600 -0.57400 32.26400
C  18.03800 -1.83000 32.19000
C  18.07100 -2.07300 30.61900
C  19.49000 -1.74700 32.86400
C  15.86500 -0.64200 33.16200
C  15.97900 -0.07600 34.56700
H  17.35700 0.31600 35.17500
N  18.44700 -3.12900 27.71400
C  19.04000 -3.65600 28.84500
C  19.88800 -4.74800 28.45200
C  19.82700 -4.83800 27.04100
C  18.90400 -3.75800 26.60600
C  20.59400 -5.64000 29.43900
C  20.31500 -5.89500 26.15500
O  20.18000 -5.83600 24.90600
C  21.04300 -7.13300 26.74100
N  16.93600 -1.54700 25.66200
C  17.70900 -2.32200 24.87000
C  17.70800 -1.82100 23.44600
C  16.53300 -0.71800 23.39300
C  16.30400 -0.56900 24.91300
C  19.16900 -1.35900 23.00800
C  15.29400 -1.14000 22.46000
C  14.09700 -1.78100 23.18200
N  15.67000 -0.00100 27.77400
C  15.17000 0.71200 26.74800
C  14.34300 1.85100 27.22500
C  14.58200 1.80800 28.63100
C  15.32800 0.68400 28.91000
C  13.47100 2.81600 26.43100
C  14.38400 2.49300 29.83500
O  13.79100 3.58600 29.99500
C  15.02600 1.77600 30.98400
C  16.07400 2.59300 31.68200
O  17.17800 2.78600 31.24400
O  15.49700 3.09800 32.87000
C  16.50000 3.93500 33.56600
H  19.02200 -3.79800 31.00400
H  19.26000 -3.66000 24.44300
H  15.06400 1.23200 24.70300
H  17.63600 0.35100 32.40300
H  17.59200 -2.71400 32.64400
H  19.48600 -0.81700 33.43100
H  20.25200 -1.59400 32.10000
H  19.64300 -2.53800 33.59900
H  15.53600 -1.65800 33.37800
H  15.00500 -0.18800 32.66900
H  15.57900 -0.80200 35.27500
H  15.32800 0.79700 34.61900
H  20.20800 -6.65900 29.39500
H  20.36300 -5.19300 30.40600
H  21.66200 -5.64000 29.22300
H  21.21200 -7.76600 25.87000
H  20.29400 -7.59500 27.38500
H  21.99800 -6.79100 27.13900
H  17.51300 -2.62800 22.73900
H  16.78400 0.21800 22.89400
H  19.90100 -1.44900 23.81000
H  19.14500 -0.30500 22.73000
H  19.59600 -2.00200 22.23900
H  15.56500 -1.76600 21.60900
H  14.86100 -0.21800 22.06900
H  13.28200 -1.07000 23.31400
H  14.48800 -2.08400 24.15300
H  13.79500 -2.70500 22.69000
H  13.03100 3.53000 27.12800
H  12.61400 2.28700 26.01500
H  14.03700 3.27200 25.61900
H  14.16100 1.46900 31.57200
H  16.73400 4.81300 32.96400
H  17.43200 3.42100 33.80500
H  16.06500 4.27000 34.50800
Mg 29.61100 57.81700 40.80300
C  26.90600 55.79100 40.03000
C  31.64200 55.14900 39.91400
C  32.15200 59.97300 40.97100
C  27.41100 60.47600 41.54200
N  29.27000 55.68800 39.97200
C  28.10500 55.03100 39.82400
C  28.30800 53.54200 39.43300
C  29.81500 53.39200 39.69000
C  30.29000 54.78900 39.86800
C  30.14600 52.38800 40.84400
C  27.81400 53.11300 37.97100
C  28.19400 53.90800 36.75900
H  27.24900 54.83500 36.09600
N  31.64800 57.58800 40.44600
C  32.32600 56.42500 40.11100
C  33.73400 56.71500 39.93200
C  33.87400 58.12300 40.14200
C  32.54700 58.60300 40.55500
C  34.70400 55.71400 39.44400
C  35.13200 58.82000 39.85900
O  36.19700 58.15600 39.55200
C  35.22600 60.33900 39.90200
N  29.72000 59.99300 41.14000
C  30.91500 60.55500 41.34500
C  30.71700 61.98700 41.75400
C  29.25100 62.05900 42.19600
C  28.74700 60.77300 41.63100
C  31.76600 62.51300 42.77000
C  28.53900 63.42100 41.95300
C  27.96600 64.17100 43.14900
N  27.62300 58.11400 40.80200
C  26.86100 59.27400 41.08400
C  25.41600 58.95100 40.99300
C  25.44600 57.57000 40.64700
C  26.75500 57.11600 40.45300
C  24.15700 59.87400 41.34000
C  24.53200 56.40400 40.28200
O  23.30300 56.24300 40.26200
C  25.49900 55.25000 40.03800
C  25.28000 54.08900 40.96700
O  25.44500 54.03800 42.19700
O  24.72400 53.00500 40.26400
C  24.24200 51.91600 41.13000
H  32.37900 54.36900 39.71500
H  32.84400 60.81700 41.00000
H  26.65000 61.12900 41.97400
H  27.82900 52.99500 40.24500
H  30.17300 52.92500 38.77300
H  29.34100 51.71800 41.14600
H  30.40800 53.02600 41.68800
H  31.02400 51.88100 40.44300
H  26.73600 53.03900 38.11400
H  28.26200 52.12900 37.83300
H  28.78400 53.31100 36.06300
H  28.80200 54.74200 37.10900
H  35.73100 55.74700 39.80900
H  34.82000 55.89500 38.37500
H  34.35800 54.68500 39.53800
H  34.33200 60.77600 39.45800
H  36.00600 60.68100 39.22200
H  35.40300 60.65000 40.93200
H  30.78800 62.58900 40.84800
H  29.24800 61.87700 43.27100
H  32.44200 61.67800 42.95800
H  31.37200 62.92700 43.69900
H  32.26300 63.23600 42.12400
H  27.77900 63.17300 41.21100
H  29.29300 64.05800 41.49000
H  28.33500 65.19600 43.15000
H  28.28700 63.75100 44.10200
H  26.88200 64.18600 43.27000
H  23.20500 59.54500 40.92400
H  24.34200 60.90600 41.04300
H  24.07200 59.81100 42.42500
H  25.15800 54.83700 39.08900
H  24.34900 51.00400 40.54200
H  23.19000 52.14700 41.29800
H  24.77300 51.88300 42.08100

