158

Mg 1.54800 -0.88400 44.44100
C  4.72200 0.46400 43.75400
C  0.11900 1.85200 43.09200
C  -1.36600 -2.67900 44.24600
C  3.16700 -3.90000 45.31800
N  2.37000 0.89800 43.37600
C  3.69500 1.27300 43.27500
C  3.89700 2.58500 42.50800
C  2.39900 3.18200 42.71200
C  1.54700 1.91900 43.10000
C  2.25800 4.26300 43.76600
C  4.28300 2.38600 40.96500
C  5.22200 3.52600 40.48600
H  4.81100 4.33800 39.19800
N  -0.31800 -0.46100 43.81900
C  -0.71400 0.75400 43.28200
C  -2.10900 0.77600 43.01700
C  -2.58700 -0.50300 43.36500
C  -1.40700 -1.30200 43.87000
C  -2.84000 1.97900 42.42700
C  -4.07700 -0.84600 43.41400
O  -4.93700 0.01000 43.23100
C  -4.53000 -2.20700 43.72300
N  0.96600 -3.09000 44.84900
C  -0.27100 -3.43800 44.78700
C  -0.46300 -4.83200 45.28500
C  0.96200 -5.23300 45.70100
C  1.79000 -4.04500 45.24600
C  -1.52300 -4.92200 46.46400
C  1.46700 -6.61800 45.00000
C  2.38800 -7.46800 45.85600
N  3.51000 -1.55900 44.70200
C  3.99200 -2.82700 44.96200
C  5.48000 -2.82000 44.94500
C  5.78800 -1.49200 44.55900
C  4.54800 -0.79100 44.35300
C  6.38100 -4.01800 45.43800
C  6.86100 -0.59900 44.24600
O  8.05300 -0.79600 44.34100
C  6.20800 0.74100 43.60300
C  6.70400 1.93600 44.29200
O  6.26500 2.44500 45.32000
O  7.72000 2.50500 43.62000
C  8.16700 3.83200 44.08500
H  -0.51300 2.63200 42.66100
H  -2.31400 -3.22100 44.25800
H  3.67000 -4.77900 45.72700
H  4.56600 3.28700 43.00600
H  1.97400 3.54700 41.77700
H  3.05300 5.00300 43.67200
H  2.08400 3.80000 44.73800
H  1.29300 4.73300 43.57700
H  3.42300 2.57200 40.32200
H  4.74300 1.40800 40.82500
H  6.23000 3.11700 40.41800
H  5.45000 4.16700 41.33800
H  -2.76800 1.99500 41.34000
H  -2.50300 2.92600 42.84700
H  -3.86900 2.08600 42.77200
H  -5.59200 -2.21100 43.47800
H  -4.29300 -2.52800 44.73700
H  -3.95100 -2.74800 42.97400
H  -0.72100 -5.31300 44.34200
H  1.00900 -5.44400 46.76900
H  -2.25500 -5.61500 46.05200
H  -1.92200 -3.92600 46.65600
H  -1.02700 -5.24300 47.38000
H  2.01000 -6.27500 44.11900
H  0.60500 -7.22000 44.71500
H  3.44100 -7.47100 45.57700
H  2.15000 -8.53200 45.84600
H  2.35700 -7.27300 46.92800
H  6.89200 -4.50800 44.61000
H  5.78100 -4.70500 46.03600
H  7.14100 -3.65100 46.12800
H  6.57000 0.90800 42.58900
H  9.15700 4.07500 43.69900
H  8.39100 3.65500 45.13700
H  7.42700 4.58200 43.80600
Mg 17.13900 51.91100 25.89600
C  18.90600 50.56000 28.47300
C  14.72600 52.95700 27.97800
C  15.29500 52.84300 23.20200
C  19.82400 50.98400 23.72400
N  16.82900 51.62400 27.96200
C  17.71600 51.19600 28.88600
C  17.17900 51.22700 30.28700
C  15.69200 51.90200 30.12000
C  15.69000 52.16400 28.54500
C  14.45800 51.14300 30.69300
C  18.11300 52.03700 31.23900
C  17.71400 52.14400 32.67100
H  16.65300 51.25900 33.30700
N  15.33700 52.87000 25.66300
C  14.47600 53.27300 26.65000
C  13.35000 54.00800 26.12300
C  13.62200 54.00800 24.71300
C  14.72300 53.17300 24.43300
C  12.22000 54.57500 27.00000
C  12.83900 54.75900 23.68900
O  13.09200 54.69000 22.51200
C  11.51100 55.48300 24.09200
N  17.48400 52.05200 23.84800
C  16.61200 52.42700 22.83200
C  17.19100 52.39400 21.48200
C  18.68300 51.98300 21.74700
C  18.70000 51.63200 23.21400
C  16.43500 51.38500 20.64600
C  19.67900 53.09200 21.34500
C  19.92800 54.28400 22.24300
N  18.93300 50.94800 26.02700
C  19.88900 50.51900 25.03000
C  20.99500 49.77600 25.69500
C  20.64800 49.74400 27.05000
C  19.37500 50.43300 27.15600
C  22.21800 49.24000 24.99700
C  21.10900 49.40800 28.28500
O  22.17100 48.92300 28.69300
C  20.02800 49.89000 29.31700
C  19.54000 48.73000 30.11300
O  18.92700 47.75900 29.68400
O  19.85000 48.95500 31.46300
C  19.29100 47.93800 32.34300
H  14.05200 53.33400 28.75000
H  14.65200 53.07700 22.35000
H  20.68000 50.71400 23.10200
H  17.09700 50.19900 30.63800
H  15.62600 52.89000 30.57500
H  13.89700 51.79900 31.35900
H  14.91800 50.36200 31.29900
H  13.77600 50.69600 29.96900
H  17.93600 53.02700 30.81900
H  19.18400 51.85200 31.15200
H  17.44000 53.18700 32.83000
H  18.50400 51.87700 33.37200
H  12.22900 55.66100 26.90900
H  12.29400 54.22800 28.03100
H  11.23100 54.17800 26.77000
H  11.72300 56.37800 24.67700
H  10.75900 54.85600 24.57200
H  10.97300 55.59400 23.15100
H  17.08600 53.39100 21.05400
H  18.94500 51.05400 21.24100
H  16.74000 50.36600 20.88500
H  16.52200 51.56600 19.57400
H  15.37600 51.53400 20.85500
H  19.48000 53.38600 20.31500
H  20.60800 52.52700 21.26400
H  19.03500 54.42600 22.85200
H  20.11800 55.17700 21.64800
H  20.68300 54.11800 23.01200
H  22.34000 49.10500 23.92200
H  22.20400 48.16500 25.17800
H  23.10100 49.70800 25.43300
H  20.56100 50.61300 29.93300
H  19.67700 48.22200 33.32200
H  19.70500 46.97600 32.04100
H  18.20700 47.83500 32.29900

