158

Mg 17.05000 -0.63800 28.13500
C  16.01900 1.35200 30.83000
C  19.15700 -2.49100 30.15000
C  18.40000 -2.05800 25.40000
C  15.30300 1.62600 25.99800
N  17.48300 -0.62500 30.20000
C  16.95700 0.32200 31.13900
C  17.47400 -0.08500 32.56500
C  18.48300 -1.22300 32.29200
C  18.39200 -1.47100 30.78000
C  19.90000 -0.99300 32.82800
C  16.25900 -0.54500 33.42300
C  16.14500 -0.07100 34.86400
H  17.44300 0.43900 35.54800
N  18.37300 -2.21100 27.85900
C  19.20400 -2.86600 28.80300
C  19.92700 -3.98300 28.17500
C  19.74100 -3.87200 26.81400
C  18.80900 -2.65600 26.64300
C  20.69900 -4.99200 28.94000
C  20.32900 -4.70600 25.79900
O  19.96600 -4.57800 24.59100
C  21.28200 -5.88300 26.05300
N  16.87400 -0.29900 25.96700
C  17.63800 -0.97500 25.09900
C  17.26900 -0.67400 23.65000
C  16.18600 0.44100 23.83400
C  16.08900 0.61100 25.32500
C  18.43200 -0.18600 22.82600
C  14.76400 0.20100 23.15000
C  13.62500 -0.44800 23.92900
N  15.77700 1.02100 28.29200
C  15.23100 1.91500 27.39800
C  14.52100 2.94800 28.04100
C  14.78700 2.74900 29.41100
C  15.60800 1.63100 29.47600
C  13.84700 4.15800 27.37100
C  14.57500 3.34300 30.77900
O  13.96400 4.38400 31.10400
C  15.38000 2.43400 31.74600
C  16.37900 3.27200 32.35900
O  17.48900 3.49200 31.90900
O  15.98300 3.58700 33.66100
C  17.04800 4.22300 34.54000
H  19.90800 -2.91700 30.81800
H  18.84400 -2.58400 24.55200
H  14.83300 2.28400 25.26400
H  17.95500 0.81300 32.95200
H  18.09500 -2.12100 32.77200
H  20.73600 -1.19700 32.16000
H  20.09100 -1.75700 33.58100
H  20.03400 -0.04700 33.35300
H  16.17200 -1.63000 33.36700
H  15.38900 -0.14900 32.89900
H  15.77300 -0.78200 35.60100
H  15.42300 0.74600 34.88700
H  20.64400 -4.79600 30.01100
H  21.72200 -5.10400 28.58300
H  20.24900 -5.97000 28.77000
H  20.79800 -6.55300 26.76300
H  22.15500 -5.46900 26.55700
H  21.54900 -6.41900 25.14300
H  16.86400 -1.57300 23.18600
H  16.62300 1.41100 23.59800
H  18.11500 0.72800 22.32400
H  18.67300 -1.00600 22.14900
H  19.34200 0.08500 23.36100
H  15.04300 -0.31700 22.23300
H  14.43800 1.22100 22.94600
H  13.85100 -1.40500 24.40000
H  12.79100 -0.62000 23.24900
H  13.25400 0.22600 24.70100
H  14.31000 4.34900 26.40200
H  13.92300 4.99700 28.06300
H  12.79800 4.00400 27.12100
H  14.70400 1.93800 32.44100
H  16.65100 4.03400 35.53700
H  17.06700 5.29700 34.35200
H  18.02700 3.75800 34.42200
Mg 35.24900 48.90300 26.40000
C  35.57000 46.69900 29.05700
C  34.25900 51.31200 28.88900
C  34.37200 51.00500 24.05300
C  35.89000 46.37000 24.14500
N  34.89200 48.90600 28.67700
C  35.23700 47.94500 29.55400
C  35.03600 48.32500 30.99600
C  34.36600 49.76900 30.86500
C  34.59700 50.06500 29.37100
C  32.87900 49.89900 31.19500
C  36.43100 48.29800 31.74600
C  36.49500 47.96100 33.22700
H  35.22100 48.08200 34.07000
N  34.52600 50.90700 26.42200
C  34.18400 51.69600 27.47100
C  33.66000 52.98800 27.05900
C  33.86000 52.99800 25.66300
C  34.30500 51.64400 25.27800
C  33.04500 54.10300 27.91600
C  33.69300 54.10300 24.52700
O  33.81100 53.97100 23.31300
C  33.44700 55.48300 25.04100
N  35.08700 48.73900 24.39000
C  34.73300 49.73000 23.53700
C  34.57600 49.23300 22.14200
C  35.38000 47.85400 22.16800
C  35.59200 47.63200 23.65500
C  33.11900 49.16800 21.56900
C  36.65100 47.73200 21.35100
C  37.89200 48.46800 21.84600
N  35.72800 46.90100 26.47000
C  35.98500 45.97000 25.50400
C  36.15800 44.63900 26.13300
C  36.04000 44.88200 27.50800
C  35.67700 46.25700 27.65500
C  36.54400 43.41100 25.35400
C  36.14900 44.27500 28.77900
O  36.43200 43.10400 29.09900
C  35.83800 45.41900 29.83500
C  34.67100 44.87500 30.58500
O  33.55400 44.65300 30.06600
O  35.04900 44.51500 31.84600
C  33.95500 44.00600 32.64100
H  33.81900 52.02300 29.59100
H  33.90800 51.59400 23.26000
H  35.83800 45.58300 23.39000
H  34.41800 47.57200 31.48400
H  34.98600 50.47800 31.41400
H  32.38300 48.95500 31.42200
H  32.33300 50.36300 30.37400
H  32.78400 50.58900 32.03400
H  36.95600 49.25400 31.74100
H  37.09900 47.62900 31.20300
H  37.33500 48.42500 33.74500
H  36.76000 46.90400 33.18100
H  32.35000 54.76600 27.40100
H  33.84600 54.55000 28.50500
H  32.58500 53.63300 28.78500
H  33.49700 56.22800 24.24700
H  34.22600 55.74900 25.75500
H  32.44900 55.56600 25.47200
H  35.10200 49.93200 21.49100
H  34.66600 47.11300 21.80800
H  32.38500 49.39600 22.34200
H  32.91300 48.16700 21.19000
H  32.86300 49.79800 20.71700
H  36.30200 47.91400 20.33400
H  36.83000 46.65700 21.34500
H  38.81000 47.90500 22.01400
H  37.69300 49.11900 22.69800
H  38.20800 49.13400 21.04200
H  36.33000 42.49400 25.90400
H  37.60800 43.51200 25.13600
H  36.05100 43.25700 24.39500
H  36.71500 45.33000 30.47600
H  33.53800 43.17900 32.06600
H  33.22300 44.77100 32.89900
H  34.36700 43.55700 33.54600

