158

Mg 1.36300 -0.81800 43.01700
C  4.89600 -0.41100 42.72000
C  0.93400 1.86900 40.93800
C  -1.96500 -1.58200 42.91900
C  2.03400 -3.99500 44.25300
N  2.79800 0.43100 41.76800
C  4.15100 0.48000 41.94000
C  4.73500 1.56700 40.99700
C  3.56500 2.44300 40.52900
C  2.33700 1.54900 41.06600
C  3.41300 3.87900 41.08400
C  5.44700 0.88900 39.76600
C  6.88900 1.28300 39.49500
H  7.12300 2.12400 38.27200
N  -0.33500 0.15000 42.18100
C  -0.28100 1.21700 41.41800
C  -1.64700 1.67500 41.13800
C  -2.56100 0.80500 41.75400
C  -1.64300 -0.29100 42.36600
C  -1.92400 2.96300 40.32300
C  -4.02500 0.82700 41.77800
O  -4.70100 1.63600 41.20300
C  -4.72700 -0.19500 42.52500
N  0.25600 -2.57900 43.33300
C  -1.13200 -2.60800 43.38900
C  -1.67100 -3.98100 43.63100
C  -0.36900 -4.77100 44.00300
C  0.73200 -3.65600 43.94000
C  -2.88400 -4.12000 44.63300
C  -0.12900 -6.06900 43.15500
C  -0.13300 -7.49100 43.86800
N  3.02700 -2.00900 43.50700
C  3.12400 -3.24900 43.95800
C  4.57700 -3.57400 44.24200
C  5.30000 -2.55000 43.70100
C  4.32500 -1.57300 43.32900
C  5.16100 -4.81500 44.96300
C  6.59100 -2.03800 43.41900
O  7.69600 -2.55500 43.55500
C  6.37500 -0.56900 42.92000
C  7.03700 0.22100 43.98100
O  6.54500 0.44600 45.05500
O  8.21600 0.79500 43.59600
C  9.16500 1.44600 44.50000
H  0.80600 2.80900 40.39700
H  -2.99900 -1.91000 42.79100
H  2.19100 -4.96200 44.73500
H  5.38700 2.15400 41.64400
H  3.51100 2.54100 39.44500
H  4.33000 4.34400 41.44600
H  2.66500 3.82400 41.87500
H  3.22300 4.65000 40.33700
H  4.84600 1.04000 38.86900
H  5.57700 -0.18100 39.92800
H  7.66400 0.53500 39.66000
H  7.10000 2.07800 40.21000
H  -1.56400 2.93100 39.29400
H  -1.45800 3.81400 40.81800
H  -2.96400 3.27400 40.42200
H  -5.81000 -0.17900 42.39800
H  -4.31000 -0.26200 43.53000
H  -4.56100 -1.09000 41.92500
H  -2.14200 -4.22400 42.67900
H  -0.50000 -5.11200 45.03000
H  -3.33400 -3.13200 44.72500
H  -2.54300 -4.37800 45.63600
H  -3.58500 -4.86900 44.26300
H  0.83300 -6.04600 42.64300
H  -0.95300 -6.15500 42.44700
H  -0.58800 -7.41000 44.85500
H  0.86800 -7.92000 43.85800
H  -0.68500 -8.27100 43.34300
H  6.24100 -4.84400 45.10300
H  4.73800 -5.67500 44.44300
H  4.64800 -4.80200 45.92500
H  6.96200 -0.58400 42.00200
H  9.35700 0.81600 45.36800
H  8.75000 2.41100 44.79400
H  10.11900 1.56300 43.98600
Mg 47.72300 14.61300 27.87800
C  45.73800 14.82100 30.65600
C  50.09400 16.62300 29.54800
C  49.56400 14.56500 25.17500
C  45.37900 12.57100 26.32400
N  47.86300 15.56800 29.91700
C  46.97200 15.40600 30.89800
C  47.44900 16.02200 32.18600
C  48.80700 16.77200 31.79300
C  48.94600 16.34200 30.32300
C  48.84000 18.33300 31.89800
C  47.49300 15.00000 33.33700
C  46.66100 15.15800 34.58500
H  47.46100 15.70600 35.79400
N  49.59100 15.47400 27.39600
C  50.41100 16.23100 28.22200
C  51.67200 16.40900 27.55500
C  51.52700 15.80600 26.27500
C  50.17000 15.28100 26.22500
C  52.78300 17.36100 28.05600
C  52.49100 15.80700 25.06400
O  52.13600 15.37200 23.94200
C  53.89400 16.38900 25.23400
N  47.38300 13.78300 25.92200
C  48.36800 13.89800 24.98900
C  47.91800 13.04400 23.72200
C  46.70500 12.31700 24.15500
C  46.42900 12.94400 25.47400
C  47.71600 13.81500 22.42800
C  46.79700 10.77900 24.03100
C  47.53900 10.09800 25.20900
N  45.98200 13.88100 28.31400
C  45.10900 12.99900 27.58500
C  43.94500 12.76200 28.39400
C  44.10900 13.50900 29.57000
C  45.38100 14.10700 29.47800
C  42.76600 11.90600 27.94000
C  43.50400 13.83400 30.82600
O  42.40800 13.60000 31.38300
C  44.57800 14.65700 31.60900
C  43.94000 15.94400 31.88300
O  43.60400 16.74700 31.04200
O  43.89900 16.16000 33.22000
C  43.37000 17.31400 33.74700
H  50.76800 17.29300 30.08500
H  50.16300 14.30000 24.30200
H  44.58500 11.94200 25.91500
H  46.58500 16.63800 32.43300
H  49.66100 16.42200 32.37300
H  48.87800 18.89900 30.96800
H  49.64000 18.50900 32.61700
H  47.84900 18.58200 32.27800
H  48.48400 14.98800 33.79000
H  47.28900 14.01600 32.91600
H  46.17200 14.20700 34.79400
H  45.83900 15.85900 34.44000
H  52.26500 18.12700 28.63300
H  53.33300 17.94900 27.32100
H  53.49600 16.79700 28.65800
H  54.20700 16.17900 26.25700
H  54.05900 17.41700 24.91100
H  54.65400 15.86200 24.65800
H  48.76100 12.36200 23.61500
H  45.83100 12.67000 23.60800
H  46.73500 14.28700 22.47400
H  47.90300 13.11500 21.61400
H  48.44800 14.62000 22.35900
H  47.37100 10.62200 23.11800
H  45.84600 10.28400 23.83400
H  47.09400 10.53400 26.10300
H  48.60700 10.31100 25.15900
H  47.32900 9.02800 25.21500
H  42.80400 10.89800 28.35400
H  42.76700 11.72500 26.86500
H  41.85500 12.46900 28.14100
H  44.91500 14.09800 32.48100
H  44.07800 18.09900 33.48100
H  43.32400 17.41800 34.83100
H  42.35700 17.42100 33.35900

