158

Mg 41.30300 8.82700 30.51900
C  43.11700 10.31000 33.07100
C  38.87600 8.11800 32.80300
C  39.63200 7.49800 28.02800
C  43.80400 9.75900 28.34200
N  41.17000 9.12500 32.76300
C  41.98600 9.72600 33.65000
C  41.37800 9.87200 35.05700
C  40.07100 9.03900 34.97300
C  40.04300 8.66600 33.40600
C  40.00400 7.70800 35.86300
C  41.08800 11.37800 35.47500
C  40.07200 11.59000 36.65400
H  40.60900 12.50300 37.82000
N  39.52800 7.81700 30.51500
C  38.57100 7.73600 31.50500
C  37.38900 7.09600 31.01200
C  37.57600 6.97300 29.59800
C  38.98500 7.39400 29.31600
C  36.22800 6.68800 31.95500
C  36.64400 6.42700 28.56600
O  36.98900 6.16000 27.45600
C  35.14600 6.34800 28.86800
N  41.77100 8.41500 28.45800
C  40.89800 7.91000 27.62100
C  41.31500 7.92500 26.13000
C  42.71800 8.72800 26.26100
C  42.76300 9.01100 27.76300
C  41.29600 6.48900 25.43700
C  42.89300 10.04000 25.37600
C  41.85600 11.12700 25.54500
N  43.08000 9.76600 30.64300
C  44.01100 10.07900 29.68300
C  45.06800 10.90300 30.17600
C  44.74100 10.98900 31.58200
C  43.50400 10.27500 31.77400
C  46.26600 11.56900 29.49300
C  45.16900 11.63400 32.71400
O  46.14800 12.35000 32.98300
C  44.11300 11.26900 33.78900
C  44.84800 10.78300 34.99000
O  45.59000 9.80600 34.95500
O  44.38200 11.35800 36.09100
C  45.09200 10.93100 37.32500
H  38.04300 7.99500 33.49900
H  39.12300 7.24700 27.09500
H  44.56400 10.17400 27.67700
H  42.00400 9.53200 35.88200
H  39.20200 9.67300 35.15400
H  39.13800 7.68800 36.52500
H  40.90600 7.67400 36.47300
H  39.92100 6.75300 35.34400
H  40.52600 11.72300 34.60800
H  42.00000 11.96300 35.59100
H  39.83000 10.65400 37.15800
H  39.14800 12.01600 36.26100
H  35.33900 7.31900 31.93400
H  36.51800 6.56500 32.99900
H  35.81300 5.71600 31.68800
H  34.95800 7.25600 29.44100
H  34.81200 5.43100 29.35400
H  34.57500 6.37700 27.93900
H  40.61600 8.55200 25.57700
H  43.58800 8.16300 25.92500
H  40.47200 5.91700 25.86500
H  42.26200 6.01500 25.60800
H  41.15500 6.61700 24.36400
H  42.87500 9.68800 24.34500
H  43.91000 10.42700 25.43000
H  42.43400 11.99100 25.87300
H  41.07800 10.82200 26.24400
H  41.40000 11.50100 24.62800
H  46.98000 10.75500 29.36200
H  46.62200 12.34700 30.16800
H  46.09200 12.05100 28.53100
H  43.61900 12.19000 34.09800
H  44.36500 10.37700 37.91800
H  45.22400 11.81000 37.95600
H  46.07100 10.46500 37.21800
Mg 26.45400 50.09700 26.44800
C  24.66200 51.56500 29.03300
C  28.90100 49.15000 28.62700
C  28.25000 49.12200 23.79400
C  24.28600 51.84900 24.25200
N  26.77900 50.33600 28.55200
C  25.80700 50.86400 29.44200
C  26.28100 50.58500 30.88100
C  27.71800 49.94100 30.71000
C  27.84500 49.79400 29.21300
C  28.93500 50.76900 31.21700
C  25.31800 49.62600 31.64400
C  25.10100 49.94500 33.08100
H  25.97300 50.82400 33.87500
N  28.27000 49.14200 26.23400
C  29.12500 48.83600 27.24900
C  30.26400 48.11700 26.73000
C  30.02900 47.94400 25.31800
C  28.85500 48.81500 25.04600
C  31.37500 47.58300 27.63300
C  30.77000 47.17600 24.29900
O  30.65000 47.36200 23.12500
C  31.67500 46.21800 24.81400
N  26.30600 50.57200 24.30600
C  27.06500 49.76700 23.49800
C  26.63800 49.86900 22.07500
C  25.41200 50.84200 22.14400
C  25.27200 51.16000 23.63600
C  27.74300 50.26700 21.01200
C  24.16500 50.05900 21.68800
C  23.09900 50.87500 20.80100
N  24.77200 51.26300 26.59200
C  24.03800 51.96800 25.64600
C  22.95900 52.74500 26.32100
C  23.12700 52.55200 27.63500
C  24.27300 51.78400 27.74900
C  21.86600 53.52300 25.61200
C  22.60800 52.82600 28.95500
O  21.66000 53.57700 29.23800
C  23.59900 52.11200 30.03400
C  23.99600 53.25900 30.94700
O  24.87400 54.06900 30.73800
O  23.21200 53.26100 32.11500
C  23.74200 54.22100 33.13300
H  29.61500 48.86900 29.40400
H  28.77600 48.75500 22.91000
H  23.60200 52.31700 23.54200
H  26.30300 51.56400 31.35900
H  27.80000 49.05300 31.33700
H  29.53100 51.12900 30.37800
H  29.46500 50.09500 31.88900
H  28.64400 51.68100 31.73900
H  25.64000 48.58500 31.66000
H  24.28300 49.58100 31.30800
H  24.81800 49.05400 33.64100
H  24.15100 50.47700 33.10600
H  31.41000 48.03200 28.62600
H  32.33000 48.04400 27.38100
H  31.31800 46.49500 27.67300
H  31.16800 45.52200 25.48300
H  32.56800 46.67200 25.24300
H  32.02700 45.58800 23.99800
H  26.34000 48.85900 21.79400
H  25.54700 51.75500 21.56400
H  28.47300 50.96700 21.41800
H  27.26100 50.65900 20.11600
H  28.38300 49.41400 20.79000
H  23.86000 49.49500 22.57000
H  24.42200 49.28100 20.96800
H  23.65600 51.72700 20.41100
H  22.22600 51.07900 21.42100
H  22.78300 50.33900 19.90600
H  21.85200 53.44500 24.52500
H  22.04400 54.57700 25.82700
H  20.91100 53.11400 25.94000
H  23.09100 51.26000 30.48700
H  24.70900 53.95000 33.55800
H  23.10200 54.24000 34.01500
H  23.80600 55.21500 32.69200

