158

Mg 45.37800 5.58200 47.15600
C  43.39200 8.45300 46.38200
C  42.82100 3.76700 46.08400
C  47.49100 3.03200 46.89000
C  48.02000 7.91700 47.57600
N  43.40900 6.04300 46.23300
C  42.80700 7.25100 46.05300
C  41.40000 7.12900 45.46300
C  41.09600 5.64700 45.92500
C  42.49900 5.08100 46.12600
C  40.22200 5.61800 47.21400
C  41.46700 7.18100 43.89700
C  40.48400 8.03600 43.11400
H  40.85400 8.73200 41.73100
N  45.18200 3.54500 46.75700
C  43.99900 2.97900 46.39800
C  44.12300 1.57900 46.20400
C  45.51100 1.29300 46.44700
C  46.15500 2.61500 46.70500
C  43.11500 0.61700 45.71900
C  46.19000 -0.01600 46.34300
O  45.54100 -1.02100 46.01700
C  47.65100 -0.25700 46.52600
N  47.34900 5.58000 47.16200
C  48.01400 4.35000 47.17800
C  49.48000 4.47700 47.55000
C  49.64600 6.04800 47.68800
C  48.25900 6.55600 47.48100
C  49.89400 3.62100 48.81200
C  50.62300 6.66800 46.58100
C  51.98600 7.12100 47.07400
N  45.70600 7.81200 47.07800
C  46.80200 8.57600 47.32600
C  46.40800 9.95700 47.32200
C  45.09300 9.92200 46.98500
C  44.72100 8.59800 46.84900
C  47.28400 11.17100 47.41500
C  43.89200 10.76200 46.78900
O  43.79200 11.93100 46.95000
C  42.73400 9.81400 46.28200
C  41.64300 9.89600 47.28400
O  41.69500 9.49900 48.44300
O  40.66900 10.68100 46.79300
C  39.66900 11.03900 47.83000
H  41.93200 3.17800 45.84800
H  48.23700 2.24000 46.79300
H  48.89700 8.52000 47.81900
H  40.67600 7.85500 45.83300
H  40.44200 5.14100 45.21500
H  39.78600 6.58900 47.45000
H  40.72300 5.41100 48.15900
H  39.41200 4.89500 47.11400
H  41.38100 6.17900 43.47600
H  42.43900 7.60500 43.64400
H  40.35400 8.84400 43.83400
H  39.44100 7.72800 43.05100
H  42.13400 1.05600 45.90300
H  43.32500 -0.28700 46.29000
H  43.26200 0.51800 44.64400
H  47.84800 -0.04000 47.57600
H  48.27300 0.22500 45.77200
H  47.77600 -1.33100 46.38800
H  50.09500 4.11600 46.72500
H  49.89000 6.29600 48.72000
H  48.91700 3.28700 49.16100
H  50.59800 3.97700 49.56400
H  50.32000 2.73500 48.34100
H  50.12800 7.57700 46.23800
H  50.77800 6.03100 45.71100
H  52.13000 6.51000 47.96500
H  51.99800 8.20700 47.16800
H  52.77400 6.97400 46.33500
H  46.68200 12.07900 47.41600
H  47.97100 11.11300 46.57100
H  47.83800 11.09600 48.35100
H  42.41000 10.17300 45.30500
H  39.04500 11.68200 47.20900
H  40.13600 11.52300 48.68800
H  39.09100 10.16800 48.13800
Mg 40.83200 10.34200 29.52100
C  42.70300 11.54700 32.23300
C  38.84400 8.80200 32.05900
C  39.04500 8.94800 27.00500
C  43.18400 11.38300 27.25900
N  40.89700 10.03000 31.93800
C  41.59900 10.86500 32.77900
C  41.04500 10.90900 34.25300
C  40.06000 9.71400 34.15200
C  39.88800 9.51400 32.68500
C  40.60600 8.46600 34.79700
C  40.49700 12.31600 34.66200
C  39.91700 12.37000 36.11300
H  40.59700 13.21800 37.16300
N  39.21200 9.10200 29.52400
C  38.51500 8.60000 30.68400
C  37.43300 7.71100 30.21400
C  37.41400 7.84100 28.77300
C  38.62100 8.66800 28.32700
C  36.60200 6.85100 31.08500
C  36.58500 6.96100 27.82400
O  36.77600 6.86300 26.60500
C  35.42600 6.19200 28.36500
N  41.07300 10.24800 27.43300
C  40.17000 9.68800 26.59900
C  40.56100 9.83800 25.12000
C  41.77100 10.83100 25.21900
C  42.07500 10.69600 26.69800
C  40.86400 8.52700 24.42700
C  41.44300 12.29000 24.75200
C  41.05100 13.34200 25.80500
N  42.60900 11.16700 29.68500
C  43.45100 11.51100 28.66900
C  44.60000 12.21200 29.25100
C  44.34700 12.20100 30.64000
C  43.13800 11.51800 30.86700
C  45.76200 12.73700 28.59800
C  44.91200 12.64900 31.84200
O  45.91400 13.29800 32.12400
C  43.82100 12.29200 32.95800
C  44.46500 11.63500 34.13300
O  44.83300 10.48900 34.21300
O  44.51200 12.50600 35.22000
C  44.95200 12.02300 36.57000
H  38.16900 8.31400 32.76400
H  38.63000 8.42000 26.14400
H  43.94300 11.72800 26.55400
H  41.85800 10.61500 34.91700
H  39.12400 10.01500 34.62300
H  40.34900 7.61600 34.16600
H  40.18000 8.44200 35.80000
H  41.67000 8.57000 35.01100
H  39.79700 12.64700 33.89500
H  41.29200 13.05400 34.55100
H  40.01900 11.34300 36.46300
H  38.87000 12.67200 36.12100
H  35.57000 7.19300 31.00900
H  36.87100 6.85400 32.14100
H  36.64000 5.81000 30.76200
H  34.75000 6.00900 27.53000
H  34.86300 6.80600 29.06800
H  35.74300 5.32000 28.93900
H  39.76600 10.44800 24.69200
H  42.68200 10.40400 24.80000
H  41.70500 8.60900 23.73800
H  39.98600 8.26100 23.83800
H  41.07300 7.77300 25.18600
H  40.58800 12.24500 24.07800
H  42.26300 12.57100 24.09200
H  41.10100 12.91000 26.80500
H  40.01700 13.65700 25.66600
H  41.79900 14.11400 25.62300
H  45.54000 12.75600 27.53200
H  46.65600 12.12800 28.73600
H  46.09300 13.69800 28.99100
H  43.63200 13.25400 33.43600
H  45.72200 11.25600 36.48000
H  44.12700 11.67100 37.19000
H  45.42600 12.87400 37.05800

