158

Mg 41.47000 8.26100 29.62000
C  43.18600 9.71700 32.33700
C  39.14000 6.98700 31.75500
C  39.87900 6.89500 26.86400
C  43.98900 9.40100 27.49000
N  41.38000 8.14800 31.81500
C  42.04300 8.95100 32.73900
C  41.44800 8.83900 34.14000
C  40.33200 7.81100 33.88200
C  40.23500 7.66700 32.35000
C  40.62400 6.53100 34.63300
C  41.07400 10.22000 34.78500
C  39.88500 10.32500 35.84200
H  40.17500 11.25800 36.97000
N  39.78500 7.10400 29.33500
C  38.95900 6.68200 30.35900
C  37.80900 6.07400 29.75800
C  38.03400 6.02700 28.36200
C  39.31400 6.65500 28.14000
C  36.88900 5.22100 30.67700
C  37.08600 5.45100 27.29700
O  37.37700 5.29100 26.06700
C  35.66700 5.10200 27.63700
N  41.95600 8.02700 27.52100
C  41.07100 7.49100 26.55900
C  41.59800 7.74300 25.08500
C  42.72000 8.72900 25.33900
C  42.91100 8.78900 26.86000
C  42.02000 6.37500 24.41800
C  42.25800 10.08800 24.68800
C  41.08000 10.80700 25.27700
N  43.31400 9.18400 29.78300
C  44.12100 9.70800 28.84700
C  45.09200 10.55500 29.54800
C  44.77900 10.54600 30.86900
C  43.67600 9.77000 31.02200
C  46.18700 11.22000 28.83500
C  45.19200 11.09400 32.15600
O  46.13300 11.77500 32.50200
C  44.15600 10.45500 33.21600
C  44.79400 9.56700 34.22300
O  45.57100 8.64000 33.91800
O  44.27400 9.91500 35.47500
C  44.68400 8.98800 36.57800
H  38.33300 6.62300 32.39500
H  39.25900 6.72900 25.98000
H  44.65200 9.89500 26.77600
H  42.36500 8.46300 34.59400
H  39.38900 8.20400 34.26100
H  41.41000 6.59400 35.38600
H  41.00000 5.76100 33.95900
H  39.63800 6.19700 34.95600
H  40.81200 10.83200 33.92200
H  41.91500 10.61500 35.35500
H  39.70000 9.34400 36.28000
H  38.97900 10.64500 35.32800
H  35.96800 5.79800 30.76300
H  37.33800 4.93900 31.62900
H  36.78500 4.26000 30.17200
H  35.66700 4.19500 28.24200
H  35.04400 5.00000 26.74900
H  35.33200 5.86200 28.34200
H  40.84100 8.16100 24.42000
H  43.59000 8.36700 24.79200
H  41.47300 5.53200 24.84000
H  43.08500 6.21700 24.59000
H  41.88700 6.39800 23.33700
H  41.97900 9.91900 23.64800
H  43.14500 10.72200 24.69700
H  40.48500 11.21300 24.45900
H  41.44800 11.67700 25.82100
H  40.45000 10.29500 26.00400
H  46.15200 12.27900 29.09100
H  46.13500 11.02800 27.76300
H  47.07300 10.77300 29.28600
H  43.58400 11.20300 33.76500
H  45.67700 8.57300 36.40800
H  43.91500 8.23000 36.72100
H  44.73000 9.54700 37.51300
Mg -6.69500 24.81800 26.67200
C  -4.40200 26.12500 28.92200
C  -7.57300 22.51600 29.11800
C  -8.41900 23.18500 24.31300
C  -5.11800 26.77800 24.14800
N  -6.01300 24.34000 28.61700
C  -5.23700 25.17300 29.43000
C  -5.56400 25.00200 30.89100
C  -6.21800 23.57400 30.87100
C  -6.57200 23.44000 29.41600
C  -5.21300 22.42600 31.23000
C  -6.34100 26.18200 31.56700
C  -5.87900 26.73400 32.92800
H  -5.90000 25.77900 34.10500
N  -7.91000 23.22000 26.72600
C  -8.23200 22.47800 27.85400
C  -9.29400 21.57400 27.58100
C  -9.60200 21.79600 26.18500
C  -8.60300 22.74500 25.66900
C  -9.92900 20.54400 28.46600
C  -10.75800 21.25100 25.29500
O  -10.99000 21.55200 24.13900
C  -11.70900 20.18800 25.91600
N  -6.82500 24.98500 24.59500
C  -7.59800 24.22700 23.79300
C  -7.53900 24.63500 22.25100
C  -6.65600 25.93800 22.33700
C  -6.21000 25.92900 23.78800
C  -7.05300 23.49600 21.25900
C  -7.37900 27.19300 22.01800
C  -7.69600 27.40800 20.44100
N  -5.06100 26.15600 26.52600
C  -4.55100 26.87000 25.43100
C  -3.49000 27.75700 25.93700
C  -3.43600 27.49900 27.28600
C  -4.42300 26.54100 27.56600
C  -2.64500 28.78400 25.24700
C  -2.81200 27.95700 28.44500
O  -1.90900 28.71000 28.63300
C  -3.33800 27.05200 29.56400
C  -2.18400 26.34200 30.15200
O  -1.68600 25.38000 29.60500
O  -2.02300 26.73300 31.48600
C  -1.09300 25.87400 32.23800
H  -7.98000 21.88000 29.90800
H  -9.00400 22.81000 23.47000
H  -4.67100 27.48900 23.45000
H  -4.61400 24.96600 31.42400
H  -7.06500 23.50200 31.55300
H  -4.25200 22.74400 31.63600
H  -5.03500 21.77600 30.37300
H  -5.80000 21.82600 31.92400
H  -7.37900 25.86200 31.64900
H  -6.20600 27.11100 31.01300
H  -6.41700 27.62900 33.23800
H  -4.88300 27.16200 32.81300
H  -10.97300 20.78500 28.66600
H  -9.59700 20.58300 29.50400
H  -9.72000 19.55000 28.07100
H  -11.16300 19.32000 26.28700
H  -12.46400 19.73300 25.27500
H  -12.22300 20.65100 26.75800
H  -8.51000 25.03900 21.96600
H  -5.79100 25.80000 21.68900
H  -7.10800 22.53700 21.77400
H  -5.98300 23.66300 21.13900
H  -7.73000 23.41000 20.40900
H  -6.89500 28.03900 22.50600
H  -8.32100 27.20800 22.56600
H  -7.46200 26.55700 19.80200
H  -7.10700 28.22200 20.01800
H  -8.73100 27.70600 20.27300
H  -3.23200 29.28500 24.47700
H  -1.74100 28.34300 24.82600
H  -2.31400 29.56900 25.92700
H  -3.76500 27.62900 30.38400
H  -0.20600 25.66100 31.64100
H  -1.61800 25.00300 32.63000
H  -0.71100 26.34300 33.14400

