158

Mg 2.47800 0.00100 43.37900
C  5.95000 0.27800 43.18600
C  2.13000 3.17400 42.37500
C  -0.84700 -0.69000 42.84800
C  2.87700 -3.38600 44.26500
N  3.86700 1.52100 42.57700
C  5.26300 1.44800 42.74100
C  5.86200 2.81400 42.61400
C  4.60600 3.70000 42.82400
C  3.44300 2.78600 42.54800
C  4.50400 4.40200 44.29400
C  6.71700 3.20200 41.30200
C  6.69600 2.23800 40.09300
H  6.67000 2.92200 38.77400
N  0.87600 1.09100 42.69600
C  0.91400 2.42200 42.44300
C  -0.43700 2.88600 42.13600
C  -1.34800 1.75600 42.10500
C  -0.44500 0.63400 42.51400
C  -0.71200 4.30600 41.71100
C  -2.88700 1.77700 41.92300
O  -3.39200 2.80300 41.57500
C  -3.77800 0.61400 42.07900
N  1.19900 -1.81300 43.40300
C  -0.14700 -1.80100 43.18600
C  -0.67200 -3.31200 43.21700
C  0.45500 -4.02100 44.06100
C  1.60700 -3.06800 43.91300
C  -2.06400 -3.56800 43.75000
C  0.82300 -5.51600 43.55200
C  1.75500 -5.66100 42.27200
N  4.05100 -1.36300 43.63200
C  4.05900 -2.69800 44.00100
C  5.40300 -3.10100 44.30200
C  6.15900 -1.99200 43.98700
C  5.35200 -0.95100 43.56900
C  5.86200 -4.41500 44.89400
C  7.52100 -1.39900 44.10000
O  8.60500 -1.83900 44.39100
C  7.40300 -0.02200 43.37800
C  8.12400 1.01400 44.22500
O  9.05400 1.68000 43.76200
O  7.45600 1.18200 45.40200
C  7.98500 2.31800 46.16600
H  1.98400 4.25200 42.27100
H  -1.92500 -0.78900 42.70700
H  3.00500 -4.43800 44.52900
H  6.51000 3.07000 43.45300
H  4.64700 4.49400 42.07900
H  5.37700 4.17800 44.90700
H  3.71600 3.87200 44.83100
H  4.34800 5.47800 44.22400
H  7.71000 3.13100 41.74600
H  6.59000 4.24400 41.01000
H  5.80600 1.62600 40.24100
H  7.49900 1.50100 40.08300
H  -1.38900 4.41800 40.86400
H  0.18600 4.86300 41.44500
H  -1.10500 4.91400 42.52600
H  -3.70800 0.15700 43.06600
H  -3.55800 -0.09900 41.28400
H  -4.76200 1.07400 41.99400
H  -0.63400 -3.62200 42.17300
H  0.18100 -4.14900 45.10800
H  -2.04000 -4.03200 44.73600
H  -2.73200 -4.08000 43.05700
H  -2.60200 -2.62100 43.79600
H  -0.10900 -6.02000 43.29700
H  1.30300 -6.02200 44.39000
H  2.77100 -6.02000 42.44000
H  1.85300 -4.76200 41.66400
H  1.39400 -6.38100 41.53800
H  5.03200 -5.05800 45.18700
H  6.44900 -4.23300 45.79400
H  6.35100 -4.99700 44.11300
H  7.94400 -0.11100 42.43500
H  7.88800 2.29300 47.25100
H  7.30600 3.12500 45.88900
H  8.98600 2.73300 46.04600
Mg -9.11500 18.43400 42.37000
C  -5.61800 18.14600 42.48400
C  -8.81400 21.75000 41.60200
C  -12.36100 18.58800 41.89800
C  -9.23500 14.86600 42.12200
N  -7.45700 19.78200 42.08500
C  -6.07400 19.47400 42.16900
C  -5.22100 20.71300 42.03700
C  -6.30200 21.86200 42.02600
C  -7.64000 21.08500 41.89600
C  -6.13900 22.84700 43.23100
C  -4.11900 20.75700 40.95100
C  -4.49300 20.13400 39.62200
H  -4.56400 21.01300 38.37000
N  -10.47800 19.96000 41.90100
C  -10.08700 21.23500 41.66800
C  -11.26800 22.00400 41.33900
C  -12.39600 21.20100 41.56800
C  -11.78300 19.88700 41.85000
C  -11.23000 23.42100 40.89900
C  -13.82700 21.53700 41.42100
O  -14.13800 22.60300 40.91200
C  -14.84100 20.54400 41.80000
N  -10.62000 16.95800 42.09200
C  -11.91800 17.27800 42.07700
C  -12.83100 16.05200 42.11800
C  -11.81500 14.87700 42.10700
C  -10.43900 15.58600 42.02400
C  -13.72800 15.96500 43.35700
C  -12.00700 14.02500 40.84900
C  -12.99100 12.85600 41.00000
N  -7.74800 16.82400 42.47400
C  -7.99000 15.48300 42.29900
C  -6.75900 14.77300 42.33600
C  -5.78700 15.82600 42.53300
C  -6.46400 17.02400 42.55900
C  -6.56400 13.24100 42.12500
C  -4.32300 16.07700 42.58500
O  -3.43500 15.24800 42.62700
C  -4.13000 17.66300 42.55300
C  -3.25900 18.23100 43.66800
O  -2.26500 18.93400 43.57200
O  -3.84900 17.75900 44.88300
C  -3.38100 18.18400 46.23900
H  -8.67600 22.81900 41.42500
H  -13.40800 18.55700 41.58700
H  -9.04000 13.79300 42.18300
H  -4.79000 20.74900 43.03800
H  -6.27300 22.49300 41.13800
H  -5.13800 22.85200 43.66200
H  -6.71100 22.53000 44.10300
H  -6.36200 23.87200 42.93700
H  -3.21100 20.25600 41.28400
H  -3.77700 21.77800 40.78100
H  -5.38500 19.52100 39.75500
H  -3.73600 19.37600 39.42200
H  -10.90200 24.07700 41.70400
H  -12.10500 23.81000 40.37800
H  -10.43300 23.45000 40.15500
H  -14.48200 20.15500 42.75300
H  -14.90300 19.74000 41.06600
H  -15.80900 21.00400 42.00300
H  -13.44300 16.13600 41.22000
H  -11.79500 14.33400 43.05100
H  -13.32700 16.58200 44.16100
H  -13.85900 14.92900 43.66900
H  -14.73300 16.34400 43.16800
H  -10.99500 13.73500 40.56600
H  -12.39200 14.75200 40.13400
H  -13.79800 13.06400 40.29700
H  -13.48500 12.62600 41.94400
H  -12.47400 11.95000 40.68500
H  -6.78900 12.90600 41.11300
H  -7.10900 12.67500 42.88100
H  -5.48200 13.18000 42.24600
H  -3.63000 17.87800 41.60800
H  -2.50300 18.82600 46.17200
H  -3.21000 17.28400 46.83000
H  -4.26600 18.72200 46.57900

