158

Mg 24.20700 -4.70600 45.63700
C  26.00800 -2.04500 44.43500
C  21.37000 -3.71400 43.82500
C  22.76600 -7.56300 46.45200
C  27.14100 -5.73400 47.37700
N  23.89900 -3.28200 44.01500
C  24.77500 -2.25200 43.79400
C  24.16500 -1.33600 42.72100
C  22.65200 -1.64700 42.88900
C  22.61500 -2.94000 43.63800
C  21.99200 -0.54300 43.70200
C  24.62400 -1.77100 41.32300
C  25.60100 -0.91500 40.46200
H  26.66300 -1.61900 39.59400
N  22.30800 -5.46900 45.24200
C  21.24000 -4.87200 44.57700
C  20.10300 -5.76700 44.74700
C  20.47400 -6.95100 45.45000
C  21.91200 -6.69000 45.71900
C  18.79000 -5.43100 44.10200
C  19.61700 -8.20900 45.68900
O  18.39100 -8.24000 45.40400
C  20.05800 -9.46800 46.41500
N  24.82600 -6.33400 46.73000
C  24.01800 -7.38200 46.95800
C  24.62600 -8.54200 47.84600
C  25.92600 -7.84000 48.32900
C  26.01200 -6.55100 47.40900
C  23.74900 -9.09800 48.99700
C  27.17900 -8.72900 48.19600
C  27.99300 -8.88800 49.48900
N  26.19800 -4.07400 45.92500
C  27.25600 -4.52600 46.70300
C  28.42600 -3.65700 46.52300
C  27.96700 -2.68400 45.61300
C  26.62300 -2.93800 45.36500
C  29.78500 -3.88100 47.22000
C  28.35800 -1.46300 44.96400
O  29.39800 -0.81400 44.98900
C  27.09900 -1.00200 44.07400
C  26.66900 0.33400 44.55600
O  26.28500 0.59900 45.67400
O  26.93100 1.25800 43.62200
C  26.88100 2.66900 43.97900
H  20.44800 -3.31400 43.39900
H  22.43400 -8.56800 46.71900
H  27.98700 -6.16900 47.91200
H  24.36600 -0.29100 42.95300
H  22.14600 -1.85300 41.94600
H  22.61700 -0.18400 44.52000
H  20.99600 -0.78300 44.07400
H  21.95200 0.43400 43.22100
H  23.72400 -1.95300 40.73600
H  25.14600 -2.70500 41.52900
H  26.04000 -0.13300 41.08200
H  24.89700 -0.39100 39.81600
H  18.36300 -6.24600 43.51800
H  18.80200 -4.60900 43.38600
H  18.16200 -5.05200 44.90900
H  20.32000 -9.11700 47.41300
H  20.93300 -9.77600 45.84300
H  19.20200 -10.13700 46.32600
H  24.94200 -9.30300 47.13200
H  25.83600 -7.49300 49.35900
H  23.58600 -10.14600 48.74300
H  22.80000 -8.56900 49.07900
H  24.24400 -9.00600 49.96400
H  27.91900 -8.33200 47.50200
H  26.89200 -9.76800 48.03500
H  29.06400 -9.01400 49.32900
H  27.64500 -9.73500 50.08000
H  27.91500 -7.95800 50.05400
H  30.01900 -4.91600 46.97200
H  29.72400 -3.78300 48.30400
H  30.46400 -3.15200 46.77800
H  27.28300 -1.05900 43.00100
H  27.77700 3.00400 44.50200
H  25.99700 2.85500 44.59000
H  26.73500 3.21000 43.04400
Mg -5.99100 25.25500 25.54300
C  -4.42300 26.37800 28.28800
C  -7.88500 23.18700 27.65600
C  -7.11400 23.43300 22.85000
C  -3.69000 26.80600 23.54600
N  -6.08400 24.83900 27.71000
C  -5.45600 25.50200 28.71300
C  -5.98500 25.24400 30.12000
C  -6.85300 23.98500 29.85700
C  -6.91000 23.95300 28.26600
C  -6.29500 22.70000 30.40100
C  -6.68200 26.49200 30.78800
C  -6.07800 26.88500 32.13300
H  -5.52100 25.74500 32.97900
N  -7.50000 23.74600 25.26000
C  -8.16700 23.11200 26.26900
C  -9.08800 22.16900 25.66400
C  -8.80900 22.14000 24.28200
C  -7.79800 23.12900 24.07700
C  -9.94900 21.29700 26.37500
C  -9.53100 21.23600 23.21700
O  -9.39000 21.46400 22.00800
C  -10.49100 20.14500 23.57800
N  -5.39800 25.07200 23.41800
C  -6.03800 24.24600 22.51800
C  -5.32500 24.37100 21.12100
C  -4.34600 25.62500 21.37100
C  -4.50000 25.92300 22.89500
C  -4.64400 23.13000 20.58600
C  -4.74800 26.92300 20.47500
C  -3.56200 27.42200 19.63900
N  -4.32400 26.41000 25.86500
C  -3.49400 27.06100 24.93100
C  -2.64300 27.93000 25.64600
C  -2.96700 27.65800 27.00600
C  -3.98900 26.72400 27.04900
C  -1.76300 28.94500 24.95200
C  -2.61100 27.95400 28.35100
O  -1.69400 28.61400 28.85500
C  -3.56300 27.11400 29.18200
C  -2.51500 26.31100 30.01900
O  -1.92400 25.33800 29.59200
O  -2.43600 26.76300 31.29000
C  -1.39400 26.05700 32.14600
H  -8.45900 22.55100 28.33300
H  -7.44100 23.06800 21.87400
H  -3.12500 27.44300 22.86200
H  -5.19200 24.90500 30.78700
H  -7.90200 24.04900 30.14400
H  -5.21900 22.79700 30.54400
H  -6.38700 21.93700 29.62700
H  -6.83900 22.40700 31.29900
H  -7.76300 26.35900 30.83800
H  -6.53800 27.30200 30.07300
H  -6.87100 27.32600 32.73600
H  -5.40900 27.74600 32.11900
H  -10.93100 21.24500 25.90300
H  -10.18800 21.73700 27.34300
H  -9.42400 20.35100 26.50400
H  -10.13400 19.50300 24.38300
H  -10.73200 19.51800 22.72000
H  -11.39400 20.62400 23.95800
H  -6.14500 24.62700 20.45100
H  -3.38000 25.24100 21.04200
H  -3.57600 23.26700 20.41800
H  -5.12000 22.90900 19.63100
H  -4.78800 22.25400 21.22000
H  -4.91600 27.77600 21.13300
H  -5.74700 26.80500 20.05600
H  -2.73200 26.71900 19.56700
H  -3.23000 28.29400 20.20200
H  -4.01900 27.61300 18.66800
H  -1.38000 28.60600 23.98900
H  -0.93000 29.10400 25.63700
H  -2.28600 29.89700 24.86500
H  -4.14900 27.73700 29.85900
H  -1.86200 25.65900 33.04700
H  -0.73100 26.87000 32.44000
H  -0.80300 25.25600 31.70200

