158

Mg 42.81700 4.51900 47.89900
C  40.57400 7.18200 47.33300
C  40.01500 2.33100 47.56100
C  44.84200 1.86300 47.84300
C  45.50100 6.64700 47.37800
N  40.64500 4.73100 47.50400
C  39.96400 5.90900 47.45100
C  38.46400 5.75900 47.44200
C  38.37600 4.23700 47.70300
C  39.75100 3.68000 47.59100
C  37.65900 3.82000 49.06500
C  37.67400 6.34600 46.20000
C  38.18400 6.01300 44.75200
H  38.47300 7.23400 43.93900
N  42.52100 2.34000 47.78100
C  41.28500 1.72700 47.68600
C  41.53400 0.28700 47.81200
C  42.94000 0.06700 47.75500
C  43.50600 1.43700 47.76400
C  40.49100 -0.82800 47.67700
C  43.78700 -1.23700 47.61100
O  43.22800 -2.34900 47.37100
C  45.31000 -1.36800 47.68900
N  44.88700 4.33500 47.68300
C  45.47000 3.13500 47.74000
C  47.02100 3.23200 47.67500
C  47.21200 4.85900 47.68800
C  45.79200 5.32800 47.54700
C  47.83900 2.55400 48.75900
C  48.21100 5.46500 46.61900
C  49.22100 4.64300 45.85100
N  43.06900 6.60600 47.55100
C  44.21100 7.27600 47.37400
C  43.90600 8.70200 47.12200
C  42.49000 8.72200 47.16700
C  42.06000 7.41600 47.38300
C  44.92000 9.74700 46.87400
C  41.23800 9.52000 47.09200
O  41.00900 10.74000 46.90600
C  39.98200 8.52200 47.18900
C  39.24200 8.98600 48.42800
O  39.41900 8.51200 49.57000
O  38.29300 9.90400 48.06300
C  37.53100 10.44200 49.16300
H  39.15500 1.66000 47.53700
H  45.60400 1.08400 47.90800
H  46.31800 7.36300 47.26700
H  38.14500 6.39300 48.27000
H  37.76000 3.75900 46.94000
H  38.36400 3.30100 49.71400
H  36.84300 3.12300 48.87800
H  37.29000 4.69100 49.60600
H  37.48100 7.40000 46.39900
H  36.71600 5.83900 46.32000
H  37.34100 5.50400 44.28500
H  39.04500 5.34600 44.72400
H  40.78600 -1.31000 46.74500
H  39.47900 -0.42500 47.63300
H  40.60200 -1.49800 48.52900
H  45.67600 -0.89200 48.59900
H  45.61500 -0.81600 46.80000
H  45.71600 -2.37700 47.76000
H  47.28200 2.74800 46.73400
H  47.51000 5.23500 48.66700
H  48.63800 1.97700 48.29400
H  47.27100 1.86600 49.38400
H  48.28700 3.35200 49.35100
H  48.87900 6.15100 47.14100
H  47.66100 5.94600 45.81100
H  50.23400 5.04600 45.82600
H  48.97400 4.64100 44.79000
H  49.33100 3.61200 46.18700
H  45.76200 9.69700 47.56500
H  44.45100 10.72900 46.80900
H  45.34100 9.71300 45.86900
H  39.44800 8.59300 46.24100
H  37.99800 10.43300 50.14800
H  36.57000 9.92700 49.15400
H  37.15400 11.41600 48.84800
Mg 29.88900 57.70400 41.11200
C  27.28500 55.52700 40.20100
C  32.05800 55.48300 39.89300
C  32.26300 60.17000 40.80800
C  27.40700 60.34900 41.56400
N  29.60600 55.75000 40.21400
C  28.46300 54.98900 39.94000
C  28.89500 53.64800 39.43200
C  30.41200 53.62000 39.52900
C  30.73800 55.03600 39.85800
C  30.94200 52.53800 40.59200
C  28.40400 53.38300 38.01500
C  28.48700 54.54100 36.97100
H  27.79500 54.26700 35.68900
N  31.95200 57.74500 40.59200
C  32.66700 56.64600 40.21700
C  34.05400 57.02000 40.09800
C  34.17900 58.45000 40.31600
C  32.73300 58.87100 40.55200
C  35.15100 56.15400 39.67600
C  35.50800 59.14900 40.20600
O  36.56700 58.51800 40.11600
C  35.57500 60.65900 40.36700
N  29.80100 59.99200 41.02100
C  30.95300 60.74300 40.98000
C  30.66300 62.19100 41.43800
C  29.18200 62.16900 41.88500
C  28.76000 60.67300 41.60700
C  31.74000 62.88800 42.47400
C  28.30700 63.33100 41.20100
C  27.71600 64.33000 42.19300
N  27.84400 57.90100 41.03500
C  26.93300 59.00800 41.22200
C  25.57600 58.56700 41.01700
C  25.67000 57.24900 40.63900
C  27.03100 56.88300 40.61500
C  24.37000 59.41400 41.05600
C  24.87300 56.09800 40.18900
O  23.67200 55.82400 40.06800
C  25.96400 55.00300 39.91600
C  25.76600 53.88200 40.97000
O  25.87400 53.91600 42.17800
O  25.32700 52.71000 40.37200
C  25.21700 51.49900 41.23300
H  32.79800 54.75800 39.54700
H  32.97600 60.98400 40.95700
H  26.60900 61.03600 41.85300
H  28.49400 52.90000 40.11600
H  30.80200 53.46900 38.52200
H  32.02000 52.64400 40.71900
H  30.73500 51.55000 40.18000
H  30.48200 52.58500 41.57900
H  27.34900 53.10900 38.03100
H  28.84600 52.46400 37.62900
H  29.53900 54.75200 36.78100
H  27.85700 55.32000 37.39900
H  35.78500 56.61500 38.92000
H  34.73900 55.25500 39.21900
H  35.76500 55.69200 40.45000
H  35.17500 60.95100 41.33800
H  34.95700 61.12600 39.60000
H  36.60900 60.99700 40.43200
H  30.69300 62.64200 40.44600
H  29.07100 62.35400 42.95300
H  31.25400 63.53000 43.20900
H  32.42900 63.54100 41.93800
H  32.39400 62.16900 42.96600
H  27.42100 62.89800 40.73600
H  28.98400 63.74600 40.45500
H  26.69000 64.01500 42.38600
H  27.65000 65.35700 41.83400
H  28.30800 64.29900 43.10700
H  23.68800 59.20000 41.87900
H  23.82300 59.27900 40.12300
H  24.59000 60.48000 41.10900
H  25.82400 54.64600 38.89600
H  26.15500 50.95200 41.32900
H  24.61100 50.75400 40.71900
H  24.68000 51.74500 42.14900

