158

Mg -2.59700 17.13000 26.40000
C  -2.98500 14.73000 28.99000
C  -2.83600 19.56700 28.72600
C  -2.52300 19.43200 23.93900
C  -2.45200 14.52500 24.17300
N  -2.80600 17.08000 28.53400
C  -2.96200 16.02300 29.42800
C  -3.19900 16.55400 30.89700
C  -3.44900 18.15000 30.76300
C  -2.97300 18.30400 29.24500
C  -4.91300 18.58900 31.12200
C  -1.97700 16.29700 31.79700
C  -1.88700 16.94700 33.17600
H  -1.26600 16.21000 34.38000
N  -2.46700 19.17000 26.34500
C  -2.64000 20.04700 27.40100
C  -2.65600 21.41900 26.91800
C  -2.35800 21.41300 25.56500
C  -2.44500 19.95800 25.19900
C  -2.95200 22.61900 27.76200
C  -2.09300 22.53200 24.57600
O  -1.92200 22.30800 23.36200
C  -1.91800 23.88300 25.06500
N  -2.36900 17.00800 24.42000
C  -2.38700 18.08300 23.55700
C  -2.28200 17.60900 22.04800
C  -2.03100 16.02500 22.23900
C  -2.27700 15.80800 23.69000
C  -3.64700 17.96500 21.40400
C  -0.59000 15.63200 21.74300
C  0.51200 15.64400 22.78900
N  -2.73700 15.05400 26.43300
C  -2.58000 14.14500 25.48100
C  -2.73600 12.78400 26.04300
C  -2.96500 12.94400 27.38200
C  -2.87200 14.39800 27.60200
C  -2.32200 11.58000 25.31100
C  -3.18500 12.23700 28.66400
O  -3.35900 11.07200 28.87600
C  -3.10100 13.36400 29.71400
C  -1.94500 13.09500 30.58300
O  -0.82500 13.48000 30.44600
O  -2.39300 12.37800 31.70600
C  -1.51700 11.96600 32.84400
H  -3.07600 20.24900 29.54400
H  -2.60600 20.14500 23.11600
H  -2.37800 13.78600 23.37200
H  -4.10400 16.10400 31.30600
H  -2.68200 18.65600 31.34900
H  -5.59300 17.80300 31.45200
H  -5.31000 18.76000 30.12100
H  -4.90000 19.47900 31.75100
H  -1.11000 16.59700 31.20800
H  -2.08900 15.28700 32.19100
H  -2.96400 17.09500 33.25900
H  -1.30500 17.85000 32.99300
H  -3.37800 22.42300 28.74700
H  -3.74300 23.11400 27.19900
H  -2.10200 23.29900 27.79400
H  -2.84400 24.20700 25.53900
H  -1.80200 24.60800 24.25900
H  -1.09000 23.87600 25.77400
H  -1.48800 18.16100 21.54400
H  -2.65300 15.40700 21.59200
H  -4.34800 17.13000 21.39100
H  -3.55100 18.16700 20.33700
H  -4.09800 18.83800 21.87600
H  -0.31600 16.20700 20.85800
H  -0.62500 14.57600 21.47500
H  1.04200 14.69200 22.75700
H  0.15000 15.94700 23.77100
H  1.26700 16.31400 22.37700
H  -2.08000 10.79100 26.02300
H  -1.41100 11.75500 24.73900
H  -3.10600 11.24100 24.63300
H  -3.89300 13.38200 30.46300
H  -1.77800 10.91700 32.98400
H  -1.91700 12.50100 33.70500
H  -0.44200 12.13200 32.77100
Mg -5.49100 25.27000 25.84800
C  -4.04400 26.17500 28.96800
C  -7.73500 23.30400 27.72400
C  -6.51300 23.87900 23.06500
C  -3.18400 27.22300 24.23300
N  -5.82300 24.77900 28.12600
C  -5.08100 25.28300 29.14000
C  -5.61300 24.77300 30.54000
C  -6.64100 23.70500 30.02000
C  -6.67800 23.87200 28.52300
C  -6.48400 22.24100 30.60900
C  -6.25000 25.97700 31.35100
C  -5.78800 26.08300 32.81500
H  -5.10500 24.90000 33.57200
N  -6.95800 23.92700 25.42300
C  -7.81500 23.27100 26.30300
C  -8.79200 22.50700 25.55900
C  -8.52100 22.66800 24.18600
C  -7.20300 23.41000 24.13400
C  -9.99700 21.81000 26.19500
C  -9.28000 22.31900 23.00200
O  -8.84100 22.38000 21.85800
C  -10.67300 21.74000 23.10000
N  -4.76700 25.41300 23.96900
C  -5.37000 24.69500 22.97200
C  -4.75500 25.12500 21.61900
C  -3.98600 26.40500 21.98700
C  -3.94900 26.37000 23.50700
C  -4.15200 23.92300 20.91200
C  -4.44900 27.71500 21.32100
C  -3.35000 28.40600 20.43000
N  -3.91500 26.48700 26.40100
C  -3.03400 27.25200 25.62200
C  -2.07000 27.98100 26.45000
C  -2.45400 27.56500 27.71100
C  -3.56700 26.65300 27.69000
C  -0.98300 28.96300 25.97600
C  -1.98600 27.78600 29.09800
O  -1.12100 28.50000 29.61900
C  -2.98300 26.85100 29.90800
C  -2.10600 26.05000 30.83000
O  -1.78400 24.89600 30.64000
O  -1.94000 26.72100 31.99200
C  -1.14800 26.01200 32.95700
H  -8.44800 22.65200 28.23100
H  -6.74600 23.52900 22.05700
H  -2.53600 27.92400 23.70300
H  -4.88400 24.19100 31.10300
H  -7.62800 23.97900 30.39300
H  -6.47600 21.47600 29.83200
H  -7.27500 22.07700 31.34000
H  -5.56000 22.11500 31.17300
H  -7.33200 26.09900 31.30900
H  -5.80500 26.86800 30.91000
H  -6.57400 26.51100 33.43700
H  -5.09200 26.90800 32.66200
H  -9.69800 21.46200 27.18400
H  -10.27500 20.97600 25.54900
H  -10.85300 22.47300 26.31800
H  -10.55500 20.68600 23.35000
H  -11.19900 21.77300 22.14600
H  -11.27900 22.39300 23.72900
H  -5.68500 25.45200 21.15400
H  -2.92900 26.21600 21.79400
H  -3.07600 23.98600 20.74300
H  -4.57500 23.76900 19.91900
H  -4.20700 23.08200 21.60300
H  -4.86000 28.31600 22.13200
H  -5.32800 27.53600 20.70200
H  -3.62900 28.38500 19.37600
H  -2.44100 27.85200 20.66300
H  -3.19500 29.45600 20.67800
H  -0.20100 28.50300 25.37200
H  -0.59300 29.29700 26.93800
H  -1.27000 29.94200 25.59200
H  -3.54800 27.39400 30.66600
H  -0.12900 26.37700 32.82600
H  -1.09800 24.92500 33.02500
H  -1.28300 26.34800 33.98500

