158

Mg 17.11600 -1.97700 28.14200
C  16.03100 0.09000 30.96800
C  19.18300 -3.56400 30.34400
C  18.25500 -3.58400 25.55900
C  15.02500 0.01000 26.13500
N  17.66300 -1.58400 30.44500
C  16.99800 -0.85100 31.36100
C  17.41800 -1.31200 32.79000
C  18.75100 -2.16600 32.50700
C  18.58600 -2.42200 30.98100
C  20.12300 -1.63800 32.74600
C  16.26200 -2.01100 33.54600
C  15.91100 -1.38600 34.94600
H  17.10800 -0.79600 35.71700
N  18.42500 -3.46900 27.98900
C  19.14900 -4.02200 28.99900
C  19.94800 -5.12300 28.44600
C  19.63700 -5.19600 27.08500
C  18.75300 -4.02600 26.85600
C  20.81100 -6.10300 29.30700
C  20.03100 -6.27000 25.98200
O  19.47500 -6.19700 24.86400
C  21.23700 -7.13800 26.17100
N  16.70400 -1.82200 26.12400
C  17.37500 -2.62400 25.20300
C  16.85500 -2.35100 23.73700
C  15.62900 -1.39700 23.98400
C  15.74200 -0.97300 25.48600
C  17.99100 -1.69400 22.86400
C  14.24700 -2.11800 23.62500
C  13.61300 -1.62300 22.29100
N  15.85100 -0.32900 28.50200
C  15.04500 0.30500 27.53300
C  14.36200 1.42200 28.19400
C  14.70500 1.36100 29.50900
C  15.56600 0.24300 29.68000
C  13.59300 2.47500 27.60900
C  14.49300 1.99000 30.79700
O  13.82900 2.93500 31.14500
C  15.27100 1.16500 31.76700
C  16.17100 2.02700 32.54400
O  17.26100 2.44300 32.08400
O  15.61900 2.32800 33.76500
C  16.44500 3.17600 34.59400
H  19.68000 -4.19000 31.08900
H  18.58900 -4.10300 24.65900
H  14.38500 0.65900 25.53300
H  17.65400 -0.43200 33.38800
H  18.67700 -3.14300 32.98600
H  20.67800 -1.51700 31.81500
H  20.79600 -2.27200 33.32300
H  20.09700 -0.63000 33.16000
H  16.55700 -3.04700 33.71300
H  15.37700 -2.11000 32.91800
H  15.45900 -2.19400 35.52100
H  15.18000 -0.57900 34.89000
H  21.82400 -5.87400 28.97700
H  20.54900 -7.16100 29.31200
H  20.70700 -5.78900 30.34600
H  20.93100 -8.18300 26.22000
H  21.94000 -6.82200 26.94200
H  21.76800 -6.94200 25.23900
H  16.53800 -3.30500 23.31300
H  15.83100 -0.50700 23.38700
H  17.65500 -0.89100 22.20800
H  18.50600 -2.43400 22.25200
H  18.70900 -1.27500 23.57000
H  13.58500 -1.89400 24.46100
H  14.41600 -3.19400 23.64500
H  12.52700 -1.53400 22.32100
H  13.96800 -2.35100 21.56100
H  14.00000 -0.64700 21.99600
H  12.57400 2.08800 27.61500
H  13.96600 2.56100 26.58900
H  13.57100 3.39900 28.18700
H  14.53600 0.72200 32.43900
H  17.46300 2.86200 34.36000
H  16.14600 3.09100 35.63900
H  16.33800 4.19100 34.21200
Mg -5.48600 25.24200 26.44000
C  -4.06300 26.34000 29.39400
C  -7.03300 22.66200 28.29300
C  -6.12600 23.53500 23.55000
C  -3.30900 27.33100 24.61800
N  -5.48000 24.53900 28.62900
C  -5.00200 25.36200 29.64000
C  -5.62000 24.78600 30.98200
C  -6.07500 23.31100 30.67400
C  -6.23000 23.47900 29.09900
C  -5.14000 22.14500 31.07200
C  -6.81400 25.68300 31.45400
C  -6.71400 26.11200 33.02000
H  -5.93800 25.09800 33.95000
N  -6.71800 23.65400 25.97500
C  -7.31500 22.77900 26.87800
C  -8.10400 21.82600 26.11400
C  -7.75900 21.96500 24.79000
C  -6.79900 23.07500 24.69800
C  -9.07000 20.79900 26.77400
C  -8.25700 21.18700 23.55900
O  -7.82700 21.31000 22.42500
C  -9.29100 20.04400 23.72400
N  -4.88600 25.42900 24.35800
C  -5.32000 24.65300 23.34900
C  -4.80000 25.16400 21.98800
C  -3.99000 26.37100 22.37000
C  -4.06500 26.38800 23.93300
C  -4.00100 24.19000 21.11200
C  -4.47500 27.61400 21.63000
C  -3.52800 28.85100 21.42000
N  -3.99500 26.53600 26.90200
C  -3.34600 27.43200 26.06400
C  -2.43600 28.17900 26.93500
C  -2.77600 27.86200 28.21900
C  -3.66300 26.81600 28.13600
C  -1.35000 29.13000 26.47700
C  -2.32500 28.08600 29.63900
O  -1.44600 28.74200 30.17100
C  -3.24200 27.08800 30.46200
C  -2.34900 26.18600 31.23800
O  -1.45900 25.54200 30.68700
O  -2.40700 26.54000 32.50700
C  -1.31800 26.13300 33.36200
H  -7.45000 21.84700 28.88800
H  -6.28500 23.02900 22.59600
H  -2.57200 27.94600 24.09600
H  -4.85500 24.71300 31.75500
H  -7.04900 23.14000 31.13100
H  -5.87400 21.55000 31.61700
H  -4.41600 22.62300 31.73100
H  -4.64500 21.70800 30.20500
H  -7.79900 25.21700 31.41600
H  -6.92700 26.56900 30.82900
H  -7.71500 26.01700 33.44100
H  -6.20700 27.06800 33.14700
H  -8.73700 19.78000 26.57900
H  -10.11800 21.00000 26.55100
H  -9.08900 21.03100 27.83900
H  -9.03500 19.11500 24.23400
H  -9.54100 19.89200 22.67400
H  -10.11600 20.49200 24.28000
H  -5.55000 25.45000 21.25100
H  -2.95800 26.20200 22.06100
H  -4.15700 23.25800 21.65500
H  -2.92100 24.29300 21.21700
H  -4.34900 24.13900 20.08000
H  -5.40300 27.91000 22.11800
H  -4.83000 27.33300 20.63900
H  -3.54000 29.16300 20.37500
H  -2.50600 28.57000 21.67400
H  -3.75700 29.61600 22.16000
H  -1.73000 30.12000 26.22300
H  -0.83300 28.75600 25.59300
H  -0.66500 29.23000 27.31900
H  -3.90900 27.71900 31.04900
H  -0.41700 26.51400 32.88300
H  -1.37300 25.04900 33.45700
H  -1.39100 26.65400 34.31700

