158

Mg 35.44800 2.29700 29.67700
C  33.79400 3.36400 32.54600
C  38.26200 2.10200 31.70400
C  37.41300 1.76900 26.94800
C  32.79900 3.37600 27.66400
N  35.99400 2.66600 31.94700
C  35.07900 3.04300 32.89900
C  35.72700 2.96300 34.36200
C  37.23100 2.78800 33.95600
C  37.21600 2.49800 32.47600
C  38.22500 3.96700 34.23500
C  35.15300 1.81300 35.17900
C  34.66900 2.18600 36.53500
H  35.35900 3.28700 37.31700
N  37.52800 1.91500 29.33300
C  38.47300 1.79200 30.33500
C  39.71700 1.31600 29.73000
C  39.45900 1.17600 28.34500
C  38.10100 1.66000 28.14000
C  40.88600 0.94400 30.49700
C  40.31100 0.68400 27.17700
O  39.97300 0.61300 25.97200
C  41.71500 0.29600 27.49100
N  35.13000 2.52400 27.55100
C  36.10600 2.19400 26.60900
C  35.43200 2.17600 25.23600
C  33.94900 2.54400 25.44300
C  33.93800 2.84300 26.91200
C  36.17400 3.11600 24.33200
C  32.94800 1.48000 24.89300
C  32.43300 0.32400 25.81200
N  33.65000 3.09200 30.01700
C  32.70100 3.47200 29.10500
C  31.50600 3.95800 29.83100
C  31.88200 3.89400 31.14200
C  33.18600 3.40200 31.24700
C  30.17200 4.45000 29.31300
C  31.47900 4.16200 32.46600
O  30.40700 4.60300 32.85300
C  32.62100 3.78500 33.41800
C  32.88800 5.04700 34.38000
O  33.58200 6.01700 34.12300
O  32.02900 4.92800 35.43700
C  31.92200 6.00800 36.38400
H  39.19300 1.95300 32.25500
H  37.95900 1.75400 26.00300
H  31.87500 3.63200 27.14100
H  35.53800 3.96800 34.73900
H  37.59600 1.89700 34.46700
H  38.72000 3.87900 35.20200
H  37.58700 4.85100 34.20700
H  38.95500 4.11100 33.43800
H  35.92100 1.06700 35.38200
H  34.32600 1.33200 34.65500
H  34.46200 1.32800 37.17400
H  33.66600 2.56300 36.33800
H  40.89100 -0.11400 30.76200
H  40.87000 1.40400 31.48600
H  41.82200 1.23400 30.01900
H  42.05700 1.26100 27.86700
H  42.29700 0.02600 26.60900
H  41.87700 -0.47500 28.24400
H  35.49100 1.12100 24.96800
H  33.75900 3.52500 25.00800
H  35.45700 3.78300 23.85500
H  36.59200 2.42800 23.59700
H  36.97400 3.68700 24.80400
H  33.37900 1.06400 23.98200
H  32.14500 2.09700 24.48800
H  33.10300 0.15200 26.65400
H  32.30000 -0.61700 25.27800
H  31.42100 0.58500 26.12200
H  29.72200 3.71600 28.64500
H  30.16900 5.38600 28.75500
H  29.56400 4.50300 30.21600
H  32.21900 2.94700 33.98800
H  30.87300 6.29700 36.45800
H  32.60400 6.83600 36.19500
H  32.15200 5.54200 37.34200
Mg -12.18100 37.39300 43.30600
C  -9.98200 34.92000 42.03500
C  -10.30900 39.80100 41.64500
C  -14.61700 39.74900 43.93800
C  -14.26900 34.95200 44.28400
N  -10.27900 37.32500 41.93300
C  -9.59900 36.23600 41.59700
C  -8.43200 36.62200 40.68900
C  -8.44900 38.28300 40.75800
C  -9.68200 38.54300 41.65500
C  -7.19300 39.04600 41.29200
C  -8.55700 36.07100 39.24500
C  -7.34200 36.36400 38.47900
H  -7.12100 35.53600 37.19100
N  -12.41100 39.56500 42.85500
C  -11.59600 40.30700 42.12500
C  -12.11900 41.63400 41.86100
C  -13.47800 41.62400 42.37700
C  -13.51900 40.33000 43.09600
C  -11.33700 42.69800 41.06800
C  -14.49700 42.78800 42.32900
O  -14.11700 43.82000 41.84500
C  -15.81200 42.69000 42.89000
N  -14.07900 37.37300 44.02900
C  -14.89300 38.43000 44.42100
C  -16.28900 37.96800 44.90800
C  -16.16200 36.43200 44.85100
C  -14.69800 36.23300 44.38300
C  -16.73200 38.60600 46.27300
C  -17.19100 35.70400 43.94600
C  -17.95300 34.54500 44.51900
N  -12.08100 35.30600 43.37200
C  -13.02800 34.45400 43.93400
C  -12.51800 33.07400 43.75500
C  -11.27800 33.27100 43.10000
C  -11.08100 34.63200 42.78000
C  -13.15200 31.80900 44.19100
C  -10.05200 32.55300 42.56800
O  -9.75500 31.37800 42.53400
C  -9.20300 33.58000 41.91400
C  -7.88100 33.62100 42.66800
O  -6.91000 33.00000 42.29600
O  -7.90600 34.41500 43.77700
C  -6.54500 34.66800 44.35600
H  -9.68400 40.54200 41.14300
H  -15.29800 40.57200 44.16200
H  -15.02400 34.25200 44.64900
H  -7.56100 36.20700 41.19700
H  -8.75700 38.67600 39.78900
H  -7.30500 39.19200 42.36600
H  -6.86600 39.92700 40.74000
H  -6.32100 38.39300 41.29100
H  -9.48500 36.55800 38.94900
H  -8.80000 35.00900 39.28300
H  -6.39500 36.12900 38.96300
H  -7.34100 37.42600 38.23200
H  -11.59300 43.64200 41.55000
H  -11.58500 42.73800 40.00800
H  -10.25300 42.58700 41.07400
H  -16.47900 43.48500 42.55800
H  -15.68900 42.82400 43.96400
H  -16.28000 41.77200 42.53200
H  -16.99500 38.28700 44.14200
H  -16.20400 36.01600 45.85800
H  -16.88200 37.79200 46.98200
H  -17.69800 39.09400 46.13600
H  -15.97500 39.26500 46.69800
H  -16.79200 35.34900 42.99600
H  -17.96400 36.39900 43.61800
H  -17.83400 34.44900 45.59900
H  -17.60900 33.67500 43.95900
H  -18.98400 34.77800 44.25300
H  -13.83400 32.04200 45.00900
H  -12.42200 31.03700 44.43200
H  -13.71500 31.46200 43.32400
H  -9.03300 33.30100 40.87400
H  -6.11400 33.70100 44.61500
H  -6.47800 35.28900 45.24900
H  -5.90800 35.15000 43.61400

