158

Mg 35.97000 2.34500 30.40100
C  33.55200 3.42700 32.68300
C  38.32100 2.46700 32.94900
C  38.41300 1.83200 28.02400
C  33.75300 2.85500 27.82300
N  35.89500 2.80200 32.56700
C  34.79500 3.15400 33.30300
C  35.12700 3.17000 34.79200
C  36.78900 3.05800 34.73400
C  36.99200 2.70800 33.32400
C  37.48100 4.40000 35.11200
C  34.40700 2.03100 35.49600
C  34.19900 2.13800 36.99000
H  34.87800 3.24000 37.81400
N  38.05300 2.10600 30.46500
C  38.80800 2.16800 31.61300
C  40.13500 1.63200 31.33200
C  40.21800 1.49600 29.89700
C  38.85400 1.80900 29.37700
C  41.28500 1.45300 32.34900
C  41.46200 1.14300 29.03500
O  41.37200 1.00300 27.82300
C  42.86900 1.03900 29.63300
N  36.04800 2.30400 28.24800
C  37.17000 2.15500 27.52300
C  36.86500 2.11400 26.03300
C  35.35000 2.18400 25.95800
C  35.04600 2.41000 27.48600
C  37.61900 3.19800 25.19300
C  34.56000 0.86200 25.47500
C  33.35800 1.05000 24.53300
N  33.97400 2.88300 30.23600
C  33.21700 3.06000 29.09400
C  31.95600 3.53600 29.52800
C  31.99800 3.56600 30.92900
C  33.24200 3.28500 31.29300
C  30.73600 3.61200 28.66600
C  31.26400 3.87300 32.13100
O  30.12800 4.29100 32.31100
C  32.29100 3.77600 33.36600
C  32.24600 5.00800 34.11400
O  32.37900 6.11500 33.64100
O  32.17300 4.77600 35.41900
C  31.96400 6.08900 36.14200
H  39.13900 2.21900 33.62900
H  39.19700 1.70400 27.27600
H  32.97200 2.93500 27.06400
H  34.74300 4.10100 35.20900
H  37.24800 2.20500 35.23300
H  36.72200 5.18300 35.11900
H  38.10900 4.72700 34.28400
H  38.07200 4.24600 36.01600
H  35.00100 1.11700 35.45000
H  33.50600 1.74500 34.95400
H  34.63900 1.30800 37.54300
H  33.13200 2.24700 37.18500
H  41.80400 0.49800 32.26100
H  40.97300 1.73900 33.35300
H  41.99700 2.20600 32.01200
H  42.84600 0.24900 30.38300
H  43.28700 1.94300 30.07600
H  43.58700 0.77900 28.85500
H  37.32300 1.17200 25.73200
H  34.88600 3.07000 25.52500
H  36.91100 3.87300 24.71300
H  38.21200 2.67900 24.44000
H  38.17100 3.90600 25.81100
H  34.08700 0.42500 26.35500
H  35.29900 0.23300 24.97800
H  33.54800 0.93700 23.46600
H  32.99800 2.07600 24.61000
H  32.51600 0.44000 24.86100
H  30.54700 2.66900 28.15200
H  30.86100 4.39900 27.92200
H  29.85500 3.81700 29.27400
H  31.85800 2.91100 33.86800
H  31.01100 6.59300 35.98400
H  32.85500 6.68600 35.94900
H  32.00700 5.90900 37.21600
Mg 9.62200 48.55000 25.90100
C  7.72300 48.88700 28.80700
C  12.29600 50.06700 27.77800
C  11.50500 48.31700 23.22700
C  6.77800 47.91000 24.07000
N  9.96100 49.44500 28.12900
C  9.05800 49.33400 29.14000
C  9.64300 49.85400 30.46900
C  10.98400 50.50100 30.03500
C  11.08800 50.00100 28.52700
C  11.07100 52.00300 30.14200
C  9.87300 48.67500 31.42600
C  9.83500 48.99500 32.94000
H  9.48200 47.84200 33.89400
N  11.53400 48.96700 25.60400
C  12.52900 49.57700 26.42800
C  13.83400 49.59100 25.71900
C  13.56800 49.16200 24.42800
C  12.16300 48.84400 24.37200
C  15.09900 50.08800 26.37400
C  14.54800 49.09700 23.28600
O  14.30700 48.78800 22.11300
C  16.01200 49.36900 23.54300
N  9.23500 48.34100 23.84300
C  10.20300 48.10700 22.93800
C  9.68700 47.59700 21.58000
C  8.13100 47.48100 21.88600
C  7.97600 47.93400 23.34400
C  10.00500 48.40100 20.28300
C  7.72500 45.97200 21.75600
C  7.75600 45.10900 23.04500
N  7.65400 48.41400 26.29800
C  6.55600 48.11700 25.43600
C  5.30800 48.30300 26.16500
C  5.78700 48.45400 27.51600
C  7.21900 48.61300 27.54800
C  3.89700 48.16900 25.67800
C  5.26900 48.67100 28.87800
O  4.12800 48.78400 29.26400
C  6.54000 48.77900 29.74300
C  6.56300 47.49800 30.44000
O  6.81700 46.40200 29.92400
O  6.31400 47.80800 31.77500
C  6.17100 46.64400 32.69300
H  13.15300 50.54900 28.25300
H  12.14500 48.11000 22.36700
H  5.91600 47.52100 23.52300
H  8.91200 50.57400 30.83400
H  11.75500 50.10400 30.69600
H  12.04500 52.26400 30.55700
H  10.26800 52.36600 30.78300
H  11.01300 52.51500 29.18200
H  10.81800 48.24700 31.09300
H  9.24900 47.79300 31.28300
H  9.13600 49.81200 33.11600
H  10.82200 49.36300 33.22200
H  15.09300 50.05600 27.46300
H  15.49200 51.02800 25.98700
H  15.85300 49.35300 26.09200
H  16.03000 50.43000 23.79200
H  16.56200 49.19700 22.61800
H  16.47500 48.79500 24.34600
H  10.14600 46.61700 21.45100
H  7.60400 48.22100 21.28200
H  10.68500 49.20500 20.56500
H  9.17200 48.78900 19.69700
H  10.56800 47.76300 19.60100
H  8.44900 45.44400 21.13600
H  6.71000 45.82200 21.38700
H  8.36800 45.51500 23.85000
H  8.29600 44.22700 22.70100
H  6.74100 44.85600 23.35200
H  3.70900 47.11600 25.46800
H  3.75900 48.78300 24.78800
H  3.16700 48.47000 26.42900
H  6.61300 49.54400 30.51600
H  6.54200 46.99300 33.65700
H  6.75700 45.81300 32.30100
H  5.11200 46.39800 32.76900

