158

Mg -1.87300 17.37900 27.23500
C  -2.45100 15.36000 30.08000
C  -2.71900 20.12600 29.24300
C  -1.97600 19.19100 24.34300
C  -1.73100 14.35700 25.30600
N  -2.36700 17.67800 29.42900
C  -2.58700 16.73100 30.38200
C  -2.95700 17.35000 31.76200
C  -3.29200 18.83400 31.39200
C  -2.75300 18.89600 29.96800
C  -4.78600 19.15200 31.59500
C  -1.83600 17.16500 32.81600
C  -2.47600 16.62000 34.17100
H  -1.63000 17.02900 35.36800
N  -2.19700 19.34300 26.87600
C  -2.36900 20.34600 27.81600
C  -2.49000 21.61400 27.11300
C  -2.18900 21.36500 25.71600
C  -2.13000 19.92900 25.60800
C  -2.71200 22.92800 27.80700
C  -1.94300 22.44500 24.56600
O  -1.73800 22.11100 23.42100
C  -2.03000 23.99300 24.81900
N  -1.72900 16.87800 25.15000
C  -1.90500 17.78100 24.18200
C  -1.83300 17.13000 22.80900
C  -1.51600 15.67100 23.14500
C  -1.63400 15.59900 24.65500
C  -3.07300 17.32700 21.90400
C  -0.11400 15.21400 22.76000
C  1.15600 16.01000 23.29100
N  -1.91300 15.33000 27.59300
C  -1.94000 14.21800 26.71200
C  -2.13600 13.00500 27.44500
C  -2.38300 13.45100 28.75500
C  -2.20100 14.86500 28.82700
C  -2.10100 11.64800 26.77400
C  -2.66400 12.95500 30.03200
O  -2.93000 11.84800 30.47900
C  -2.63200 14.17300 30.97600
C  -1.58500 13.90300 32.02700
O  -0.42500 14.01800 31.83300
O  -2.17800 13.35100 33.14700
C  -1.21500 12.99000 34.14400
H  -3.06600 21.01400 29.77500
H  -2.09200 19.56900 23.32500
H  -1.76100 13.46800 24.67300
H  -3.86100 16.86100 32.12600
H  -2.66100 19.50000 31.98000
H  -4.71600 20.12500 32.08300
H  -5.18200 18.41400 32.29300
H  -5.37600 19.14000 30.67900
H  -1.38800 18.12600 33.07000
H  -1.04100 16.56500 32.37500
H  -2.34000 15.53900 34.14500
H  -3.53200 16.85700 34.30100
H  -1.95800 23.66500 27.53000
H  -2.81300 22.84600 28.88900
H  -3.63400 23.38900 27.45200
H  -1.89100 24.62300 23.94000
H  -1.30700 24.33800 25.55900
H  -3.00900 24.35300 25.13500
H  -0.96000 17.60800 22.36300
H  -2.25000 15.01300 22.68000
H  -3.56300 18.26900 22.14800
H  -3.85800 16.58400 22.04800
H  -2.84500 17.44100 20.84400
H  -0.09900 15.15800 21.67200
H  -0.10300 14.21400 23.19300
H  0.89600 16.93900 23.79900
H  1.88300 16.25100 22.51500
H  1.81700 15.47200 23.97000
H  -1.11700 11.42300 26.36300
H  -2.78300 11.67700 25.92500
H  -2.56600 10.99500 27.51300
H  -3.62000 14.28000 31.42300
H  -0.57000 13.84400 34.35400
H  -0.55500 12.16400 33.88100
H  -1.67600 12.71000 35.09100
Mg 1.60300 -0.92900 44.12800
C  4.89100 0.10900 43.62000
C  0.46500 1.79400 42.52000
C  -1.43900 -2.51500 44.00900
C  3.04300 -4.11300 45.05300
N  2.55700 0.63200 43.10200
C  3.88600 0.96000 43.21400
C  4.11300 2.48200 42.76300
C  2.65500 2.98300 42.47300
C  1.82800 1.71600 42.70200
C  2.22400 4.25200 43.20700
C  4.98500 2.51100 41.45500
C  5.15300 1.32100 40.41600
H  6.45900 1.25200 39.68600
N  -0.28100 -0.37600 43.35400
C  -0.49500 0.82100 42.80000
C  -1.91400 0.82300 42.46500
C  -2.52100 -0.33900 42.93000
C  -1.38200 -1.15500 43.42000
C  -2.46200 1.95100 41.81600
C  -3.97400 -0.75500 42.75800
O  -4.80000 0.00800 42.30800
C  -4.52600 -2.11800 43.01700
N  0.92500 -2.95700 44.50300
C  -0.39700 -3.31300 44.45000
C  -0.60600 -4.76400 44.97300
C  0.80300 -5.25000 45.19200
C  1.64900 -4.04200 44.88100
C  -1.49700 -4.83700 46.24100
C  1.16600 -6.60100 44.55100
C  0.88300 -7.86100 45.43200
N  3.61000 -1.90600 44.28700
C  3.97200 -3.14700 44.72700
C  5.39600 -3.15400 44.83700
C  5.80300 -1.85400 44.47700
C  4.70100 -1.18900 43.95300
C  6.19800 -4.23300 45.31700
C  6.95200 -0.93700 44.40600
O  8.12600 -1.16300 44.82500
C  6.36100 0.41100 43.87200
C  6.40400 1.38700 44.99900
O  5.85200 1.38200 46.07600
O  7.29900 2.45500 44.64300
C  7.65400 3.48300 45.61100
H  0.16400 2.73100 42.04800
H  -2.42000 -2.97700 44.13800
H  3.42800 -5.05800 45.44000
H  4.57500 3.05900 43.56400
H  2.53800 3.23300 41.41800
H  1.45300 4.03500 43.94600
H  1.80200 4.95600 42.49000
H  3.04600 4.65500 43.79900
H  5.89200 2.86400 41.94600
H  4.70900 3.44500 40.96500
H  4.38400 1.54300 39.67700
H  4.86000 0.39700 40.91500
H  -2.08700 1.80500 40.80300
H  -2.27300 2.86900 42.37100
H  -3.52700 1.86100 41.60200
H  -4.07400 -2.93600 42.45600
H  -5.57600 -2.10300 42.72400
H  -4.45000 -2.36900 44.07500
H  -0.98800 -5.29900 44.10300
H  0.95600 -5.39700 46.26100
H  -2.13900 -3.96100 46.32500
H  -0.96900 -4.86100 47.19400
H  -2.29000 -5.58300 46.18800
H  2.22800 -6.64700 44.30800
H  0.70200 -6.74400 43.57500
H  0.48900 -8.74900 44.93700
H  0.13100 -7.61000 46.18000
H  1.81500 -8.13100 45.92800
H  5.67900 -4.53500 46.22600
H  7.17300 -3.80900 45.56000
H  6.26300 -5.12200 44.69100
H  7.05500 0.75900 43.10700
H  6.92500 3.51300 46.42100
H  7.65100 4.39700 45.01800
H  8.64700 3.23300 45.98300

