158

Mg 48.18300 46.03100 43.48500
C  44.75400 46.07600 42.54900
C  48.25200 42.72300 42.39200
C  51.50500 46.20300 43.12000
C  47.96900 49.58900 43.49000
N  46.58700 44.57600 42.69000
C  45.29800 44.77300 42.40100
C  44.55400 43.46200 42.04800
C  45.72500 42.41000 42.26600
C  46.94900 43.26900 42.53600
C  45.45600 41.39300 43.34900
C  43.94700 43.39700 40.54800
C  44.63700 44.16900 39.40800
H  44.98300 43.32000 38.11600
N  49.66400 44.59700 43.13500
C  49.44900 43.30900 42.81200
C  50.71700 42.63400 42.68700
C  51.75200 43.58100 42.92800
C  50.98900 44.86500 43.16700
C  50.87300 41.25200 42.27100
C  53.20800 43.32600 42.89900
O  53.57500 42.24900 42.51600
C  54.24400 44.35100 43.13600
N  49.53800 47.64900 43.12800
C  50.86700 47.44900 43.16100
C  51.65800 48.83900 43.12600
C  50.49100 49.85100 43.39900
C  49.23100 48.96600 43.31500
C  52.86300 49.07900 44.02700
C  50.58200 51.10500 42.40300
C  50.20200 52.45300 43.06300
N  46.70400 47.57200 43.29800
C  46.77000 48.94500 43.38600
C  45.46300 49.52800 43.24300
C  44.63400 48.45400 42.88200
C  45.44400 47.26400 42.96600
C  45.18700 50.95800 43.33800
C  43.31800 48.13800 42.43700
O  42.35100 48.82700 42.20500
C  43.29500 46.57500 42.23100
C  42.29000 45.95000 43.21100
O  41.67500 44.92600 42.92200
O  42.21600 46.56800 44.44100
C  41.10500 46.20700 45.32200
H  48.18300 41.69300 42.03700
H  52.57800 46.27600 42.92800
H  48.07700 50.67100 43.38900
H  43.70900 43.29800 42.71600
H  46.11000 41.86500 41.40500
H  46.11500 41.44700 44.21500
H  45.57400 40.37000 42.99100
H  44.50300 41.46300 43.87500
H  42.95400 43.84500 40.55300
H  43.77100 42.35600 40.27500
H  45.50700 44.65900 39.84600
H  44.00000 45.00900 39.13100
H  50.01400 40.64600 42.55900
H  51.76000 40.84200 42.75500
H  51.04300 41.15300 41.19900
H  54.42700 44.99700 42.27800
H  55.15500 43.86400 43.48200
H  54.01900 44.86900 44.06800
H  51.96800 49.11300 42.11800
H  50.47700 50.20200 44.43100
H  52.81000 50.02700 44.56200
H  53.73800 49.01800 43.38000
H  52.99800 48.27500 44.75100
H  49.95100 50.88300 41.54300
H  51.60200 51.15900 42.02200
H  49.28100 52.79100 42.58800
H  50.91600 53.17300 42.66300
H  50.19800 52.53900 44.15000
H  44.22000 51.24300 42.92300
H  46.00300 51.59500 42.99600
H  45.21200 51.16000 44.40900
H  43.02300 46.34800 41.20000
H  41.16500 45.15600 45.60400
H  40.13500 46.31600 44.83800
H  41.22500 46.81400 46.21900
Mg 29.71200 58.66300 40.59600
C  26.96900 56.62200 39.72900
C  31.79200 56.16700 39.30200
C  32.26500 60.83800 40.55200
C  27.45200 61.39400 41.01000
N  29.38200 56.49200 39.87900
C  28.19300 55.94700 39.53600
C  28.40300 54.65400 38.61800
C  29.93700 54.40500 38.72000
C  30.45300 55.72700 39.43200
C  30.36200 53.09900 39.42200
C  28.00300 54.82300 37.15100
C  27.16600 53.80200 36.37400
H  27.18100 53.74200 34.79400
N  31.79200 58.45900 40.11400
C  32.44000 57.37900 39.58500
C  33.90500 57.70300 39.45200
C  34.04300 58.99200 39.99200
C  32.66500 59.47900 40.28600
C  35.00000 56.73300 39.12600
C  35.37200 59.76300 40.12100
O  36.42700 59.23000 39.87900
C  35.43700 61.24400 40.51500
N  29.86100 60.80800 40.70700
C  31.05400 61.42200 40.71700
C  30.91000 62.95600 40.96600
C  29.35400 63.15200 41.18000
C  28.81800 61.67200 41.00200
C  31.72200 63.59700 42.07400
C  28.83200 64.29600 40.21800
C  27.56700 64.99900 40.81900
N  27.63800 58.90900 40.65300
C  26.89900 60.08200 40.72600
C  25.47700 59.74300 40.72300
C  25.47700 58.43600 40.19500
C  26.79300 57.96700 40.27600
C  24.34700 60.71300 41.02300
C  24.63900 57.37600 39.58300
O  23.44500 57.40600 39.29800
C  25.54000 56.13100 39.29300
C  25.01500 54.92700 39.99900
O  25.30100 54.61500 41.18300
O  24.16300 54.27200 39.07500
C  23.68600 52.90200 39.49900
H  32.42700 55.52900 38.68400
H  32.99200 61.64600 40.45000
H  26.80500 62.25500 41.18800
H  27.89300 53.89600 39.21200
H  30.48900 54.40300 37.78000
H  31.06200 53.43100 40.18800
H  30.90500 52.32800 38.87500
H  29.58200 52.65400 40.04000
H  28.89900 55.13700 36.61700
H  27.37900 55.71400 37.21600
H  26.13300 53.89500 36.71000
H  27.52400 52.82400 36.69700
H  35.32200 56.34700 40.09400
H  35.87100 57.19900 38.66700
H  34.71400 55.97300 38.39900
H  35.08300 61.37700 41.53700
H  34.87200 61.70300 39.70400
H  36.49600 61.50100 40.48600
H  31.12800 63.45700 40.02300
H  29.14900 63.46600 42.20400
H  32.53100 64.21800 41.69100
H  32.16100 62.79200 42.66300
H  31.19100 64.26200 42.75600
H  28.56400 63.84200 39.26400
H  29.58600 65.06000 40.03300
H  27.75400 66.05300 40.61400
H  27.44400 64.85400 41.89300
H  26.69900 64.57400 40.31600
H  24.21900 61.34100 40.14100
H  24.54200 61.32400 41.90500
H  23.38900 60.26800 41.29300
H  25.53800 55.92400 38.22300
H  22.60400 52.76500 39.49000
H  24.20700 52.60100 40.40700
H  24.02500 52.42200 38.58100

