158

Mg 26.77000 49.47600 25.70300
C  24.80000 50.58700 28.25400
C  29.08900 48.59900 27.99900
C  28.88300 48.80300 23.17300
C  24.46400 50.75500 23.43000
N  26.87700 49.65500 27.88900
C  25.97400 50.09300 28.76200
C  26.33200 49.72000 30.19100
C  27.83600 49.48400 30.03600
C  27.95100 49.16400 28.52400
C  28.79100 50.58600 30.46100
C  25.45400 48.59400 30.92300
C  24.85900 48.84100 32.34700
H  25.76600 49.52700 33.39600
N  28.71500 48.72200 25.62300
C  29.54100 48.38900 26.71900
C  30.79600 47.75600 26.25000
C  30.81700 47.83300 24.80000
C  29.47000 48.42000 24.42800
C  31.95200 47.26200 27.10500
C  31.90900 47.54700 23.76900
O  31.67900 47.79100 22.60200
C  33.21500 46.96900 24.28500
N  26.69700 49.74600 23.59400
C  27.69300 49.43200 22.76500
C  27.30500 49.63400 21.28800
C  25.84700 50.17800 21.37500
C  25.59800 50.18100 22.89700
C  28.29300 50.49200 20.43900
C  24.65800 49.41500 20.62400
C  24.00100 50.01500 19.40400
N  25.03700 50.53500 25.81000
C  24.17700 50.97300 24.76500
C  23.07500 51.70000 25.33300
C  23.27500 51.53400 26.74400
C  24.45700 50.78100 26.92800
C  21.92200 52.23000 24.59500
C  22.61900 51.80300 28.02400
O  21.57800 52.39000 28.33100
C  23.62900 51.15800 29.01800
C  23.97400 52.14400 30.11900
O  24.37300 53.27900 29.81300
O  23.89200 51.54700 31.40000
C  24.27400 52.35400 32.55800
H  29.83000 48.31200 28.74700
H  29.47700 48.64100 22.27100
H  23.78500 51.30600 22.77600
H  26.31000 50.68200 30.70300
H  28.07200 48.58500 30.60700
H  29.31900 51.01200 29.60900
H  29.61600 50.06700 30.95000
H  28.23900 51.37600 30.97100
H  26.01400 47.65900 30.89700
H  24.59300 48.36900 30.29500
H  24.79900 47.78200 32.59900
H  23.88400 49.31900 32.25800
H  31.85100 46.18400 26.97700
H  31.75600 47.62700 28.11200
H  32.95100 47.62000 26.85300
H  33.05300 46.03000 24.81500
H  33.76900 47.70600 24.86700
H  33.95200 46.65400 23.54600
H  27.28900 48.62100 20.88500
H  25.77800 51.20900 21.02700
H  29.17400 50.85700 20.96900
H  27.75100 51.40300 20.18600
H  28.57300 49.92800 19.54900
H  23.89000 49.28100 21.38500
H  25.00800 48.41200 20.38000
H  24.12000 49.25900 18.62700
H  24.50800 50.94100 19.13300
H  22.97000 50.17200 19.72000
H  21.63600 51.69600 23.68900
H  22.15800 53.26300 24.34100
H  21.00700 52.25800 25.18600
H  23.07900 50.36900 29.53100
H  24.16200 51.65400 33.38500
H  23.51500 53.13600 32.52600
H  25.29400 52.73800 32.55400
Mg 9.72700 47.45400 26.26500
C  7.70800 48.08000 29.02700
C  12.50200 48.18900 28.07200
C  11.37800 47.13300 23.40000
C  6.67400 46.87700 24.43700
N  10.01000 48.09100 28.33900
C  9.07000 48.11600 29.29400
C  9.83500 48.22600 30.70500
C  11.25700 48.75200 30.26300
C  11.26900 48.23900 28.81000
C  11.44200 50.32800 30.25000
C  9.89900 46.80900 31.41100
C  10.46400 46.88400 32.79600
H  9.72100 46.29100 34.06900
N  11.69100 47.84000 25.77000
C  12.72400 48.09600 26.73000
C  13.98600 47.96100 26.04200
C  13.69800 47.62100 24.67300
C  12.19700 47.51000 24.53200
C  15.31000 48.19500 26.79100
C  14.67600 47.48300 23.53400
O  14.28800 47.14800 22.44300
C  16.14600 47.50600 23.69400
N  9.11400 47.07300 24.26300
C  10.04800 46.85300 23.32700
C  9.49400 46.27200 22.05300
C  7.96200 46.10100 22.39500
C  7.87200 46.77900 23.76800
C  9.73400 47.04000 20.67800
C  7.43300 44.65300 22.44200
C  8.22500 43.67800 23.33700
N  7.59500 47.67100 26.55300
C  6.50500 47.37000 25.74600
C  5.32100 47.48500 26.53700
C  5.71800 47.81300 27.87100
C  7.10100 47.89900 27.76200
C  3.98900 47.31200 26.06300
C  5.26400 48.02400 29.23500
O  4.12000 48.04000 29.70200
C  6.54100 48.20800 30.02300
C  6.45500 47.10600 30.99400
O  6.27200 45.89600 30.72700
O  6.05600 47.68500 32.14200
C  5.42700 46.76800 33.15300
H  13.37600 48.16900 28.72500
H  11.99300 46.81900 22.55500
H  5.77000 46.63400 23.87400
H  9.40900 48.94600 31.40500
H  12.00900 48.23300 30.85700
H  11.42200 50.53300 29.18000
H  12.49900 50.36800 30.51500
H  10.79500 51.02100 30.78600
H  10.52500 46.13700 30.82500
H  8.91200 46.37300 31.25700
H  10.66800 47.94700 32.93000
H  11.34300 46.24000 32.75600
H  15.71000 49.11300 26.36000
H  16.01300 47.39600 26.55700
H  15.20600 48.31600 27.86900
H  16.67800 47.63200 22.75100
H  16.22600 46.45800 23.98000
H  16.52900 48.20000 24.44200
H  9.80000 45.23600 21.90800
H  7.41300 46.70600 21.67300
H  9.48500 48.09200 20.82100
H  9.02500 46.60700 19.97300
H  10.73500 46.83500 20.29900
H  7.54400 44.16600 21.47300
H  6.38600 44.54000 22.72000
H  9.05700 44.10500 23.89800
H  8.61000 42.82400 22.78000
H  7.61900 43.26600 24.14300
H  3.91400 46.43600 25.41900
H  3.73400 48.24900 25.56800
H  3.28100 47.20800 26.88500
H  6.53700 49.21300 30.44400
H  5.93000 45.80100 33.17300
H  4.35900 46.60600 33.01200
H  5.68300 47.40700 33.99800

