158

Mg 45.66600 3.67400 47.07800
C  43.56200 6.71000 46.86500
C  42.67200 1.90700 46.75600
C  47.40800 1.02700 46.36600
C  48.33500 5.77600 46.66600
N  43.38900 4.23700 46.73700
C  42.81600 5.50200 46.81800
C  41.27700 5.40300 46.45700
C  40.98900 3.87300 46.61100
C  42.43400 3.28400 46.74000
C  40.00800 3.49800 47.75700
C  40.84000 6.03300 45.09100
C  41.88900 6.02400 43.94600
H  41.50500 6.09600 42.49200
N  45.15600 1.63900 46.84800
C  43.89200 1.13800 46.77000
C  44.04800 -0.26300 46.45500
C  45.43100 -0.62300 46.37100
C  46.06800 0.71200 46.50400
C  42.81700 -1.17000 46.36000
C  45.94500 -2.00300 46.07800
O  45.15700 -2.87900 45.86800
C  47.39000 -2.38600 46.03100
N  47.57900 3.42100 46.70900
C  48.11400 2.23300 46.51100
C  49.66500 2.27100 46.34900
C  49.94000 3.82300 46.25500
C  48.51700 4.43100 46.60300
C  50.38500 1.52500 47.45700
C  50.49200 4.27600 44.87700
C  52.02000 4.60500 44.79400
N  45.96600 5.84500 46.87000
C  47.12800 6.54200 46.70800
C  46.91400 7.96600 46.72200
C  45.50000 8.03500 46.82900
C  44.97200 6.74800 46.88900
C  47.97500 9.03800 46.52400
C  44.38800 9.01400 46.84900
O  44.36900 10.26000 46.81500
C  43.05200 8.12900 46.73000
C  42.20400 8.51000 47.84300
O  42.27800 8.00700 48.93800
O  41.19400 9.36400 47.46800
C  40.01700 9.59000 48.27000
H  41.85600 1.18100 46.75200
H  48.07700 0.19300 46.14300
H  49.21600 6.41900 46.60500
H  40.78000 5.95500 47.25500
H  40.54400 3.44600 45.71200
H  39.35800 4.34800 47.96500
H  40.47900 3.20400 48.69500
H  39.46800 2.57600 47.54300
H  40.47000 7.04100 45.28000
H  40.19600 5.30900 44.59200
H  42.58000 5.18300 44.00700
H  42.43100 6.96100 44.07000
H  42.71300 -1.47300 45.31800
H  41.87800 -0.78400 46.75800
H  43.01500 -2.11500 46.86500
H  47.91400 -1.97600 46.89500
H  47.79300 -1.95000 45.11700
H  47.45600 -3.47400 46.03700
H  49.79900 1.76800 45.39200
H  50.67300 4.05300 47.02900
H  49.87900 1.65700 48.41400
H  51.42000 1.85500 47.55100
H  50.45800 0.48200 47.15000
H  49.98000 5.22600 44.72400
H  50.21500 3.53900 44.12400
H  52.06000 5.65400 44.50100
H  52.61600 4.07700 44.04900
H  52.42800 4.39300 45.78200
H  48.46900 9.05900 47.49500
H  47.45500 9.98600 46.38200
H  48.70300 8.89900 45.72500
H  42.44500 8.16600 45.82600
H  39.65400 10.61200 48.16400
H  40.16800 9.56400 49.34900
H  39.30700 8.85900 47.88400
Mg 35.84300 0.54900 29.37500
C  33.85200 2.07200 31.99300
C  38.10500 -0.18200 31.70700
C  37.69700 -0.45300 26.78000
C  33.23100 1.34300 27.17800
N  35.92700 0.91200 31.68400
C  35.05600 1.52700 32.52100
C  35.53700 1.50000 33.97200
C  36.96100 0.76000 33.84500
C  37.03600 0.52400 32.29800
C  38.11100 1.63600 34.44600
C  34.49800 0.77800 34.93800
C  34.07200 1.57500 36.17400
H  35.08300 2.60800 36.81400
N  37.68200 -0.20700 29.31300
C  38.47500 -0.45500 30.34100
C  39.75900 -0.97600 29.88700
C  39.66400 -1.03700 28.44600
C  38.26100 -0.63200 28.12000
C  40.93400 -1.47400 30.84800
C  40.74100 -1.56000 27.39600
O  40.54500 -1.67100 26.16800
C  42.13600 -1.97800 27.95300
N  35.40100 0.13600 27.34600
C  36.37800 -0.09900 26.44700
C  35.79800 -0.04300 24.99700
C  34.29400 0.24600 25.19200
C  34.34600 0.65200 26.65000
C  36.59900 0.79100 23.96700
C  33.34500 -0.95700 24.85200
C  32.66800 -1.00000 23.43700
N  33.91200 1.42700 29.51200
C  33.02100 1.74500 28.48700
C  31.90000 2.55500 29.06400
C  32.15900 2.62600 30.40400
C  33.38600 1.95600 30.62500
C  30.66700 3.15300 28.30400
C  31.64200 3.22700 31.62300
O  30.65700 3.88900 31.82800
C  32.70200 2.88000 32.70300
C  33.08100 4.20700 33.23800
O  34.09100 4.83400 32.99700
O  32.23000 4.63100 34.25500
C  32.71300 5.76300 35.12200
H  38.79700 -0.41100 32.52100
H  38.42300 -0.69900 26.00300
H  32.56800 1.82200 26.45400
H  35.71700 2.53000 34.27900
H  36.96100 -0.19600 34.36800
H  37.76600 2.44100 35.09500
H  38.73400 1.95800 33.61200
H  38.64200 0.97900 35.13600
H  34.88300 -0.18500 35.27300
H  33.59300 0.63200 34.34700
H  33.74200 0.88700 36.95200
H  33.26000 2.21000 35.82000
H  40.62000 -1.46700 31.89200
H  41.72700 -0.72800 30.78900
H  41.33500 -2.46000 30.61400
H  42.80000 -2.08100 27.09500
H  41.94100 -2.82900 28.60600
H  42.52300 -1.23800 28.65300
H  35.97800 -1.04600 24.61200
H  33.84000 1.04900 24.61100
H  37.46800 1.17600 24.50100
H  36.12500 1.72100 23.65400
H  36.91000 0.19900 23.10600
H  32.62800 -1.01700 25.67100
H  34.01000 -1.81300 24.97300
H  32.87000 -1.93700 22.91900
H  33.03700 -0.15900 22.85100
H  31.58900 -0.97600 23.58700
H  29.75800 2.68400 28.68000
H  30.81100 3.10800 27.22400
H  30.60700 4.21900 28.52400
H  32.15900 2.47500 33.55700
H  33.70100 5.40300 35.40800
H  32.12700 5.96300 36.01900
H  32.77500 6.74100 34.64600

