158

Mg -2.13300 17.29600 26.52200
C  -2.50600 15.04000 29.26200
C  -2.65900 19.78800 28.70200
C  -1.77900 19.26100 23.94900
C  -1.94500 14.48400 24.41900
N  -2.59200 17.34900 28.75200
C  -2.66200 16.35000 29.68300
C  -3.16200 16.88800 31.03600
C  -3.15300 18.43900 30.82100
C  -2.71000 18.55700 29.31700
C  -4.56700 19.08800 31.11600
C  -2.50500 16.32200 32.26800
C  -2.82800 16.97200 33.58000
H  -2.13000 16.30600 34.79800
N  -2.09200 19.28800 26.35300
C  -2.38700 20.16000 27.35700
C  -2.18100 21.46400 26.78300
C  -1.85500 21.35100 25.43500
C  -1.85200 19.93200 25.19900
C  -2.29800 22.73700 27.68200
C  -1.40600 22.55300 24.42300
O  -0.94100 22.28500 23.27500
C  -1.45800 23.92700 24.87000
N  -1.93000 16.90600 24.47500
C  -1.84700 17.92500 23.62800
C  -1.91400 17.50200 22.16900
C  -1.89900 15.90700 22.29000
C  -1.87600 15.72800 23.83400
C  -3.22000 18.09700 21.55900
C  -0.69000 15.18500 21.59400
C  0.67300 15.07700 22.33800
N  -2.14300 15.14800 26.73700
C  -2.08000 14.16300 25.80400
C  -2.25300 12.88600 26.38600
C  -2.44600 13.12300 27.76200
C  -2.35500 14.54800 27.93800
C  -2.26500 11.60200 25.60900
C  -2.70800 12.55600 29.05700
O  -2.82600 11.37500 29.35600
C  -2.74200 13.77300 30.00100
C  -1.68100 13.48200 30.97100
O  -0.51000 13.86400 30.90500
O  -2.15600 12.59300 31.88900
C  -1.25200 12.01900 32.85100
H  -2.83000 20.61300 29.39700
H  -1.68700 19.91400 23.07800
H  -2.04900 13.69000 23.67700
H  -4.15900 16.45600 31.12000
H  -2.34700 18.87500 31.41200
H  -5.23600 18.27900 31.41100
H  -4.90800 19.56500 30.19800
H  -4.46300 19.92100 31.81100
H  -1.42000 16.22900 32.25400
H  -2.77200 15.27600 32.42000
H  -3.90000 16.80800 33.69100
H  -2.64100 18.04600 33.56900
H  -1.29000 23.02900 27.98000
H  -2.82400 22.61700 28.62900
H  -2.98200 23.47300 27.26000
H  -1.07200 24.68000 24.18400
H  -0.93900 23.99500 25.82600
H  -2.53100 24.11600 24.89600
H  -0.96100 17.85800 21.77700
H  -2.81500 15.41100 21.97000
H  -3.62900 18.94700 22.10600
H  -3.89900 17.25200 21.44800
H  -3.05700 18.47500 20.55000
H  -0.46500 15.74600 20.68700
H  -0.88600 14.17600 21.23100
H  1.01600 14.04800 22.23100
H  0.58400 15.31600 23.39800
H  1.27100 15.88500 21.91700
H  -1.53900 11.53200 24.79900
H  -3.24100 11.64300 25.12400
H  -2.28000 10.76800 26.31000
H  -3.72500 13.84100 30.46700
H  -1.63700 11.11200 33.31700
H  -1.08900 12.74100 33.65200
H  -0.32100 11.87700 32.30200
Mg 17.18700 52.63800 26.58400
C  19.40700 51.13200 28.75100
C  15.11000 53.20000 29.14800
C  15.20800 54.19600 24.42200
C  19.54600 52.03100 23.97500
N  17.17000 52.05100 28.68300
C  18.18500 51.42500 29.41000
C  17.97900 51.48800 30.92800
C  16.44500 51.78600 30.93300
C  16.17400 52.38300 29.49600
C  15.56300 50.54800 31.21700
C  18.84400 52.68000 31.53700
C  18.98600 52.52900 33.03600
H  17.89400 51.91500 33.79800
N  15.34700 53.56400 26.77400
C  14.69900 53.74600 27.92700
C  13.55900 54.63000 27.67900
C  13.55600 54.89100 26.27000
C  14.73000 54.22500 25.73800
C  12.58800 55.05300 28.76700
C  12.55800 55.69500 25.46900
O  12.54000 55.71200 24.28300
C  11.62300 56.51300 26.18800
N  17.29900 52.91100 24.45600
C  16.33900 53.64800 23.82300
C  16.75700 53.89000 22.36900
C  18.20900 53.33000 22.29700
C  18.35700 52.70400 23.62500
C  15.78300 53.11400 21.42000
C  19.35500 54.28600 21.89600
C  20.00000 54.17600 20.51400
N  18.96200 51.50200 26.34800
C  19.86200 51.51600 25.26100
C  20.99200 50.78100 25.63700
C  20.89400 50.61100 26.98500
C  19.64900 51.11300 27.36600
C  22.26300 50.49000 24.79700
C  21.56200 50.23500 28.14200
O  22.67400 49.74600 28.32700
C  20.66700 50.55500 29.30300
C  20.35400 49.33900 30.19700
O  19.93400 48.32600 29.72800
O  20.64400 49.70300 31.49800
C  20.24700 48.72400 32.49500
H  14.58500 53.63900 29.99900
H  14.59700 54.82800 23.77400
H  20.40600 51.94100 23.30800
H  18.24400 50.53500 31.38500
H  16.17600 52.49700 31.71400
H  14.91900 50.37000 30.35600
H  15.01600 50.69400 32.14900
H  16.17200 49.64400 31.19600
H  18.31200 53.63200 31.53700
H  19.83400 52.84900 31.11300
H  19.17600 53.45300 33.58300
H  19.92900 52.00600 33.19200
H  11.56900 54.80000 28.47300
H  12.66600 56.13300 28.88900
H  12.84200 54.60400 29.72700
H  10.79800 55.94200 26.61500
H  11.20200 57.26200 25.51700
H  12.19300 57.04200 26.95300
H  16.64700 54.95600 22.17200
H  18.11800 52.54700 21.54300
H  16.27900 52.90800 20.47100
H  15.01700 53.86400 21.22400
H  15.46100 52.17200 21.86400
H  20.22000 54.22400 22.55500
H  19.11500 55.33300 22.08400
H  21.08900 54.19900 20.56500
H  19.63700 54.98500 19.87900
H  19.58300 53.28400 20.04700
H  23.05600 50.32100 25.52500
H  22.55700 51.33400 24.17300
H  22.28900 49.57000 24.21300
H  21.15700 51.26800 29.96700
H  19.70400 47.84200 32.15500
H  19.76900 49.19500 33.35400
H  21.21800 48.38600 32.85600

