158

Mg 47.73700 15.09000 27.23900
C  45.79900 15.23500 30.01500
C  49.94800 17.29000 28.62200
C  49.25300 15.33100 24.23600
C  45.09700 13.33300 25.60100
N  47.87800 16.21500 29.12400
C  47.05000 15.90100 30.12600
C  47.50100 16.55500 31.43300
C  48.83100 17.33600 31.00200
C  48.86700 17.06200 29.51500
C  48.94500 18.79800 31.45300
C  47.77600 15.44100 32.53100
C  47.24900 15.82300 33.93700
H  46.95600 17.26500 34.37000
N  49.38800 16.05200 26.63300
C  50.19000 16.90600 27.34400
C  51.37000 17.33900 26.57500
C  51.17600 16.61300 25.30200
C  49.88200 15.95200 25.31000
C  52.48800 18.22200 27.08900
C  52.03700 16.64600 24.11600
O  51.81700 16.13700 23.02900
C  53.30000 17.42800 24.16800
N  47.31700 14.29900 25.29700
C  48.08000 14.57100 24.21400
C  47.53200 13.88700 22.95200
C  46.25300 13.13700 23.36100
C  46.22500 13.54100 24.86200
C  47.23500 14.85900 21.76600
C  46.21900 11.65000 22.99100
C  46.69200 10.64600 24.16700
N  45.78800 14.41700 27.68100
C  44.87100 13.63900 26.95400
C  43.67700 13.47600 27.76200
C  44.03000 14.01400 29.01100
C  45.30000 14.58400 28.89700
C  42.32100 12.93300 27.37500
C  43.57800 14.21100 30.41700
O  42.51900 14.04600 30.92100
C  44.74400 14.94000 31.14200
C  44.16500 16.13500 31.79800
O  44.33800 17.29000 31.43400
O  43.48400 15.79900 32.96200
C  42.68900 16.82400 33.62200
H  50.67300 17.88900 29.17600
H  49.66400 15.38300 23.22500
H  44.28000 12.80900 25.10000
H  46.80600 17.33500 31.74400
H  49.67900 16.80000 31.42700
H  48.82800 19.35700 30.52500
H  49.98400 18.92600 31.75700
H  48.17200 19.20200 32.10700
H  48.84900 15.29000 32.65000
H  47.33000 14.51200 32.17700
H  47.89100 15.49400 34.75500
H  46.31700 15.30200 34.15400
H  52.21600 18.65300 28.05200
H  52.79500 19.04400 26.44200
H  53.30400 17.55200 27.35900
H  53.89000 17.38000 25.08300
H  53.08900 18.41200 23.75000
H  53.94900 17.00400 23.40100
H  48.30500 13.14500 22.75600
H  45.43800 13.66700 22.86700
H  46.19500 14.90600 21.44400
H  47.90800 14.50200 20.98700
H  47.55000 15.87500 22.00600
H  46.69600 11.32900 22.06500
H  45.14800 11.45700 22.91900
H  47.24700 9.81700 23.72600
H  45.84400 10.22300 24.70500
H  47.35600 11.05300 24.92900
H  42.21400 12.92800 26.29100
H  41.60200 13.65800 27.75700
H  42.18300 11.88800 27.65300
H  45.19100 14.27800 31.88300
H  43.00000 17.86600 33.54700
H  42.54400 16.53900 34.66400
H  41.71800 16.79600 33.12800
Mg -5.11500 25.51400 25.25400
C  -3.43600 27.20000 27.82800
C  -6.49100 23.42700 27.45700
C  -6.28300 23.65400 22.70400
C  -2.77900 27.06800 23.08600
N  -4.79300 25.25100 27.41400
C  -4.26200 26.15900 28.31600
C  -4.74400 25.85000 29.71100
C  -5.44200 24.48900 29.58300
C  -5.63000 24.39800 28.02100
C  -4.71400 23.23200 30.10500
C  -5.66600 26.97200 30.43400
C  -5.09700 27.34200 31.79000
H  -4.74200 26.08500 32.65700
N  -6.26800 23.78400 25.07300
C  -6.81800 23.12000 26.12500
C  -7.76000 22.12900 25.65300
C  -7.68000 22.10200 24.26200
C  -6.78000 23.26500 23.95900
C  -8.56500 21.34700 26.71000
C  -8.42000 21.19200 23.24900
O  -8.21100 21.25200 22.07500
C  -9.45000 20.10900 23.68000
N  -4.60300 25.35600 23.29100
C  -5.25800 24.56500 22.37800
C  -4.68100 24.69200 20.96800
C  -3.58700 25.77000 21.06300
C  -3.60500 26.01200 22.57300
C  -4.09800 23.32000 20.36300
C  -3.82700 27.05200 20.21600
C  -3.58400 27.03500 18.72900
N  -3.57100 27.00400 25.35000
C  -2.74800 27.60300 24.40600
C  -1.91700 28.63300 24.98100
C  -2.11400 28.46700 26.37500
C  -3.11800 27.49500 26.49800
C  -1.01400 29.53200 24.28700
C  -1.73200 28.91400 27.68400
O  -0.84100 29.72000 27.98400
C  -2.54500 28.08700 28.71700
C  -1.48000 27.39200 29.48300
O  -0.71900 26.51700 29.03800
O  -1.49500 27.81900 30.77500
C  -0.71200 27.17300 31.79700
H  -7.02000 23.00900 28.31600
H  -6.85000 23.20100 21.88800
H  -2.10600 27.63800 22.44300
H  -3.85200 25.61300 30.29100
H  -6.45300 24.39000 29.97700
H  -3.87600 23.35900 30.79000
H  -4.33700 22.70600 29.22800
H  -5.52700 22.65700 30.54800
H  -6.71300 26.70500 30.58100
H  -5.69500 27.86900 29.81600
H  -5.83900 27.99400 32.25200
H  -4.26800 28.02100 31.58700
H  -9.48600 21.91600 26.83300
H  -8.10400 21.37600 27.69700
H  -8.75900 20.33000 26.36800
H  -9.97100 19.94000 22.73700
H  -10.08800 20.52000 24.46300
H  -8.97700 19.21100 24.07700
H  -5.49400 25.03200 20.32700
H  -2.59100 25.39300 20.83200
H  -4.46800 23.27100 19.33900
H  -4.52000 22.47400 20.90600
H  -3.01100 23.35300 20.30000
H  -3.28100 27.91700 20.59300
H  -4.84800 27.33900 20.46900
H  -2.85000 27.78700 18.44100
H  -4.52300 27.30200 18.24400
H  -3.20300 26.07200 18.38900
H  -1.06200 30.57600 24.59600
H  -1.25200 29.40700 23.23000
H  -0.01100 29.19000 24.53900
H  -3.02100 28.83900 29.34600
H  -1.43100 27.27000 32.61000
H  0.24500 27.66900 31.96200
H  -0.64700 26.12100 31.51800

