158

Mg 28.35500 56.43200 40.87800
C  25.76300 54.18000 40.34000
C  30.56300 54.12600 39.60200
C  30.66600 58.92100 40.63600
C  25.74100 58.90900 41.28500
N  28.13300 54.39000 39.99300
C  27.02600 53.64600 39.89300
C  27.27900 52.29200 39.18000
C  28.80100 52.27700 39.19000
C  29.19500 53.71800 39.59800
C  29.38000 51.07900 39.98300
C  26.44400 52.11600 37.91300
C  26.21000 53.42400 37.02600
H  26.77300 53.42600 35.64800
N  30.41500 56.49100 40.41700
C  31.11000 55.45300 39.88500
C  32.50200 55.87200 39.73100
C  32.55000 57.24300 40.16100
C  31.20000 57.62400 40.45000
C  33.65800 54.94500 39.20000
C  33.79800 58.13500 40.18200
O  34.94800 57.72000 39.90200
C  33.83700 59.60800 40.61300
N  28.15100 58.63900 40.53100
C  29.31500 59.40800 40.78300
C  28.90600 60.79600 41.01100
C  27.32200 60.84800 41.16200
C  27.01000 59.40400 40.85600
C  29.70200 61.56700 42.15400
C  26.43100 61.94700 40.50000
C  25.40200 62.68400 41.40100
N  26.22200 56.57800 40.84300
C  25.32600 57.59700 41.10000
C  24.02100 57.07800 41.35800
C  24.13200 55.69800 41.03600
C  25.47500 55.50500 40.69800
C  22.78100 57.75800 41.73100
C  23.45800 54.45000 41.08700
O  22.30800 54.04800 41.29800
C  24.38600 53.45600 40.38200
C  24.48500 52.09400 41.05000
O  23.74000 51.19800 40.71600
O  25.48200 52.08000 42.02900
C  25.53900 50.75800 42.60300
H  31.21200 53.34700 39.19500
H  31.31700 59.79000 40.52000
H  24.99100 59.65000 41.56700
H  26.83000 51.48700 39.76300
H  29.06500 52.21100 38.13500
H  29.01200 50.29200 39.32500
H  29.08600 51.11400 41.03200
H  30.46500 51.03000 39.89400
H  25.56100 51.52200 38.14600
H  26.96900 51.32200 37.38200
H  26.52200 54.34300 37.52200
H  25.13200 53.51400 36.89000
H  33.35800 54.60400 38.20900
H  33.66400 54.06400 39.84200
H  34.60000 55.49300 39.20800
H  33.24300 59.46900 41.51700
H  33.38300 60.19800 39.81800
H  34.84300 59.95500 40.84900
H  29.28200 61.36100 40.15900
H  27.31500 60.83100 42.25200
H  30.16700 60.82900 42.80700
H  28.96500 62.17100 42.68200
H  30.48000 62.16300 41.67700
H  25.92700 61.57300 39.60900
H  27.10300 62.73400 40.15800
H  25.55600 62.39800 42.44200
H  24.40200 62.40800 41.06600
H  25.43600 63.76900 41.30100
H  22.84900 58.68600 42.29900
H  22.21300 57.06600 42.35200
H  22.28200 57.95500 40.78200
H  23.95900 53.28400 39.39400
H  25.98300 50.14400 41.82000
H  24.59200 50.44900 43.04600
H  26.30100 50.75600 43.38300
Mg 26.53600 49.66900 27.06000
C  24.49100 51.12500 29.60300
C  28.38100 48.11300 29.39600
C  28.51800 48.70800 24.52300
C  24.57300 51.43000 24.71700
N  26.28000 49.57800 29.21100
C  25.41800 50.24700 30.09400
C  25.67100 49.77400 31.54700
C  27.11900 49.06100 31.42200
C  27.22400 48.80400 29.88000
C  28.37500 49.75300 32.06400
C  24.49700 48.93100 32.17500
C  23.95800 49.38400 33.51500
H  24.17200 48.54000 34.74500
N  28.20500 48.56300 26.93200
C  28.89900 48.00700 28.05400
C  30.08800 47.34300 27.58500
C  30.19900 47.55900 26.18500
C  28.94300 48.29500 25.78200
C  30.99900 46.64700 28.43200
C  31.26600 47.21200 25.20100
O  31.21700 47.50700 24.02500
C  32.41600 46.35200 25.52800
N  26.50100 49.97500 24.94800
C  27.34900 49.35900 24.09500
C  27.06800 49.63100 22.57800
C  25.61300 50.18700 22.70000
C  25.51400 50.53600 24.22400
C  27.97800 50.75900 21.97600
C  24.45200 49.24700 22.21400
C  23.41600 49.78300 21.25100
N  24.87000 51.02100 27.11000
C  24.23600 51.67100 26.09000
C  23.19100 52.62400 26.70700
C  23.25400 52.36500 27.99600
C  24.28700 51.45000 28.24700
C  22.26800 53.54800 25.94300
C  22.61300 52.67200 29.24700
O  21.65100 53.36600 29.50100
C  23.41000 51.90100 30.38900
C  23.83100 52.96400 31.26400
O  24.84200 53.70200 31.15100
O  22.98100 52.93000 32.35100
C  23.26100 53.91100 33.40500
H  28.97200 47.67400 30.20300
H  29.16000 48.42100 23.68700
H  23.88000 51.84800 23.98400
H  25.90700 50.71500 32.04400
H  26.91000 48.08300 31.85500
H  28.90000 50.51400 31.48600
H  29.09500 48.99800 32.37800
H  28.12000 50.40500 32.89900
H  24.71100 47.86900 32.29600
H  23.66600 48.96000 31.47000
H  22.92800 49.73000 33.43000
H  24.42200 50.31600 33.84000
H  31.91700 47.23200 28.48800
H  31.11800 45.70400 27.89800
H  30.51700 46.47500 29.39400
H  32.02200 45.34000 25.62600
H  32.89200 46.67100 26.45500
H  33.08500 46.41900 24.67100
H  26.95600 48.66900 22.07900
H  25.54600 51.13800 22.17300
H  28.96300 50.64500 22.42800
H  27.58000 51.72200 22.29600
H  28.04500 50.56800 20.90600
H  24.13900 48.79400 23.15500
H  25.01100 48.49200 21.66200
H  23.56900 50.84900 21.08600
H  22.38100 49.65600 21.56900
H  23.44900 49.28400 20.28200
H  21.52800 52.98300 25.37600
H  22.90700 54.09500 25.25000
H  21.83700 54.24900 26.65800
H  22.74900 51.20900 30.91200
H  22.39600 53.88900 34.06700
H  23.24500 54.92000 32.99300
H  24.21300 53.78100 33.92000

