158

Mg 17.09500 -0.41900 27.76700
C  15.94300 1.61400 30.41600
C  19.10300 -2.02400 29.92600
C  18.72400 -1.75900 25.19200
C  15.28100 1.61700 25.52400
N  17.55300 -0.12500 29.91300
C  16.88400 0.68800 30.87100
C  17.51900 0.49400 32.22900
C  18.74600 -0.48300 31.91700
C  18.42700 -0.93700 30.45600
C  20.19900 0.06100 32.13300
C  16.33600 -0.16900 33.15600
C  16.36500 0.33500 34.63500
H  17.64900 0.91000 35.25600
N  18.58600 -1.87700 27.61100
C  19.19700 -2.45800 28.61100
C  19.98800 -3.50300 28.09500
C  20.01800 -3.33600 26.68900
C  19.09500 -2.29100 26.40600
C  20.83900 -4.38200 28.99800
C  20.78800 -4.13300 25.57300
O  20.45300 -4.00300 24.38300
C  21.76500 -5.18900 25.90600
N  16.95000 -0.15900 25.67600
C  17.84200 -0.71800 24.80800
C  17.68000 -0.30600 23.43300
C  16.43400 0.57500 23.49300
C  16.18800 0.73200 25.00200
C  18.93500 0.32300 22.74900
C  15.24500 -0.15200 22.77100
C  15.11500 0.20500 21.28300
N  15.66800 1.06900 27.91200
C  15.04200 1.80500 26.91900
C  14.24000 2.91800 27.47500
C  14.48000 2.75300 28.84100
C  15.45000 1.76400 29.04900
C  13.27500 3.85400 26.80000
C  14.23900 3.33500 30.18100
O  13.37800 4.18000 30.53500
C  15.14000 2.63200 31.25800
C  15.89700 3.62900 32.06000
O  16.90700 4.29300 31.80300
O  15.19300 3.72800 33.25800
C  15.70600 4.70900 34.17800
H  19.75100 -2.53600 30.63900
H  19.35900 -1.97500 24.33000
H  14.77100 2.31000 24.85200
H  17.83600 1.46700 32.60300
H  18.51800 -1.38800 32.48000
H  20.63700 -0.60700 32.87600
H  20.17400 0.99200 32.70000
H  20.74800 0.27800 31.21700
H  16.59000 -1.22300 33.26900
H  15.34300 0.06800 32.77300
H  16.01100 -0.45800 35.29300
H  15.58800 1.09900 34.63100
H  20.14700 -4.76200 29.74900
H  21.51500 -3.75400 29.57800
H  21.35700 -5.26700 28.62700
H  22.43400 -5.36800 25.06400
H  21.11400 -6.01900 26.18000
H  22.28500 -4.74800 26.75700
H  17.48800 -1.26200 22.94600
H  16.56400 1.60800 23.17000
H  19.73800 0.46800 23.47100
H  18.80500 1.30900 22.30100
H  19.18300 -0.37900 21.95300
H  14.32400 0.21400 23.22600
H  15.22300 -1.21000 23.03000
H  15.98700 0.74300 20.91100
H  14.21900 0.76000 21.00700
H  15.13100 -0.65900 20.61800
H  13.51400 3.88600 25.73700
H  13.36900 4.85600 27.21900
H  12.30400 3.41500 27.03300
H  14.40600 2.14000 31.89600
H  15.20700 5.66700 34.02700
H  16.79200 4.78700 34.21900
H  15.43900 4.40200 35.18900
Mg -12.85100 16.28500 40.72100
C  -9.99000 14.23900 40.28700
C  -11.07000 18.97600 39.54800
C  -15.76600 17.86200 40.64800
C  -14.63400 13.19200 41.35800
N  -10.78700 16.51300 40.06900
C  -9.78800 15.54800 39.99500
C  -8.42200 16.20100 39.49100
C  -8.71800 17.72500 39.42700
C  -10.27800 17.82000 39.73500
C  -7.81300 18.70300 40.29500
C  -8.02100 15.49600 38.07300
C  -6.55600 15.11600 38.08900
H  -5.60800 16.00800 37.23700
N  -13.32100 18.13200 40.23100
C  -12.49600 19.16100 39.82200
C  -13.24500 20.36000 39.76500
C  -14.61200 20.08700 40.04500
C  -14.61800 18.65900 40.33400
C  -12.65400 21.67700 39.36900
C  -15.81700 21.03200 39.93600
O  -15.64300 22.17700 39.58700
C  -17.17100 20.79000 40.54400
N  -14.92200 15.60100 40.67500
C  -15.89700 16.52400 40.86800
C  -17.27200 15.89600 40.93400
C  -16.78000 14.45500 41.44100
C  -15.33300 14.39900 41.18300
C  -18.40500 16.49000 41.78100
C  -17.56900 13.17000 40.87700
C  -18.26900 12.42600 42.06600
N  -12.42700 14.15700 40.90100
C  -13.26400 13.00100 41.19600
C  -12.44300 11.82500 41.21700
C  -11.10000 12.26800 40.85700
C  -11.22600 13.69100 40.69400
C  -13.00300 10.49900 41.51400
C  -9.71000 11.81600 40.74400
O  -9.17800 10.68700 40.79600
C  -8.90700 13.12400 40.40400
C  -7.96200 13.48000 41.53700
O  -8.15200 14.33500 42.38400
O  -6.69400 13.01700 41.20200
C  -5.52100 13.59400 41.84200
H  -10.54900 19.83300 39.11500
H  -16.64100 18.47800 40.43100
H  -15.07900 12.26700 41.73000
H  -7.70700 16.00700 40.29100
H  -8.51400 18.06800 38.41300
H  -7.19700 19.23400 39.56800
H  -7.02400 18.29800 40.92900
H  -8.43300 19.48400 40.73500
H  -8.18600 16.24800 37.30100
H  -8.57600 14.56700 37.93900
H  -6.60400 14.10100 37.69300
H  -6.20100 15.15100 39.11900
H  -12.68400 21.68300 38.27900
H  -11.58900 21.73900 39.59000
H  -13.15400 22.55200 39.78300
H  -17.88800 20.30200 39.88300
H  -17.75400 21.69400 40.72400
H  -17.11600 20.22500 41.47500
H  -17.52700 15.75300 39.88400
H  -16.80200 14.41900 42.53000
H  -19.37300 16.63300 41.30000
H  -18.11800 17.52200 41.97900
H  -18.57700 15.98300 42.73000
H  -17.05800 12.54300 40.14700
H  -18.33500 13.63500 40.25700
H  -18.32600 12.81500 43.08300
H  -17.66600 11.52500 42.17900
H  -19.29800 12.08000 41.97100
H  -14.07900 10.35500 41.61400
H  -12.47300 10.04200 42.35000
H  -12.71700 9.90600 40.64500
H  -8.40500 13.05000 39.43900
H  -5.16300 12.87100 42.57400
H  -5.62000 14.57900 42.29800
H  -4.72400 13.65200 41.10100

