158

Mg 46.95900 25.54200 28.91900
C  47.64900 27.55700 31.66000
C  46.19700 22.90100 31.16600
C  46.95900 23.41900 26.34500
C  48.26500 28.12200 26.85600
N  46.82000 25.34300 31.09200
C  47.05200 26.37700 31.99900
C  46.71500 26.00700 33.38100
C  46.53000 24.47100 33.24000
C  46.55800 24.17800 31.76400
C  47.40500 23.54000 34.03100
C  45.62200 26.74600 34.15800
C  45.73800 26.62100 35.75000
H  44.40300 26.33400 36.50000
N  46.47600 23.50500 28.68200
C  46.10300 22.65400 29.71000
C  45.80100 21.35500 29.07500
C  46.11200 21.47100 27.65700
C  46.53800 22.88300 27.49000
C  45.29200 20.23800 29.90800
C  45.97300 20.41500 26.54900
O  46.36700 20.57100 25.42000
C  45.47800 19.01500 26.90700
N  47.62000 25.73900 26.91200
C  47.41300 24.72500 26.00700
C  47.92500 25.03800 24.55500
C  47.99200 26.56700 24.70700
C  47.95300 26.86100 26.26100
C  49.19800 24.25600 24.23800
C  46.84600 27.26300 23.90900
C  45.49100 27.29000 24.64900
N  47.86800 27.44100 29.15800
C  48.20100 28.44200 28.24000
C  48.60800 29.64500 28.97200
C  48.42000 29.32300 30.29000
C  47.95900 28.02000 30.37400
C  49.19300 30.93000 28.28800
C  48.46200 29.87100 31.62500
O  48.80100 30.95000 32.04300
C  47.97300 28.70300 32.63000
C  49.03800 28.31100 33.57500
O  50.15900 27.95500 33.18300
O  48.59400 28.20300 34.90300
C  49.63500 27.65700 35.72000
H  45.92000 22.16600 31.92500
H  46.93300 22.78100 25.45900
H  48.50000 28.91800 26.14700
H  47.63600 26.10900 33.95500
H  45.50800 24.20200 33.50700
H  48.13700 24.14800 34.56200
H  48.00100 22.84000 33.44600
H  46.86200 22.99900 34.80600
H  44.64700 26.42000 33.79500
H  45.68100 27.82100 33.98800
H  46.16700 27.50500 36.22200
H  46.40300 25.76500 35.85700
H  45.99700 19.40700 29.92400
H  44.32800 19.85700 29.57100
H  45.08200 20.61200 30.91000
H  45.81600 18.60500 27.85800
H  45.70100 18.26600 26.14700
H  44.39300 18.93300 26.85200
H  47.20500 24.79900 23.77200
H  48.97900 26.81500 24.31600
H  49.34000 23.78200 23.26600
H  49.40900 23.56100 25.05100
H  49.97500 25.02000 24.21900
H  46.72000 26.74500 22.95800
H  47.20700 28.28600 23.80200
H  45.34800 28.26900 25.10700
H  45.51100 26.59700 25.49000
H  44.61700 27.16300 24.01000
H  49.71700 30.69000 27.36200
H  49.85100 31.43000 28.99900
H  48.40500 31.62500 27.99800
H  47.07600 29.08300 33.11900
H  50.67000 27.99900 35.73500
H  49.74500 26.62000 35.40300
H  49.20000 27.68700 36.71900
Mg -8.72600 41.05600 42.26500
C  -7.52400 37.73600 41.33500
C  -5.90500 42.28900 40.79900
C  -10.09300 44.04800 42.55000
C  -11.59400 39.51500 43.34700
N  -7.00800 40.06700 41.11800
C  -6.67100 38.72100 40.94900
C  -5.28500 38.61800 40.27400
C  -4.76000 40.09500 40.30900
C  -5.96500 40.89100 40.86000
C  -3.44900 40.33900 41.16800
C  -5.44700 38.00500 38.86300
C  -4.48900 36.94800 38.25900
H  -3.64400 37.44500 37.05600
N  -8.07600 43.00000 41.74900
C  -6.86300 43.30400 41.13400
C  -6.86000 44.73700 40.89100
C  -8.01300 45.28200 41.53100
C  -8.84100 44.13100 41.92000
C  -5.67900 45.41300 40.22000
C  -8.34100 46.79200 41.67000
O  -7.59200 47.67200 41.22300
C  -9.56000 47.26000 42.43700
N  -10.55500 41.62900 42.78600
C  -10.81700 42.94500 42.97800
C  -12.25200 43.16300 43.53800
C  -12.71900 41.75900 43.84200
C  -11.51900 40.86800 43.40900
C  -12.33200 44.14900 44.68500
C  -14.06600 41.39800 43.19200
C  -14.92600 40.44100 44.01300
N  -9.47700 39.04800 42.42200
C  -10.64100 38.58700 42.93800
C  -10.75800 37.12900 42.84400
C  -9.50000 36.78400 42.13500
C  -8.80300 37.98100 41.91700
C  -11.90400 36.30900 43.38200
C  -8.75800 35.67500 41.59400
O  -9.09900 34.50500 41.71500
C  -7.46900 36.21600 41.09000
C  -6.27800 35.50100 41.65200
O  -5.74200 35.87800 42.69900
O  -5.89500 34.41800 40.92700
C  -4.69500 33.62300 41.26800
H  -5.01800 42.81500 40.43800
H  -10.50300 45.03200 42.79100
H  -12.50400 39.01700 43.68900
H  -4.62700 37.93900 40.81700
H  -4.40400 40.41300 39.32900
H  -2.80300 41.16400 40.86700
H  -2.79100 39.47400 41.08200
H  -3.47500 40.31900 42.25800
H  -5.30000 38.82900 38.16500
H  -6.48600 37.70900 38.71400
H  -5.05500 36.03700 38.06400
H  -3.77400 36.85900 39.07600
H  -6.10100 46.31000 39.76700
H  -5.11800 44.73100 39.58100
H  -4.95000 45.75900 40.95300
H  -10.46200 46.99400 41.88500
H  -9.54800 48.34700 42.52000
H  -9.52300 46.95800 43.48300
H  -12.82200 43.53700 42.68800
H  -12.91200 41.70900 44.91300
H  -11.40600 44.60500 45.03400
H  -12.88700 43.75300 45.53600
H  -13.09200 44.88100 44.41100
H  -13.92700 40.77500 42.30900
H  -14.68300 42.26800 42.96700
H  -15.88200 40.90900 44.24900
H  -14.44400 40.25400 44.97300
H  -15.12600 39.46700 43.56700
H  -12.75200 36.64100 42.78300
H  -12.14300 36.60200 44.40500
H  -11.74600 35.23400 43.46600
H  -7.49300 35.91700 40.04200
H  -4.94700 32.65900 41.71100
H  -4.01200 34.24000 41.85100
H  -4.02300 33.38700 40.44200

