158

Mg 1.54200 -1.51700 43.98800
C  5.05200 -0.90500 43.56200
C  1.02100 1.58200 42.46400
C  -1.57700 -2.39800 43.57600
C  2.34000 -4.74700 45.04900
N  2.84900 0.14700 43.14900
C  4.26200 0.16800 42.99300
C  4.76000 1.38600 42.28700
C  3.50500 2.31900 42.42700
C  2.36900 1.27000 42.68900
C  3.57000 3.33000 43.58400
C  5.22100 1.19100 40.89900
C  6.65500 1.68500 40.63600
H  6.83300 2.39800 39.27800
N  -0.12600 -0.46600 43.21200
C  -0.17800 0.75500 42.57900
C  -1.52100 1.10300 42.26800
C  -2.30800 -0.01000 42.63200
C  -1.34200 -1.03200 43.17400
C  -1.84500 2.54600 41.68300
C  -3.81000 -0.11900 42.40600
O  -4.47100 0.79900 41.88900
C  -4.54100 -1.43300 42.68600
N  0.57400 -3.36900 44.00700
C  -0.75200 -3.39800 44.01900
C  -1.31500 -4.67500 44.55000
C  -0.05300 -5.46800 45.02100
C  1.03200 -4.46100 44.70200
C  -2.53200 -4.63300 45.56500
C  0.12200 -6.81700 44.25000
C  0.46400 -8.03400 45.11500
N  3.27900 -2.67500 44.29600
C  3.45500 -3.90900 44.83900
C  4.88500 -4.18800 44.89400
C  5.52800 -3.03600 44.38500
C  4.52300 -2.17300 44.00800
C  5.54000 -5.46800 45.36400
C  6.85100 -2.39700 44.14800
O  7.96600 -2.83100 44.45100
C  6.53000 -1.00900 43.50100
C  7.31200 0.01600 44.24500
O  7.11500 0.34500 45.40700
O  8.28200 0.53900 43.42100
C  9.08500 1.66100 43.94100
H  0.87600 2.62000 42.15800
H  -2.58000 -2.79400 43.40500
H  2.39500 -5.71500 45.55100
H  5.58700 1.79600 42.86800
H  3.26700 2.82600 41.49200
H  3.15600 2.76700 44.42100
H  3.00900 4.22200 43.30500
H  4.57900 3.64400 43.85000
H  4.58000 1.61100 40.12400
H  5.30400 0.12800 40.67200
H  7.26600 0.78200 40.62900
H  7.13700 2.34500 41.35700
H  -2.71700 2.47900 41.03200
H  -0.99700 2.99000 41.16200
H  -2.05900 3.31800 42.42400
H  -5.57800 -1.10200 42.73500
H  -4.15700 -1.81000 43.63400
H  -4.45600 -2.09200 41.82100
H  -1.75100 -5.12600 43.65900
H  0.02600 -5.59800 46.10100
H  -2.24600 -5.33500 46.34900
H  -3.46700 -4.86800 45.05700
H  -2.66900 -3.59700 45.87400
H  0.94700 -6.69500 43.54800
H  -0.84600 -7.04700 43.80700
H  1.18700 -8.75900 44.74300
H  -0.47600 -8.57100 45.24400
H  0.69700 -7.81400 46.15700
H  6.61500 -5.43900 45.18600
H  5.08500 -6.33000 44.87600
H  5.18600 -5.66300 46.37600
H  6.87100 -1.01400 42.46500
H  8.88200 2.56200 43.36200
H  10.15100 1.43600 43.90000
H  8.75300 1.84600 44.96200
Mg 35.18600 2.36500 29.91900
C  32.64200 2.94700 32.10500
C  37.44100 2.24900 32.54800
C  37.52400 1.50000 27.67400
C  32.69500 2.07600 27.29500
N  35.08300 2.65800 32.10500
C  33.88900 2.86400 32.73400
C  34.17500 3.18400 34.24800
C  35.75700 2.90600 34.41700
C  36.11000 2.56700 32.97400
C  36.70200 4.11500 34.90900
C  33.25900 2.29000 35.14900
C  33.70800 2.03900 36.62200
H  33.94800 3.25100 37.55500
N  37.16700 2.07800 30.00600
C  37.92200 1.99200 31.18100
C  39.23900 1.61100 30.91200
C  39.30300 1.24700 29.48800
C  37.95300 1.55700 28.97900
C  40.33300 1.56800 31.93000
C  40.45100 0.76100 28.67700
O  40.30500 0.35700 27.51100
C  41.82900 0.74300 29.27200
N  35.05000 1.71700 27.80600
C  36.21400 1.59600 27.10300
C  36.04800 1.50800 25.60300
C  34.48300 1.35100 25.53000
C  33.98700 1.62200 26.98300
C  36.69900 2.64800 24.67400
C  33.84300 -0.00800 25.01800
C  32.46900 0.15400 24.36200
N  33.15400 2.50400 29.71100
C  32.26700 2.39800 28.62600
C  30.87900 2.71700 29.03800
C  30.99500 2.91900 30.41100
C  32.39000 2.76600 30.73300
C  29.68500 2.75200 28.05800
C  30.27000 3.34200 31.58900
O  29.07800 3.63000 31.74800
C  31.31600 3.19800 32.77900
C  31.29500 4.55800 33.48000
O  31.79500 5.58200 33.03900
O  30.57200 4.45100 34.63500
C  30.57200 5.63800 35.46600
H  38.22200 2.20700 33.31100
H  38.23300 1.29800 26.86900
H  31.97500 1.96600 26.48200
H  33.93600 4.23500 34.41200
H  35.93500 1.89000 34.77000
H  37.30600 4.60900 34.14700
H  37.38400 3.74100 35.67300
H  36.07000 4.93400 35.25100
H  33.19900 1.36600 34.57400
H  32.26900 2.73200 35.25900
H  34.47300 1.26700 36.70000
H  32.84000 1.60900 37.12200
H  40.67100 0.54100 32.06400
H  40.14900 1.93400 32.94000
H  41.29200 1.95800 31.59000
H  42.53800 0.27500 28.58900
H  41.90900 0.15200 30.18400
H  42.10100 1.78900 29.41000
H  36.54000 0.56300 25.37200
H  34.10200 2.11200 24.85000
H  35.91500 3.35100 24.39200
H  37.18100 2.15000 23.83300
H  37.46900 3.21700 25.19400
H  33.70100 -0.73300 25.81900
H  34.48700 -0.56400 24.33700
H  31.66700 -0.28100 24.95900
H  32.47600 -0.27800 23.36200
H  32.23700 1.21500 24.26600
H  29.11100 3.67600 28.11600
H  28.92000 1.98800 28.19400
H  30.07700 2.66300 27.04400
H  30.94000 2.50600 33.53300
H  31.51400 5.66600 36.01400
H  29.78600 5.53400 36.21500
H  30.35400 6.56500 34.93700

