158

Mg 47.53300 16.05900 28.76600
C  45.40400 15.89900 31.58700
C  49.60900 18.13800 30.61600
C  48.94600 16.94200 25.85700
C  45.04400 14.48500 27.00100
N  47.47500 17.05100 30.85900
C  46.57200 16.60400 31.91200
C  47.09800 17.14600 33.25400
C  48.44100 17.96900 32.82800
C  48.55100 17.65600 31.38200
C  48.31700 19.49100 33.16200
C  47.44600 16.14900 34.34300
C  46.87700 16.27100 35.83000
H  46.78600 17.74300 36.41600
N  49.11700 17.23700 28.31900
C  49.86400 17.98700 29.21700
C  51.02900 18.53800 28.51700
C  50.85600 18.21300 27.14400
C  49.58300 17.39900 27.01700
C  51.98800 19.40200 29.17300
C  51.67000 18.54900 25.95900
O  51.38100 18.43100 24.79800
C  53.01800 19.29500 26.12400
N  47.15800 15.67400 26.73300
C  47.81700 16.16600 25.71000
C  47.36700 15.71600 24.39700
C  46.14600 14.90300 24.73800
C  46.07500 15.00200 26.20800
C  47.11000 16.99900 23.34600
C  46.04100 13.47100 24.12300
C  45.15300 13.24800 22.96100
N  45.64200 15.31800 29.18300
C  44.79600 14.61400 28.35600
C  43.61100 14.24100 29.04200
C  43.81100 14.60100 30.37900
C  45.04400 15.32900 30.36800
C  42.38500 13.52900 28.41100
C  43.28300 14.59000 31.69500
O  42.28900 14.03100 32.12400
C  44.28500 15.48900 32.52000
C  43.51300 16.56400 33.20100
O  42.72600 17.34700 32.72500
O  43.82000 16.51200 34.57100
C  43.04100 17.46900 35.40800
H  50.19200 18.81700 31.24300
H  49.49300 17.09900 24.92400
H  44.19600 13.97600 26.53700
H  46.35100 17.88600 33.54200
H  49.29400 17.63700 33.41900
H  47.48700 19.70800 33.83400
H  48.07000 20.14200 32.32400
H  49.28100 19.82800 33.54200
H  48.51700 15.94900 34.36300
H  46.99800 15.19500 34.06500
H  47.48200 15.65300 36.49300
H  45.88600 15.84400 35.98300
H  52.96100 18.91100 29.19200
H  51.63000 19.90900 30.06800
H  52.02900 20.20600 28.43800
H  53.62100 19.20200 25.22000
H  53.49000 18.87100 27.01000
H  52.98500 20.36600 26.32200
H  48.12300 15.05500 23.97300
H  45.25800 15.42400 24.38200
H  46.07100 17.16500 23.06000
H  47.75200 16.81700 22.48400
H  47.51900 17.87700 23.84500
H  45.81200 12.75200 24.90900
H  47.06200 13.24600 23.81700
H  44.79200 14.19600 22.56100
H  44.25800 12.72300 23.29300
H  45.55500 12.58400 22.19500
H  42.44100 12.45900 28.60900
H  42.28900 13.75000 27.34800
H  41.56300 14.01400 28.93700
H  44.74500 14.86700 33.28700
H  41.98500 17.20000 35.40400
H  43.17300 18.51300 35.12400
H  43.29400 17.23100 36.44100
Mg 47.59100 25.05200 28.28100
C  48.59800 27.19500 30.96700
C  46.81000 22.60400 30.71800
C  47.35300 22.79300 25.77500
C  48.84200 27.37000 25.92900
N  47.78300 24.90400 30.57600
C  48.00000 26.01500 31.41100
C  47.60100 25.65600 32.83500
C  47.09100 24.19900 32.72000
C  47.24300 23.83300 31.26200
C  47.86200 23.23200 33.61100
C  46.61000 26.61700 33.48400
C  47.01400 27.22200 34.87400
H  45.88300 27.50500 35.87400
N  47.01500 23.01900 28.22700
C  46.74100 22.19600 29.36300
C  46.07900 21.03800 28.78700
C  46.19400 21.06400 27.36400
C  46.86600 22.32000 27.06000
C  45.38700 19.93700 29.65900
C  45.63800 20.13600 26.33600
O  45.68900 20.38100 25.13100
C  45.06200 18.76800 26.73700
N  48.21100 25.00700 26.17400
C  47.94200 23.97400 25.34200
C  48.27400 24.29100 23.86100
C  48.57800 25.78000 23.93600
C  48.51500 26.06600 25.44100
C  49.27300 23.32600 23.31000
C  47.68500 26.67600 23.02900
C  46.19000 26.56100 23.18500
N  48.57800 26.85200 28.33400
C  48.86100 27.70600 27.32200
C  49.40500 28.89200 27.94900
C  49.19200 28.76000 29.29800
C  48.86100 27.45000 29.51000
C  50.05800 30.07700 27.32400
C  49.31300 29.47100 30.60400
O  49.72900 30.63300 30.83600
C  48.96900 28.43700 31.74600
C  50.19700 28.30100 32.63500
O  51.30000 28.03700 32.26000
O  49.82200 28.56300 33.89600
C  50.91700 28.62800 34.88600
H  46.53700 21.80300 31.40800
H  47.15000 22.08400 24.97000
H  49.05500 28.20500 25.25700
H  48.48000 25.68100 33.47900
H  46.02700 24.17400 32.95400
H  48.47100 22.58700 32.97700
H  47.13200 22.60500 34.12200
H  48.55000 23.61100 34.36600
H  45.61700 26.20700 33.66800
H  46.52700 27.48000 32.82400
H  47.45900 28.18100 34.60700
H  47.76400 26.54600 35.28300
H  45.67400 18.90700 29.44300
H  44.32900 20.06900 29.43200
H  45.73900 20.07600 30.68100
H  44.50400 18.29100 25.93000
H  44.36700 19.03600 27.53300
H  45.83400 18.17000 27.22100
H  47.36300 24.12300 23.28700
H  49.56900 25.92200 23.50300
H  49.88400 23.82500 22.55800
H  48.69900 22.53000 22.83500
H  49.91300 22.92600 24.09600
H  47.88000 26.38700 21.99600
H  48.02000 27.70200 23.18000
H  45.89700 27.59500 23.36900
H  45.92700 26.04500 24.10900
H  45.65200 26.20100 22.30800
H  50.11500 29.87600 26.25400
H  51.10500 30.20100 27.60100
H  49.61500 31.05000 27.53600
H  48.11200 28.70700 32.36200
H  50.62600 28.57800 35.93600
H  51.34200 29.61100 34.68500
H  51.67800 27.86500 34.72400

