158

Mg -1.54600 16.90700 26.08400
C  -1.92700 14.81400 28.85000
C  -1.78300 19.61500 28.14300
C  -1.87400 18.79900 23.24700
C  -1.70300 14.11000 23.91700
N  -1.76400 17.09600 28.24100
C  -1.80800 16.14300 29.21200
C  -2.02200 16.76600 30.58900
C  -1.99500 18.31400 30.26500
C  -1.94700 18.39600 28.79900
C  -3.17400 19.07000 30.84600
C  -1.18900 16.34400 31.76300
C  -0.88100 17.31500 32.86700
H  -0.39000 16.78700 34.18900
N  -1.69300 18.92000 25.73300
C  -1.75300 19.91300 26.70300
C  -1.73900 21.17400 26.04700
C  -1.85100 20.99400 24.65800
C  -1.86300 19.55200 24.48700
C  -1.65600 22.47000 26.83600
C  -2.03100 21.93900 23.53800
O  -2.11400 21.61100 22.34000
C  -2.13000 23.39500 23.84700
N  -1.80500 16.53500 23.88500
C  -1.81900 17.47300 22.96000
C  -1.88800 16.98400 21.46300
C  -1.53100 15.50100 21.73100
C  -1.58000 15.37200 23.29000
C  -3.25000 17.22500 20.77600
C  -0.15400 15.14100 21.21500
C  1.12600 15.85300 21.87600
N  -1.75100 14.96000 26.28500
C  -1.82500 13.94800 25.36000
C  -2.07800 12.62700 26.03500
C  -1.98300 12.93100 27.41200
C  -1.81100 14.35600 27.47600
C  -2.30500 11.33200 25.33100
C  -1.95300 12.36800 28.79800
O  -1.95700 11.19300 29.12100
C  -2.05600 13.56700 29.71000
C  -0.95900 13.29400 30.73900
O  0.23400 13.59900 30.72400
O  -1.50400 12.48500 31.81800
C  -0.51700 11.77300 32.57500
H  -1.79600 20.55400 28.70000
H  -2.00900 19.28500 22.27800
H  -1.80100 13.29900 23.19200
H  -3.06300 16.53200 30.81400
H  -1.02500 18.66500 30.61800
H  -3.82100 19.41600 30.03900
H  -2.80700 19.93100 31.40500
H  -3.72300 18.51800 31.60900
H  -0.16800 16.14500 31.43600
H  -1.63100 15.43000 32.16100
H  -1.76000 17.93000 33.05800
H  -0.15500 18.07000 32.56400
H  -0.78500 23.01500 26.47000
H  -1.54500 22.29000 27.90500
H  -2.45200 23.18100 26.61900
H  -1.28800 23.79500 24.41200
H  -3.12000 23.44400 24.30100
H  -2.24200 23.92300 22.90000
H  -1.10600 17.54300 20.95000
H  -2.26500 14.95700 21.13700
H  -3.92500 17.64100 21.52300
H  -3.72300 16.37000 20.29300
H  -3.09400 18.03200 20.06000
H  -0.13300 15.39500 20.15600
H  0.00200 14.07300 21.36200
H  1.73100 14.98700 22.14600
H  0.73400 16.27100 22.80300
H  1.53400 16.51800 21.11500
H  -1.37300 10.76900 25.37800
H  -2.70800 11.40500 24.32100
H  -3.06600 10.88900 25.97400
H  -3.01800 13.36900 30.18400
H  0.35800 12.39900 32.75000
H  0.00800 10.98700 32.03200
H  -0.90500 11.40700 33.52600
Mg 30.64600 58.06200 40.74700
C  27.89600 55.80100 39.89200
C  32.71200 55.59700 39.67700
C  32.92500 60.36200 40.84700
C  28.05400 60.43100 41.38900
N  30.34900 55.96100 39.80600
C  29.15800 55.26300 39.56000
C  29.50300 54.07900 38.66900
C  30.97500 53.88200 38.95700
C  31.37900 55.22600 39.51600
C  31.43400 52.65100 39.86000
C  29.11200 54.32600 37.17700
C  28.13500 53.33100 36.56100
H  27.01800 53.81600 35.61900
N  32.67500 57.92500 40.43500
C  33.35900 56.80000 40.08600
C  34.75500 57.11000 40.10900
C  34.89400 58.52300 40.32100
C  33.47000 59.05400 40.46900
C  35.88100 56.14200 39.68600
C  36.13000 59.36800 40.27300
O  37.24000 58.90800 40.17800
C  35.97400 60.85700 40.39600
N  30.48000 60.16300 41.01000
C  31.64100 60.84000 41.09600
C  31.27400 62.37800 41.42900
C  29.72600 62.30300 41.73200
C  29.37800 60.87600 41.32300
C  32.09600 63.07000 42.55600
C  28.90800 63.46500 40.99700
C  27.73300 64.05100 41.78100
N  28.43600 58.18900 40.61400
C  27.59800 59.16300 40.94200
C  26.22500 58.72100 40.85500
C  26.28700 57.39700 40.44600
C  27.63600 57.08300 40.36600
C  25.03800 59.64500 41.06100
C  25.53700 56.20100 40.11800
O  24.31900 55.94300 40.14900
C  26.54300 55.11400 39.61700
C  26.34400 53.91400 40.40400
O  26.39300 53.74800 41.62200
O  26.23100 52.82100 39.56700
C  25.67100 51.61600 40.27400
H  33.41500 54.88800 39.23500
H  33.62900 61.18800 40.96600
H  27.31800 61.22600 41.52700
H  28.94900 53.24400 39.09900
H  31.50400 53.83100 38.00500
H  30.61100 52.07100 40.27800
H  32.00000 53.02800 40.71200
H  32.02300 51.94600 39.27400
H  30.03100 54.25500 36.59300
H  28.73400 55.34700 37.13300
H  27.66300 52.81000 37.39500
H  28.64000 52.46700 36.13000
H  36.66400 56.67300 39.14400
H  35.52800 55.35300 39.02200
H  36.28800 55.65100 40.56900
H  35.51100 61.12800 41.34500
H  35.45800 61.16400 39.48600
H  36.94400 61.32700 40.23200
H  31.33000 62.91800 40.48400
H  29.44600 62.43400 42.77700
H  32.65900 63.91200 42.15200
H  32.86500 62.41500 42.96500
H  31.41500 63.50100 43.29000
H  28.56500 63.13400 40.01600
H  29.52900 64.32600 40.74600
H  28.09600 65.00800 42.15700
H  27.39300 63.48600 42.64900
H  26.91100 64.17300 41.07600
H  25.25900 60.71200 41.09500
H  24.69100 59.50900 42.08500
H  24.22000 59.55400 40.34700
H  26.45600 54.78800 38.58000
H  26.59500 51.09300 40.52300
H  25.06400 51.04700 39.57000
H  25.11600 51.78500 41.19700

