158

Mg 48.78300 45.62900 42.72300
C  45.53400 46.19800 41.81400
C  48.42600 42.45300 41.13800
C  52.20000 45.29800 42.64500
C  49.28000 48.99100 43.41000
N  47.25200 44.55100 41.45800
C  45.96300 45.01800 41.20000
C  45.16100 44.09400 40.25800
C  45.94400 42.77000 40.51700
C  47.27700 43.26400 41.07000
C  45.26000 41.70900 41.47000
C  45.15100 44.60600 38.77300
C  43.76500 44.55100 38.10000
H  43.70300 44.30800 36.61700
N  50.14500 43.98700 42.24100
C  49.73300 42.80300 41.64600
C  50.90100 41.96800 41.60400
C  52.02100 42.68100 42.10900
C  51.46100 44.07200 42.38200
C  50.81300 40.59000 41.18900
C  53.44900 42.30100 42.23200
O  53.69100 41.15800 41.92500
C  54.57000 43.18200 42.88400
N  50.47200 46.94900 43.08800
C  51.80100 46.55700 42.95900
C  52.78200 47.70500 43.01300
C  51.80300 48.87900 43.33200
C  50.44500 48.27300 43.21400
C  53.96300 47.54500 43.98100
C  51.97300 50.16500 42.49200
C  51.54500 51.45100 43.22300
N  47.65100 47.22000 42.88500
C  47.92400 48.53700 43.30400
C  46.69200 49.27200 43.45800
C  45.73700 48.36400 42.82500
C  46.36500 47.16500 42.54300
C  46.51600 50.55800 43.80500
C  44.32100 48.21200 42.46600
O  43.36400 49.00700 42.72700
C  44.17300 46.83500 41.75900
C  42.99400 46.08100 42.21900
O  42.19500 45.61000 41.40100
O  42.93600 45.94600 43.53300
C  41.68700 45.24800 43.97300
H  48.16000 41.44800 40.80300
H  53.28900 45.22800 42.62500
H  49.36200 50.06300 43.60300
H  44.14700 43.85700 40.58100
H  46.11100 42.30800 39.54400
H  44.78500 40.96400 40.83100
H  44.55400 42.22300 42.12300
H  45.96200 41.24700 42.16500
H  45.70600 43.94100 38.11200
H  45.50700 45.63700 38.76800
H  43.43700 45.55900 38.35200
H  43.11400 43.81300 38.57000
H  51.29700 40.44800 40.22300
H  49.82400 40.17600 40.99100
H  51.29400 40.01900 41.98300
H  54.92700 43.94300 42.19000
H  55.39400 42.50200 43.10000
H  54.22100 43.63900 43.81000
H  53.15700 48.08300 42.06300
H  51.83700 49.26100 44.35200
H  54.02100 46.63000 44.57000
H  54.14200 48.45700 44.55100
H  54.87300 47.51200 43.38100
H  51.33500 50.25500 41.61300
H  53.00500 50.37500 42.21400
H  50.73400 51.93000 42.67300
H  52.30200 52.23100 43.31000
H  51.15600 51.25900 44.22300
H  46.46400 50.52900 44.89400
H  45.49100 50.84500 43.56900
H  47.28200 51.16900 43.32700
H  43.92900 47.18500 40.75600
H  41.39800 44.43400 43.30800
H  40.87300 45.97200 43.94300
H  41.78800 44.79700 44.96000
Mg 27.19400 49.88900 26.62200
C  25.07900 51.07200 29.22300
C  29.44800 48.99400 28.98400
C  29.09600 49.34300 24.12800
C  24.69800 51.24100 24.33400
N  27.22000 50.14400 28.90100
C  26.17400 50.43600 29.71700
C  26.50900 49.96200 31.20600
C  28.04400 49.48000 31.14900
C  28.19100 49.43000 29.57300
C  29.00700 50.45700 31.76400
C  25.53000 48.91000 31.71200
C  24.59100 49.26600 32.92000
H  24.61300 48.44400 34.29500
N  29.03700 49.43100 26.59100
C  29.87600 49.08600 27.62300
C  31.21800 48.84600 27.12700
C  31.18000 48.95500 25.68500
C  29.73900 49.20900 25.40100
C  32.38400 48.40000 28.06400
C  32.25200 48.92500 24.54100
O  31.91800 49.21600 23.36600
C  33.75900 48.56300 24.81900
N  26.91800 50.07400 24.48600
C  27.84900 49.73100 23.67500
C  27.42600 49.85900 22.16000
C  25.88000 50.18100 22.35000
C  25.81700 50.48600 23.82800
C  28.24300 50.92900 21.37900
C  24.95400 49.06400 21.93400
C  23.60300 49.62400 21.40000
N  25.39100 50.97700 26.68700
C  24.51700 51.47200 25.69000
C  23.41200 52.12800 26.26800
C  23.63400 52.05900 27.63000
C  24.80300 51.29600 27.84800
C  22.28100 52.74700 25.53000
C  23.05900 52.36600 28.91500
O  22.00800 52.98600 29.23300
C  23.93700 51.74700 30.01800
C  24.43600 52.73700 31.06600
O  25.30000 53.60400 30.98700
O  23.61300 52.59900 32.18500
C  23.90100 53.50900 33.26900
H  30.17600 48.64900 29.72100
H  29.70100 49.09000 23.25500
H  23.96100 51.69300 23.66700
H  26.47400 50.76800 31.93900
H  28.27000 48.46300 31.47100
H  28.42400 51.15500 32.36500
H  29.49000 51.04600 30.98500
H  29.81000 49.98500 32.32900
H  25.96200 47.91800 31.84600
H  24.82700 48.67500 30.91300
H  23.60600 49.51000 32.52300
H  24.90900 50.24700 33.27200
H  32.34800 47.31500 28.17000
H  32.20200 48.91100 29.01000
H  33.35800 48.66600 27.65400
H  34.21800 49.53400 25.00300
H  34.09000 47.95100 23.98000
H  33.87500 47.92100 25.69200
H  27.48200 48.86900 21.70600
H  25.69800 51.07800 21.75800
H  28.99000 51.29200 22.08400
H  27.69100 51.79000 21.00400
H  28.77100 50.45900 20.54800
H  24.62500 48.43600 22.76200
H  25.40800 48.39700 21.20100
H  22.82500 48.86900 21.50900
H  23.55000 49.91200 20.35000
H  23.32300 50.57200 21.86000
H  22.59700 53.72000 25.15300
H  21.36000 52.78400 26.11100
H  22.04300 52.12700 24.66500
H  23.30400 50.96900 30.44300
H  23.03700 53.63500 33.92200
H  24.25800 54.50500 33.00600
H  24.60800 53.07700 33.97600

