158

Mg -2.06500 17.07300 27.31400
C  -2.68500 14.85800 30.01700
C  -2.75300 19.66800 29.39000
C  -1.81700 19.09500 24.66800
C  -2.31900 14.29100 25.17500
N  -2.59100 17.16000 29.41400
C  -2.82900 16.19000 30.36000
C  -3.18800 16.76500 31.71500
C  -3.13900 18.29000 31.44200
C  -2.91700 18.36800 29.96700
C  -4.35400 19.16700 31.94600
C  -2.27000 16.46700 32.90100
C  -2.89700 15.45400 33.87300
H  -2.10300 15.22600 35.14000
N  -2.12500 19.16200 27.11100
C  -2.32200 20.09600 28.09800
C  -1.98700 21.39600 27.61800
C  -1.80300 21.26200 26.20900
C  -1.88800 19.81700 25.91500
C  -2.08700 22.65400 28.45900
C  -1.59600 22.35100 25.15500
O  -1.50500 21.99000 24.02100
C  -1.55400 23.82300 25.58200
N  -2.13500 16.64800 25.13900
C  -1.84600 17.69400 24.37000
C  -1.75100 17.16500 22.89300
C  -1.78900 15.59900 23.06500
C  -2.17000 15.48900 24.54300
C  -2.83300 17.75000 21.94000
C  -0.40100 14.94300 22.68700
C  0.83300 15.32900 23.47900
N  -2.30400 14.96300 27.51200
C  -2.39600 13.98900 26.57000
C  -2.65800 12.70200 27.15900
C  -2.67200 12.95600 28.55700
C  -2.48600 14.33800 28.67600
C  -2.85400 11.34600 26.43800
C  -2.89400 12.40200 29.79000
O  -3.15700 11.25600 30.10500
C  -2.66000 13.51100 30.81600
C  -1.34000 13.14000 31.49200
O  -0.36300 13.84300 31.45500
O  -1.51600 12.01600 32.33300
C  -0.40800 11.63400 33.31700
H  -2.84600 20.46600 30.12900
H  -1.66700 19.63200 23.72900
H  -2.58600 13.54100 24.42700
H  -4.22900 16.48700 31.88100
H  -2.25100 18.74800 31.87800
H  -4.63400 19.89500 31.18500
H  -4.02400 19.60900 32.88600
H  -5.10100 18.38500 32.08300
H  -1.91800 17.34400 33.44400
H  -1.47700 15.89200 32.42300
H  -2.99300 14.49100 33.37100
H  -3.90800 15.74000 34.16400
H  -2.78200 23.38100 28.03900
H  -1.13600 23.15600 28.63800
H  -2.33000 22.44800 29.50100
H  -0.79500 24.01900 26.33900
H  -2.51700 23.99000 26.06500
H  -1.43200 24.43000 24.68500
H  -0.76900 17.47300 22.53500
H  -2.51500 15.14800 22.38900
H  -3.53300 18.26800 22.59500
H  -3.44400 17.04200 21.38200
H  -2.31000 18.47800 21.32000
H  -0.18300 15.24400 21.66200
H  -0.58500 13.87300 22.78300
H  1.22700 14.51200 24.08300
H  0.82500 16.23100 24.09100
H  1.54000 15.53400 22.67500
H  -1.99900 11.04600 25.83300
H  -3.69900 11.54400 25.77800
H  -3.17100 10.59600 27.16300
H  -3.62800 13.49100 31.31500
H  -0.24500 10.55700 33.27900
H  -0.73100 11.86400 34.33300
H  0.53700 12.16500 33.20300
Mg -11.02200 38.27400 42.58000
C  -8.73900 35.56800 41.68400
C  -8.77000 40.32300 40.93200
C  -13.29200 40.68200 42.68800
C  -13.26600 35.82800 43.43900
N  -8.95500 37.98700 41.58200
C  -8.27600 36.81700 41.25200
C  -7.11600 37.05500 40.40300
C  -6.89300 38.60900 40.48700
C  -8.27000 39.06700 41.08300
C  -5.64800 39.09900 41.23100
C  -7.13600 36.40600 39.02900
C  -6.02900 35.36900 38.68100
H  -5.03900 35.71100 37.58200
N  -11.01300 40.20600 41.97200
C  -9.98300 40.89200 41.40000
C  -10.39700 42.25000 41.17300
C  -11.70300 42.42100 41.64100
C  -12.04200 41.13100 42.20600
C  -9.47500 43.34800 40.66000
C  -12.56400 43.64800 41.42300
O  -12.07500 44.67700 40.97300
C  -13.99700 43.70400 41.74300
N  -13.12100 38.21600 42.78600
C  -13.74300 39.34300 42.98500
C  -15.11100 39.09700 43.58100
C  -15.23800 37.50300 43.64400
C  -13.82500 37.14200 43.33100
C  -15.35000 39.79400 44.96500
C  -16.39800 36.78200 42.79200
C  -17.29300 35.81900 43.43800
N  -11.00700 36.15100 42.73800
C  -11.94300 35.34000 43.26700
C  -11.42900 33.98700 43.32100
C  -10.15900 34.05000 42.64000
C  -9.96000 35.35600 42.29200
C  -12.06600 32.72000 43.80000
C  -9.04300 33.26800 42.17200
O  -8.82200 32.08000 42.34700
C  -8.15300 34.17600 41.46200
C  -6.79400 34.06700 42.09800
O  -5.82000 33.55000 41.64400
O  -6.79500 34.64800 43.30400
C  -5.46000 34.75800 43.96400
H  -8.00700 40.98300 40.51400
H  -14.06300 41.41600 42.93300
H  -14.08000 35.13400 43.65600
H  -6.38800 36.53800 41.02700
H  -6.74400 38.89600 39.44600
H  -5.14900 38.30700 41.78800
H  -5.91000 39.92900 41.88700
H  -4.89100 39.46400 40.53600
H  -7.07700 37.07000 38.16600
H  -8.05600 35.82400 38.97600
H  -6.44300 34.39600 38.41700
H  -5.40600 35.19500 39.55800
H  -9.24200 43.93400 41.54900
H  -9.93600 43.98700 39.90700
H  -8.61000 42.90600 40.16500
H  -14.01700 43.49300 42.81200
H  -14.41400 42.84000 41.22500
H  -14.41800 44.64800 41.39700
H  -15.82800 39.41100 42.82200
H  -15.51300 37.13700 44.63300
H  -14.57100 40.54800 45.08400
H  -15.19600 38.97800 45.67200
H  -16.30600 40.29500 45.11400
H  -15.86700 36.16000 42.07100
H  -17.16000 37.43600 42.36700
H  -17.41300 36.22300 44.44300
H  -16.87500 34.81200 43.41600
H  -18.21300 35.80200 42.85400
H  -11.25900 32.03000 44.04400
H  -12.75400 32.27600 43.08200
H  -12.67000 32.90900 44.68800
H  -8.09200 33.96800 40.39400
H  -4.68700 35.27100 43.39100
H  -4.97700 33.81100 44.20500
H  -5.64500 35.15800 44.96100

