158

Mg 42.88200 42.43800 26.33800
C  42.10900 44.65400 28.87000
C  44.17000 40.25500 28.78300
C  44.19300 40.36900 23.94300
C  42.20100 44.85800 23.93800
N  42.97600 42.40500 28.58400
C  42.52800 43.40800 29.39900
C  42.56700 43.02200 30.90600
C  43.51900 41.77500 30.82300
C  43.50900 41.38600 29.32500
C  44.96100 42.04900 31.31400
C  41.15200 42.86900 31.57100
C  41.07400 42.42900 33.07900
H  40.95300 43.47300 34.22300
N  43.83400 40.45900 26.39600
C  44.24000 39.74200 27.48300
C  44.83900 38.54900 27.02800
C  44.71100 38.50300 25.63400
C  44.20100 39.81100 25.26400
C  45.30300 37.44000 28.06100
C  44.98200 37.40700 24.60500
O  44.58500 37.46900 23.42800
C  45.70500 36.17500 25.17000
N  43.34500 42.59200 24.27900
C  43.68700 41.55400 23.46900
C  43.49900 41.92600 21.94000
C  42.73200 43.23800 22.02000
C  42.80400 43.60900 23.53200
C  44.81700 41.89100 21.13200
C  41.27000 43.17900 21.55100
C  40.24000 42.23300 22.19300
N  42.38700 44.39100 26.29500
C  42.09700 45.28300 25.29800
C  41.58600 46.49600 25.94200
C  41.64200 46.34000 27.33800
C  42.09700 45.02200 27.48600
C  41.03900 47.71400 25.24200
C  41.32100 46.91000 28.61300
O  40.96000 48.01400 28.92900
C  41.71300 45.87900 29.68100
C  42.73900 46.49100 30.51500
O  43.90500 46.68700 30.27100
O  42.10700 46.67800 31.72500
C  42.97200 47.21100 32.82500
H  44.61300 39.64800 29.57500
H  44.48000 39.87400 23.01300
H  41.90900 45.49500 23.10000
H  43.05500 43.74900 31.55500
H  43.09000 41.01500 31.47600
H  45.18300 41.33300 32.10500
H  45.03900 43.05600 31.72400
H  45.69400 41.92100 30.51700
H  40.57200 42.07200 31.10500
H  40.54600 43.76500 31.43700
H  41.99600 41.92200 33.36600
H  40.31300 41.65700 33.19100
H  44.65100 36.57200 27.96300
H  45.31100 37.73000 29.11200
H  46.31300 37.19700 27.73000
H  46.55200 36.42400 25.81000
H  46.14300 35.55100 24.39200
H  44.90400 35.61000 25.64800
H  42.95400 41.08700 21.51000
H  43.24200 44.04100 21.48800
H  44.50100 41.90300 20.08900
H  45.40600 41.03600 21.46300
H  45.41000 42.78100 21.34300
H  41.18300 43.11500 20.46600
H  40.87200 44.19300 21.57900
H  40.69200 41.45900 22.81300
H  39.68000 41.65900 21.45600
H  39.53000 42.82300 22.77300
H  40.38000 48.23200 25.93900
H  40.49200 47.33200 24.37900
H  41.79300 48.38100 24.82400
H  40.78400 45.90900 30.25000
H  43.72500 47.92800 32.49700
H  43.34800 46.31000 33.31000
H  42.31100 47.71900 33.52700
Mg 26.80700 49.94400 26.43600
C  24.51000 50.95200 28.81200
C  28.92300 48.96100 28.96500
C  29.12700 49.34800 24.14700
C  24.48600 50.81000 23.99800
N  26.70100 49.99900 28.57100
C  25.65800 50.41000 29.36800
C  25.94400 50.24700 30.91000
C  27.36600 49.69100 30.92500
C  27.74400 49.58700 29.39900
C  28.24800 50.64200 31.70000
C  24.88300 49.24300 31.57300
C  23.96600 49.89400 32.66600
H  23.82800 49.04200 33.96400
N  28.80600 49.22600 26.57000
C  29.47800 48.84700 27.66000
C  30.82000 48.41400 27.31700
C  30.91400 48.58700 25.84100
C  29.62200 49.11500 25.47300
C  31.86200 48.08100 28.36900
C  32.09000 48.36200 25.01700
O  32.14700 48.62300 23.82900
C  33.37800 47.92800 25.63100
N  26.82600 50.26000 24.37100
C  27.87900 49.81600 23.63500
C  27.44200 49.76900 22.11300
C  25.94800 50.17100 22.05300
C  25.74200 50.37000 23.59600
C  28.44000 50.43400 21.23400
C  25.00900 49.21700 21.29500
C  24.23100 49.76600 20.07900
N  24.95600 50.81400 26.36500
C  24.18300 51.17900 25.30100
C  22.98600 51.81700 25.78100
C  23.06400 51.80400 27.19100
C  24.25800 51.11900 27.46900
C  21.89500 52.39300 24.93600
C  22.39100 52.18000 28.36600
O  21.30500 52.70500 28.60800
C  23.28400 51.58000 29.48900
C  23.46700 52.65700 30.49000
O  24.35900 53.49200 30.37700
O  22.63400 52.50200 31.60200
C  22.96400 53.37400 32.78300
H  29.48300 48.39500 29.71300
H  29.76700 49.09000 23.30100
H  23.83500 51.06100 23.15900
H  25.80700 51.26400 31.27800
H  27.47200 48.72200 31.41400
H  29.26100 50.56700 31.30400
H  28.27600 50.34800 32.75000
H  27.95900 51.68900 31.62200
H  25.36000 48.46400 32.16600
H  24.18700 48.88400 30.81500
H  22.97200 49.91900 32.21800
H  24.45000 50.83500 32.92800
H  32.58800 48.87600 28.54500
H  32.28800 47.12000 28.08400
H  31.41700 47.86600 29.34100
H  34.09000 47.66100 24.85000
H  33.20300 46.95700 26.09400
H  33.84800 48.61300 26.33600
H  27.48100 48.75800 21.70800
H  25.79700 51.09600 21.49700
H  29.28900 50.79000 21.81700
H  27.99300 51.32200 20.78600
H  28.75400 49.76300 20.43400
H  24.28400 48.68000 21.90700
H  25.65900 48.43200 20.90800
H  24.51400 49.13700 19.23400
H  24.48600 50.80500 19.87100
H  23.16200 49.68000 20.27500
H  21.03700 51.76100 25.16500
H  22.05000 52.24200 23.86800
H  21.69000 53.46000 25.03000
H  22.73800 50.77900 29.98800
H  23.74400 53.01100 33.45300
H  21.96900 53.42900 33.22400
H  23.16800 54.40700 32.50200

