158

Mg 42.76900 3.91000 46.63500
C  40.89000 6.90400 46.61300
C  39.78400 2.12200 46.72200
C  44.53900 1.28200 45.83200
C  45.61200 5.97100 46.15000
N  40.67600 4.45000 46.77800
C  40.14200 5.75200 46.78700
C  38.62900 5.68500 47.04500
C  38.29100 4.16400 47.08100
C  39.65600 3.52700 46.90500
C  37.69100 3.69700 48.44300
C  37.59200 6.51100 46.20200
C  37.40900 6.09600 44.73800
H  37.86600 7.00300 43.67200
N  42.26900 1.93100 46.42600
C  40.99100 1.38800 46.42400
C  41.07600 -0.02700 46.09400
C  42.45100 -0.28700 45.89100
C  43.12200 1.00600 45.95200
C  39.88900 -0.99800 46.04100
C  42.98500 -1.65000 45.62400
O  42.24100 -2.61500 45.87900
C  44.48200 -1.97500 45.27400
N  44.82200 3.71500 46.08100
C  45.29400 2.43300 46.00200
C  46.82000 2.47700 45.84800
C  47.14900 4.00800 45.94400
C  45.79900 4.60900 46.10200
C  47.51000 1.60600 46.96600
C  48.09100 4.58700 44.90100
C  49.26900 5.48000 45.43500
N  43.24500 6.02300 46.49800
C  44.41700 6.68500 46.24100
C  44.27100 8.15000 46.24000
C  42.84500 8.23900 46.34400
C  42.26800 6.91600 46.50000
C  45.22600 9.29900 45.98600
C  41.71300 9.20900 46.27700
O  41.71800 10.43100 46.12400
C  40.45600 8.32200 46.61000
C  39.87500 8.72400 47.96200
O  40.44100 8.50700 48.99900
O  38.76200 9.50200 47.78600
C  38.17000 9.77200 49.10400
H  38.87400 1.52600 46.81800
H  45.26400 0.46900 45.75400
H  46.51200 6.50800 45.84500
H  38.59500 6.14000 48.03500
H  37.66200 3.70300 46.32000
H  37.17100 4.51100 48.94900
H  38.37100 3.15900 49.10300
H  36.84400 3.08400 48.13600
H  37.67500 7.59300 46.30600
H  36.63100 6.34200 46.68700
H  36.35900 5.88200 44.54100
H  37.98200 5.18000 44.59100
H  38.94300 -0.45900 45.99200
H  39.85400 -1.65000 46.91400
H  40.08000 -1.54300 45.11600
H  45.20800 -1.67800 46.03100
H  44.72000 -1.47800 44.33400
H  44.46300 -3.03900 45.03900
H  47.14200 1.92400 44.96600
H  47.63400 4.16400 46.90800
H  46.83800 1.29800 47.76600
H  48.27800 2.20900 47.45100
H  47.92700 0.70400 46.52000
H  47.61000 5.12700 44.08500
H  48.57000 3.67300 44.55200
H  50.20200 5.23400 44.93000
H  49.45600 5.32700 46.49800
H  49.04700 6.54100 45.31600
H  45.86700 9.55300 46.83000
H  44.73500 10.18700 45.58700
H  45.89600 9.10100 45.14900
H  39.66900 8.53700 45.88700
H  37.16800 10.15600 48.91700
H  38.74500 10.57900 49.55600
H  38.12500 8.90300 49.76100
Mg 46.56900 24.37400 28.95500
C  47.63000 26.71400 31.29700
C  45.72100 22.32200 31.55800
C  46.10600 21.92700 26.70300
C  47.85500 26.48500 26.41800
N  46.79800 24.44600 31.21200
C  47.03400 25.61200 31.96800
C  46.76100 25.44000 33.47200
C  46.29900 23.95800 33.49700
C  46.18100 23.53600 32.03400
C  47.15600 22.99100 34.35700
C  45.69100 26.39900 33.97500
C  45.52500 26.83400 35.52800
H  46.33900 26.15700 36.70300
N  45.85200 22.45500 29.11100
C  45.52100 21.82000 30.26600
C  45.09100 20.45500 29.90900
C  45.10900 20.27200 28.50600
C  45.73800 21.53800 28.05000
C  44.66500 19.40600 30.89800
C  44.67900 19.13200 27.60200
O  44.71700 19.19100 26.37600
C  44.05600 18.06900 28.25900
N  47.19900 24.14800 26.88000
C  46.70100 23.09900 26.16200
C  46.93400 23.28400 24.64700
C  47.49600 24.71000 24.59100
C  47.47800 25.21900 26.01600
C  47.89500 22.24500 24.03500
C  46.79700 25.66900 23.56700
C  47.79200 26.53700 22.71500
N  47.66500 26.15800 28.86200
C  47.98400 26.94000 27.72600
C  48.67900 28.20100 28.15900
C  48.48300 28.12300 29.55100
C  47.93000 26.87300 29.93600
C  49.46900 29.14500 27.36400
C  48.75400 28.89800 30.77300
O  49.29800 29.99000 30.92200
C  48.13600 27.93000 31.91600
C  49.17900 27.89400 32.99500
O  50.31900 27.33100 32.92200
O  48.70900 28.43400 34.12500
C  49.50500 28.51700 35.37200
H  45.43800 21.68400 32.39800
H  46.07900 21.12800 25.95900
H  48.29600 27.15200 25.67500
H  47.69600 25.57400 34.01500
H  45.25400 23.85000 33.78800
H  47.79700 23.63600 34.95700
H  47.72200 22.37600 33.65700
H  46.51400 22.27600 34.87100
H  44.68500 26.10100 33.68000
H  45.90000 27.32300 33.43600
H  44.46600 26.70100 35.75100
H  45.54300 27.92300 35.57200
H  44.76700 19.67800 31.94800
H  45.32800 18.57200 30.66700
H  43.62800 19.13500 30.70100
H  43.16700 18.38900 28.80300
H  44.86400 17.63900 28.85000
H  43.86000 17.34200 27.47100
H  46.03200 23.14600 24.05000
H  48.53900 24.58500 24.30300
H  48.31100 21.68700 24.87400
H  48.77000 22.64100 23.52000
H  47.46500 21.58300 23.28400
H  46.15200 26.28300 24.19600
H  46.12800 25.14400 22.88600
H  47.43700 27.56700 22.69200
H  47.76700 26.25200 21.66300
H  48.79300 26.64100 23.13500
H  50.31000 29.45800 27.98200
H  48.92200 30.08300 27.27300
H  49.84800 28.64500 26.47300
H  47.36100 28.59000 32.30800
H  49.46900 29.55800 35.69500
H  50.53900 28.17300 35.33800
H  49.00600 27.83200 36.05700

