158

Mg 42.04100 41.97800 27.42100
C  40.80600 44.04600 30.09300
C  43.00800 39.76200 29.90400
C  43.39000 40.14500 25.01100
C  41.24100 44.49700 25.18500
N  41.95600 41.96100 29.76900
C  41.36700 42.89700 30.59100
C  41.57000 42.55000 32.06100
C  42.40100 41.22900 31.97000
C  42.45100 40.90100 30.46600
C  43.77700 41.32200 32.69200
C  40.24800 42.41000 32.90300
C  40.16700 43.15000 34.24700
H  39.65800 42.24100 35.36200
N  42.97400 40.14800 27.45700
C  43.28300 39.41600 28.58100
C  43.97700 38.24800 28.12500
C  43.86200 38.18900 26.72800
C  43.44500 39.58400 26.34600
C  44.54300 37.25900 29.13200
C  44.07100 37.01600 25.85600
O  43.97000 37.08400 24.63600
C  44.49200 35.57700 26.28600
N  42.29200 42.29500 25.38900
C  42.86900 41.31800 24.60300
C  42.80500 41.75300 23.16200
C  41.87600 42.97800 23.12500
C  41.76300 43.30900 24.64600
C  44.18100 41.97200 22.47600
C  40.47100 42.76400 22.46400
C  39.43400 41.83000 23.05300
N  41.28900 43.94200 27.57700
C  41.01100 44.82700 26.55200
C  40.48800 46.04000 27.11700
C  40.33900 45.74000 28.48800
C  40.85600 44.45900 28.73300
C  39.98200 47.21300 26.45600
C  39.93400 46.32400 29.72400
O  39.49300 47.47000 29.99300
C  40.34300 45.27300 30.83100
C  41.39100 45.91100 31.60900
O  42.54200 46.03400 31.31000
O  40.88700 46.18300 32.88800
C  41.86100 46.90600 33.83600
H  43.46000 39.20100 30.72400
H  43.65500 39.46000 24.20300
H  41.04800 45.26400 24.43300
H  42.18900 43.37300 32.41900
H  41.87300 40.45700 32.52900
H  44.61100 41.18100 32.00500
H  43.79800 40.58500 33.49500
H  43.77100 42.32700 33.11400
H  39.98700 41.35600 32.99000
H  39.41700 42.82000 32.32800
H  39.71800 44.14200 34.20800
H  41.25300 43.22400 34.31600
H  45.08200 37.82400 29.89200
H  45.22500 36.51300 28.72500
H  43.68300 36.73300 29.54700
H  43.80500 35.36800 27.10600
H  45.54300 35.59800 26.57500
H  44.44200 34.93600 25.40500
H  42.37300 40.93700 22.58200
H  42.32800 43.90700 22.78000
H  44.93400 41.77500 23.23900
H  44.42700 42.95700 22.08000
H  44.31000 41.16700 21.75300
H  40.72500 42.32400 21.49900
H  39.87400 43.67300 22.38700
H  38.98100 41.16200 22.32000
H  38.60900 42.42400 23.44700
H  39.86600 41.25500 23.87200
H  38.92100 47.18900 26.20800
H  40.58900 47.56600 25.62300
H  40.22300 48.09400 27.05000
H  39.51000 45.03100 31.49200
H  41.31200 47.77600 34.19800
H  42.79100 47.18800 33.34100
H  42.09100 46.23500 34.66300
Mg 35.22700 49.01100 25.25800
C  35.58400 47.33200 28.36500
C  33.95300 51.69200 26.94900
C  34.89300 50.45700 22.27900
C  36.65700 46.19900 23.70200
N  34.71400 49.38000 27.43500
C  34.95000 48.58500 28.55600
C  34.52400 49.36400 29.79400
C  33.83000 50.66100 29.25500
C  34.17400 50.59700 27.79400
C  32.35900 50.99400 29.62400
C  35.74400 49.50400 30.85100
C  35.50000 49.82400 32.32900
H  34.05400 49.56500 32.89400
N  34.56400 50.79800 24.69300
C  34.13500 51.82500 25.52000
C  33.98700 53.04300 24.77500
C  34.09200 52.70200 23.42500
C  34.51700 51.24100 23.42300
C  33.83500 54.36600 25.39300
C  33.97700 53.58000 22.20000
O  34.38200 53.15700 21.12600
C  33.38200 54.98900 22.28100
N  35.79500 48.45000 23.21400
C  35.41300 49.17100 22.12500
C  35.98600 48.56500 20.79400
C  36.65200 47.27200 21.35800
C  36.36800 47.29600 22.83400
C  34.91500 48.30200 19.71200
C  38.17300 47.05900 20.93600
C  39.30100 47.63300 21.86700
N  35.91700 47.14100 25.83100
C  36.48700 46.09900 25.06400
C  36.68200 44.99400 25.94100
C  36.36400 45.45600 27.21900
C  35.95600 46.79100 27.13800
C  37.33000 43.66600 25.46800
C  36.31300 44.99300 28.59900
O  36.59200 43.91300 29.11900
C  35.86200 46.25500 29.43000
C  34.61000 45.88000 30.16200
O  33.49000 45.79700 29.64500
O  35.01000 45.45900 31.46200
C  33.81700 44.92500 32.14400
H  33.44700 52.43300 27.57100
H  34.84500 50.96900 21.31500
H  37.17500 45.35000 23.25100
H  33.73300 48.80000 30.28900
H  34.34500 51.52100 29.68400
H  31.86800 50.12700 30.06700
H  31.79000 51.10500 28.70100
H  32.30000 51.92300 30.19100
H  36.24300 50.41100 30.51000
H  36.39300 48.65200 30.64900
H  35.83200 50.82400 32.60500
H  36.10600 49.22800 33.01200
H  32.90900 54.89800 25.17400
H  34.68900 54.94800 25.04800
H  33.89800 54.21700 26.47100
H  33.93800 55.66500 22.93000
H  32.33000 54.87700 22.54300
H  33.41600 55.38200 21.26500
H  36.79300 49.23600 20.49800
H  36.19300 46.36100 20.97500
H  34.46400 47.32000 19.85700
H  35.43600 48.27200 18.75500
H  34.17500 49.10200 19.68900
H  38.38100 47.49300 19.95900
H  38.33300 45.98200 20.89200
H  39.80500 46.80700 22.37000
H  38.80600 48.30300 22.56900
H  39.96300 48.22200 21.23200
H  36.51800 43.22700 24.88800
H  37.43300 43.24100 26.46600
H  38.25300 43.84800 24.91700
H  36.66700 46.33600 30.16000
H  32.92900 45.55600 32.18500
H  34.09600 44.80800 33.19100
H  33.59000 43.91500 31.80200

