158

Mg 47.59800 15.48200 27.67600
C  45.36200 14.90500 30.23000
C  49.10500 17.86900 29.80900
C  49.58100 16.34200 25.19300
C  45.40800 13.77900 25.48200
N  47.31900 16.19000 29.85500
C  46.43000 15.63700 30.70600
C  46.74700 16.11800 32.10600
C  47.76700 17.31000 31.93900
C  48.05900 17.14100 30.43100
C  47.23300 18.66900 32.44900
C  47.23000 14.98600 33.03400
C  47.08100 15.45900 34.48800
H  48.31000 15.22200 35.40000
N  49.32000 16.69400 27.59600
C  49.72600 17.63400 28.53400
C  50.92200 18.21800 27.96300
C  51.13500 17.72400 26.67300
C  49.97000 16.85900 26.44700
C  51.78100 19.31700 28.73300
C  52.27100 18.05000 25.74500
O  52.43000 17.52100 24.66600
C  53.26500 19.09500 26.15800
N  47.55900 14.98400 25.56000
C  48.52900 15.51700 24.73800
C  48.10900 15.24900 23.22300
C  46.91100 14.24100 23.34400
C  46.56300 14.32400 24.85700
C  47.80200 16.52700 22.40200
C  47.23900 12.76800 22.94100
C  47.97000 11.79400 23.94500
N  45.77700 14.52000 27.74600
C  45.01400 13.85200 26.85100
C  43.73300 13.50200 27.44600
C  43.84900 13.80000 28.78600
C  45.09600 14.47900 28.95100
C  42.60700 12.88700 26.59000
C  43.10400 13.82100 30.06300
O  41.92600 13.56400 30.34000
C  44.13000 14.45900 31.03900
C  43.47900 15.53100 31.84000
O  42.87800 16.50300 31.41200
O  43.49100 15.24800 33.19500
C  42.92600 16.31400 34.00900
H  49.45400 18.66700 30.46900
H  50.12800 16.73200 24.33200
H  44.69800 13.26100 24.83400
H  45.83300 16.49600 32.56500
H  48.68700 17.17400 32.50700
H  47.61500 19.44800 31.78900
H  47.73500 18.95000 33.37500
H  46.14700 18.75700 32.44100
H  48.26000 14.76600 32.75400
H  46.72600 14.02700 32.92000
H  46.27900 14.83000 34.87300
H  46.64300 16.44100 34.66300
H  51.26900 19.60800 29.65000
H  51.81700 20.17600 28.06300
H  52.80000 19.05700 29.01900
H  54.04400 19.02200 25.39800
H  53.79400 18.92700 27.09600
H  52.89100 20.11900 26.14900
H  48.94800 14.70900 22.78500
H  46.05000 14.55400 22.75400
H  48.70500 16.74600 21.83300
H  47.45100 17.37500 22.99000
H  47.02700 16.27000 21.68000
H  47.93000 12.67800 22.10300
H  46.28700 12.29600 22.69700
H  48.86800 11.33200 23.53400
H  47.23600 11.04200 24.23400
H  48.14100 12.16300 24.95600
H  41.65500 13.09700 27.07700
H  42.79700 11.81700 26.50400
H  42.59400 13.29400 25.57800
H  44.34400 13.64800 31.73600
H  43.33000 17.28700 33.72800
H  43.04200 15.91800 35.01700
H  41.86900 16.35800 33.74600
Mg -11.11400 40.40700 42.43700
C  -9.51400 37.65400 41.09600
C  -8.75900 42.43500 40.85100
C  -12.89100 43.11000 43.32200
C  -13.81500 38.37900 43.24400
N  -9.38600 40.06700 40.97200
C  -8.89100 38.81700 40.62100
C  -7.70400 38.91700 39.59200
C  -7.40800 40.43000 39.71600
C  -8.56300 41.06900 40.59600
C  -5.98100 40.79100 40.30800
C  -7.84000 38.20600 38.23600
C  -7.09400 36.84000 38.05400
H  -5.94200 36.75800 37.05900
N  -10.73700 42.56900 42.34800
C  -9.72000 43.10900 41.65500
C  -9.82700 44.51800 41.81300
C  -11.04600 44.77700 42.58800
C  -11.62400 43.50500 42.75300
C  -8.85200 45.45700 41.25500
C  -11.57300 46.18200 43.02600
O  -10.88300 47.17500 42.84900
C  -12.87400 46.26500 43.91300
N  -13.10300 40.69400 43.19500
C  -13.57700 41.89700 43.49400
C  -14.88700 41.77600 44.16800
C  -15.27000 40.27500 44.01600
C  -13.98600 39.73300 43.49800
C  -14.91400 42.20700 45.64100
C  -16.48700 40.04400 43.04500
C  -17.39000 38.80700 43.37200
N  -11.61000 38.46100 42.33900
C  -12.68100 37.73000 42.82600
C  -12.41500 36.33600 42.71600
C  -11.18900 36.28300 42.06100
C  -10.73100 37.61100 41.84100
C  -13.38000 35.21800 43.06500
C  -10.18100 35.36500 41.53900
O  -10.17700 34.12900 41.67800
C  -9.00600 36.23700 40.91300
C  -7.80100 35.89100 41.70200
O  -7.37300 36.49000 42.68800
O  -7.12300 34.92600 41.03600
C  -5.71200 34.83100 41.25500
H  -7.97000 43.04000 40.39900
H  -13.68400 43.82700 43.54200
H  -14.64800 37.69900 43.43100
H  -6.98300 38.38300 40.21100
H  -7.42700 40.89700 38.73100
H  -5.46100 39.88400 40.61600
H  -6.13700 41.52900 41.09400
H  -5.32800 41.27800 39.58400
H  -7.33400 38.78300 37.46200
H  -8.91300 38.10700 38.07100
H  -7.86600 36.11900 37.78800
H  -6.60100 36.55000 38.98200
H  -9.38800 45.95900 40.44900
H  -7.90800 44.96000 41.03200
H  -8.52200 46.21300 41.96700
H  -12.96100 45.48000 44.66400
H  -13.68200 46.11300 43.19800
H  -12.92600 47.26000 44.35600
H  -15.54200 42.42500 43.58700
H  -15.61400 39.71700 44.88800
H  -15.61800 43.02400 45.79900
H  -13.92900 42.55800 45.94800
H  -15.21200 41.37200 46.27500
H  -15.90800 39.83200 42.14600
H  -16.96200 41.02500 43.01300
H  -18.45300 39.04700 43.38200
H  -17.23300 38.40100 44.37100
H  -17.13200 38.01100 42.67300
H  -13.61500 35.15200 44.12700
H  -13.19900 34.22400 42.65600
H  -14.30800 35.55100 42.60000
H  -8.85500 35.91900 39.88200
H  -5.77400 34.31500 42.21300
H  -5.24300 35.81000 41.35400
H  -5.24700 34.14700 40.54500

