158

Mg -12.60200 38.40700 41.34600
C  -10.60500 35.78500 40.47800
C  -10.38600 40.59700 40.00200
C  -15.18000 40.69600 41.11800
C  -15.06800 36.07300 42.52500
N  -10.79600 38.12200 40.08800
C  -10.10900 36.97200 39.89800
C  -8.66800 37.19600 39.40100
C  -8.62800 38.75100 39.41100
C  -9.99800 39.21400 39.89600
C  -7.41600 39.49200 40.09100
C  -8.44900 36.59700 37.92200
C  -7.24200 35.74400 37.71500
H  -6.56500 35.98100 36.40900
N  -12.72600 40.36400 40.69800
C  -11.63400 41.12200 40.27700
C  -12.05300 42.48800 40.13700
C  -13.44900 42.55000 40.37100
C  -13.84500 41.16900 40.77500
C  -11.25100 43.68600 39.79400
C  -14.27500 43.82400 40.39600
O  -13.79400 44.93200 40.13100
C  -15.72800 43.86200 40.82200
N  -14.83000 38.48100 41.93100
C  -15.67700 39.46600 41.55900
C  -17.13300 39.14800 41.78800
C  -17.08500 37.72500 42.30100
C  -15.57700 37.39800 42.28200
C  -17.94700 40.06500 42.74200
C  -17.99000 36.74400 41.51900
C  -18.82000 35.69400 42.44400
N  -12.78500 36.40600 41.60900
C  -13.79200 35.56200 42.17200
C  -13.34500 34.18600 42.14200
C  -12.11100 34.26900 41.51900
C  -11.81800 35.57600 41.17400
C  -14.12400 32.97900 42.59600
C  -11.05600 33.47900 40.95700
O  -11.03200 32.22500 40.93800
C  -10.01400 34.38300 40.34800
C  -8.77700 33.96900 41.08900
O  -7.88500 33.30500 40.58800
O  -8.70100 34.62600 42.26700
C  -7.53500 34.27000 43.05900
H  -9.52900 41.21700 39.73100
H  -15.95600 41.45300 40.98800
H  -15.86000 35.40800 42.87600
H  -7.89100 36.90200 40.10700
H  -8.51200 39.10000 38.38400
H  -6.65300 38.78200 40.41100
H  -7.78800 39.99600 40.98300
H  -6.91900 40.30100 39.55500
H  -8.57400 37.37000 37.16400
H  -9.38500 36.08100 37.70600
H  -7.41800 34.68500 37.90300
H  -6.51400 35.98800 38.48900
H  -10.19000 43.44900 39.71600
H  -11.43400 44.37700 40.61700
H  -11.57300 44.10100 38.84000
H  -16.19600 44.84400 40.75000
H  -15.86700 43.37300 41.78600
H  -16.19000 43.26100 40.04000
H  -17.61800 39.15900 40.81200
H  -17.29300 37.75400 43.37100
H  -17.38300 40.97000 42.96700
H  -18.13300 39.68100 43.74500
H  -18.87500 40.40200 42.28000
H  -17.42300 36.10000 40.84600
H  -18.64700 37.30500 40.85400
H  -19.78400 36.06200 42.79700
H  -18.16700 35.32500 43.23400
H  -19.12200 34.83800 41.84100
H  -13.86900 32.91200 43.65400
H  -13.81300 32.14200 41.97100
H  -15.17000 33.22400 42.41100
H  -9.93500 34.03200 39.31900
H  -7.87600 33.44800 43.68900
H  -7.19800 35.07600 43.71100
H  -6.68000 33.94800 42.46500
Mg -5.65600 25.51100 25.50400
C  -4.32300 26.75600 28.42100
C  -7.64000 23.40200 27.30000
C  -6.53800 23.93800 22.58200
C  -3.17800 27.37000 23.64400
N  -5.88200 25.05800 27.68800
C  -5.27000 25.76200 28.71200
C  -5.83500 25.31200 30.07800
C  -6.59600 23.96600 29.63300
C  -6.83200 24.17600 28.11500
C  -5.69600 22.72700 29.79400
C  -6.79200 26.25500 30.75200
C  -6.69300 26.16300 32.23400
H  -6.05300 24.95400 32.95000
N  -6.96400 23.89900 25.02100
C  -7.74700 23.29600 25.90100
C  -8.62200 22.44300 25.11700
C  -8.24900 22.52200 23.75800
C  -7.20600 23.48100 23.72400
C  -9.80300 21.61700 25.79400
C  -8.74000 21.68000 22.57600
O  -8.32100 21.84900 21.42400
C  -9.81700 20.70300 22.76100
N  -4.81900 25.52300 23.43800
C  -5.42300 24.85800 22.42400
C  -4.92200 25.28000 21.04100
C  -4.13600 26.57100 21.37000
C  -3.96500 26.46400 22.86200
C  -4.18400 24.07000 20.39900
C  -4.79100 27.93100 20.94900
C  -4.06800 28.61500 19.75800
N  -4.06500 26.83300 25.84600
C  -3.12900 27.50000 25.04700
C  -2.43400 28.49000 25.93000
C  -2.86200 28.13300 27.21400
C  -3.77300 27.09700 27.15600
C  -1.58300 29.62100 25.54800
C  -2.52100 28.46600 28.58400
O  -1.69200 29.23600 28.98900
C  -3.46300 27.54100 29.42800
C  -2.50000 26.67500 30.18400
O  -1.94100 25.70000 29.67500
O  -2.38500 27.10800 31.46400
C  -1.59800 26.31700 32.39900
H  -8.31000 22.79300 27.91000
H  -6.81700 23.45700 21.64200
H  -2.52700 28.05200 23.09200
H  -4.97800 25.21900 30.74400
H  -7.51500 23.76800 30.18500
H  -4.67800 22.95000 30.11300
H  -5.65200 22.28000 28.80200
H  -6.17000 22.05200 30.50700
H  -7.80300 25.89000 30.57200
H  -6.66500 27.28300 30.41100
H  -7.72800 26.19400 32.57400
H  -6.23500 27.06000 32.65100
H  -9.85500 21.68800 26.88100
H  -9.72400 20.55700 25.55300
H  -10.72500 22.08600 25.45100
H  -10.22300 20.30800 21.83000
H  -10.65900 21.22400 23.21700
H  -9.61900 19.80600 23.34700
H  -5.81000 25.37500 20.41700
H  -3.11100 26.48500 21.01100
H  -3.24700 24.47300 20.01700
H  -4.74800 23.66900 19.55700
H  -4.20600 23.23600 21.10100
H  -4.72900 28.67300 21.74500
H  -5.82500 27.77600 20.63900
H  -3.13000 28.14700 19.45900
H  -3.72300 29.61700 20.01400
H  -4.71100 28.44700 18.89400
H  -1.61900 29.82200 24.47700
H  -0.49600 29.58200 25.62500
H  -1.94000 30.52200 26.04600
H  -4.07100 28.10700 30.13400
H  -2.26000 26.04600 33.22200
H  -0.80700 26.89400 32.87800
H  -1.28200 25.40700 31.89000

