158

Mg 40.66400 9.01600 29.18000
C  42.46100 10.28500 31.86300
C  38.53300 7.64700 31.52000
C  39.05100 7.71500 26.67000
C  43.34800 9.95200 27.13200
N  40.47900 9.13000 31.40500
C  41.34000 9.70600 32.28300
C  40.80200 9.60200 33.70900
C  39.77400 8.45700 33.59500
C  39.56000 8.41500 32.04400
C  40.04700 7.04100 34.14200
C  40.13400 10.91800 34.33600
C  40.34200 11.01100 35.86400
H  40.77800 12.27200 36.49300
N  39.04400 7.78000 29.12200
C  38.27000 7.36800 30.17900
C  37.15300 6.57000 29.68200
C  37.21400 6.65100 28.24700
C  38.44800 7.40800 27.94900
C  36.15600 5.92800 30.64900
C  36.22400 6.08000 27.11000
O  36.42800 6.11000 25.92900
C  34.95300 5.42300 27.53200
N  41.32400 8.63800 27.19600
C  40.33600 8.25100 26.30800
C  40.74900 8.50000 24.84800
C  42.11900 9.16700 25.02100
C  42.31200 9.23700 26.51700
C  40.62700 7.18100 24.02300
C  42.26600 10.47200 24.24200
C  41.70300 11.71400 24.87500
N  42.46100 10.11900 29.36800
C  43.52200 10.30600 28.41400
C  44.52900 11.10300 29.12500
C  44.15500 11.08800 30.47600
C  42.89300 10.51300 30.51800
C  45.76300 11.67900 28.50200
C  44.60700 11.57800 31.69800
O  45.54100 12.23700 32.07200
C  43.48900 11.02500 32.65000
C  44.10200 10.03600 33.59600
O  44.66300 8.95900 33.33500
O  43.96900 10.57300 34.90700
C  44.57200 9.80500 35.92200
H  37.75400 7.29400 32.19800
H  38.39100 7.61200 25.80600
H  44.02100 10.28300 26.33800
H  41.58200 9.21600 34.36600
H  38.85600 8.71400 34.12400
H  40.80900 7.18700 34.90700
H  40.27900 6.28400 33.39300
H  39.22200 6.77900 34.80500
H  39.06300 10.96500 34.14400
H  40.56500 11.78700 33.83800
H  41.09200 10.30700 36.22600
H  39.41700 10.63900 36.30400
H  36.49500 5.70600 31.66100
H  36.04200 4.91100 30.27500
H  35.18700 6.42600 30.69100
H  35.09200 4.67100 28.30800
H  34.39900 5.04200 26.67300
H  34.40400 6.26000 27.96300
H  40.07100 9.17500 24.32600
H  42.80500 8.42600 24.61100
H  41.60100 6.76600 23.76500
H  40.12600 7.37700 23.07500
H  40.08500 6.44900 24.62000
H  41.73800 10.44900 23.28900
H  43.33500 10.60300 24.07800
H  41.37200 11.55900 25.90200
H  40.95000 12.10600 24.19100
H  42.49000 12.46000 24.98900
H  45.41200 12.29100 27.67100
H  46.43400 10.89100 28.15900
H  46.30300 12.21400 29.28300
H  43.06700 11.87300 33.18900
H  45.56600 9.40300 35.72400
H  43.92500 8.99500 36.25900
H  44.67600 10.52500 36.73400
Mg 46.88400 24.94300 28.68700
C  47.79500 27.15400 31.12900
C  45.71400 22.70400 31.02200
C  46.23000 22.66600 26.09400
C  48.31200 27.06900 26.22600
N  46.81500 24.93400 30.83800
C  47.07800 26.02800 31.63400
C  46.74900 25.79100 33.15100
C  46.34300 24.25400 33.07200
C  46.32200 23.85900 31.57300
C  47.20800 23.28800 33.92400
C  45.61100 26.72600 33.59600
C  45.78500 27.43300 34.86000
H  46.13600 26.67600 36.13300
N  46.12300 22.98600 28.54500
C  45.63800 22.28600 29.69900
C  45.03200 21.07800 29.18400
C  45.14700 21.04200 27.75200
C  45.87000 22.28600 27.37700
C  44.36600 20.00900 30.07600
C  44.70800 20.09600 26.74500
O  44.84600 20.21700 25.52800
C  43.98400 18.93900 27.26500
N  47.29200 24.76700 26.55700
C  46.92100 23.77900 25.72900
C  47.29700 24.05300 24.20100
C  47.53800 25.67200 24.33100
C  47.69300 25.86300 25.81400
C  48.61700 23.33800 23.64400
C  46.41300 26.62700 23.75500
C  46.95400 27.79100 22.85100
N  47.89700 26.78400 28.65700
C  48.40500 27.49900 27.57800
C  49.01000 28.77800 28.09600
C  48.80900 28.60400 29.46600
C  48.07900 27.41900 29.76000
C  49.65500 29.84400 27.29100
C  49.05200 29.22300 30.73600
O  49.63100 30.25500 31.06000
C  48.32500 28.37500 31.88700
C  49.41100 27.96200 32.87500
O  50.04500 26.90000 32.92800
O  49.56500 28.95300 33.79100
C  50.68000 28.72500 34.72600
H  45.22900 22.07200 31.76900
H  46.05800 22.05100 25.20800
H  48.67100 27.75900 25.46000
H  47.62700 25.88300 33.79100
H  45.32300 24.03400 33.38800
H  47.72400 22.57500 33.28100
H  46.49900 22.68600 34.49200
H  47.93700 23.82000 34.53600
H  44.70300 26.15100 33.78100
H  45.43300 27.37400 32.73800
H  44.81300 27.90500 35.00100
H  46.30300 28.38700 34.76500
H  43.29400 19.92800 29.89200
H  44.55900 20.15600 31.13900
H  44.84500 19.03000 30.04800
H  43.11500 19.19300 27.87300
H  44.73300 18.29000 27.71800
H  43.56900 18.41500 26.40400
H  46.42200 23.91400 23.56700
H  48.50000 25.92300 23.88600
H  48.35100 22.67900 22.81800
H  48.92400 22.58500 24.37000
H  49.45900 23.96500 23.35100
H  45.87500 27.02700 24.61400
H  45.74800 26.00100 23.16100
H  46.43400 27.75000 21.89400
H  48.03900 27.72400 22.78000
H  46.71100 28.71200 23.38100
H  50.10400 29.50200 26.35900
H  50.44400 30.27200 27.90900
H  48.97300 30.64200 26.99400
H  47.60500 29.11600 32.23300
H  50.31000 28.00100 35.45200
H  50.95000 29.65600 35.22500
H  51.60600 28.33100 34.30500

