158

Mg 15.64900 51.70500 26.05800
C  17.45800 50.62400 28.82400
C  13.06300 52.56900 28.10000
C  13.93000 52.61500 23.30700
C  18.17300 50.41300 23.93900
N  15.32700 51.71300 28.20500
C  16.25000 51.26200 29.15400
C  15.78500 51.66400 30.54800
C  14.22300 51.73300 30.33000
C  14.17200 52.07200 28.77400
C  13.44300 50.38900 30.71000
C  16.42100 52.94000 31.11300
C  16.50000 53.12800 32.64800
H  15.67100 52.15200 33.43200
N  13.73500 52.48200 25.74500
C  12.85200 52.79900 26.75000
C  11.66300 53.39500 26.14800
C  11.88200 53.25600 24.76800
C  13.22300 52.82100 24.51700
C  10.44500 53.91800 26.92100
C  10.92800 53.56200 23.65800
O  11.26800 53.43200 22.49000
C  9.50000 54.02400 24.01700
N  15.91100 51.43000 23.92000
C  15.14200 52.04300 22.99600
C  15.82000 52.06800 21.57100
C  17.00900 51.00500 21.78700
C  17.05700 50.94900 23.30600
C  14.81900 51.72800 20.42100
C  18.29500 51.41300 21.01700
C  18.70800 50.45100 19.87000
N  17.38100 50.62500 26.30600
C  18.35600 50.28700 25.38100
C  19.51600 49.75100 26.03000
C  19.17400 49.86300 27.40900
C  17.91600 50.37500 27.53200
C  20.86100 49.30200 25.45400
C  19.63600 49.56200 28.73900
O  20.68700 49.04800 29.13200
C  18.56100 50.05300 29.73800
C  18.21100 48.92300 30.63900
O  17.60300 47.90300 30.31100
O  18.65400 49.21300 31.94600
C  17.93300 48.49800 33.00800
H  12.25400 52.86200 28.77300
H  13.40500 53.05100 22.45500
H  19.11600 50.20400 23.43000
H  15.94700 50.86700 31.27400
H  13.77200 52.51500 30.94000
H  14.18500 49.60700 30.55200
H  12.51900 50.16100 30.17800
H  13.17100 50.36100 31.76500
H  15.82600 53.79200 30.78300
H  17.39500 53.04000 30.63300
H  16.18500 54.14500 32.87800
H  17.53000 53.06300 32.99800
H  10.08600 54.87900 26.55400
H  10.64900 53.91500 27.99200
H  9.58400 53.27400 26.73700
H  8.92800 53.36400 24.67000
H  8.84800 53.99200 23.14400
H  9.60200 55.08400 24.24900
H  16.18700 53.08900 21.47600
H  16.73800 50.04200 21.35400
H  15.21100 50.87600 19.86600
H  14.59500 52.59800 19.80300
H  13.79800 51.61800 20.78800
H  19.13400 51.80000 21.59500
H  18.05100 52.33100 20.48200
H  18.41900 49.44900 20.18700
H  19.78400 50.44600 19.69900
H  18.19200 50.73500 18.95300
H  20.82100 49.21500 24.36800
H  21.29700 48.36900 25.81100
H  21.54400 50.08600 25.78100
H  19.02000 50.87300 30.29000
H  18.39000 47.54200 33.26400
H  16.87200 48.33900 32.81500
H  17.80400 49.12400 33.89000
Mg -5.19400 24.46400 27.31600
C  -3.83000 26.48000 29.67100
C  -6.49300 22.50700 29.77300
C  -5.97000 22.17200 24.98400
C  -3.61800 26.27300 24.77000
N  -5.20400 24.57000 29.42500
C  -4.70400 25.53000 30.24000
C  -4.94100 25.26900 31.72800
C  -5.66000 23.91100 31.72300
C  -5.79800 23.65200 30.26000
C  -4.99400 22.78200 32.57700
C  -5.73400 26.43900 32.45500
C  -5.52700 26.52000 33.98000
H  -6.73500 26.56000 34.90500
N  -6.32500 22.74000 27.32200
C  -6.69900 22.07800 28.43900
C  -7.33200 20.85900 28.10100
C  -7.19100 20.69500 26.71500
C  -6.47500 21.89700 26.21200
C  -8.09900 20.08100 29.02200
C  -7.76100 19.60200 25.82900
O  -7.73600 19.69900 24.61600
C  -8.42500 18.39800 26.39600
N  -4.91600 24.30200 25.13400
C  -5.14600 23.23500 24.45700
C  -4.73000 23.31000 22.96800
C  -4.24200 24.82400 22.91000
C  -4.25500 25.20600 24.37400
C  -3.63300 22.17800 22.75300
C  -5.23300 25.75700 22.12100
C  -4.65500 27.09500 21.82500
N  -4.01000 26.01400 27.21500
C  -3.44900 26.63400 26.11100
C  -2.69300 27.78200 26.58900
C  -2.77700 27.77600 27.95600
C  -3.59200 26.66100 28.28900
C  -2.11700 28.73300 25.67000
C  -2.48300 28.45300 29.21800
O  -1.95800 29.56500 29.49900
C  -3.03200 27.52800 30.39700
C  -1.88500 27.10000 31.20500
O  -0.84800 26.59300 30.77500
O  -2.19100 27.35100 32.53000
C  -1.16700 26.78100 33.42700
H  -6.75700 21.85800 30.61100
H  -6.06300 21.36100 24.25800
H  -2.99800 26.76100 24.01400
H  -3.96300 25.25800 32.20900
H  -6.64900 23.95200 32.18100
H  -4.13800 23.05700 33.19300
H  -4.42500 22.06000 31.99200
H  -5.75800 22.35200 33.22600
H  -6.79200 26.40500 32.19600
H  -5.38800 27.39600 32.06400
H  -5.08300 27.50800 34.10500
H  -4.87800 25.73700 34.37200
H  -9.01100 19.82100 28.48500
H  -8.44300 20.61300 29.90900
H  -7.61800 19.25300 29.54300
H  -9.45600 18.59700 26.68900
H  -7.97900 17.99700 27.30700
H  -8.42100 17.63100 25.62200
H  -5.56800 23.08800 22.30700
H  -3.25300 24.95600 22.47200
H  -3.99900 21.31100 22.20300
H  -3.31400 21.92000 23.76300
H  -2.92700 22.65700 22.07500
H  -6.14200 25.85200 22.71400
H  -5.43400 25.16300 21.22900
H  -5.22500 27.86400 22.34600
H  -4.75900 27.28600 20.75700
H  -3.59600 27.14600 22.07800
H  -1.82300 29.68000 26.12200
H  -2.78000 28.99000 24.84400
H  -1.27900 28.16000 25.27200
H  -3.67600 28.19300 30.97300
H  -1.65800 26.75800 34.40000
H  -0.28200 27.40600 33.54700
H  -0.90800 25.78400 33.07000

