158

Mg 26.70700 50.11500 26.14500
C  24.80400 51.40700 28.62200
C  29.36400 49.48800 28.27800
C  28.40400 49.02500 23.64700
C  24.19500 51.19300 23.79800
N  26.99000 50.17000 28.20900
C  26.07300 50.82900 29.01500
C  26.59000 50.73300 30.44700
C  28.03100 50.19300 30.42400
C  28.18000 50.01900 28.83400
C  29.05300 51.20700 31.07700
C  25.60500 49.89000 31.32600
C  25.08500 50.43900 32.65800
H  26.08600 50.86500 33.79100
N  28.65600 49.38300 25.95300
C  29.59000 49.14400 26.93900
C  30.74400 48.41000 26.37900
C  30.42500 48.28900 24.99700
C  29.11500 48.90000 24.79700
C  31.80400 47.88000 27.31600
C  31.34000 47.63600 23.96100
O  30.94800 47.51500 22.81300
C  32.68200 47.01600 24.33400
N  26.42900 50.41100 23.89800
C  27.20800 49.59000 23.19900
C  26.76600 49.51500 21.80500
C  25.34300 50.02000 21.85700
C  25.28900 50.51900 23.25600
C  27.52400 50.37000 20.78900
C  24.21800 48.96000 21.46600
C  24.23200 47.67400 22.23900
N  24.87400 51.08600 26.16000
C  23.99800 51.44700 25.19200
C  22.91000 52.18200 25.70800
C  23.17000 52.24300 27.07500
C  24.37300 51.53400 27.30000
C  21.83700 52.92100 24.94000
C  22.69900 52.65600 28.33100
O  21.74000 53.34500 28.58200
C  23.71100 52.06400 29.41100
C  24.18500 53.17900 30.28600
O  25.23600 53.76200 30.15200
O  23.29300 53.34800 31.35100
C  23.86800 54.06300 32.52600
H  30.14300 49.24300 29.00300
H  28.96000 48.70200 22.76400
H  23.32800 51.43000 23.17800
H  26.61800 51.77500 30.76700
H  28.13700 49.21500 30.89400
H  29.72500 50.68800 31.76100
H  28.51100 52.00900 31.57600
H  29.80100 51.61000 30.39400
H  26.06000 48.92000 31.52700
H  24.74600 49.71400 30.67800
H  24.61600 49.53500 33.04800
H  24.24600 51.09400 32.42100
H  32.34200 47.02000 26.91800
H  31.30700 47.63500 28.25500
H  32.50800 48.69600 27.48100
H  32.50000 46.08800 24.87700
H  33.17100 47.77600 24.94400
H  33.14500 46.79800 23.37200
H  26.80900 48.47400 21.48500
H  25.15800 50.97200 21.36000
H  28.39000 50.75700 21.32600
H  27.05800 51.15600 20.19400
H  27.92300 49.64000 20.08400
H  24.14200 48.77000 20.39600
H  23.27700 49.47800 21.65600
H  24.09600 47.74000 23.31800
H  25.13200 47.06900 22.12600
H  23.28100 47.22000 21.96200
H  21.43700 53.62200 25.67300
H  21.04100 52.27600 24.56800
H  22.24400 53.59700 24.18900
H  23.24300 51.37600 30.11500
H  24.08900 55.10900 32.31400
H  24.82500 53.57900 32.72100
H  23.34200 53.85300 33.45700
Mg 6.80400 53.92800 39.52200
C  5.95100 50.51900 39.87100
C  9.89800 53.12600 38.69700
C  7.11100 57.07700 38.23700
C  3.37700 54.48700 39.91200
N  7.73200 52.01400 39.03400
C  7.23700 50.76900 39.30600
C  8.31300 49.73400 39.23800
C  9.71000 50.53800 39.13600
C  9.13100 51.98900 39.01500
C  10.60200 50.36800 40.44800
C  8.14600 48.93400 37.89200
C  7.87400 49.70200 36.60000
H  6.45600 49.71500 36.11300
N  8.29800 54.99300 38.68300
C  9.56400 54.48800 38.51100
C  10.46200 55.56800 38.23200
C  9.71200 56.72500 37.87000
C  8.29500 56.27600 38.22100
C  11.87600 55.28600 37.97500
C  10.22200 58.09800 37.34400
O  11.40100 58.39100 37.31200
C  9.33800 59.19500 37.11700
N  5.41200 55.46300 38.95000
C  5.81700 56.75300 38.66700
C  4.72200 57.79300 38.73000
C  3.50800 56.98300 39.23700
C  4.08900 55.53000 39.31800
C  5.11300 59.15000 39.53500
C  2.31200 57.09700 38.25900
C  1.12100 57.91200 38.79600
N  5.01400 52.77400 39.96900
C  3.72900 53.21100 40.22600
C  2.94600 52.16200 40.67500
C  3.82000 51.04200 40.73300
C  5.02200 51.49000 40.14400
C  1.48600 52.36700 41.05000
C  3.88500 49.59600 40.96100
O  3.05800 48.78200 41.40100
C  5.32300 49.21300 40.38100
C  5.00900 48.24900 39.26800
O  4.19700 48.34500 38.34100
O  5.70300 47.12400 39.56600
C  5.38300 45.96000 38.73700
H  10.89500 52.71000 38.53600
H  7.23900 58.12800 37.97100
H  2.33100 54.71900 40.12400
H  8.34500 49.15500 40.16100
H  10.21800 50.24100 38.21800
H  10.43100 49.36500 40.83800
H  10.37700 51.07100 41.24900
H  11.64000 50.54000 40.16400
H  7.46600 48.09000 38.01300
H  9.09200 48.40700 37.76900
H  8.55200 49.22100 35.89400
H  8.20100 50.73900 36.68100
H  12.26500 54.67800 38.79300
H  12.46900 56.19300 38.09300
H  12.11000 54.82400 37.01600
H  8.74600 58.91400 36.24600
H  9.95800 60.07400 36.94200
H  8.68300 59.41200 37.96100
H  4.49400 58.13800 37.72200
H  3.16600 57.20700 40.24700
H  5.23600 59.99900 38.86300
H  5.96600 58.79600 40.11400
H  4.29800 59.41800 40.20800
H  1.79500 56.17600 37.98700
H  2.60700 57.51500 37.29600
H  1.19100 57.98000 39.88200
H  0.15600 57.47700 38.53400
H  1.15900 58.95400 38.47700
H  1.22700 51.58100 41.76000
H  0.83000 52.25600 40.18600
H  1.24700 53.38100 41.36900
H  6.00200 48.71200 41.07100
H  4.31500 45.91300 38.52300
H  5.64500 45.05300 39.28200
H  5.91700 45.95400 37.78700

