158

Mg 25.55100 -1.42800 29.61500
C  27.77400 -1.59400 32.49400
C  22.97200 -0.93700 31.90100
C  23.47800 -1.37500 26.98300
C  28.20200 -2.35700 27.63100
N  25.44000 -1.32200 31.89300
C  26.48300 -1.32200 32.93100
C  25.96800 -0.86300 34.28900
C  24.38000 -0.74400 33.94600
C  24.23900 -1.08600 32.44400
C  23.51100 -1.63900 34.85700
C  26.59700 0.44700 34.85100
C  27.47400 0.30900 36.14800
H  27.13700 1.26900 37.33000
N  23.49100 -1.17100 29.42300
C  22.64900 -0.96000 30.47200
C  21.30900 -0.90300 29.91400
C  21.40200 -0.94200 28.52800
C  22.80100 -1.08500 28.22900
C  20.10700 -0.68100 30.76100
C  20.22800 -0.83900 27.53900
O  20.33200 -1.08700 26.38100
C  18.80900 -0.46000 28.01900
N  25.75600 -2.07600 27.61900
C  24.76000 -1.81800 26.71800
C  25.30500 -1.67300 25.23500
C  26.81200 -1.93600 25.54000
C  26.96200 -2.11300 27.00300
C  24.62400 -2.54800 24.16400
C  27.86400 -0.94600 24.87600
C  27.88200 0.51000 25.47100
N  27.58600 -1.97800 29.95900
C  28.55200 -2.25400 29.01400
C  29.83700 -2.31900 29.64400
C  29.62600 -2.02200 31.02600
C  28.21000 -1.94600 31.14200
C  31.09200 -2.80700 29.00600
C  30.11600 -1.85200 32.40800
O  31.21700 -1.90300 32.78000
C  28.97100 -1.60600 33.38300
C  28.90400 -2.68100 34.28300
O  28.43800 -3.81700 34.06400
O  29.32800 -2.21700 35.51000
C  29.13200 -3.02500 36.67500
H  22.15900 -0.84300 32.62400
H  22.87100 -1.11300 26.11400
H  29.06900 -2.52100 26.98800
H  26.20200 -1.69100 34.95700
H  24.07800 0.29000 34.11100
H  22.74900 -1.05900 35.37800
H  24.14900 -2.17600 35.55800
H  23.01400 -2.43400 34.30100
H  25.94800 1.32100 34.91500
H  27.41600 0.72000 34.18600
H  28.53100 0.52700 35.99600
H  27.42800 -0.65500 36.65500
H  19.65000 0.25000 30.42500
H  20.20700 -0.64800 31.84600
H  19.58200 -1.63100 30.65500
H  18.44000 -1.05400 28.85600
H  18.05900 -0.27600 27.25000
H  19.12100 0.50100 28.42700
H  25.09400 -0.63100 24.99200
H  27.08700 -2.90600 25.12700
H  25.35600 -2.90700 23.44100
H  24.02000 -1.85900 23.57300
H  24.01000 -3.32300 24.62400
H  27.68600 -1.03300 23.80400
H  28.84400 -1.42000 24.92800
H  27.03400 0.76900 26.10600
H  27.58700 1.20400 24.68400
H  28.86200 0.74600 25.88700
H  31.52700 -2.02900 28.37900
H  30.85500 -3.68800 28.40900
H  31.87500 -3.01700 29.73400
H  29.13600 -0.65600 33.89000
H  28.07800 -3.10200 36.94400
H  29.63000 -2.71500 37.59300
H  29.43700 -4.04200 36.42600
Mg 6.67100 54.97500 40.56300
C  5.88700 51.52700 40.39000
C  9.96600 54.19000 40.07800
C  7.33900 58.29800 40.40000
C  3.26100 55.69800 40.67500
N  7.76600 53.02300 40.07200
C  7.22700 51.73200 40.11700
C  8.41800 50.63300 40.11700
C  9.67900 51.58300 40.33100
C  9.14900 52.99400 40.16400
C  10.50800 51.35800 41.56400
C  8.44400 49.75300 38.79700
C  8.32200 50.47700 37.43700
H  7.02100 50.81000 36.82900
N  8.42600 56.08200 40.30100
C  9.66400 55.54700 40.10200
C  10.63100 56.57700 39.86700
C  9.92800 57.76900 40.05700
C  8.48100 57.41800 40.29800
C  12.06400 56.44100 39.55100
C  10.51600 59.15800 40.02000
O  11.73400 59.29900 39.85500
C  9.77800 60.37000 40.50100
N  5.51400 56.72200 40.31900
C  6.01700 58.00500 40.45500
C  4.95100 59.09600 40.54000
C  3.65200 58.18200 40.47900
C  4.12800 56.76400 40.49000
C  5.07000 60.07400 41.72000
C  2.65500 58.59400 39.39500
C  1.94700 59.93600 39.52000
N  4.88200 53.92100 40.58500
C  3.56500 54.36300 40.68900
C  2.74300 53.27200 40.95500
C  3.55200 52.14700 40.82900
C  4.88700 52.57000 40.57100
C  1.26800 53.26900 41.28000
C  3.58300 50.72900 40.89900
O  2.72400 49.89700 41.23300
C  5.13700 50.29700 40.69900
C  5.06600 49.27600 39.60200
O  4.74300 49.45700 38.44300
O  5.27300 48.03000 40.18500
C  5.11600 46.90300 39.18800
H  10.99300 53.85400 39.92100
H  7.54700 59.36700 40.31500
H  2.19800 55.89700 40.82400
H  8.21700 50.01400 40.99100
H  10.29600 51.38600 39.45400
H  10.36500 52.23900 42.19100
H  11.53400 51.22800 41.22000
H  10.12900 50.60300 42.25300
H  7.70100 48.95800 38.87600
H  9.40800 49.25600 38.68700
H  8.93400 49.88500 36.75600
H  8.77600 51.44900 37.63100
H  12.37300 55.43300 39.27400
H  12.58800 56.76100 40.45100
H  12.31300 57.13400 38.74700
H  9.19600 60.87100 39.72800
H  10.59600 61.05500 40.72500
H  9.26900 60.27500 41.46000
H  4.93500 59.67900 39.61900
H  3.12400 58.32800 41.42200
H  5.96100 60.01600 42.34500
H  4.21100 59.80900 42.33700
H  4.89500 61.04600 41.25900
H  1.88400 57.82300 39.40200
H  3.19200 58.49600 38.45200
H  2.25100 60.53300 38.66000
H  2.35100 60.34600 40.44500
H  0.89700 59.85100 39.80100
H  0.88800 52.25500 41.40700
H  0.67800 53.75700 40.50400
H  1.08600 53.78200 42.22400
H  5.53300 49.82200 41.59600
H  5.70500 47.07000 38.28600
H  4.06600 46.79500 38.91600
H  5.45700 45.99400 39.68300

