158

Mg 47.19400 24.79100 28.38300
C  48.03900 27.31200 30.68800
C  46.86400 22.52700 30.91100
C  46.75700 22.58500 25.94900
C  48.08500 27.17400 25.82900
N  47.45000 24.87300 30.58400
C  47.67500 26.06400 31.29000
C  47.52200 25.77000 32.83100
C  47.41100 24.15700 32.81300
C  47.15600 23.81900 31.33700
C  48.67700 23.32200 33.39200
C  46.30700 26.57800 33.27200
C  45.92500 26.36900 34.78500
H  46.04800 27.59000 35.77200
N  46.74000 22.84800 28.48800
C  46.68700 22.05000 29.60600
C  46.22400 20.73100 29.23200
C  46.20200 20.72000 27.78900
C  46.54200 22.11800 27.34300
C  45.86300 19.69400 30.22400
C  46.07200 19.52400 26.84200
O  46.08900 19.65100 25.65500
C  45.95800 18.16400 27.36800
N  47.46300 24.84500 26.15400
C  47.15600 23.80300 25.39300
C  47.21100 23.97800 23.88600
C  47.51300 25.44100 23.88500
C  47.67600 25.90200 25.37300
C  48.39600 23.09600 23.31200
C  46.44600 26.37300 23.21500
C  46.40600 26.26200 21.69600
N  48.00600 26.81100 28.21900
C  48.32200 27.58400 27.15300
C  48.83500 28.90400 27.56900
C  48.70500 28.81500 28.98100
C  48.17300 27.54000 29.29700
C  49.41600 30.03200 26.74900
C  48.95100 29.50600 30.19700
O  49.53200 30.54300 30.42000
C  48.35000 28.64300 31.33900
C  49.37200 28.61300 32.51300
O  50.44400 28.03800 32.42400
O  48.87100 29.22200 33.64000
C  49.75900 29.24700 34.88900
H  46.69900 21.87000 31.76700
H  46.38700 21.90400 25.18000
H  48.28400 27.88600 25.02500
H  48.45600 26.18600 33.21100
H  46.60800 23.83300 33.47500
H  49.05400 22.66900 32.60500
H  48.34500 22.64900 34.18300
H  49.43800 24.01000 33.76000
H  45.49900 26.26700 32.61000
H  46.55000 27.63500 33.16500
H  46.56100 25.56800 35.16000
H  44.88600 26.04400 34.84800
H  45.04800 19.07000 29.85700
H  45.46700 20.21000 31.09900
H  46.70600 19.03100 30.42100
H  46.80600 17.91100 28.00400
H  45.95900 17.49300 26.50900
H  44.99000 18.13100 27.86900
H  46.28200 23.93100 23.31700
H  48.46000 25.58500 23.36600
H  48.72200 22.36100 24.04900
H  49.23500 23.66900 22.91900
H  47.97100 22.63500 22.42000
H  46.59900 27.42500 23.45600
H  45.51200 25.98500 23.62200
H  47.16500 25.61900 21.25200
H  46.58500 27.23600 21.24000
H  45.39000 25.98000 21.42000
H  48.86600 30.96200 26.89300
H  49.58600 29.81500 25.69400
H  50.41100 30.21600 27.15300
H  47.49300 29.21400 31.69700
H  50.78200 29.01200 34.59400
H  49.44500 28.57200 35.68500
H  49.72700 30.23100 35.35700
Mg -10.47800 39.12300 40.71400
C  -9.58200 35.91500 39.60000
C  -7.52600 40.24900 39.49500
C  -11.70200 42.23100 41.14600
C  -13.84200 37.81400 40.93800
N  -8.85300 38.08700 39.68400
C  -8.57800 36.81500 39.43000
C  -7.11700 36.52500 38.88600
C  -6.48700 37.99000 39.05900
C  -7.70700 38.84500 39.43600
C  -5.38500 38.10900 40.24100
C  -6.95300 35.89700 37.50600
C  -6.41000 36.61800 36.22400
H  -6.24400 35.84000 34.91300
N  -9.67900 41.01700 40.33900
C  -8.41700 41.25300 39.81100
C  -8.29000 42.71200 39.59200
C  -9.52800 43.35800 40.09600
C  -10.38000 42.18100 40.59200
C  -7.13400 43.31200 38.90800
C  -9.83200 44.80800 40.10900
O  -9.04100 45.64600 39.69400
C  -11.11200 45.21500 40.68100
N  -12.59800 39.94400 40.86400
C  -12.65800 41.23400 41.31900
C  -14.16900 41.58900 41.66300
C  -14.87600 40.19200 41.63900
C  -13.69900 39.27400 41.10200
C  -14.30400 42.26700 43.06000
C  -16.28800 40.25000 40.89600
C  -17.50500 40.15400 41.78300
N  -11.54700 37.25000 40.47700
C  -12.86000 36.90800 40.55400
C  -13.04400 35.53800 40.22700
C  -11.77600 35.05400 39.96800
C  -10.89400 36.16300 40.01500
C  -14.32900 34.79800 40.20600
C  -11.01200 33.92600 39.60000
O  -11.33700 32.78100 39.38400
C  -9.53600 34.42600 39.34400
C  -8.56300 33.75600 40.11400
O  -8.54800 33.62300 41.35200
O  -7.60900 33.12400 39.29200
C  -6.38800 32.51200 39.87500
H  -6.57200 40.52500 39.04100
H  -12.04400 43.20800 41.49300
H  -14.83600 37.46800 41.22600
H  -6.64200 35.89400 39.63700
H  -6.02600 38.43500 38.17700
H  -5.56900 38.93000 40.93400
H  -4.39000 38.25000 39.81900
H  -5.28300 37.21200 40.85100
H  -7.92900 35.56500 37.15100
H  -6.26400 35.05600 37.57900
H  -5.40300 36.92100 36.50800
H  -7.03100 37.48900 36.01300
H  -7.43200 44.02000 38.13500
H  -6.54200 42.51000 38.46600
H  -6.50100 43.88700 39.58400
H  -11.95200 44.83400 40.10100
H  -11.18700 46.30100 40.73000
H  -10.98600 45.02100 41.74700
H  -14.54900 42.36100 40.99300
H  -15.09400 39.95000 42.67900
H  -15.07400 41.79600 43.67100
H  -14.51300 43.32600 42.91100
H  -13.29900 42.23700 43.48100
H  -16.22700 39.41100 40.20200
H  -16.46400 41.21100 40.41400
H  -18.21200 40.94900 41.54300
H  -17.25400 40.24900 42.84000
H  -18.01200 39.21300 41.57000
H  -14.15200 33.82800 39.74200
H  -14.96300 35.36200 39.52100
H  -14.67900 34.54300 41.20600
H  -9.40100 34.26500 38.27500
H  -5.76000 33.37600 40.09500
H  -5.89600 31.86500 39.14900
H  -6.59100 31.97400 40.80100

