158

Mg 26.15000 1.73500 29.70600
C  28.20200 1.21300 32.64200
C  23.38700 2.31500 31.95800
C  24.14100 1.76900 27.14400
C  28.95500 0.78100 27.84800
N  25.88700 1.82400 32.01700
C  26.89700 1.65000 33.00000
C  26.40900 1.95900 34.44700
C  24.81600 2.10800 34.14600
C  24.64300 2.13400 32.61500
C  23.99500 1.04200 34.85300
C  26.99600 3.40000 34.93800
C  27.68400 3.33100 36.30900
H  27.19700 4.29000 37.42600
N  24.04600 2.10200 29.53400
C  23.12200 2.29700 30.51500
C  21.81100 2.56500 29.86500
C  21.96400 2.24300 28.44100
C  23.38400 1.98900 28.28400
C  20.57800 2.94700 30.55000
C  20.85400 2.12800 27.36100
O  21.19200 1.79000 26.23800
C  19.34400 2.34000 27.69900
N  26.44100 1.05600 27.77400
C  25.49700 1.46900 26.93400
C  26.07500 1.32400 25.50000
C  27.61100 1.51500 25.75700
C  27.70600 1.05200 27.19300
C  25.72400 -0.01400 24.75100
C  28.08100 3.03800 25.52700
C  29.18100 3.09800 24.42900
N  28.08300 0.96400 30.12700
C  29.13000 0.65700 29.23000
C  30.35200 0.25500 29.97100
C  29.95700 0.50300 31.30700
C  28.62900 1.00800 31.36600
C  31.69200 -0.21600 29.40900
C  30.42400 0.31800 32.64500
O  31.50800 -0.14600 33.07600
C  29.41200 0.91200 33.56800
C  29.14700 0.06800 34.77500
O  28.30900 -0.84500 34.85900
O  30.01100 0.51200 35.82400
C  29.75200 -0.16000 37.11800
H  22.53500 2.58000 32.58800
H  23.56100 1.92000 26.23100
H  29.85500 0.93600 27.24900
H  26.63400 1.22400 35.22100
H  24.48000 3.11600 34.38900
H  24.68500 0.39500 35.39600
H  23.50100 0.38600 34.13600
H  23.36900 1.61600 35.53700
H  26.24200 4.18600 34.97800
H  27.64800 3.86200 34.19700
H  28.75100 3.50800 36.17600
H  27.61900 2.30800 36.68000
H  19.88200 2.10800 30.56900
H  20.09300 3.80200 30.08100
H  20.85200 3.15400 31.58500
H  18.89000 1.52300 28.26000
H  18.80800 2.36200 26.75000
H  19.25100 3.30700 28.19500
H  25.68900 2.17000 24.93200
H  28.07800 0.84100 25.03900
H  26.53300 -0.66700 24.42600
H  25.20700 0.27900 23.83800
H  25.06600 -0.58700 25.40400
H  28.37000 3.44800 26.49500
H  27.22700 3.59000 25.13400
H  28.83400 3.73900 23.61800
H  29.45700 2.17400 23.92200
H  30.07200 3.56500 24.85000
H  32.34400 0.62000 29.15600
H  31.59700 -0.82700 28.51100
H  32.10800 -0.85800 30.18500
H  29.89000 1.86000 33.81300
H  29.65900 -1.23700 36.97300
H  28.81000 0.06300 37.61800
H  30.58500 0.10400 37.77000
Mg 35.84000 1.84100 29.97600
C  33.73700 3.38000 32.37500
C  38.25900 1.72800 32.28100
C  37.84600 0.98600 27.47700
C  33.21200 2.83700 27.44200
N  35.91700 2.58800 32.08300
C  34.94200 3.07500 32.87300
C  35.27300 2.96700 34.34100
C  36.91900 2.97900 34.22000
C  37.08300 2.40500 32.81200
C  37.65100 4.32300 34.49400
C  34.64500 1.73500 35.05900
C  34.50400 1.86100 36.55000
H  35.00400 3.09700 37.32100
N  37.72800 1.26700 29.94300
C  38.58600 1.30400 31.03200
C  39.93300 0.77100 30.57800
C  39.80200 0.53200 29.14400
C  38.40900 0.84900 28.78500
C  41.21100 0.63900 31.35500
C  40.90400 0.21500 28.12700
O  40.60700 0.08200 26.95400
C  42.32000 -0.12500 28.35500
N  35.49000 1.84800 27.80600
C  36.55800 1.46300 27.09400
C  36.15300 1.47000 25.57700
C  34.61700 1.88900 25.50700
C  34.42600 2.21200 26.99000
C  37.00900 2.32500 24.59900
C  33.45400 0.91500 24.99500
C  33.09100 1.17700 23.48000
N  33.88900 2.87800 29.86600
C  32.90500 3.11300 28.82200
C  31.69700 3.63800 29.35300
C  31.99600 3.78200 30.73900
C  33.34700 3.32400 30.99900
C  30.44700 4.02100 28.66700
C  31.42700 4.17700 32.01600
O  30.31300 4.65300 32.21700
C  32.53200 3.93800 33.11000
C  32.65600 5.10000 34.00500
O  33.54400 5.96300 33.91400
O  31.65800 5.02600 35.01300
C  31.72800 6.14200 35.98900
H  39.00800 1.69500 33.07500
H  38.49800 0.83900 26.61300
H  32.48000 3.14600 26.69400
H  34.91700 3.88700 34.80500
H  37.35200 2.28800 34.94400
H  37.99600 4.88100 33.62400
H  38.48400 4.29200 35.19600
H  36.88200 4.97700 34.90600
H  35.30300 0.89200 34.85200
H  33.65500 1.55700 34.63900
H  34.90700 0.92800 36.94300
H  33.48600 1.74000 36.92000
H  41.90700 1.36900 30.94000
H  41.56800 -0.33900 31.03400
H  40.97200 0.77100 32.41000
H  42.43000 -1.04100 28.93500
H  42.81900 0.64200 28.94600
H  42.76100 -0.22800 27.36300
H  36.19900 0.47700 25.13100
H  34.63300 2.84900 24.99000
H  37.52600 3.06300 25.21100
H  36.36000 2.82600 23.88000
H  37.74000 1.77400 24.00700
H  32.53600 0.91000 25.58200
H  33.88200 -0.07100 24.81600
H  33.60300 2.04300 23.06200
H  32.06100 1.53200 23.45000
H  33.06900 0.23700 22.92900
H  30.24600 3.43900 27.76800
H  30.34800 5.10500 28.60200
H  29.71300 3.75300 29.42700
H  32.36500 3.05000 33.72000
H  31.45700 7.11600 35.58000
H  32.73400 6.18600 36.40600
H  31.10400 5.89100 36.84600

