158

Mg 26.21300 1.13500 29.75700
C  28.44900 0.92300 32.52100
C  23.68700 1.41100 32.16800
C  24.10600 1.37100 27.21100
C  28.75600 0.26900 27.64900
N  26.11600 0.94300 32.10400
C  27.13800 1.10900 32.98000
C  26.68200 1.30600 34.43200
C  25.17600 1.41800 34.20300
C  24.94400 1.34200 32.71100
C  24.33100 0.46100 35.01800
C  27.29600 2.54600 35.15600
C  27.52600 2.44000 36.66800
H  26.88700 3.46200 37.59500
N  24.12400 1.34000 29.70800
C  23.27400 1.41500 30.76200
C  21.95200 1.59700 30.25300
C  22.06900 1.62300 28.85100
C  23.50600 1.43100 28.52200
C  20.76100 1.63100 31.19200
C  20.98100 1.57300 27.84100
O  21.24500 1.52000 26.66400
C  19.61100 1.73800 28.30300
N  26.33500 0.72200 27.61400
C  25.38300 1.07600 26.75500
C  25.81000 1.12500 25.36700
C  27.39200 0.85700 25.47900
C  27.52700 0.57800 27.02200
C  25.15700 0.13900 24.32500
C  28.34200 2.01800 25.12700
C  29.29300 1.70100 23.99400
N  28.24100 0.59300 30.00400
C  29.14300 0.19000 29.04200
C  30.35500 -0.19100 29.72700
C  30.21200 0.15000 31.12100
C  28.86600 0.61700 31.24100
C  31.58200 -0.53800 29.01500
C  30.76700 0.19200 32.38400
O  31.87100 -0.10000 32.82100
C  29.73300 0.77800 33.35200
C  29.69400 -0.03500 34.54300
O  29.09000 -1.10300 34.68300
O  30.56000 0.57600 35.52100
C  30.34500 -0.07100 36.83800
H  22.92100 1.53600 32.93700
H  23.49600 1.56700 26.32700
H  29.44800 -0.09000 26.88500
H  26.86100 0.39200 34.99800
H  24.91400 2.36100 34.68300
H  24.83700 -0.43500 35.37900
H  23.50000 0.03300 34.45800
H  23.94400 0.87300 35.94900
H  26.73800 3.47300 35.02500
H  28.28100 2.79300 34.76000
H  28.57300 2.45900 36.96900
H  27.20500 1.45300 37.00200
H  20.32900 2.63100 31.15400
H  21.00000 1.41700 32.23400
H  20.05600 0.84000 30.93600
H  19.37200 0.87800 28.92900
H  18.93100 1.90500 27.46800
H  19.61000 2.68600 28.84100
H  25.49100 2.12500 25.07200
H  27.65600 -0.13600 25.11600
H  24.39500 -0.46500 24.81700
H  25.78700 -0.39700 23.61500
H  24.53000 0.72800 23.65600
H  28.96200 2.25500 25.99100
H  27.71100 2.84600 24.80500
H  29.26200 2.53500 23.29300
H  28.93700 0.86500 23.39100
H  30.31400 1.52000 24.32900
H  31.44200 -1.31000 28.25900
H  32.32900 -0.98500 29.67000
H  32.09900 0.35300 28.65900
H  30.02600 1.78900 33.63400
H  31.11200 -0.83100 36.98700
H  29.40800 -0.61900 36.93200
H  30.51500 0.62300 37.66200
Mg 26.84000 50.35000 26.49700
C  24.56600 51.36300 29.01600
C  29.14100 49.34000 28.79700
C  28.76700 49.46700 23.91500
C  24.68200 52.08700 24.19100
N  26.90200 50.46500 28.62200
C  25.82900 50.76100 29.48300
C  26.16000 50.24400 30.91500
C  27.59400 49.73300 30.76800
C  27.97000 49.86600 29.32700
C  28.65700 50.37800 31.77700
C  25.13600 49.14600 31.27400
C  24.26800 49.47300 32.51100
H  24.44500 48.72000 33.82900
N  28.65400 49.46200 26.40600
C  29.45500 49.05200 27.46100
C  30.56500 48.31600 26.89400
C  30.39700 48.28100 25.44700
C  29.23500 49.14300 25.20900
C  31.54700 47.66000 27.85900
C  31.13800 47.57400 24.37900
O  30.77200 47.46600 23.22400
C  32.27600 46.84700 24.95500
N  26.74300 50.67400 24.40800
C  27.68700 50.17900 23.53200
C  27.42200 50.48500 22.05400
C  26.01700 51.11800 22.18300
C  25.78000 51.34100 23.69800
C  28.50300 51.36800 21.35300
C  24.93600 50.27500 21.46700
C  24.15500 49.18800 22.23000
N  25.04000 51.53500 26.54300
C  24.38900 52.21400 25.56300
C  23.31700 52.94900 26.16100
C  23.21900 52.52700 27.48300
C  24.34000 51.70400 27.66600
C  22.34600 53.84700 25.40700
C  22.46400 52.66000 28.76600
O  21.50300 53.31200 29.14000
C  23.27400 51.78400 29.77000
C  23.37700 52.59800 31.05700
O  24.16900 53.50900 31.28400
O  22.31900 52.25100 31.86700
C  22.19800 53.15000 33.06400
H  29.76900 48.77200 29.48700
H  29.34300 49.09400 23.06500
H  24.10600 52.61400 23.42700
H  26.10900 51.02700 31.67100
H  27.59800 48.64300 30.75300
H  29.60500 49.84600 31.69100
H  28.24700 50.21200 32.77300
H  28.76800 51.45400 31.64400
H  25.65100 48.19800 31.43300
H  24.42000 49.04200 30.45900
H  23.25000 49.32400 32.15400
H  24.30700 50.53300 32.76100
H  31.50800 46.57100 27.88800
H  31.48700 48.07500 28.86500
H  32.60700 47.83900 27.68300
H  31.92700 46.06600 25.63000
H  32.86600 47.61700 25.45200
H  32.65400 46.22600 24.14200
H  27.46200 49.59600 21.42500
H  26.05500 52.08300 21.67700
H  29.39800 51.31400 21.97400
H  28.25300 52.42500 21.27100
H  28.69300 50.92800 20.37400
H  25.46800 49.75800 20.66800
H  24.24600 50.93200 20.93800
H  24.40000 49.16500 23.29200
H  24.41500 48.18400 21.89200
H  23.07100 49.29600 22.18500
H  21.94800 53.35200 24.52100
H  22.87400 54.71600 25.01400
H  21.54400 54.20400 26.05200
H  22.77900 50.85600 30.05800
H  21.11400 53.25500 33.09900
H  22.52200 54.18200 32.92500
H  22.59800 52.76300 34.00100

