158

Mg 24.14600 -4.64300 45.99700
C  26.10700 -2.18400 44.64500
C  21.58500 -3.78200 43.95700
C  22.58500 -7.48600 46.85300
C  27.19600 -5.94500 47.57200
N  23.92700 -3.17700 44.62400
C  24.85300 -2.33300 44.12600
C  24.18400 -1.36200 43.11400
C  22.63800 -1.60700 43.20300
C  22.72800 -2.96000 43.91500
C  21.79200 -0.49100 43.88600
C  24.78600 -1.67600 41.70600
C  25.32100 -0.55400 40.82100
H  25.08700 -0.76200 39.32900
N  22.26200 -5.47300 45.53300
C  21.33100 -4.91900 44.66600
C  20.23800 -5.79200 44.50900
C  20.38800 -6.89900 45.41700
C  21.80800 -6.73100 45.95100
C  19.07800 -5.48500 43.64200
C  19.38600 -8.04600 45.74400
O  18.37000 -8.18900 45.10300
C  19.67700 -9.04800 46.76600
N  24.89500 -6.52200 46.94500
C  23.92500 -7.34200 47.41000
C  24.51900 -8.52100 48.21700
C  26.01800 -8.07500 48.38000
C  26.08400 -6.71500 47.62900
C  23.77000 -8.81500 49.54300
C  27.14100 -9.08000 47.81900
C  28.49100 -9.18300 48.64400
N  26.25900 -4.16200 46.20400
C  27.28900 -4.72400 46.88600
C  28.42400 -3.87600 46.73300
C  28.03800 -2.91700 45.83600
C  26.70000 -3.06800 45.55500
C  29.73400 -4.24700 47.31800
C  28.55500 -1.86600 44.92800
O  29.63700 -1.39900 44.79600
C  27.25500 -1.34300 44.16300
C  27.17000 0.17500 44.55600
O  26.47100 0.71400 45.43800
O  28.16600 0.82700 43.87200
C  28.39200 2.22700 44.15600
H  20.79400 -3.43700 43.28800
H  22.24200 -8.51800 46.95500
H  28.10600 -6.19700 48.12000
H  24.26000 -0.30000 43.34900
H  22.16400 -1.77700 42.23600
H  20.88700 -0.22000 43.34200
H  22.35100 0.43200 44.04000
H  21.62100 -0.88700 44.88600
H  23.96000 -2.21200 41.24100
H  25.57800 -2.42400 41.74000
H  26.36500 -0.52200 41.13300
H  24.68200 0.28200 41.10600
H  18.71200 -6.43200 43.24600
H  19.46700 -4.98200 42.75700
H  18.38400 -4.75700 44.06100
H  20.27900 -9.81800 46.28300
H  18.72100 -9.51900 46.99400
H  20.07000 -8.60100 47.67900
H  24.45100 -9.44900 47.64900
H  26.33500 -7.66900 49.34000
H  24.01700 -9.72400 50.09200
H  22.72400 -8.61300 49.31300
H  24.21100 -8.04400 50.17500
H  27.24600 -8.73100 46.79200
H  26.72700 -10.06700 47.61300
H  28.56700 -10.25100 48.84900
H  28.51200 -8.55800 49.53600
H  29.36900 -8.88400 48.07200
H  29.71500 -4.06700 48.39200
H  30.43800 -3.65400 46.73400
H  30.05200 -5.28000 47.17300
H  27.48900 -1.32000 43.09900
H  29.46000 2.28100 44.36700
H  27.79800 2.62900 44.97600
H  28.26000 2.68500 43.17500
Mg 5.67200 53.12800 41.76300
C  5.83400 49.76300 40.66400
C  8.59000 53.63300 40.15400
C  5.28800 56.36000 42.27900
C  2.47900 52.55800 42.95800
N  6.88600 51.87800 40.34400
C  6.78900 50.55200 40.07700
C  7.84800 50.08000 39.08800
C  8.96700 51.11600 39.47900
C  8.09800 52.31300 39.99900
C  9.98500 50.55400 40.49200
C  7.33300 50.29500 37.63600
C  7.81300 49.22000 36.71800
H  6.83300 48.75200 35.55700
N  6.85300 54.81500 41.28100
C  8.06800 54.80500 40.73100
C  8.68200 56.08200 40.90200
C  7.70200 56.91400 41.41200
C  6.51100 56.03500 41.70000
C  9.97300 56.46400 40.38200
C  7.85100 58.42500 41.57400
O  8.84900 59.01000 41.17000
C  6.80300 59.25000 42.05400
N  3.96700 54.33200 42.25900
C  4.18900 55.62600 42.56100
C  2.96200 56.25100 43.22500
C  1.92800 55.01100 43.20200
C  2.87900 53.87100 42.87200
C  3.10900 56.72500 44.71600
C  0.72500 55.19100 42.20100
C  -0.67400 55.05200 42.88100
N  4.38300 51.47300 41.83500
C  3.19100 51.39400 42.54200
C  2.74300 49.97500 42.50100
C  3.80000 49.23200 41.84600
C  4.76700 50.21000 41.43900
C  1.46800 49.41300 43.10300
C  4.38200 47.92300 41.47400
O  3.89400 46.76600 41.60800
C  5.68600 48.22900 40.69700
C  5.57100 47.72600 39.38400
O  4.83900 48.13100 38.46900
O  6.44500 46.61400 39.34500
C  6.32400 45.75900 38.17200
H  9.65400 53.75600 39.94300
H  5.06400 57.39300 42.55300
H  1.50600 52.41100 43.43100
H  8.08300 49.04800 39.35000
H  9.60300 51.48100 38.67300
H  10.28400 51.38600 41.12900
H  10.81300 50.11000 39.93800
H  9.59700 49.67200 41.00200
H  7.79000 51.22600 37.30100
H  6.25900 50.40000 37.48300
H  7.98100 48.25600 37.19800
H  8.80600 49.40200 36.30600
H  9.82200 56.93500 39.41000
H  10.71000 55.66100 40.37800
H  10.48700 57.19600 41.00600
H  6.99400 60.32200 42.10100
H  6.64500 58.87000 43.06300
H  6.00700 59.08100 41.32900
H  2.61400 57.13800 42.69600
H  1.49200 54.98900 44.20100
H  3.97600 56.17700 45.08300
H  2.22200 56.42500 45.27400
H  3.41900 57.76900 44.68500
H  0.94200 54.65200 41.27800
H  0.67100 56.23800 41.90500
H  -0.77100 55.70100 43.75100
H  -0.90200 53.99600 43.02900
H  -1.37300 55.41000 42.12600
H  1.11200 48.55500 42.53300
H  0.73600 50.21700 43.17800
H  1.77200 49.11200 44.10600
H  6.60500 47.86500 41.15700
H  7.26500 45.61000 37.64200
H  5.60000 46.10200 37.43200
H  5.86700 44.85700 38.57700

