158

Mg 29.24200 58.87700 41.10300
C  26.08300 57.45600 40.46800
C  30.80600 56.20100 39.67500
C  32.04900 60.62600 41.39000
C  27.44700 61.95800 41.79800
N  28.48500 57.11100 40.04300
C  27.16300 56.66700 40.01900
C  27.10000 55.36700 39.26400
C  28.59200 54.94000 39.18100
C  29.38500 56.15400 39.64800
C  28.94300 53.73000 40.04200
C  26.40700 55.66100 37.85400
C  25.08900 55.02300 37.42300
H  25.03000 54.40500 36.05900
N  31.19200 58.43600 40.63300
C  31.67400 57.26100 40.11800
C  33.17100 57.41000 40.06100
C  33.52900 58.73300 40.56300
C  32.22800 59.31000 40.94700
C  34.09900 56.42500 39.39900
C  35.00600 59.23500 40.71000
O  35.84900 58.42200 40.53600
C  35.36400 60.61900 41.06900
N  29.64100 61.01000 41.27500
C  30.88000 61.38900 41.57900
C  30.89500 62.90100 41.94400
C  29.42000 63.34500 41.78900
C  28.75100 62.03200 41.56600
C  31.57300 63.30600 43.28000
C  29.24200 64.49500 40.75800
C  28.42500 65.64400 41.35800
N  27.21900 59.57000 41.23800
C  26.67400 60.82400 41.54600
C  25.23000 60.73600 41.64700
C  24.93700 59.44200 41.27200
C  26.21200 58.77100 41.01200
C  24.30800 61.78900 41.80500
C  23.85800 58.52700 41.03600
O  22.63000 58.69600 41.13900
C  24.58300 57.16300 40.46800
C  24.25000 56.09600 41.48600
O  24.62800 56.15400 42.62300
O  23.69900 54.96700 40.89600
C  23.68100 53.75700 41.74300
H  31.26600 55.23700 39.44700
H  32.98700 61.08900 41.70400
H  26.93600 62.89300 42.03500
H  26.46000 54.63100 39.75000
H  28.87300 54.60200 38.18400
H  29.96100 53.58100 40.40300
H  28.61900 52.73400 39.74000
H  28.26400 53.69100 40.89400
H  27.10200 55.42600 37.04800
H  26.21000 56.73200 37.82400
H  24.39700 55.86400 37.37000
H  24.79800 54.29600 38.18000
H  33.58400 55.46400 39.38900
H  34.96500 56.23800 40.03400
H  34.40000 56.71900 38.39400
H  35.01600 61.32800 40.31800
H  36.43900 60.78400 41.14200
H  35.02700 60.82100 42.08500
H  31.53500 63.33400 41.17500
H  28.96000 63.62300 42.73800
H  31.91700 62.39400 43.76900
H  30.84100 63.76000 43.94800
H  32.45800 63.89800 43.04500
H  28.75900 64.05600 39.88500
H  30.16500 64.94200 40.39100
H  28.99800 66.54000 41.12100
H  28.21300 65.67300 42.42600
H  27.48500 65.61700 40.80700
H  24.39600 62.49800 40.98200
H  24.51500 62.26000 42.76600
H  23.26900 61.46200 41.81800
H  24.12700 56.85200 39.52800
H  22.62700 53.55000 41.93100
H  24.30400 53.77800 42.63700
H  24.17300 53.00700 41.12500
Mg -9.22200 41.12300 42.25100
C  -8.33100 37.88200 41.70200
C  -6.43200 42.02200 40.35500
C  -10.35300 44.17900 42.20100
C  -12.12900 39.97900 43.86300
N  -7.65800 40.02100 41.05400
C  -7.49800 38.74600 41.05000
C  -6.33100 38.32800 40.25900
C  -5.61900 39.68200 39.87100
C  -6.59900 40.62100 40.47800
C  -4.15300 39.87300 40.28300
C  -6.68000 37.48500 38.91400
C  -5.50200 36.54400 38.52000
H  -4.60200 37.04300 37.39500
N  -8.50300 42.81900 41.38900
C  -7.30700 43.02200 40.70700
C  -7.17100 44.41700 40.29600
C  -8.32400 45.06900 40.81700
C  -9.10100 44.05500 41.61000
C  -5.99400 44.86500 39.42200
C  -8.62100 46.54700 40.51200
O  -7.91000 47.18700 39.73800
C  -9.78300 47.23500 41.12800
N  -11.13300 41.94400 42.69400
C  -11.31200 43.31500 42.74200
C  -12.62100 43.69100 43.45100
C  -13.17500 42.30900 43.99300
C  -12.12500 41.31200 43.46700
C  -12.40800 44.77800 44.50200
C  -14.68800 42.10900 43.51200
C  -15.72500 41.67700 44.50800
N  -10.05200 39.31200 42.88300
C  -11.19100 38.97400 43.45500
C  -11.28900 37.56200 43.69000
C  -10.12700 37.09800 42.97100
C  -9.47100 38.17500 42.41800
C  -12.39900 36.77700 44.44900
C  -9.30900 35.91400 42.80700
O  -9.48500 34.79300 43.22100
C  -8.18800 36.40700 41.83000
C  -6.89600 36.03600 42.44300
O  -6.52700 36.46200 43.56800
O  -6.25900 34.97700 41.80600
C  -5.14700 34.35400 42.57600
H  -5.57900 42.31000 39.73800
H  -10.69600 45.20700 42.33500
H  -13.00800 39.73400 44.46300
H  -5.66200 37.86800 40.98600
H  -5.74100 39.82800 38.79800
H  -4.09400 40.37600 41.24800
H  -3.59000 40.53000 39.62000
H  -3.64900 38.91000 40.20400
H  -7.02600 38.12700 38.10400
H  -7.51400 36.79800 39.05800
H  -5.98700 35.64500 38.14100
H  -4.98400 36.39400 39.46700
H  -6.15100 44.86000 38.34400
H  -5.09500 44.28600 39.63200
H  -5.72600 45.89200 39.67200
H  -9.89100 48.22300 40.68000
H  -9.70500 47.31300 42.21200
H  -10.69100 46.66300 40.93400
H  -13.14200 44.18500 42.63100
H  -13.01800 42.31500 45.07200
H  -12.90400 45.65500 44.08600
H  -11.39000 45.16900 44.49900
H  -12.68000 44.46100 45.50900
H  -14.63300 41.31000 42.77400
H  -15.01000 42.96400 42.91700
H  -15.39000 41.93000 45.51400
H  -16.05100 40.63800 44.45600
H  -16.55900 42.36700 44.38400
H  -13.37400 36.60900 43.99100
H  -12.51600 37.14800 45.46700
H  -12.04000 35.76200 44.61300
H  -8.38400 35.99300 40.84100
H  -5.48000 34.20300 43.60300
H  -4.19900 34.89100 42.54800
H  -4.95400 33.38700 42.11200

