158

Mg 44.01100 3.59300 47.67100
C  41.87800 6.37200 47.09000
C  41.34800 1.55900 47.23500
C  46.13700 1.03300 47.72100
C  46.74600 5.88100 47.35500
N  41.84400 3.90300 47.17800
C  41.17600 5.12700 47.06700
C  39.69800 4.81400 46.84100
C  39.50100 3.41800 47.35200
C  40.98600 2.87100 47.36200
C  38.67300 3.14500 48.60700
C  39.29800 4.97500 45.35500
C  38.37500 6.14500 45.05300
H  37.64500 6.07800 43.63200
N  43.74700 1.54100 47.53300
C  42.59700 0.88900 47.44300
C  42.81200 -0.57300 47.57800
C  44.20600 -0.73800 47.75500
C  44.78300 0.63800 47.66100
C  41.70800 -1.65900 47.45900
C  44.93800 -2.08400 48.00300
O  44.30500 -3.13800 47.86100
C  46.46200 -2.22800 48.34700
N  46.13400 3.46500 47.40900
C  46.74100 2.22900 47.65000
C  48.23000 2.42500 47.80300
C  48.44600 3.92900 47.38100
C  47.03100 4.49300 47.48000
C  48.77400 2.15800 49.20000
C  49.09900 4.14600 46.02900
C  48.48500 3.36800 44.77100
N  44.32500 5.68000 47.22600
C  45.44000 6.47100 47.23500
C  45.05900 7.88100 47.16900
C  43.68700 7.83500 47.08500
C  43.25100 6.52300 47.10700
C  46.00000 9.01400 47.15900
C  42.47600 8.67300 47.03100
O  42.44900 9.85200 47.01100
C  41.29600 7.76000 46.94100
C  40.28400 8.14700 47.93700
O  40.40200 8.04700 49.14700
O  39.08300 8.50300 47.34400
C  37.87100 8.60100 48.22700
H  40.51200 0.85700 47.22700
H  46.83800 0.20400 47.84300
H  47.51200 6.65200 47.46200
H  39.18200 5.64800 47.31700
H  38.97700 2.81300 46.61100
H  39.38000 3.07300 49.43400
H  37.98200 2.30600 48.52300
H  38.03600 4.00400 48.81400
H  38.80000 4.11600 44.90400
H  40.24200 5.17300 44.84800
H  38.91800 7.05100 44.78200
H  37.74100 6.32400 45.92200
H  42.10500 -2.32200 46.69100
H  40.75500 -1.31100 47.06100
H  41.59400 -2.24200 48.37300
H  47.04900 -2.27100 47.43000
H  46.56700 -3.17700 48.87300
H  46.77600 -1.45900 49.05300
H  48.90400 1.82400 47.19200
H  49.00100 4.47100 48.14700
H  49.33300 1.22200 49.20700
H  48.00400 2.07900 49.96700
H  49.49200 2.93100 49.47500
H  50.11700 3.75900 46.07200
H  49.14500 5.18200 45.69500
H  48.98600 2.46000 44.43600
H  48.64600 3.99600 43.89500
H  47.41600 3.20700 44.90900
H  46.74500 9.05000 47.95400
H  45.37500 9.90700 47.14900
H  46.47400 8.88200 46.18600
H  40.79000 7.95000 45.99500
H  37.97900 7.85500 49.01400
H  37.01700 8.30600 47.61800
H  37.85700 9.62100 48.61100
Mg 35.82900 0.79000 29.40900
C  33.55200 2.03400 31.97100
C  38.20500 0.65600 31.88100
C  38.06300 -0.09100 27.05900
C  33.51400 1.70900 26.98900
N  35.80600 0.98500 31.75800
C  34.82600 1.61300 32.50500
C  35.28300 1.70100 33.96900
C  36.84200 1.60600 33.84400
C  36.96500 1.08500 32.39700
C  37.52700 2.97100 34.11200
C  34.57400 0.68500 34.84900
C  34.38600 1.01200 36.36800
H  35.16400 2.21600 36.98300
N  37.80600 0.22300 29.48400
C  38.53900 0.17000 30.60200
C  39.82100 -0.38000 30.29500
C  39.85600 -0.54500 28.84700
C  38.50600 -0.18000 28.40400
C  40.89200 -0.63900 31.36600
C  40.95200 -1.15800 27.94800
O  40.87800 -1.25800 26.68900
C  42.20100 -1.73300 28.67000
N  35.92500 1.07200 27.35300
C  36.84900 0.53500 26.59100
C  36.50400 0.60100 25.01400
C  34.97200 1.00000 25.06700
C  34.81500 1.33600 26.56400
C  37.44400 1.58000 24.14200
C  34.03200 -0.22300 24.72400
C  32.81800 0.14700 23.87300
N  34.00900 1.63100 29.41000
C  33.18700 2.03700 28.37600
C  31.91100 2.55800 28.84800
C  32.08700 2.62600 30.23500
C  33.35300 2.11400 30.55200
C  30.66800 2.89600 28.16300
C  31.37600 2.90200 31.43000
O  30.21300 3.29000 31.55300
C  32.36100 2.66600 32.67500
C  32.60100 4.07600 33.21800
O  33.45600 4.82900 32.82000
O  31.62400 4.44100 34.11900
C  31.72700 5.62700 34.80900
H  38.83900 0.51400 32.75900
H  38.73100 -0.50100 26.29900
H  32.75700 1.96200 26.24400
H  35.07300 2.74300 34.21200
H  37.26500 0.83900 34.49300
H  38.15600 3.30000 33.28500
H  38.19200 2.77000 34.95200
H  36.94800 3.81900 34.47800
H  35.16300 -0.20600 34.63100
H  33.60100 0.44300 34.42100
H  34.59300 0.06200 36.86000
H  33.35100 1.35200 36.37300
H  41.72000 -0.01700 31.02500
H  41.35300 -1.62600 31.40800
H  40.80300 -0.40400 32.42600
H  42.78000 -0.86800 28.99200
H  42.74800 -2.41100 28.01400
H  41.81900 -2.21900 29.56800
H  36.67000 -0.41500 24.65800
H  34.80000 1.87200 24.43600
H  37.14000 2.60500 23.92800
H  37.58900 1.18100 23.13900
H  38.44700 1.76100 24.52900
H  33.66800 -0.53500 25.70300
H  34.59800 -0.98700 24.19100
H  33.02100 0.99500 23.21900
H  32.03000 0.49700 24.54000
H  32.48300 -0.68500 23.25300
H  29.90600 2.12600 28.03700
H  30.77300 3.41500 27.21100
H  30.17000 3.66700 28.75100
H  31.87500 1.97600 33.36400
H  31.07700 5.54000 35.67900
H  31.30900 6.48200 34.27800
H  32.71800 5.98700 35.08400

