158

Mg 53.55300 24.24900 45.07600
C  51.30400 26.55400 43.82100
C  52.05500 21.84800 43.08100
C  56.17100 22.22800 45.43400
C  55.44600 26.94600 46.40800
N  52.00100 24.18200 43.51000
C  51.28500 25.34900 43.11500
C  50.26500 24.98200 42.01100
C  50.12300 23.46800 42.25500
C  51.49500 23.11400 42.97200
C  48.82700 23.18100 43.09500
C  50.90200 25.35700 40.67200
C  49.91500 25.74300 39.59200
H  50.54200 26.46000 38.35800
N  53.94600 22.21100 44.63800
C  53.19000 21.42500 43.84700
C  53.69500 20.07300 43.85400
C  54.83300 20.12700 44.77000
C  55.02500 21.51300 44.99500
C  53.23100 18.94600 43.00900
C  55.66500 18.93800 45.12700
O  55.40200 17.82200 44.68100
C  56.96600 18.99800 45.94900
N  55.56300 24.55200 45.87100
C  56.43200 23.52100 45.86600
C  57.79100 23.99900 46.30800
C  57.50200 25.48100 46.71300
C  56.02700 25.70700 46.37600
C  58.51700 23.22100 47.51100
C  58.52000 26.50600 46.09100
C  59.12100 27.53800 47.06500
N  53.31600 26.36700 45.31200
C  54.15600 27.31900 45.86000
C  53.36300 28.54400 45.99600
C  52.18400 28.30400 45.22800
C  52.28700 26.96300 44.80600
C  53.74700 29.81000 46.70900
C  50.91100 28.87500 44.77700
O  50.38500 29.98400 44.99500
C  50.31800 27.69300 43.85000
C  50.07900 28.33600 42.54800
O  50.93400 28.76800 41.80200
O  48.74100 28.37000 42.27200
C  48.29200 28.90600 40.98000
H  51.53800 21.16100 42.40700
H  57.10100 21.66400 45.53200
H  56.12000 27.78500 46.58800
H  49.29800 25.47400 42.11900
H  50.08300 22.87100 41.34400
H  49.17600 22.57500 43.93200
H  48.14100 22.62100 42.46000
H  48.35600 24.02000 43.60800
H  51.55800 24.61900 40.21000
H  51.42400 26.26500 40.97500
H  49.02200 26.28100 39.91200
H  49.50700 24.80900 39.20400
H  54.02000 18.51500 42.39200
H  52.43000 19.20600 42.31700
H  52.72000 18.24000 43.66300
H  57.13000 18.02400 46.40900
H  56.97100 19.89000 46.57600
H  57.77700 19.13700 45.23400
H  58.42700 23.91300 45.42700
H  57.54100 25.65500 47.78800
H  58.56500 23.92100 48.34600
H  59.48800 22.78900 47.27100
H  58.08000 22.34800 47.99600
H  57.94700 27.11900 45.39500
H  59.30700 25.91500 45.62200
H  59.06400 27.37300 48.14100
H  58.59800 28.47600 46.87800
H  60.10600 27.84800 46.71600
H  53.77200 30.56600 45.92400
H  54.74900 29.78700 47.13500
H  53.00500 30.03700 47.47500
H  49.36300 27.34400 44.24200
H  48.34700 29.98600 41.11800
H  47.26800 28.53600 40.93700
H  48.97700 28.51900 40.22600
Mg 1.96300 42.72000 26.41100
C  3.43500 42.61400 29.49400
C  -1.06700 41.69500 28.28200
C  0.39900 42.10600 23.57700
C  4.92000 42.95600 24.79100
N  1.31700 42.32100 28.67900
C  2.06100 42.46500 29.67700
C  1.35500 42.38900 31.10700
C  -0.09600 41.97100 30.60900
C  0.03500 42.07900 29.05700
C  -0.55100 40.56700 31.06900
C  1.39500 43.76900 31.73800
C  1.90800 43.80500 33.22300
H  1.49500 42.69600 34.21900
N  -0.09900 42.22900 25.93700
C  -1.13100 41.79900 26.83300
C  -2.33000 41.47200 26.07800
C  -1.96500 41.63700 24.73200
C  -0.53500 41.98700 24.66800
C  -3.62200 40.97200 26.70000
C  -2.76200 41.35100 23.42400
O  -2.31600 41.45100 22.25200
C  -4.08100 40.82500 23.51900
N  2.60500 42.72400 24.33700
C  1.77400 42.43700 23.33900
C  2.51700 42.43300 21.95100
C  3.96600 42.71500 22.42900
C  3.85400 42.84800 23.91600
C  2.29400 41.12300 21.17700
C  4.44800 44.00500 21.75900
C  3.90300 45.33600 22.37700
N  3.77700 42.85300 26.90300
C  4.94800 42.93100 26.22200
C  6.05400 43.00800 27.06500
C  5.50600 42.96600 28.38600
C  4.10500 42.85000 28.20000
C  7.45400 43.18000 26.62100
C  5.87300 42.95100 29.84100
O  6.98500 43.02200 30.39800
C  4.50100 42.71200 30.55600
C  4.76700 41.47100 31.36900
O  4.59300 40.33700 30.98500
O  5.21800 41.86600 32.57600
C  5.52600 40.76100 33.46300
H  -2.04900 41.51000 28.72100
H  -0.02900 41.87000 22.60100
H  5.86800 43.07700 24.26100
H  1.76400 41.70100 31.84700
H  -0.87700 42.60500 31.02800
H  -1.24700 40.64500 31.90500
H  0.35200 40.08900 31.45100
H  -0.94800 40.01300 30.21800
H  0.44400 44.24200 31.49300
H  2.13500 44.43700 31.29700
H  1.47000 44.77400 33.46200
H  2.97900 43.98300 33.32500
H  -4.42400 41.71000 26.70700
H  -3.47300 40.37900 27.60300
H  -4.00100 40.24000 25.98700
H  -4.63700 41.01700 22.60200
H  -4.56800 41.50700 24.21600
H  -4.03500 39.79200 23.86600
H  2.10800 43.27700 21.39600
H  4.67400 41.89300 22.31700
H  1.85200 41.36000 20.20900
H  1.68300 40.41200 21.73300
H  3.22900 40.59900 20.97900
H  4.23000 44.00100 20.69100
H  5.53600 43.98000 21.69200
H  3.47100 45.96100 21.59500
H  4.82000 45.78000 22.76400
H  3.16900 45.29300 23.18200
H  7.53100 42.96000 25.55600
H  8.16800 42.59100 27.19700
H  7.70400 44.23800 26.69400
H  4.33600 43.59200 31.17800
H  5.99900 41.19200 34.34500
H  6.33600 40.20200 32.99500
H  4.65000 40.12300 33.58300

