158

Mg 48.73600 45.42600 43.78400
C  45.57100 45.83600 42.59100
C  48.79600 42.26700 42.19700
C  51.97700 45.18100 44.70100
C  48.76000 48.84400 44.83500
N  47.40600 44.31400 42.33300
C  46.12800 44.64600 42.13300
C  45.51800 43.64200 41.09700
C  46.47100 42.37300 41.18700
C  47.63900 43.03500 41.99100
C  45.84300 41.15200 41.99800
C  45.47500 44.32600 39.68700
C  44.04500 44.39800 39.02800
H  43.70300 43.52700 37.83000
N  50.21500 43.93000 43.38400
C  50.02700 42.67700 42.80100
C  51.25100 41.95600 42.92400
C  52.14700 42.70500 43.78600
C  51.47900 43.97600 44.02700
C  51.33800 40.56300 42.37600
C  53.53000 42.23700 44.19100
O  53.89000 41.06500 43.89100
C  54.42600 42.94300 45.02200
N  50.22700 46.91400 44.55500
C  51.46700 46.51000 44.89000
C  52.30300 47.67600 45.48600
C  51.23400 48.77600 45.69300
C  49.95800 48.17800 45.03000
C  53.12800 47.30600 46.73600
C  51.60800 50.15200 45.19000
C  52.00500 51.23600 46.20100
N  47.42500 47.00000 43.95500
C  47.52600 48.32200 44.37400
C  46.33600 49.02400 44.03100
C  45.46300 48.02800 43.51600
C  46.24200 46.89300 43.32600
C  46.23600 50.56800 44.13700
C  44.14100 47.78600 42.86500
O  43.20300 48.45300 42.61000
C  44.13400 46.34700 42.32500
C  43.14900 45.56500 43.08200
O  43.33000 44.66700 43.83200
O  41.90600 46.06900 42.69900
C  40.79300 45.43400 43.40800
H  48.77800 41.28700 41.71700
H  52.99900 45.07600 45.07000
H  48.77700 49.84000 45.28300
H  44.58900 43.30800 41.55900
H  46.74900 42.15000 40.15700
H  45.96400 41.36700 43.05900
H  46.40600 40.22500 41.88700
H  44.77900 41.05100 41.78300
H  46.19900 43.80400 39.06200
H  45.82000 45.35200 39.81800
H  43.86600 45.46200 38.87100
H  43.25500 43.98200 39.65300
H  52.40100 40.38100 42.21400
H  50.83500 40.53400 41.41000
H  50.83900 39.88600 43.06900
H  53.98200 43.44400 45.88200
H  54.80000 43.68600 44.31800
H  55.33600 42.37200 45.20800
H  52.94100 47.88400 44.62700
H  51.09300 48.84700 46.77200
H  52.96300 46.26900 47.02900
H  52.92400 47.95100 47.59100
H  54.18000 47.39200 46.46300
H  50.78800 50.50300 44.56300
H  52.53500 49.95500 44.65100
H  51.39100 52.13200 46.11200
H  53.03200 51.57600 46.06800
H  52.03000 50.91800 47.24300
H  46.24500 51.01500 45.13100
H  45.29100 50.82900 43.66100
H  47.09100 50.86000 43.52600
H  43.92400 46.37100 41.25600
H  40.47400 44.54900 42.85700
H  39.98700 46.16600 43.37000
H  41.03000 45.16400 44.43700
Mg -5.03900 26.31500 26.55200
C  -3.75200 27.59700 29.51400
C  -7.13000 24.28800 28.57800
C  -6.13900 24.69400 23.79800
C  -2.78000 28.22300 24.69700
N  -5.18700 25.82100 28.78800
C  -4.57500 26.54100 29.77500
C  -5.07500 26.01000 31.20500
C  -5.88600 24.72800 30.89700
C  -6.12700 24.92700 29.30600
C  -5.33000 23.34100 31.32800
C  -5.90700 27.12200 31.99400
C  -5.98000 27.10300 33.54500
H  -5.68300 25.76200 34.19400
N  -6.27600 24.61100 26.24200
C  -7.18400 24.10400 27.16700
C  -8.21300 23.30000 26.47000
C  -7.84700 23.21900 25.09100
C  -6.74000 24.17800 24.96900
C  -9.29200 22.62600 27.27800
C  -8.41300 22.43500 23.93200
O  -7.92700 22.44900 22.80100
C  -9.48100 21.57100 24.14000
N  -4.49600 26.40500 24.59500
C  -5.16300 25.71200 23.61300
C  -4.68300 26.16300 22.21200
C  -3.61200 27.25300 22.49900
C  -3.62100 27.33600 24.01800
C  -4.16000 25.04200 21.30100
C  -3.85800 28.59600 21.67100
C  -2.84100 28.88700 20.53600
N  -3.48000 27.66400 26.96900
C  -2.71200 28.39500 26.11200
C  -1.92800 29.34200 26.84500
C  -2.31500 29.09700 28.17900
C  -3.24700 28.01800 28.19700
C  -0.93500 30.34000 26.27000
C  -2.03900 29.42200 29.57100
O  -1.29800 30.29200 30.05700
C  -3.03800 28.51500 30.44600
C  -2.14600 27.69800 31.27200
O  -1.37100 26.89400 30.75200
O  -2.09500 28.09400 32.53200
C  -0.90300 27.63400 33.23900
H  -7.93700 23.88000 29.19000
H  -6.55000 24.28300 22.87400
H  -2.09900 28.89800 24.17300
H  -4.24000 25.76600 31.86200
H  -6.84200 24.81200 31.41400
H  -5.19800 22.69400 30.46100
H  -6.03300 22.85200 32.00200
H  -4.37600 23.29000 31.85300
H  -6.94700 27.01300 31.68500
H  -5.51800 28.11000 31.75000
H  -7.02800 27.38000 33.65400
H  -5.39000 27.85100 34.07600
H  -8.91100 21.83700 27.92600
H  -10.03600 22.11700 26.66500
H  -9.85200 23.34300 27.87900
H  -10.25500 22.32600 24.27200
H  -9.27800 21.02500 25.06100
H  -9.76000 20.96900 23.27500
H  -5.54800 26.68600 21.80400
H  -2.65400 26.88700 22.13100
H  -4.44800 24.10400 21.77600
H  -3.07400 25.11300 21.23900
H  -4.56300 24.97700 20.29100
H  -3.92300 29.44100 22.35600
H  -4.87200 28.67000 21.27900
H  -3.38400 28.73200 19.60400
H  -1.99100 28.20600 20.58700
H  -2.57400 29.94100 20.46900
H  -1.31000 31.36100 26.34300
H  -0.60600 30.11400 25.25600
H  -0.00800 30.34800 26.84400
H  -3.75900 29.02100 31.08800
H  -1.14600 26.58200 33.38700
H  -0.76100 28.26100 34.11900
H  0.02000 27.67200 32.66100

