158

Mg 8.84500 3.37900 27.08600
C  10.12000 1.55900 29.75600
C  7.44900 5.61100 29.16300
C  7.10900 4.48800 24.44500
C  10.16900 0.70500 24.94100
N  8.88100 3.53900 29.31000
C  9.37700 2.70800 30.18300
C  9.13700 3.18800 31.58900
C  8.21300 4.44300 31.33700
C  8.19100 4.59400 29.85600
C  6.87200 4.42800 32.01600
C  10.41400 3.50200 32.48500
C  10.24500 4.51200 33.64300
H  11.06800 4.30600 34.90100
N  7.45200 4.86800 26.80500
C  7.14100 5.78700 27.79600
C  6.27700 6.83200 27.28800
C  6.07300 6.43300 25.91800
C  6.85300 5.16000 25.63600
C  5.81600 8.07200 28.02900
C  5.31500 7.15700 24.78400
O  5.18500 6.79300 23.60900
C  4.71100 8.54800 25.00300
N  8.63900 2.68700 24.98000
C  7.87700 3.39900 24.09100
C  7.88200 2.69100 22.77400
C  8.98200 1.60400 22.96600
C  9.35000 1.73200 24.35000
C  6.48800 2.13800 22.42700
C  10.14200 1.73600 21.89900
C  10.37200 0.61600 20.88700
N  10.05900 1.54900 27.21600
C  10.50100 0.61700 26.29000
C  11.08200 -0.53800 27.00400
C  11.03700 -0.16600 28.36300
C  10.41300 1.12200 28.43900
C  11.53600 -1.80900 26.45400
C  11.36700 -0.49700 29.64000
O  12.00900 -1.46400 30.05400
C  10.76400 0.58800 30.63400
C  9.87600 -0.09000 31.52800
O  8.74300 -0.48700 31.28600
O  10.52100 -0.25500 32.77900
C  9.68400 -0.81300 33.86600
H  6.85900 6.22000 29.85300
H  6.58000 4.88800 23.57700
H  10.47300 -0.14900 24.33200
H  8.55600 2.47100 32.16900
H  8.71200 5.35900 31.65200
H  6.67300 5.47900 32.22900
H  6.85600 3.80500 32.91000
H  6.09800 3.93000 31.43100
H  11.27500 3.79400 31.88400
H  10.66500 2.56700 32.98500
H  9.19000 4.47000 33.91400
H  10.38100 5.52700 33.27000
H  6.08600 8.00000 29.08300
H  4.72700 8.03500 27.99600
H  6.22300 9.02000 27.67600
H  5.46000 9.34000 24.98200
H  4.11100 8.54300 25.91300
H  4.00000 8.66500 24.18500
H  8.16200 3.37200 21.97000
H  8.52100 0.61900 22.88700
H  6.17700 2.50800 21.45000
H  5.63500 2.31500 23.08200
H  6.60600 1.07300 22.22900
H  11.07100 1.87600 22.45000
H  10.04600 2.66100 21.33000
H  9.99600 1.09900 19.98600
H  9.71700 -0.23800 21.05800
H  11.37300 0.22300 20.70800
H  12.57400 -1.85000 26.12500
H  10.79900 -2.01200 25.67800
H  11.42600 -2.45100 27.32800
H  11.58700 1.07200 31.15900
H  8.61400 -0.62600 33.78500
H  10.01700 -0.50500 34.85700
H  9.87200 -1.88700 33.84700
Mg -10.33900 17.74200 42.96700
C  -6.68200 17.89900 43.17100
C  -10.30200 21.02700 42.54000
C  -13.52600 17.48600 42.56000
C  -9.93700 14.21900 42.65800
N  -8.58800 19.26800 42.69200
C  -7.28700 19.18500 43.06200
C  -6.66300 20.55400 43.18200
C  -7.90700 21.52900 43.07900
C  -9.06200 20.56300 42.70100
C  -8.24000 22.54000 44.24800
C  -5.51600 20.80600 42.08000
C  -5.97300 20.73800 40.57900
H  -5.23900 19.85000 39.63000
N  -11.75500 19.07300 42.50000
C  -11.56700 20.40400 42.38100
C  -12.89000 21.04100 42.07800
C  -13.79200 19.99600 42.01500
C  -13.02500 18.76500 42.37500
C  -13.01200 22.57100 41.81800
C  -15.26700 20.15800 41.69100
O  -15.75000 21.26100 41.51200
C  -16.13600 18.97100 41.50500
N  -11.48400 16.05600 42.51300
C  -12.83900 16.21600 42.57000
C  -13.49600 14.88800 42.97400
C  -12.44500 13.87800 42.46300
C  -11.20000 14.75200 42.51000
C  -13.87200 14.77600 44.48300
C  -12.62500 13.23900 40.99900
C  -12.65400 11.65400 40.90000
N  -8.68000 16.30100 43.02700
C  -8.65600 14.93800 42.80700
C  -7.33100 14.32100 42.83600
C  -6.50500 15.50800 43.10000
C  -7.38200 16.63700 43.15900
C  -7.01900 12.92500 42.73500
C  -5.13200 15.98500 43.14000
O  -4.11400 15.32300 43.08800
C  -5.16800 17.51300 43.27700
C  -4.45400 17.91500 44.59800
O  -3.74600 18.92500 44.71300
O  -4.73900 17.01700 45.58100
C  -4.35900 17.27600 46.98200
H  -10.38000 22.11400 42.60800
H  -14.58700 17.25900 42.42900
H  -9.91800 13.12800 42.70500
H  -6.35800 20.67600 44.22100
H  -7.73500 22.10700 42.17100
H  -9.04500 22.11100 44.84400
H  -8.53700 23.49900 43.82300
H  -7.38000 22.63900 44.91100
H  -4.86400 19.95800 42.29100
H  -4.98500 21.74600 42.22300
H  -5.82400 21.70900 40.10500
H  -7.01600 20.42200 40.58100
H  -12.70000 22.86100 40.81500
H  -12.23700 23.02000 42.44000
H  -13.93300 23.10700 42.04300
H  -16.30300 18.46200 42.45500
H  -15.54700 18.27000 40.91400
H  -17.13900 19.18500 41.13500
H  -14.39300 14.79900 42.36200
H  -12.34800 13.06800 43.18600
H  -13.53100 15.73100 44.88200
H  -13.48800 14.00700 45.15300
H  -14.95800 14.74500 44.56600
H  -11.71100 13.45500 40.44600
H  -13.41900 13.68500 40.40100
H  -13.56100 11.32200 40.39300
H  -12.52000 11.25800 41.90700
H  -11.86500 11.25500 40.26200
H  -6.22800 12.79300 41.99700
H  -7.96300 12.54100 42.34800
H  -6.84700 12.38600 43.66700
H  -4.51400 17.82800 42.46300
H  -5.26200 17.84100 47.21200
H  -3.46700 17.90200 46.98400
H  -4.11200 16.30800 47.41800

