158

Mg 1.54500 7.71400 25.00900
C  2.00700 9.56900 27.83400
C  1.57200 4.81100 26.89100
C  1.30100 5.92900 22.14600
C  1.49100 10.63700 23.05300
N  1.72200 7.22900 27.13700
C  1.89500 8.19500 28.13100
C  1.93600 7.45000 29.49900
C  1.99000 5.96900 29.15000
C  1.64000 5.96100 27.68300
C  3.27600 5.09100 29.49000
C  0.82400 7.84100 30.50100
C  1.18100 7.60600 31.99600
H  2.39600 6.70500 32.38600
N  1.53100 5.56900 24.57200
C  1.44200 4.56200 25.44600
C  1.32400 3.26600 24.73400
C  1.27300 3.61500 23.36300
C  1.42700 5.12900 23.25600
C  1.28400 1.95900 25.43400
C  1.25500 2.61800 22.20400
O  1.09300 2.90700 20.97700
C  1.29100 1.11200 22.39900
N  1.20600 8.24600 22.91500
C  1.28500 7.31800 21.95700
C  1.00900 7.98600 20.58300
C  0.76200 9.46500 20.95000
C  1.18200 9.43500 22.34500
C  2.12000 7.80200 19.48300
C  -0.69400 10.06400 20.80100
C  -0.82000 11.57500 20.76200
N  1.68800 9.66400 25.29700
C  1.68100 10.75400 24.40400
C  1.85700 11.98600 25.19500
C  2.03000 11.52400 26.50800
C  1.93300 10.13500 26.53100
C  1.84700 13.38200 24.67700
C  2.24500 12.07100 27.86200
O  2.50700 13.21000 28.23400
C  2.16100 10.77000 28.78300
C  3.26600 10.67600 29.80300
O  4.31500 10.02500 29.61800
O  2.94200 11.39300 30.94500
C  3.94300 11.13400 32.01300
H  1.55700 3.85600 27.42000
H  1.18200 5.43400 21.18000
H  1.64000 11.50000 22.40100
H  2.85900 7.70800 30.01800
H  1.07900 5.58000 29.60500
H  2.90500 4.14800 29.89200
H  3.99800 5.58400 30.14100
H  3.94500 4.85300 28.66300
H  -0.09700 7.32800 30.22400
H  0.69800 8.89500 30.25000
H  0.42300 6.95000 32.42400
H  1.25400 8.56200 32.51400
H  1.94000 1.26400 24.91000
H  0.23700 1.65600 25.45600
H  1.63000 2.05200 26.46400
H  2.32700 0.90100 22.66400
H  1.22700 0.64800 21.41500
H  0.65800 0.70700 23.18900
H  0.05500 7.56400 20.26800
H  1.44900 10.08000 20.36900
H  1.53000 7.62600 18.58400
H  2.71400 6.92600 19.74300
H  2.78900 8.64800 19.32700
H  -1.30500 9.74700 21.64500
H  -1.17100 9.59700 19.94000
H  -0.96300 11.93000 19.74100
H  0.11300 11.95900 21.17400
H  -1.53000 11.88600 21.52800
H  2.80400 13.87300 24.85200
H  1.11300 13.94800 25.25100
H  1.50200 13.47500 23.64700
H  1.23400 10.92700 29.33500
H  4.93900 11.37300 31.64000
H  3.81100 10.22500 32.60000
H  3.88100 11.94800 32.73500
Mg 0.16900 44.05300 25.80700
C  2.51500 43.78900 28.38700
C  -2.30100 43.23400 27.89000
C  -1.74600 44.08000 23.10400
C  2.93600 44.31000 23.50600
N  0.15700 43.51400 27.90900
C  1.15800 43.61700 28.73900
C  0.66300 43.56800 30.19100
C  -0.85900 43.04700 30.03900
C  -1.04200 43.29400 28.52100
C  -1.05000 41.55300 30.56500
C  0.79000 44.94200 30.87900
C  0.49400 44.96600 32.40700
H  0.52800 43.61600 33.15600
N  -1.74800 43.69800 25.50300
C  -2.67500 43.37000 26.49700
C  -3.96000 43.07200 25.87900
C  -3.82600 43.38400 24.50000
C  -2.41300 43.76000 24.29400
C  -5.12900 42.58500 26.72800
C  -4.89300 43.33300 23.45400
O  -4.61900 43.67000 22.27900
C  -6.26100 42.89800 23.76400
N  0.56900 44.37400 23.61400
C  -0.46900 44.34900 22.73700
C  0.01500 44.91600 21.33200
C  1.48900 45.23400 21.60600
C  1.75500 44.63700 22.99600
C  -0.15600 43.93900 20.24600
C  1.96400 46.71300 21.53900
C  1.08400 47.63300 22.42200
N  2.27300 44.06400 25.88000
C  3.25200 44.16100 24.86500
C  4.58500 44.22400 25.49600
C  4.34800 44.11900 26.84100
C  2.95600 44.01000 27.06600
C  5.94400 44.33500 24.78200
C  4.94600 43.99900 28.10200
O  6.10700 43.94700 28.43300
C  3.82400 43.89300 29.16900
C  4.10900 42.77600 30.02300
O  4.22900 41.67100 29.63700
O  4.18900 43.10900 31.35900
C  4.45700 42.12700 32.34100
H  -3.13800 43.22100 28.59100
H  -2.31700 43.96900 22.18000
H  3.75900 44.50600 22.81600
H  1.29700 42.82700 30.67800
H  -1.51000 43.67100 30.65200
H  -1.36300 40.89600 29.75400
H  -1.84700 41.55900 31.30900
H  -0.10900 41.25400 31.02700
H  0.12200 45.58400 30.30500
H  1.79400 45.34900 30.75900
H  -0.43700 45.50600 32.57400
H  1.23400 45.50600 32.99700
H  -5.89400 43.35900 26.78900
H  -4.82600 42.36700 27.75200
H  -5.53800 41.65700 26.32900
H  -6.44800 41.89400 24.14500
H  -6.84300 42.94300 22.84300
H  -6.67300 43.49900 24.57600
H  -0.45700 45.86200 21.06800
H  2.18000 44.76700 20.90300
H  -1.22700 43.82700 20.07600
H  0.26400 42.96100 20.47800
H  0.23300 44.32600 19.30400
H  1.76100 46.99500 20.50600
H  3.01900 46.65500 21.80900
H  0.42200 47.02600 23.04000
H  0.51400 48.43400 21.95100
H  1.68200 48.30000 23.04300
H  5.89100 44.64200 23.73700
H  6.36900 43.34600 24.94900
H  6.57000 45.07200 25.28500
H  3.89700 44.78100 29.79800
H  4.09900 42.41700 33.32900
H  5.48900 41.78600 32.42400
H  3.75700 41.31400 32.14700

