158

Mg 8.24400 3.97600 27.83200
C  9.46300 2.61000 30.76100
C  6.40300 6.18100 29.66300
C  6.85500 4.94800 24.95500
C  9.66700 1.16800 26.12800
N  7.84700 4.17700 30.06600
C  8.63200 3.70000 31.06800
C  8.44700 4.44200 32.39400
C  7.29800 5.48200 32.00200
C  7.19800 5.32500 30.45700
C  5.95300 5.39400 32.75200
C  9.73200 5.09600 33.06900
C  10.22300 4.51000 34.43200
H  10.49100 5.52500 35.62800
N  6.77800 5.37300 27.40900
C  6.18900 6.24300 28.33100
C  5.23400 7.14700 27.51200
C  5.43700 6.81500 26.14700
C  6.39500 5.65600 26.07700
C  4.25100 8.12600 28.08400
C  4.78500 7.48400 24.91500
O  4.92200 7.04700 23.77600
C  4.07500 8.82100 24.96100
N  8.09800 3.08900 25.95500
C  7.60900 3.79900 24.86900
C  8.01100 3.13000 23.55700
C  8.63300 1.81600 23.97000
C  8.77000 1.97200 25.46200
C  6.80500 2.95900 22.60900
C  9.88800 1.52100 23.11100
C  9.74400 0.84000 21.73800
N  9.48700 2.30600 28.25700
C  10.03800 1.30500 27.49300
C  10.86100 0.43500 28.23700
C  10.67600 0.83200 29.58400
C  9.78900 1.99200 29.52100
C  11.37000 -0.89800 27.70400
C  10.89700 0.61300 31.01100
O  11.62300 -0.22600 31.51800
C  10.19200 1.83700 31.80500
C  9.38400 1.31400 32.90500
O  8.20400 1.01300 32.90800
O  10.13500 1.32600 34.04300
C  9.46600 0.89300 35.25400
H  5.88800 6.94200 30.25200
H  6.51600 5.34600 23.99600
H  10.05900 0.39900 25.46000
H  8.06900 3.70600 33.10400
H  7.60700 6.49900 32.24700
H  5.89200 6.12900 33.55400
H  5.65600 4.41000 33.11500
H  5.14600 5.69400 32.08400
H  9.42000 6.11300 33.30500
H  10.53700 4.91000 32.35800
H  11.20200 4.05800 34.27100
H  9.53500 3.80800 34.90300
H  4.32200 8.11900 29.17200
H  3.31300 7.78700 27.64400
H  4.40800 9.14100 27.71900
H  4.61300 9.62200 25.46700
H  3.16800 8.60000 25.52400
H  3.94500 9.25300 23.96900
H  8.64500 3.89900 23.11400
H  7.90000 1.02400 23.81900
H  5.88700 3.15100 23.16400
H  6.71200 1.94300 22.22600
H  6.98900 3.56600 21.72200
H  10.55100 0.83000 23.63200
H  10.50300 2.40300 22.93400
H  10.28600 -0.10200 21.65800
H  10.14200 1.49900 20.96600
H  8.69200 0.59800 21.58900
H  12.45600 -0.86300 27.61400
H  11.00500 -1.02500 26.68400
H  11.03000 -1.60700 28.45900
H  11.06300 2.36400 32.19400
H  8.94400 -0.05500 35.12700
H  8.77800 1.69200 35.53200
H  10.17200 0.80800 36.08000
Mg 34.90800 2.49000 29.58800
C  32.84300 3.73000 32.11000
C  37.42600 2.32000 31.81200
C  37.10800 1.93200 26.97800
C  32.40700 3.38700 27.23400
N  35.10000 2.85500 31.70300
C  34.08200 3.27300 32.55900
C  34.56800 3.33500 33.99300
C  36.16600 3.19400 33.79000
C  36.22700 2.76600 32.35300
C  37.03700 4.46400 34.06300
C  33.83600 2.45900 34.97300
C  33.52300 3.03100 36.37100
H  34.59100 3.89900 37.04800
N  37.00500 2.02700 29.39300
C  37.79600 1.93800 30.53300
C  39.13100 1.59100 30.05800
C  39.09700 1.48500 28.60600
C  37.72200 1.74300 28.23300
C  40.31000 1.50300 31.01500
C  40.27700 1.28100 27.67600
O  40.18700 1.46700 26.47400
C  41.61500 0.84200 28.21900
N  34.79900 2.57400 27.46200
C  35.78400 2.30300 26.60600
C  35.37600 2.43600 25.19100
C  33.77500 2.41300 25.27500
C  33.61600 2.79000 26.73700
C  35.88600 3.74800 24.49600
C  33.12500 1.00100 25.03100
C  31.88000 0.86000 24.05300
N  32.95700 3.28400 29.65600
C  32.07800 3.58900 28.63200
C  30.82700 4.08400 29.19000
C  31.10600 4.09800 30.58900
C  32.39600 3.69400 30.79000
C  29.61600 4.58300 28.42200
C  30.53700 4.48600 31.81600
O  29.38800 4.93900 31.99800
C  31.69400 4.31200 32.94000
C  31.94500 5.65900 33.55700
O  32.88000 6.37900 33.20300
O  31.11300 5.97500 34.56400
C  31.46600 7.10400 35.45800
H  38.24600 2.31900 32.53300
H  37.86400 1.74000 26.21400
H  31.59100 3.49400 26.51500
H  34.47900 4.37800 34.29700
H  36.68900 2.41600 34.34700
H  37.54500 4.78300 33.15200
H  37.82900 4.11100 34.72300
H  36.51300 5.31700 34.49400
H  34.24500 1.44900 35.00000
H  32.87400 2.26100 34.50200
H  33.49100 2.25600 37.13700
H  32.62900 3.65000 36.30500
H  40.06900 1.75500 32.04800
H  41.24000 2.03500 30.81800
H  40.54100 0.44000 30.95200
H  42.27400 0.73900 27.35700
H  41.74300 -0.06500 28.81000
H  42.10200 1.63600 28.78400
H  35.63000 1.55600 24.60000
H  33.28600 3.20300 24.70500
H  36.40600 4.40300 25.19400
H  34.98600 4.25300 24.14600
H  36.65400 3.49500 23.76500
H  32.83400 0.53400 25.97200
H  33.89200 0.29700 24.70800
H  31.06100 0.31100 24.51600
H  32.33400 0.31300 23.22700
H  31.52500 1.83800 23.72700
H  29.20800 3.75400 27.84500
H  30.03000 5.26100 27.67400
H  28.89100 5.09300 29.05600
H  31.32800 3.65800 33.73200
H  30.81500 7.97800 35.45100
H  32.47500 7.44300 35.22000
H  31.35600 6.68700 36.45900

