158

Mg 40.96200 8.98600 30.05500
C  42.65200 10.33300 32.66100
C  38.63600 7.62900 32.28400
C  39.42900 7.34700 27.47600
C  43.67000 9.60100 27.92100
N  40.74800 8.98600 32.22300
C  41.48400 9.73700 33.10000
C  41.00600 9.61700 34.53400
C  39.68800 8.78100 34.40300
C  39.67000 8.38500 32.87500
C  39.55600 7.54600 35.31100
C  40.80500 10.97700 35.14600
C  40.32800 10.98400 36.62200
H  40.98000 11.89800 37.57700
N  39.17800 7.75100 29.91200
C  38.38000 7.34200 30.96400
C  37.19700 6.67100 30.35400
C  37.36600 6.67700 28.97900
C  38.72000 7.29000 28.70300
C  35.95600 6.31300 31.14800
C  36.38400 6.31300 27.84300
O  36.62300 6.49300 26.63300
C  35.01000 5.82100 28.19400
N  41.41000 8.53500 27.98000
C  40.63400 7.86600 27.13700
C  41.17700 7.77800 25.74800
C  42.42000 8.75000 25.83700
C  42.50800 8.99800 27.37800
C  41.55300 6.25600 25.43800
C  42.22900 10.08800 25.09000
C  43.33200 10.73900 24.25900
N  42.79000 9.85900 30.17300
C  43.79400 10.06800 29.24400
C  44.95200 10.73500 29.87200
C  44.53300 10.86500 31.24400
C  43.20200 10.26600 31.37000
C  46.16600 11.32200 29.27700
C  44.97000 11.29800 32.51700
O  46.00300 11.84400 32.80000
C  43.77000 11.07000 33.44700
C  44.27300 10.18900 34.55200
O  44.62700 8.98500 34.45900
O  44.14100 10.81500 35.76200
C  44.39800 9.95800 36.94200
H  37.91700 7.33600 33.05300
H  38.98400 6.79700 26.64500
H  44.43000 9.78700 27.16000
H  41.76500 9.05000 35.07200
H  38.75700 9.33600 34.51600
H  40.47500 7.27800 35.83300
H  39.25800 6.65300 34.76100
H  38.74000 7.81800 35.98000
H  39.97400 11.34600 34.54500
H  41.68100 11.62200 35.07500
H  40.37800 9.97300 37.02400
H  39.26400 11.22100 36.63700
H  35.74400 5.26400 30.93900
H  35.07700 6.94200 31.00800
H  36.23100 6.40300 32.19900
H  34.43700 6.65800 28.59100
H  35.01400 5.05600 28.97100
H  34.55800 5.44500 27.27600
H  40.44800 7.97400 24.96100
H  43.33700 8.24000 25.54300
H  41.22700 5.52300 26.17600
H  42.61500 6.11900 25.23500
H  41.11900 5.96600 24.48100
H  41.83300 10.81500 25.79900
H  41.42500 10.05200 24.35500
H  43.38000 11.81200 24.44200
H  43.13000 10.65900 23.19100
H  44.31000 10.26600 24.35000
H  46.42200 10.79300 28.35900
H  47.03700 11.26400 29.93000
H  46.04200 12.35200 28.94300
H  43.39700 11.99400 33.88900
H  45.43200 9.96900 37.28800
H  43.96500 8.95800 36.91500
H  43.93100 10.49700 37.76700
Mg -9.99800 17.61900 41.42200
C  -6.56300 16.91500 41.55700
C  -9.03500 20.85200 40.57200
C  -13.10500 18.17900 40.53200
C  -10.69300 14.26600 41.67600
N  -8.01400 18.72100 40.96000
C  -6.75900 18.23800 41.14100
C  -5.72900 19.23200 40.74500
C  -6.49300 20.59200 40.79200
C  -7.94400 20.04400 40.86300
C  -6.21800 21.49900 42.07200
C  -5.19500 18.89600 39.32000
C  -3.71200 18.57700 39.13400
H  -3.38300 17.28900 38.36700
N  -10.96200 19.35600 40.76300
C  -10.44300 20.56200 40.54900
C  -11.46700 21.53500 40.18600
C  -12.66200 20.75700 40.20400
C  -12.31300 19.37000 40.50100
C  -11.13700 23.03000 39.93100
C  -14.04600 21.37700 39.91900
O  -14.18000 22.62200 39.83100
C  -15.38700 20.65300 39.67300
N  -11.69000 16.33200 41.06600
C  -12.93500 16.80300 40.85000
C  -13.98500 15.73000 40.77700
C  -13.16300 14.40800 41.06100
C  -11.79800 15.03800 41.32400
C  -15.26700 15.87800 41.67900
C  -13.13000 13.41400 39.89300
C  -12.11400 13.69000 38.71600
N  -8.83100 15.88000 41.75000
C  -9.30300 14.58700 41.79500
C  -8.15900 13.71300 41.77800
C  -7.02500 14.54500 41.80200
C  -7.52600 15.87200 41.81100
C  -8.16600 12.18100 41.74700
C  -5.53700 14.68300 41.70800
O  -4.67600 13.79500 41.67400
C  -5.22000 16.19300 41.69500
C  -4.38100 16.63000 42.84800
O  -3.34500 17.34100 42.75800
O  -4.72300 15.89900 44.02800
C  -3.96800 16.12100 45.20900
H  -8.79200 21.89000 40.33600
H  -14.12700 18.38800 40.20700
H  -10.86100 13.20600 41.88000
H  -4.88900 19.18600 41.43800
H  -6.37600 21.10800 39.83900
H  -6.98300 21.32200 42.82900
H  -6.23400 22.53700 41.74000
H  -5.24300 21.33100 42.53000
H  -5.38200 19.68300 38.59000
H  -5.80100 18.07200 38.94400
H  -3.30100 18.57300 40.14400
H  -3.27800 19.44300 38.63500
H  -10.38000 22.97900 39.14800
H  -10.79000 23.48500 40.85900
H  -11.98800 23.58200 39.53300
H  -15.72000 19.92400 40.41300
H  -15.34500 20.19800 38.68400
H  -16.15000 21.43000 39.65000
H  -14.29500 15.55200 39.74700
H  -13.42400 14.01700 42.04400
H  -16.19400 15.77700 41.11600
H  -15.27800 16.83600 42.20100
H  -15.15300 15.11900 42.45300
H  -14.09500 13.37800 39.38700
H  -12.95900 12.42200 40.31000
H  -11.75200 14.71700 38.74500
H  -12.55000 13.57700 37.72300
H  -11.26300 13.00900 38.74300
H  -9.12000 11.95000 42.22200
H  -7.42300 11.70900 42.39000
H  -8.20600 11.76900 40.73900
H  -4.57100 16.26500 40.82200
H  -3.23900 16.92900 45.14300
H  -3.49600 15.22200 45.60600
H  -4.77400 16.31500 45.91700

