158

Mg 41.10900 8.24400 30.07200
C  42.70600 9.56500 32.88300
C  39.06400 6.60100 32.39200
C  39.92500 6.49100 27.47100
C  43.70000 9.50300 28.10800
N  40.91200 8.11800 32.41400
C  41.56300 8.89600 33.26600
C  40.98700 8.85300 34.74300
C  39.81400 7.82400 34.55500
C  39.88600 7.57400 32.98700
C  39.92900 6.58500 35.49400
C  40.57800 10.26000 35.19600
C  41.29200 10.56100 36.60800
H  40.46500 11.21600 37.66100
N  39.75000 6.87100 29.95900
C  38.94500 6.35300 30.99000
C  37.91500 5.46900 30.41800
C  38.09500 5.52500 28.99400
C  39.27900 6.33900 28.78200
C  36.82300 4.73200 31.21400
C  37.31000 4.87500 27.87600
O  37.61000 4.83500 26.72200
C  36.04100 4.16000 28.22700
N  41.73200 8.16500 27.97200
C  41.03800 7.33300 27.12100
C  41.66400 7.44200 25.75400
C  42.84600 8.43300 25.93200
C  42.81100 8.68100 27.40000
C  42.00500 6.00100 25.22600
C  42.98000 9.67100 25.02300
C  42.04300 10.92600 25.37600
N  42.88300 9.21700 30.34400
C  43.76700 9.76100 29.44900
C  44.77200 10.42600 30.16000
C  44.35000 10.45000 31.42200
C  43.24000 9.66200 31.53400
C  46.03000 11.01600 29.61200
C  44.73500 10.83800 32.72100
O  45.66200 11.50200 33.10400
C  43.70300 10.25700 33.69300
C  44.37200 9.22900 34.58600
O  44.64500 8.05300 34.37000
O  44.75200 9.88900 35.71200
C  45.12600 9.01700 36.79800
H  38.27600 6.19200 33.02800
H  39.49900 5.95000 26.62400
H  44.40000 9.99000 27.42600
H  41.83600 8.48100 35.31500
H  38.92000 8.38700 34.82000
H  40.06200 5.71100 34.85600
H  38.95900 6.42200 35.96300
H  40.66800 6.67700 36.29000
H  39.52300 10.34300 35.45600
H  40.83100 11.02200 34.46000
H  42.03000 11.32800 36.37300
H  41.77300 9.66700 37.00400
H  35.81900 5.13800 31.08800
H  37.07800 4.80300 32.27200
H  36.91400 3.67400 30.96900
H  35.34800 4.71600 28.85900
H  36.37700 3.22500 28.67500
H  35.56900 3.96000 27.26500
H  40.97800 7.94000 25.07000
H  43.79300 7.91200 25.79000
H  41.35800 5.85600 24.36100
H  41.78600 5.22200 25.95600
H  43.05900 5.94700 24.95500
H  42.72300 9.44200 23.98900
H  44.00500 10.04000 24.99300
H  41.41300 10.58700 26.19800
H  41.38200 11.15900 24.54100
H  42.53900 11.85900 25.64100
H  45.94200 11.98900 29.12800
H  46.38200 10.32900 28.84200
H  46.78300 10.95700 30.39800
H  43.27400 11.08800 34.25300
H  45.40200 9.48200 37.74500
H  45.95200 8.38800 36.46600
H  44.25200 8.38800 36.96900
Mg 46.23600 34.51800 27.05300
C  44.80800 33.08000 29.89100
C  47.13000 37.35600 29.05000
C  47.38800 36.15000 24.34600
C  45.54400 31.70700 25.36500
N  45.81100 35.12700 29.22000
C  45.25900 34.33700 30.21600
C  45.63900 34.96600 31.61100
C  45.94000 36.48300 31.20100
C  46.33900 36.33500 29.74300
C  44.73400 37.38700 31.48900
C  46.74900 34.21400 32.33100
C  46.86400 34.20400 33.82600
H  45.82900 34.90900 34.66100
N  47.25500 36.44700 26.80300
C  47.54400 37.40800 27.73100
C  48.31400 38.42100 27.09000
C  48.35100 38.20500 25.68400
C  47.57800 36.91800 25.57400
C  49.03100 39.47500 27.91300
C  48.94500 39.04900 24.50500
O  48.97500 38.63400 23.34100
C  49.66900 40.37400 24.78900
N  46.27000 34.09800 25.11300
C  46.84600 34.86500 24.16400
C  46.95700 34.17000 22.84100
C  46.51500 32.70700 23.24300
C  46.10000 32.80000 24.67200
C  46.35800 34.88600 21.65700
C  47.38900 31.43400 22.86000
C  48.42100 31.04500 23.89000
N  45.30400 32.76800 27.44700
C  45.15600 31.61100 26.64600
C  44.60400 30.58000 27.36500
C  44.37100 31.13600 28.65300
C  44.83700 32.46000 28.62500
C  44.34300 29.20300 26.93200
C  43.89500 30.97200 29.99200
O  43.39100 29.97500 30.51100
C  43.96200 32.28800 30.73400
C  44.23900 31.98100 32.13800
O  45.23500 31.43900 32.53700
O  43.04900 32.15100 32.80900
C  42.93300 31.87700 34.25000
H  47.37000 38.24300 29.64000
H  47.87800 36.52300 23.44400
H  45.24700 30.85200 24.75400
H  44.70100 34.85400 32.15500
H  46.82600 36.83500 31.72800
H  43.78100 36.86000 31.54600
H  44.71300 38.14700 30.70800
H  44.91700 37.77400 32.49100
H  47.60400 34.82300 32.03700
H  46.83500 33.19500 31.95300
H  47.89200 34.42300 34.11200
H  46.79500 33.14500 34.07500
H  50.11200 39.39300 27.79600
H  48.89900 39.23000 28.96700
H  48.91000 40.51900 27.62200
H  49.89700 40.77700 23.80200
H  50.54100 40.16500 25.40900
H  49.07800 41.11300 25.32900
H  48.02200 34.20600 22.61300
H  45.55600 32.47900 22.77900
H  47.07800 35.18200 20.89500
H  45.96700 35.81900 22.06400
H  45.60300 34.19600 21.28100
H  48.02200 31.73200 22.02500
H  46.78200 30.54800 22.67200
H  49.37700 30.76700 23.44800
H  48.02000 30.13900 24.34400
H  48.66800 31.89500 24.52700
H  45.22300 28.79600 26.43500
H  43.67500 29.31100 26.07800
H  43.96000 28.67300 27.80400
H  42.97200 32.74100 30.69100
H  42.59300 30.85800 34.43400
H  42.24100 32.62100 34.64300
H  43.85200 31.99300 34.82500

