158

Mg 0.89500 8.06500 25.44100
C  1.87000 9.89800 28.25000
C  1.15000 5.31000 27.36500
C  0.58600 6.23300 22.56500
C  1.08300 10.89000 23.50200
N  1.57900 7.62000 27.54900
C  1.66900 8.57100 28.50200
C  1.79300 7.90600 29.91700
C  1.67200 6.34800 29.67500
C  1.40600 6.41000 28.12300
C  2.88100 5.49500 30.00800
C  0.73300 8.40800 30.90100
C  1.19900 8.35000 32.36400
H  2.40000 7.33900 32.85600
N  0.88500 6.01400 25.05000
C  0.92500 5.01400 25.98700
C  0.82200 3.76900 25.36000
C  0.62600 4.00500 23.94800
C  0.68200 5.48100 23.75000
C  0.88800 2.51500 26.21300
C  0.47300 2.98000 22.75700
O  0.29100 3.33300 21.58600
C  0.58500 1.50000 22.97700
N  0.75300 8.52200 23.38400
C  0.57400 7.58200 22.39300
C  0.51800 8.26400 21.04400
C  0.23500 9.74200 21.37900
C  0.71200 9.69500 22.76600
C  1.91300 8.05000 20.32100
C  -1.30900 10.09300 21.29100
C  -1.66200 11.28500 20.28500
N  1.43100 10.02500 25.73500
C  1.46000 11.08200 24.83400
C  1.83400 12.30400 25.60300
C  2.06800 11.91100 26.97500
C  1.79600 10.48500 26.97000
C  1.95600 13.68900 24.97400
C  2.34200 12.40000 28.31100
O  2.53000 13.55800 28.69100
C  2.18700 11.10700 29.21800
C  3.36300 11.03300 30.16000
O  4.40800 10.41800 29.98400
O  3.09000 11.79200 31.36100
C  4.14800 11.86800 32.35100
H  1.03700 4.42000 27.98700
H  0.55500 5.59400 21.68000
H  1.02300 11.84500 22.97400
H  2.80700 8.10100 30.26600
H  0.74200 5.95400 30.08500
H  3.49800 5.98600 30.76000
H  3.50800 5.24400 29.15200
H  2.52100 4.58900 30.49400
H  -0.05600 7.65800 30.85500
H  0.38600 9.37400 30.53100
H  0.34500 8.38300 33.04100
H  1.54200 9.38100 32.45900
H  1.23100 1.74300 25.52400
H  0.00600 2.19900 26.77100
H  1.53200 2.44700 27.08900
H  1.52400 1.19900 23.44100
H  0.52700 0.99700 22.01200
H  -0.24000 1.10500 23.56900
H  -0.20400 7.72300 20.43200
H  0.90800 10.38100 20.80700
H  2.66500 7.82200 21.07700
H  2.20300 9.01700 19.91000
H  1.92400 7.23800 19.59300
H  -1.80900 10.19500 22.25500
H  -1.78700 9.24200 20.80600
H  -0.77200 11.66400 19.78200
H  -2.05300 12.21700 20.69200
H  -2.41700 10.95600 19.57000
H  1.40500 13.71800 24.03400
H  2.97500 13.93400 24.67800
H  1.62200 14.47100 25.65700
H  1.30900 11.44400 29.77000
H  4.60600 10.88700 32.47200
H  3.65400 12.22900 33.25300
H  4.97500 12.49100 32.00900
Mg 48.09600 45.27000 42.86500
C  44.59200 45.26900 42.12400
C  48.26800 42.22500 41.37600
C  51.44800 45.81300 42.54900
C  47.70000 48.61100 43.88100
N  46.59400 43.94100 41.75400
C  45.25300 44.15800 41.65300
C  44.67600 43.05400 40.68600
C  45.72500 41.91300 40.76800
C  46.94200 42.67300 41.38400
C  45.36400 40.61500 41.47600
C  44.64500 43.69400 39.30000
C  43.25900 43.67400 38.55000
H  43.22300 43.47200 37.04900
N  49.69200 44.11000 42.25100
C  49.52400 42.83200 41.75100
C  50.85200 42.21500 41.68600
C  51.84900 43.24100 42.04100
C  51.02200 44.47500 42.28100
C  51.10200 40.70300 41.39300
C  53.31400 43.11000 42.09500
O  53.79200 42.05300 41.83900
C  54.33500 44.27100 42.28400
N  49.40900 47.18800 42.77300
C  50.72300 46.99100 42.82300
C  51.45100 48.29000 43.24200
C  50.24700 49.25700 43.65200
C  49.04200 48.24200 43.50800
C  52.44000 48.11300 44.40900
C  49.99000 50.60900 42.80600
C  49.38000 51.78000 43.56100
N  46.51000 46.65100 43.11700
C  46.49800 47.91800 43.65400
C  45.13200 48.30000 43.89300
C  44.42100 47.31600 43.18500
C  45.28300 46.35900 42.76300
C  44.70300 49.53600 44.75000
C  43.05500 46.99000 42.78700
O  41.98400 47.53000 43.02400
C  43.12500 45.70400 41.95100
C  42.09100 44.73700 42.54600
O  41.44400 43.95600 41.84700
O  42.15700 44.64200 43.87100
C  41.24900 43.72500 44.58600
H  48.47300 41.19300 41.08400
H  52.53600 45.89000 42.50800
H  47.63600 49.63200 44.26100
H  43.65800 42.86300 41.02500
H  46.06200 41.59200 39.78200
H  45.57600 39.76700 40.82400
H  44.30500 40.56900 41.73300
H  45.98800 40.72000 42.36300
H  45.28700 43.12500 38.62700
H  44.98300 44.72100 39.16200
H  42.63800 44.51700 38.85400
H  42.87000 42.78800 39.05000
H  51.91900 40.63800 40.67500
H  50.23400 40.28300 40.88500
H  51.34100 40.13000 42.28900
H  54.12900 44.86300 41.39300
H  55.36100 43.90500 42.24200
H  54.19700 44.81300 43.21900
H  51.86400 48.82200 42.38500
H  50.21600 49.46400 44.72100
H  53.27000 47.50200 44.05300
H  51.99100 47.43500 45.13400
H  52.85000 49.09100 44.66200
H  49.46100 50.40600 41.87400
H  51.01900 50.88400 42.57500
H  48.45100 52.20800 43.18500
H  50.08200 52.61100 43.63200
H  49.27300 51.53700 44.61800
H  45.22000 49.54900 45.71000
H  43.66000 49.35400 45.00600
H  44.99300 50.44500 44.22200
H  42.82500 45.85200 40.91300
H  40.30900 43.47700 44.09100
H  41.05000 44.25400 45.51800
H  41.64000 42.75800 44.90100

