158

Mg 26.45400 50.42500 26.83600
C  24.60100 51.80600 29.50300
C  28.84500 49.55900 29.23500
C  28.47500 49.40900 24.37200
C  24.26000 51.92100 24.58300
N  26.68800 50.68200 29.14000
C  25.68300 51.02300 29.98200
C  26.12700 50.73800 31.47100
C  27.65200 50.47700 31.27200
C  27.76600 50.17700 29.79400
C  28.58800 51.70800 31.75000
C  25.31600 49.55900 32.06400
C  24.64000 49.75200 33.44600
H  25.32300 50.66000 34.48400
N  28.33600 49.45400 26.80800
C  29.14000 49.19600 27.91300
C  30.27300 48.41400 27.44800
C  30.17400 48.38700 25.97800
C  28.98400 49.15000 25.64600
C  31.26300 47.71400 28.39200
C  31.14300 47.71200 24.94600
O  30.91600 47.72400 23.73200
C  32.39700 46.92700 25.39400
N  26.34700 50.58900 24.71800
C  27.30100 50.06500 23.93200
C  26.90600 50.15900 22.41400
C  25.57400 51.05100 22.51200
C  25.38100 51.22200 24.00500
C  28.00000 50.74000 21.44400
C  24.23300 50.36000 21.92800
C  23.79500 49.04500 22.54000
N  24.81400 51.59400 26.95100
C  23.96800 52.13100 25.95900
C  22.92800 52.92300 26.52800
C  23.11900 52.79500 27.90600
C  24.23700 51.97100 28.12000
C  21.93600 53.69700 25.83700
C  22.61500 53.23200 29.18400
O  21.61500 53.86600 29.40400
C  23.54100 52.53900 30.29600
C  24.24700 53.60800 31.07200
O  25.43700 53.92300 31.08900
O  23.33900 54.10300 31.92800
C  23.89100 55.08200 32.82700
H  29.56200 49.14600 29.94700
H  29.00700 49.06200 23.48300
H  23.58600 52.37900 23.85600
H  26.03300 51.62500 32.09700
H  27.91800 49.64700 31.92600
H  29.22200 51.54200 32.62100
H  28.01700 52.63200 31.83800
H  29.27900 51.93800 30.94000
H  25.93300 48.67800 32.24000
H  24.51400 49.32200 31.36500
H  24.55500 48.83300 34.02600
H  23.62100 50.09600 33.26700
H  32.26900 48.10900 28.25000
H  31.25000 46.66900 28.08300
H  31.05900 47.70500 29.46200
H  32.94800 47.57800 26.07200
H  33.08000 46.72000 24.56900
H  32.16900 46.04000 25.98500
H  26.60200 49.17500 22.05600
H  25.69900 52.04800 22.08900
H  27.69900 51.67200 20.96600
H  28.18500 49.94400 20.72400
H  28.92200 50.99300 21.96800
H  24.46800 50.13500 20.88800
H  23.42400 51.09000 21.97300
H  24.26800 48.94500 23.51800
H  23.99700 48.21100 21.86700
H  22.73500 49.02300 22.79200
H  21.79300 54.64200 26.36000
H  21.01700 53.13200 25.68000
H  22.37400 53.85200 24.85100
H  23.10400 51.80300 30.97000
H  24.04500 56.07600 32.40700
H  24.83800 54.72600 33.23100
H  23.42300 55.16500 33.80800
Mg 8.94100 48.43100 25.88700
C  6.83600 49.11700 28.75600
C  11.53900 49.80500 27.77500
C  10.81400 48.14700 23.30200
C  5.91500 48.21400 24.03000
N  9.14900 49.24000 28.00100
C  8.17300 49.26300 28.99300
C  8.81100 49.62700 30.34900
C  10.14300 50.34700 29.91000
C  10.29900 49.73700 28.47800
C  9.98300 51.89400 29.82100
C  9.10800 48.41600 31.28600
C  9.38400 48.81800 32.80800
H  8.89200 47.90300 33.88200
N  10.91100 48.65800 25.66000
C  11.82300 49.24900 26.54000
C  13.10200 49.22700 26.00700
C  12.99000 48.66500 24.67700
C  11.51600 48.43700 24.49000
C  14.37500 49.49900 26.83900
C  14.00500 48.30700 23.62400
O  13.77600 47.70400 22.54700
C  15.45000 48.74800 23.83900
N  8.42300 48.35400 23.91000
C  9.42000 48.11600 23.11500
C  8.85700 47.80900 21.67100
C  7.33700 47.66400 21.92500
C  7.22000 48.14300 23.35600
C  9.18100 48.84800 20.58100
C  6.71000 46.21500 21.77800
C  5.51400 46.26900 20.81700
N  6.70200 48.57000 26.26600
C  5.64900 48.40100 25.39500
C  4.42600 48.71800 26.13800
C  4.89800 48.89100 27.49400
C  6.27100 48.81000 27.49300
C  3.03100 48.61200 25.58300
C  4.43300 49.17800 28.86200
O  3.28800 49.21600 29.28500
C  5.70600 49.45000 29.70500
C  5.65300 48.57100 30.83100
O  5.57100 47.36200 30.85300
O  5.56200 49.38300 31.94200
C  4.94200 48.74400 33.16700
H  12.26900 50.26800 28.44300
H  11.45800 48.22300 22.42400
H  5.12200 48.14800 23.28300
H  8.19000 50.33000 30.90400
H  11.01100 50.01100 30.47800
H  9.06000 52.24100 30.28400
H  10.08000 52.13300 28.76200
H  10.83800 52.29700 30.36400
H  9.95000 47.90000 30.82600
H  8.27600 47.71500 31.22300
H  8.78700 49.72500 32.90000
H  10.44200 48.90600 33.05500
H  14.21100 49.87800 27.84800
H  14.99000 50.12000 26.18700
H  14.91600 48.56100 26.96400
H  15.54500 49.71600 23.34700
H  16.20800 48.21000 23.27100
H  15.79500 48.87800 24.86500
H  9.22800 46.90500 21.19000
H  6.81500 48.40200 21.31600
H  9.52400 49.72300 21.13300
H  8.43100 49.04200 19.81300
H  10.07500 48.60200 20.00800
H  6.37500 45.92000 22.77200
H  7.52900 45.62700 21.36400
H  4.76200 45.72300 21.38600
H  5.78100 45.84000 19.85100
H  5.07800 47.25800 20.67500
H  2.90900 47.57800 25.26000
H  2.88600 49.39100 24.83500
H  2.35600 48.88800 26.39300
H  5.77000 50.46200 30.10300
H  4.40900 49.37000 33.88300
H  5.79900 48.22800 33.60000
H  4.19300 47.99400 32.91300

