158

Mg 35.45900 3.12500 29.50700
C  33.43300 4.20900 32.18300
C  38.20700 3.03800 31.60500
C  37.58300 2.73200 26.87600
C  32.77900 3.36400 27.38500
N  35.77100 3.47100 31.69300
C  34.78300 3.86300 32.55200
C  35.32500 3.80700 33.93800
C  36.84600 3.79300 33.74000
C  37.01000 3.47300 32.27900
C  37.61400 5.03400 34.25000
C  34.59300 2.63400 34.74600
C  34.25200 2.92600 36.23400
H  35.25300 3.84000 37.05500
N  37.51200 2.76400 29.26200
C  38.46500 2.70700 30.25300
C  39.66000 2.09500 29.68500
C  39.62300 2.13000 28.30900
C  38.20000 2.67100 28.04200
C  40.89400 1.66500 30.56500
C  40.71300 1.82400 27.23100
O  40.59100 1.83700 26.01000
C  42.08400 1.41900 27.74500
N  35.24000 3.13300 27.48300
C  36.19100 2.88200 26.56500
C  35.72000 2.93700 25.10500
C  34.17200 2.85300 25.34000
C  34.02400 3.16400 26.84200
C  36.19400 4.16800 24.25400
C  33.60300 1.40900 25.03400
C  32.51800 1.39000 23.95700
N  33.44800 3.60600 29.70500
C  32.47300 3.68600 28.76200
C  31.16200 4.03600 29.34900
C  31.44800 4.26000 30.72400
C  32.91900 4.11400 30.82600
C  29.80100 4.06500 28.56200
C  30.97100 4.65700 32.04200
O  29.83800 4.84900 32.52800
C  32.19000 4.60800 32.99400
C  32.31500 5.90200 33.71900
O  32.31600 7.02700 33.26500
O  32.23300 5.68000 35.04500
C  32.35700 6.85500 35.90900
H  39.04400 2.90100 32.29400
H  38.12700 2.42400 25.98100
H  31.87000 3.42900 26.78400
H  35.06200 4.78700 34.33500
H  37.25800 3.02300 34.39300
H  36.90800 5.85900 34.35000
H  38.46400 5.22700 33.59600
H  38.03300 4.78300 35.22400
H  35.28800 1.79500 34.78300
H  33.66200 2.41000 34.22600
H  34.31300 1.97100 36.75700
H  33.24100 3.31600 36.34400
H  41.16900 0.67300 30.20800
H  40.55700 1.66900 31.60100
H  41.71400 2.37800 30.65600
H  42.66800 2.08000 28.38600
H  42.62300 1.03600 26.87800
H  41.98300 0.49800 28.31900
H  36.14700 2.01800 24.70400
H  33.76800 3.66700 24.73800
H  37.16000 4.35100 24.72400
H  35.55900 5.04900 24.16400
H  36.52700 3.92400 23.24600
H  33.13400 1.10400 25.96900
H  34.40700 0.72100 24.77400
H  32.20500 2.43400 23.92600
H  31.63800 0.79400 24.20200
H  32.95500 0.99900 23.03900
H  29.70200 3.14300 27.98900
H  29.95400 4.88100 27.85500
H  28.97800 4.08400 29.27700
H  32.01900 3.81900 33.72600
H  33.39700 7.17000 35.83200
H  32.13300 6.56800 36.93700
H  31.66200 7.67900 35.74400
Mg 16.83700 51.45200 26.50300
C  19.14100 49.97600 28.74300
C  14.79700 52.19800 29.13500
C  14.88700 52.96300 24.34100
C  19.16600 50.91300 23.94200
N  16.99300 51.08500 28.59300
C  18.06200 50.63000 29.33000
C  17.78100 50.73000 30.82800
C  16.21200 51.00500 30.84600
C  15.94700 51.47800 29.44800
C  15.23700 49.75600 31.20700
C  18.67800 51.74400 31.56300
C  18.72300 51.64300 33.10100
H  17.60600 50.88100 33.80400
N  15.04000 52.41500 26.68100
C  14.27100 52.52200 27.82800
C  13.06600 53.15800 27.47000
C  13.07800 53.47800 26.04700
C  14.37300 52.91700 25.63300
C  12.00500 53.49700 28.46000
C  12.08300 54.20000 25.18100
O  12.20200 54.46200 24.04200
C  10.70300 54.43700 25.73100
N  16.86800 51.62300 24.36700
C  16.03500 52.49500 23.74800
C  16.25400 52.60000 22.30900
C  17.76000 52.19100 22.17300
C  17.96800 51.51200 23.54800
C  15.29900 51.70400 21.39800
C  18.68200 53.40700 21.92900
C  19.12200 53.72900 20.56400
N  18.67300 50.42100 26.26000
C  19.51000 50.34500 25.15300
C  20.72600 49.67700 25.54600
C  20.55700 49.47100 26.95000
C  19.37000 50.03100 27.33900
C  21.89500 49.44200 24.63700
C  21.30200 48.96300 28.10800
O  22.37600 48.39600 28.15600
C  20.34200 49.29000 29.35800
C  20.05700 48.10200 30.16100
O  19.49800 47.13400 29.66900
O  20.39100 48.21800 31.44400
C  20.12800 47.15000 32.39400
H  14.11500 52.46000 29.94600
H  14.18400 53.55100 23.74700
H  19.89300 50.78100 23.13800
H  18.06800 49.78500 31.28900
H  16.03200 51.80600 31.56400
H  14.56100 49.67800 30.35600
H  14.59000 49.83600 32.08000
H  15.74800 48.79800 31.30600
H  18.19400 52.71200 31.43100
H  19.65800 51.66700 31.09100
H  18.79100 52.64600 33.52400
H  19.64900 51.10200 33.29400
H  11.13000 52.85400 28.36200
H  11.65400 54.51000 28.26100
H  12.29500 53.43100 29.50900
H  10.33000 53.53700 26.22000
H  9.89500 54.60400 25.01900
H  10.62300 55.23800 26.46600
H  16.12000 53.65600 22.07500
H  17.95400 51.46400 21.38500
H  14.48700 51.25800 21.97200
H  15.92700 51.03800 20.80500
H  14.86100 52.42200 20.70500
H  19.63700 53.33600 22.44800
H  18.26800 54.30500 22.38800
H  19.15500 54.81700 20.49800
H  18.40000 53.33100 19.85100
H  20.10800 53.28300 20.44000
H  22.03000 50.31500 23.99900
H  21.78700 48.52900 24.05100
H  22.79400 49.28400 25.23100
H  20.86600 50.02800 29.96600
H  21.06200 46.82700 32.85400
H  19.47800 46.41200 31.92400
H  19.55400 47.49000 33.25600

