158

Mg -2.35500 16.79600 26.31900
C  -2.65000 14.77300 29.00300
C  -2.89900 19.51600 28.29400
C  -1.85900 18.70300 23.59500
C  -2.02400 13.88600 24.22800
N  -2.53800 17.06300 28.48000
C  -2.68200 16.10500 29.40000
C  -2.85900 16.63500 30.80400
C  -2.98400 18.15700 30.56700
C  -2.85800 18.30300 29.03500
C  -4.29800 18.69800 31.23300
C  -1.68500 16.17800 31.70100
C  -1.23700 16.81100 33.02600
H  -1.02900 16.00800 34.26900
N  -2.31000 18.82500 26.01600
C  -2.66900 19.77800 26.97600
C  -2.51300 21.11800 26.44700
C  -1.98200 20.91000 25.06800
C  -2.08000 19.39000 24.81100
C  -2.96300 22.34900 27.16300
C  -1.54800 21.88600 24.02100
O  -1.51900 21.56800 22.83600
C  -1.29600 23.28800 24.40000
N  -1.84800 16.32700 24.21800
C  -1.78000 17.37200 23.33400
C  -1.65000 16.80700 21.95100
C  -1.55900 15.25300 22.11900
C  -1.93600 15.12100 23.56000
C  -2.64700 17.23100 20.91400
C  -0.18200 14.66100 21.76200
C  0.05700 14.14800 20.35200
N  -2.48400 14.78400 26.49000
C  -2.31100 13.70400 25.59000
C  -2.47600 12.46400 26.27600
C  -2.59600 12.83200 27.64500
C  -2.60400 14.19900 27.70900
C  -2.39200 11.12300 25.64300
C  -2.69700 12.31100 28.96100
O  -2.69600 11.13500 29.33800
C  -2.67600 13.47800 29.89700
C  -1.50000 13.17400 30.69400
O  -0.37600 13.27900 30.28200
O  -1.78100 12.69200 31.96900
C  -0.73000 12.11500 32.82600
H  -3.01600 20.43500 28.87300
H  -1.63600 19.32600 22.72600
H  -1.77600 13.02200 23.60800
H  -3.73000 16.12400 31.21400
H  -2.12000 18.69500 30.95700
H  -4.92900 19.22000 30.51400
H  -4.02400 19.46700 31.95500
H  -4.87800 18.00600 31.84300
H  -0.79400 15.95000 31.11600
H  -2.04300 15.20600 32.04100
H  -2.05900 17.50800 33.18800
H  -0.25700 17.28200 32.95200
H  -3.64900 22.07400 27.96400
H  -3.59000 23.04700 26.60800
H  -2.01700 22.78400 27.48600
H  -2.23200 23.72200 24.75200
H  -0.95300 23.75400 23.47500
H  -0.48400 23.44200 25.11000
H  -0.70700 17.22100 21.59600
H  -2.31300 14.71400 21.54600
H  -2.13500 17.75400 20.10600
H  -3.32500 17.97900 21.32400
H  -3.26000 16.43600 20.48900
H  0.06700 13.88900 22.49000
H  0.49700 15.51200 21.81500
H  -0.92000 14.37300 19.92400
H  0.23200 13.07200 20.35200
H  0.80100 14.83100 19.94200
H  -1.75100 10.99500 24.77100
H  -3.35400 10.73400 25.31100
H  -1.94500 10.46300 26.38600
H  -3.57400 13.49600 30.51400
H  0.10300 12.78700 33.03100
H  -0.42700 11.20500 32.30900
H  -1.07400 11.80700 33.81400
Mg 1.46300 42.44700 25.92400
C  3.77900 42.76900 28.57400
C  -0.95300 41.74700 28.33400
C  -0.63300 41.40900 23.44400
C  3.95500 43.02800 23.62500
N  1.46600 42.29800 28.12900
C  2.44400 42.62400 29.04300
C  2.02400 42.56900 30.45200
C  0.54700 42.19700 30.29300
C  0.32500 42.05300 28.77100
C  0.00300 40.93300 31.01100
C  2.08400 43.94800 31.12700
C  2.52000 43.85600 32.61200
H  2.22200 42.56700 33.36200
N  -0.51800 41.68700 25.93700
C  -1.40000 41.50400 26.97500
C  -2.69000 40.94500 26.54600
C  -2.56200 40.82200 25.13400
C  -1.19900 41.35000 24.73600
C  -3.74600 40.57200 27.50000
C  -3.59200 40.24600 24.24700
O  -3.59500 40.30800 23.01300
C  -4.88200 39.63500 24.82300
N  1.61500 42.10600 23.91800
C  0.63700 41.78000 23.05500
C  1.00500 41.99000 21.55100
C  2.35700 42.71200 21.63300
C  2.71000 42.61600 23.15900
C  0.97300 40.56800 20.84400
C  2.50900 44.17100 21.10100
C  3.76800 44.54700 20.30200
N  3.51900 42.87500 26.02400
C  4.40600 43.09800 24.97000
C  5.70000 43.30200 25.55500
C  5.55200 43.22900 26.89800
C  4.18700 42.89800 27.16700
C  6.94500 43.48300 24.75300
C  6.20700 43.14200 28.25300
O  7.40800 43.24600 28.46500
C  5.04700 42.98500 29.38800
C  5.50300 41.82300 30.24400
O  5.90400 40.76200 29.77700
O  5.71600 42.16500 31.54800
C  6.27700 41.15900 32.45500
H  -1.79800 41.60600 29.01200
H  -1.26300 41.21200 22.57400
H  4.72200 43.28900 22.89200
H  2.65100 41.90800 31.05100
H  -0.13800 42.98800 30.59700
H  -0.47800 40.24000 30.32000
H  -0.83100 41.23900 31.64200
H  0.75500 40.40700 31.59900
H  1.15300 44.51000 31.20700
H  2.81100 44.56300 30.59800
H  2.06500 44.68000 33.16200
H  3.58600 43.96800 32.81000
H  -4.21400 39.63100 27.21100
H  -4.63800 41.19500 27.57400
H  -3.33100 40.20800 28.44000
H  -5.32000 40.21900 25.63200
H  -4.54400 38.65500 25.15900
H  -5.56600 39.58800 23.97600
H  0.42000 42.69900 20.96500
H  3.05400 42.08300 21.08000
H  1.98300 40.17200 20.74200
H  0.48400 40.60800 19.87000
H  0.36900 39.88600 21.44100
H  2.54000 44.74500 22.02700
H  1.62100 44.51800 20.57200
H  4.29200 45.24600 20.95500
H  3.57000 45.01900 19.33900
H  4.26900 43.59300 20.14000
H  7.00900 42.52800 24.23100
H  7.88900 43.47100 25.29800
H  6.72500 44.32900 24.10200
H  5.01000 43.84100 30.06200
H  5.48000 40.44800 32.67500
H  6.63500 41.69700 33.33200
H  7.13800 40.57200 32.13600

