158

Mg 8.99200 3.32100 27.37200
C  10.31900 1.97400 30.35200
C  6.76300 5.31600 29.33600
C  7.49100 4.35000 24.50200
C  10.90900 0.98000 25.65100
N  8.58300 3.53200 29.57400
C  9.41900 3.00800 30.60700
C  9.17900 3.75200 31.90500
C  7.90700 4.58900 31.65000
C  7.64300 4.45800 30.11800
C  6.66200 4.32300 32.59400
C  10.35800 4.59700 32.43800
C  10.10800 5.22700 33.84700
H  10.88000 4.58200 35.01600
N  7.38500 4.62900 27.03700
C  6.66200 5.45000 27.97200
C  5.79900 6.31300 27.22400
C  6.02500 6.03800 25.83200
C  6.98500 4.90500 25.74500
C  4.93100 7.40900 27.91100
C  5.36000 6.71800 24.63900
O  5.57500 6.44100 23.43500
C  4.41800 7.83000 24.88200
N  9.09100 2.68200 25.30000
C  8.44600 3.32700 24.29300
C  8.89300 2.84500 22.99000
C  10.22700 2.05900 23.36600
C  10.13200 1.90000 24.86000
C  7.73000 2.05400 22.24300
C  11.60900 2.61900 22.95500
C  12.06100 3.94200 23.66200
N  10.34700 1.77700 27.88900
C  11.02000 0.92300 27.05500
C  11.88000 0.04600 27.85100
C  11.61000 0.39100 29.19200
C  10.67400 1.46600 29.13700
C  12.88000 -0.96800 27.22900
C  12.01300 0.25500 30.58900
O  12.89100 -0.39100 31.01500
C  11.21000 1.25600 31.41700
C  10.45000 0.53100 32.33200
O  9.27600 0.15800 32.12300
O  11.13700 0.31800 33.42600
C  10.27600 -0.21200 34.57400
H  6.32200 6.15200 29.88200
H  6.90800 4.59500 23.61200
H  11.52300 0.27800 25.08200
H  9.07300 2.91800 32.59900
H  8.05800 5.64800 31.86000
H  5.84200 3.82500 32.07700
H  6.40300 5.33800 32.89500
H  7.07900 3.80200 33.45500
H  10.55800 5.40200 31.73100
H  11.29700 4.04300 32.44600
H  9.07600 5.01400 34.12500
H  10.30400 6.29900 33.84400
H  5.45600 8.35700 27.79800
H  4.76000 7.22000 28.97100
H  3.94500 7.38400 27.44600
H  3.37800 7.54300 25.03800
H  4.56800 8.51000 24.04400
H  4.75200 8.47800 25.69300
H  9.25500 3.70900 22.43200
H  10.21900 1.04700 22.96000
H  6.76900 2.01500 22.75400
H  8.11200 1.05800 22.01700
H  7.49000 2.47400 21.26600
H  11.58300 2.60300 21.86600
H  12.38400 1.87300 23.13100
H  11.83200 4.03000 24.72400
H  11.65800 4.84000 23.19500
H  13.15000 4.00300 23.66500
H  13.66200 -0.96200 27.98800
H  13.11900 -0.65200 26.21300
H  12.47200 -1.97800 27.19200
H  11.90300 1.87800 31.98300
H  9.80700 -1.18400 34.42000
H  9.51600 0.50700 34.87900
H  10.99500 -0.42800 35.36400
Mg 30.36900 58.07900 39.26100
C  27.47700 56.37700 38.15400
C  32.15900 55.14000 38.63800
C  33.22500 59.78900 39.55700
C  28.43500 60.89600 39.83900
N  29.91300 56.09600 38.21600
C  28.67300 55.61000 38.02100
C  28.69300 54.10200 37.68100
C  30.07400 53.66700 38.14400
C  30.79100 55.05400 38.44000
C  30.06000 52.77500 39.41200
C  28.45900 53.67000 36.19100
C  29.27000 54.49200 35.06200
H  28.36100 55.41800 34.27500
N  32.39800 57.54400 39.12700
C  32.95300 56.31700 38.85100
C  34.41300 56.35500 38.92700
C  34.76300 57.65800 39.22800
C  33.44800 58.41900 39.36800
C  35.25500 55.11500 38.60200
C  36.11200 58.13700 39.36500
O  37.07500 57.50200 38.89900
C  36.37600 59.44100 40.08600
N  30.70300 60.06400 39.68900
C  32.01300 60.50700 39.84100
C  32.00400 61.96900 40.05600
C  30.56600 62.27000 40.43400
C  29.82400 61.03100 39.93800
C  33.15900 62.51600 40.97200
C  29.83700 63.57400 39.89300
C  28.88900 64.11000 40.97600
N  28.36700 58.58200 39.12900
C  27.73300 59.74600 39.40900
C  26.30200 59.66900 38.96600
C  26.15300 58.36400 38.54700
C  27.41000 57.73800 38.63000
C  25.30700 60.82500 38.92500
C  25.25600 57.31900 37.99600
O  24.08200 57.46900 37.85400
C  26.00200 56.04200 37.82600
C  25.45800 54.90300 38.67000
O  25.64100 54.81100 39.83400
O  24.66700 54.00900 37.92800
C  24.18300 52.84400 38.55400
H  32.61300 54.14700 38.66400
H  34.11300 60.41900 39.46800
H  27.80300 61.74400 40.11200
H  27.88900 53.76200 38.33400
H  30.71800 53.16200 37.42300
H  30.89900 52.86800 40.10100
H  30.14100 51.76900 39.00100
H  29.09500 52.73700 39.91800
H  27.37700 53.75100 36.09000
H  28.73200 52.62900 36.01700
H  29.56300 53.71500 34.35600
H  30.13800 55.01600 35.46200
H  35.58700 55.14400 37.56400
H  34.76700 54.14800 38.72000
H  36.12200 54.93700 39.23900
H  35.68200 59.68700 40.89000
H  36.43000 60.27900 39.39100
H  37.29100 59.34500 40.67000
H  32.16200 62.38800 39.06200
H  30.64900 62.25200 41.52000
H  34.02900 62.74700 40.35800
H  33.44800 61.75900 41.70200
H  32.86700 63.41300 41.51800
H  29.32200 63.21400 39.00200
H  30.46500 64.40800 39.58100
H  29.20900 65.11000 41.26700
H  28.81100 63.47600 41.85900
H  27.89300 64.09700 40.53300
H  24.99200 61.25300 39.87600
H  24.42400 60.65200 38.31000
H  25.86800 61.59600 38.39700
H  26.05100 55.67300 36.80100
H  23.49100 53.23900 39.29800
H  25.12500 52.37700 38.83900
H  23.66800 52.20300 37.83800

