158

Mg 47.75100 15.83800 28.55300
C  45.66200 16.04100 31.47500
C  49.97400 17.58800 30.38400
C  49.44200 16.27400 25.68800
C  45.04900 14.41700 26.88000
N  47.85600 16.64300 30.76800
C  46.92800 16.51700 31.74800
C  47.48000 17.00800 33.12500
C  48.87700 17.64800 32.67800
C  48.88600 17.36300 31.12600
C  48.85500 19.22800 32.87800
C  47.47200 15.89200 34.21000
C  47.48300 16.38400 35.73400
H  47.28300 17.86700 36.05700
N  49.47300 16.64800 28.19400
C  50.31800 17.22500 29.04400
C  51.57200 17.61900 28.45100
C  51.43600 17.26200 27.06200
C  50.09800 16.68200 26.91500
C  52.77800 18.23600 29.14100
C  52.41800 17.49000 25.96200
O  52.30500 17.00400 24.83900
C  53.69100 18.23700 26.27500
N  47.25300 15.32200 26.61200
C  48.14100 15.66500 25.60500
C  47.64300 15.29500 24.23000
C  46.21100 14.62600 24.59500
C  46.19000 14.68200 26.10400
C  47.47100 16.59100 23.38600
C  45.96300 13.14900 24.00800
C  45.39800 12.96800 22.58600
N  45.72300 15.43500 28.95600
C  44.76700 14.72500 28.23200
C  43.60100 14.40000 29.00300
C  43.87500 14.88200 30.23900
C  45.19300 15.57500 30.20500
C  42.40400 13.73100 28.48000
C  43.41900 15.00400 31.63300
O  42.45500 14.47500 32.14300
C  44.54900 15.79900 32.41600
C  44.00800 16.93700 33.16900
O  43.99100 18.10900 32.77400
O  43.54700 16.49900 34.39300
C  42.91300 17.51400 35.26700
H  50.65600 18.20600 30.97200
H  49.95500 16.31400 24.72500
H  44.25100 13.89500 26.34800
H  46.87700 17.83400 33.50400
H  49.65300 17.04100 33.14500
H  49.85700 19.48700 33.22200
H  48.12400 19.57100 33.61000
H  48.79200 19.75000 31.92300
H  48.43400 15.42600 33.99400
H  46.71900 15.12400 34.03400
H  48.40300 15.98500 36.16000
H  46.61300 15.80800 36.04900
H  52.65600 18.23400 30.22400
H  53.07900 19.27400 28.99500
H  53.57500 17.53500 28.89500
H  53.41900 19.13400 26.83200
H  54.09100 18.48300 25.29100
H  54.40900 17.59100 26.77800
H  48.31900 14.54400 23.82000
H  45.42200 15.30800 24.28000
H  46.52400 16.49000 22.85600
H  48.27500 16.65800 22.65400
H  47.59400 17.44500 24.05200
H  45.16900 12.71100 24.61200
H  46.86500 12.53800 24.05100
H  45.45400 13.91700 22.05400
H  44.33200 12.74700 22.63800
H  45.90600 12.12200 22.12300
H  42.09800 14.05600 27.48500
H  41.51500 13.95000 29.07000
H  42.51800 12.64700 28.46100
H  44.82400 15.15600 33.25300
H  43.11300 18.58200 35.18000
H  43.15900 17.11800 36.25200
H  41.84100 17.40000 35.10900
Mg 49.63500 46.89300 42.59100
C  46.37000 47.08300 41.24600
C  49.67600 43.51200 41.90600
C  53.04800 47.01100 42.88400
C  49.56900 50.41700 43.06700
N  48.20700 45.57100 41.64600
C  46.92300 45.76700 41.18600
C  46.18900 44.40500 40.81700
C  47.29400 43.36600 41.12500
C  48.51700 44.20300 41.64900
C  46.95200 42.26200 42.20900
C  45.79300 44.52700 39.27600
C  44.38600 43.97600 38.88200
H  43.97500 44.35600 37.44400
N  51.14500 45.48200 42.52900
C  50.89200 44.16600 42.30000
C  52.13600 43.43300 42.52100
C  53.14800 44.44700 42.72200
C  52.46100 45.74100 42.74200
C  52.26000 41.90700 42.62600
C  54.64200 44.08600 42.82700
O  55.02700 42.91600 42.74900
C  55.76500 45.12000 43.00400
N  51.05900 48.46900 42.91900
C  52.37300 48.22400 43.03700
C  53.18200 49.46800 43.53200
C  52.05700 50.67000 43.49900
C  50.82300 49.79900 43.21500
C  53.81800 49.27400 44.95600
C  52.35900 51.91300 42.55300
C  53.25900 53.04300 43.15900
N  48.20600 48.54300 42.29100
C  48.30600 49.89600 42.52300
C  46.98400 50.49800 42.23000
C  46.21600 49.43700 41.75900
C  46.99300 48.25400 41.77400
C  46.60700 51.85600 42.46300
C  44.92300 49.12600 41.14100
O  44.05600 49.86000 40.72900
C  44.93800 47.55800 40.89800
C  43.91300 46.90800 41.80700
O  44.06500 46.61100 42.95900
O  42.65700 46.88300 41.29100
C  41.55000 46.93200 42.15400
H  49.84300 42.45000 41.71800
H  54.12000 47.21700 42.90800
H  49.59700 51.49500 43.23900
H  45.31800 44.32500 41.46800
H  47.55200 42.83600 40.20800
H  47.19500 41.25300 41.87500
H  45.87200 42.36200 42.31700
H  47.36400 42.43800 43.20300
H  46.46200 43.80200 38.81300
H  46.01800 45.49100 38.82000
H  43.59800 44.51100 39.41200
H  44.27300 42.89900 39.00900
H  52.93800 41.69700 43.45300
H  52.66600 41.49000 41.70500
H  51.38300 41.40400 43.03400
H  55.75600 45.76600 42.12600
H  56.71500 44.60500 43.14300
H  55.60600 45.74300 43.88400
H  53.98000 49.63200 42.80800
H  51.84700 51.05900 44.49600
H  53.46900 49.98700 45.70200
H  54.88500 49.38400 44.76100
H  53.52700 48.30400 45.35900
H  51.40300 52.27400 42.17400
H  52.85200 51.57100 41.64200
H  53.87300 52.65000 43.96900
H  52.59900 53.90300 43.27300
H  54.00200 53.39000 42.44000
H  47.18500 52.61300 41.93300
H  46.66500 51.99400 43.54200
H  45.53800 51.98000 42.28900
H  44.74100 47.40700 39.83600
H  41.39400 47.98900 42.37100
H  41.43000 46.27700 43.01700
H  40.75700 46.56700 41.50100

