158

Mg 24.46400 -5.52200 46.43100
C  26.23900 -2.96100 44.61500
C  21.82100 -4.75500 44.48800
C  23.18600 -8.48500 47.39900
C  27.49400 -6.43300 47.97300
N  24.06000 -3.99200 44.70500
C  24.86400 -3.03700 44.22400
C  24.22300 -2.28800 43.07900
C  22.77300 -2.67400 43.28300
C  22.87200 -3.85500 44.15500
C  21.78700 -1.63800 43.87000
C  24.77700 -2.58200 41.68200
C  25.07600 -1.30300 40.88000
H  24.66200 -1.30100 39.41800
N  22.75800 -6.37800 46.00300
C  21.77800 -5.96000 45.18600
C  20.67100 -6.86400 45.19100
C  20.88700 -7.85600 46.13700
C  22.31100 -7.60800 46.56800
C  19.37900 -6.61800 44.42100
C  19.95300 -8.91800 46.47400
O  18.78700 -9.04400 46.02700
C  20.34000 -10.07500 47.42500
N  25.15000 -7.09800 47.68800
C  24.43900 -8.28200 47.86000
C  25.20300 -9.32900 48.79000
C  26.55400 -8.60000 49.00700
C  26.43800 -7.28600 48.15300
C  24.49500 -9.67100 50.14600
C  27.80700 -9.47800 48.87900
C  28.80100 -9.28700 50.09500
N  26.41500 -4.84700 46.39800
C  27.56500 -5.25000 47.08700
C  28.68700 -4.43300 46.78600
C  28.24200 -3.57900 45.78100
C  26.82800 -3.82000 45.60600
C  30.09300 -4.61200 47.34600
C  28.58000 -2.39100 44.87800
O  29.54300 -1.67900 44.76200
C  27.31000 -2.09700 44.06300
C  26.91000 -0.61500 44.08400
O  26.11800 0.01900 44.80500
O  27.67500 0.07600 43.19700
C  27.50500 1.46900 42.90800
H  20.89300 -4.35900 44.06900
H  22.84700 -9.48300 47.68500
H  28.41000 -6.80300 48.43600
H  24.33700 -1.24900 43.38700
H  22.31900 -2.90200 42.31900
H  22.29200 -0.78600 44.32600
H  21.15100 -2.02700 44.66500
H  21.16000 -1.18000 43.10500
H  24.15800 -3.24800 41.08100
H  25.74700 -3.07100 41.77200
H  26.15300 -1.29400 40.71400
H  24.70500 -0.46500 41.47000
H  18.56900 -6.20300 45.02000
H  19.06500 -7.56300 43.97600
H  19.60500 -5.99400 43.55600
H  20.87300 -9.74400 48.31600
H  21.00600 -10.75100 46.88900
H  19.51800 -10.74900 47.66600
H  25.42600 -10.26200 48.27200
H  26.48500 -8.03300 49.93500
H  25.18200 -9.33400 50.92200
H  24.56000 -10.75900 50.18500
H  23.49200 -9.25700 50.25100
H  28.36100 -9.13700 48.00400
H  27.61700 -10.54200 48.74200
H  28.48700 -8.45800 50.73000
H  29.77600 -8.95200 49.74100
H  28.96400 -10.19000 50.68300
H  30.77300 -3.85200 46.95900
H  30.24300 -5.65800 47.08000
H  30.00900 -4.60100 48.43200
H  27.72000 -2.36000 43.08800
H  27.86100 1.74100 41.91400
H  28.01600 2.06900 43.66200
H  26.47500 1.79700 43.04800
Mg 30.96800 58.29100 40.12200
C  28.36500 56.20700 38.80300
C  33.24600 56.11600 38.67100
C  33.32800 60.66300 40.79400
C  28.54700 60.68500 40.93000
N  30.77100 56.35600 38.80800
C  29.67100 55.66200 38.51300
C  30.04200 54.31500 37.74300
C  31.61400 54.16500 38.08000
C  31.92300 55.61300 38.48800
C  32.03700 53.07200 39.08100
C  29.65400 54.27800 36.25000
C  29.43900 55.73000 35.50600
H  29.01700 55.61800 33.99800
N  32.94700 58.37300 39.93500
C  33.71000 57.34100 39.32100
C  35.07100 57.81300 39.31400
C  35.12100 58.97300 40.08900
C  33.77000 59.42400 40.32700
C  36.10800 56.90500 38.61000
C  36.46000 59.68100 40.40400
O  37.50300 59.26200 39.91600
C  36.65000 60.91700 41.33000
N  30.98000 60.41700 40.73200
C  32.10200 61.17700 41.06400
C  31.75600 62.56400 41.53100
C  30.21900 62.46300 41.81100
C  29.88700 61.08700 41.18600
C  32.52900 63.09200 42.69900
C  29.47300 63.65900 41.17700
C  28.52400 64.35300 42.10700
N  28.84500 58.42600 39.98800
C  28.04300 59.48100 40.30600
C  26.63600 59.19500 39.87000
C  26.70600 57.86400 39.40900
C  28.08300 57.48800 39.35300
C  25.43900 60.05300 39.83600
C  26.00500 56.72000 38.85000
O  24.80000 56.56200 38.71800
C  27.02700 55.64000 38.34300
C  26.69600 54.25200 38.75900
O  26.79700 53.75200 39.85600
O  26.20400 53.62600 37.60700
C  25.84400 52.26400 37.79100
H  34.03500 55.43600 38.34500
H  34.07300 61.44600 40.95000
H  27.78500 61.43200 41.16200
H  29.51100 53.49800 38.23300
H  32.22800 53.96900 37.20100
H  32.27000 53.59700 40.00800
H  32.96800 52.58500 38.79000
H  31.32800 52.27200 39.29300
H  28.75000 53.69400 36.07800
H  30.38400 53.68800 35.69500
H  30.45200 56.12900 35.44800
H  28.87600 56.50500 36.02600
H  37.05500 57.44400 38.56800
H  35.75600 56.84100 37.58000
H  36.13900 55.97800 39.18200
H  37.66600 60.99300 41.71800
H  35.89800 61.05000 42.10800
H  36.40900 61.71400 40.62800
H  32.00600 63.05500 40.59000
H  30.03100 62.35000 42.87900
H  33.31900 63.72900 42.30100
H  32.86700 62.32600 43.39700
H  32.10800 63.76000 43.45000
H  28.80700 63.46300 40.33700
H  30.19700 64.39300 40.82100
H  27.54400 63.87500 42.09800
H  28.46000 65.41000 41.85100
H  28.82500 64.13100 43.13100
H  25.40000 60.80200 40.62700
H  24.52500 59.49500 40.04200
H  25.47000 60.66800 38.93700
H  27.26200 55.63200 37.27800
H  24.86700 52.25400 38.27600
H  26.49500 51.68300 38.44400
H  25.74800 51.70500 36.86000

