158

Mg 6.88200 53.17800 41.53200
C  6.05400 49.84400 41.14800
C  10.18300 52.35100 41.39500
C  7.85500 56.52000 41.44600
C  3.54400 54.13800 41.71800
N  7.95200 51.21900 41.12000
C  7.40100 49.98200 41.11500
C  8.59000 48.91200 41.13300
C  9.81800 49.76400 41.38000
C  9.33500 51.21800 41.31900
C  10.63600 49.50900 42.69300
C  8.76000 47.99900 39.86300
C  8.90500 48.71400 38.50700
H  7.85000 48.28500 37.45800
N  8.74500 54.30300 41.22400
C  9.94700 53.70800 41.20300
C  10.95100 54.76100 41.10400
C  10.30000 56.02900 41.23200
C  8.87300 55.64200 41.17800
C  12.40100 54.40200 41.02900
C  10.97500 57.37100 41.22300
O  12.19800 57.40000 41.16000
C  10.25100 58.59800 41.23000
N  5.84700 55.13400 41.43700
C  6.49700 56.34000 41.65600
C  5.48900 57.37200 41.99700
C  4.15800 56.58700 41.93200
C  4.52900 55.10700 41.64800
C  5.71400 58.09900 43.38000
C  3.06000 57.09200 40.92000
C  1.71400 57.41200 41.60800
N  5.11600 52.23900 41.60200
C  3.86900 52.75700 41.65300
C  2.96700 51.62400 41.71100
C  3.77200 50.48600 41.47200
C  5.11100 50.86300 41.37100
C  1.47300 51.58300 41.91900
C  3.66200 49.05000 41.26200
O  2.60900 48.42000 41.13200
C  5.12700 48.50900 41.16300
C  5.33100 47.71500 39.97400
O  5.26900 48.04600 38.79500
O  5.46700 46.44400 40.44200
C  5.65200 45.38100 39.42900
H  11.24600 52.10000 41.40800
H  8.05900 57.55900 41.71400
H  2.47300 54.34700 41.75700
H  8.35800 48.22600 41.94800
H  10.49300 49.73800 40.52400
H  10.51800 50.33100 43.39900
H  11.70100 49.52200 42.46300
H  10.43200 48.55200 43.17500
H  7.87900 47.35800 39.87800
H  9.67700 47.45300 40.08300
H  9.86900 48.47000 38.06000
H  8.86600 49.79200 38.65800
H  12.95600 55.11700 40.42200
H  12.54100 53.43300 40.54900
H  12.84700 54.21100 42.00500
H  9.56200 58.46900 40.39500
H  10.77900 59.54200 41.09500
H  9.82800 58.58200 42.23400
H  5.46000 58.03900 41.13600
H  3.68400 56.60100 42.91400
H  4.90600 57.94900 44.09700
H  5.71000 59.17700 43.21800
H  6.72500 57.86000 43.70800
H  2.87900 56.34300 40.14900
H  3.28300 58.00000 40.35900
H  1.55700 57.12500 42.64800
H  0.99400 56.84000 41.02300
H  1.49800 58.47800 41.53100
H  1.01800 51.32500 40.96300
H  1.08600 52.54500 42.25700
H  1.14400 50.86400 42.66900
H  5.34700 47.90400 42.04300
H  5.27700 45.46800 38.40900
H  5.18200 44.50100 39.86700
H  6.73800 45.28100 39.41300
Mg -2.82700 35.45600 26.55300
C  -4.53600 33.37100 28.82700
C  -1.41900 37.12900 29.10000
C  -1.44400 37.42100 24.26700
C  -4.70900 33.75800 23.98900
N  -3.11400 35.36700 28.60200
C  -3.70500 34.30600 29.39500
C  -3.43100 34.49400 30.86300
C  -2.55900 35.81900 30.92700
C  -2.34800 36.13400 29.40400
C  -3.15400 37.07500 31.72800
C  -2.68200 33.29200 31.50600
C  -3.47600 32.61500 32.69000
H  -2.69900 32.64700 33.97000
N  -1.43600 36.89300 26.69000
C  -0.89800 37.44400 27.84600
C  0.12500 38.45400 27.46100
C  0.10000 38.55400 26.02200
C  -0.96500 37.54500 25.58400
C  1.00000 39.11100 28.46700
C  0.96100 39.41900 25.07800
O  0.93000 39.43200 23.82300
C  1.98000 40.25700 25.76100
N  -3.24400 35.73900 24.53000
C  -2.46900 36.57800 23.77600
C  -2.87400 36.49600 22.28600
C  -3.75600 35.22700 22.19400
C  -4.02200 34.93800 23.66200
C  -3.50000 37.78300 21.71100
C  -3.01300 34.04600 21.34000
C  -1.86400 33.35600 22.12600
N  -4.44800 34.00700 26.36400
C  -5.05500 33.36600 25.27500
C  -5.94900 32.32200 25.76300
C  -5.76300 32.21500 27.10800
C  -4.89000 33.28100 27.41400
C  -6.85600 31.41900 24.90400
C  -6.19400 31.58600 28.30700
O  -6.98300 30.69300 28.49600
C  -5.35300 32.28800 29.43700
C  -6.42900 32.87600 30.34600
O  -7.24300 33.69100 30.02900
O  -6.42200 32.29500 31.59400
C  -7.42200 32.83100 32.55900
H  -0.97900 37.66000 29.94700
H  -0.90100 38.04000 23.55000
H  -5.25700 33.28400 23.17200
H  -4.40400 34.62400 31.33500
H  -1.56700 35.69700 31.36200
H  -2.87900 36.85100 32.75900
H  -4.21600 37.22600 31.53500
H  -2.56400 37.94800 31.44600
H  -1.71100 33.68100 31.80900
H  -2.62800 32.55500 30.70400
H  -3.66300 31.55200 32.53500
H  -4.43600 33.02800 33.00200
H  0.88200 38.74100 29.48500
H  0.84500 40.18900 28.51400
H  2.02100 38.87500 28.16600
H  2.48000 40.88000 25.01900
H  2.78800 39.72300 26.26000
H  1.41200 40.87200 26.46000
H  -1.89600 36.38000 21.81900
H  -4.66500 35.44800 21.63400
H  -4.54900 37.63900 21.45200
H  -3.00500 38.08700 20.78800
H  -3.37000 38.53400 22.49000
H  -2.60100 34.30500 20.36500
H  -3.78100 33.29600 21.15300
H  -2.20400 32.41600 22.56200
H  -1.60100 34.10000 22.87800
H  -0.97900 33.27600 21.49600
H  -7.20900 30.53300 25.43200
H  -6.19900 31.16300 24.07300
H  -7.65600 31.95000 24.38800
H  -4.77400 31.55500 29.99900
H  -7.92400 31.99500 33.04600
H  -8.23000 33.41400 32.11700
H  -6.96100 33.55200 33.23500

