158

Mg 1.16600 -2.04600 42.88000
C  4.48800 -1.61700 41.89700
C  0.37800 0.87900 41.15300
C  -2.00800 -2.86500 43.09600
C  2.08900 -5.20200 44.11800
N  2.28600 -0.60400 41.55300
C  3.61600 -0.63000 41.35800
C  4.13000 0.65400 40.67100
C  2.72200 1.43200 40.46600
C  1.76100 0.52600 41.15500
C  2.71500 2.84200 41.12700
C  4.96100 0.39100 39.32800
C  4.46000 -0.79800 38.50700
H  5.18600 -1.06800 37.13600
N  -0.56800 -1.10200 42.42300
C  -0.68800 0.11000 41.67600
C  -2.08600 0.40800 41.51300
C  -2.84900 -0.60900 42.03400
C  -1.81800 -1.59300 42.56400
C  -2.64400 1.68300 40.81900
C  -4.37200 -0.63300 42.09700
O  -5.03400 0.17200 41.51100
C  -5.08600 -1.71400 42.85100
N  0.20500 -3.85700 43.44600
C  -1.12600 -3.91900 43.43900
C  -1.62500 -5.30800 43.97000
C  -0.36200 -5.92100 44.58500
C  0.77000 -4.96100 44.09500
C  -2.88900 -5.30800 44.81700
C  -0.08500 -7.36400 44.13900
C  0.39100 -8.34900 45.23800
N  2.95800 -3.15600 43.12500
C  3.14600 -4.35500 43.68200
C  4.56300 -4.60600 43.80900
C  5.18400 -3.53800 43.12700
C  4.10300 -2.75000 42.65700
C  5.20200 -5.72400 44.49700
C  6.42700 -2.94500 42.67800
O  7.58900 -3.28200 42.86900
C  6.07900 -1.64100 41.94600
C  6.76700 -0.46000 42.56400
O  7.64200 0.20400 42.10200
O  6.26400 -0.35000 43.80900
C  6.58800 0.84000 44.65100
H  0.14600 1.81700 40.64300
H  -3.03100 -3.23700 43.18800
H  2.31600 -6.22600 44.42100
H  4.72800 1.15600 41.43200
H  2.36100 1.50600 39.44000
H  3.65100 3.16100 41.58500
H  1.94700 2.86000 41.90000
H  2.21500 3.46700 40.38600
H  6.01200 0.23800 39.57300
H  4.88100 1.27500 38.69500
H  3.39500 -0.61100 38.37100
H  4.66000 -1.70200 39.08200
H  -3.13700 1.46600 39.87200
H  -1.76700 2.29400 40.60400
H  -3.33800 2.21700 41.46800
H  -6.07800 -1.41900 43.19300
H  -4.52300 -1.91300 43.76300
H  -5.22400 -2.55800 42.17500
H  -1.89300 -5.88900 43.08800
H  -0.36300 -5.83400 45.67200
H  -3.79000 -5.66900 44.32100
H  -3.13400 -4.32300 45.21400
H  -2.64700 -6.05900 45.57000
H  0.72800 -7.28100 43.41700
H  -1.00300 -7.70200 43.66000
H  1.27000 -8.89400 44.89300
H  -0.48500 -8.96900 45.43200
H  0.59500 -7.89600 46.20900
H  4.75600 -6.01800 45.44700
H  6.24000 -5.41800 44.62600
H  5.05100 -6.50600 43.75300
H  6.57000 -1.63100 40.97300
H  6.10600 0.96600 45.62100
H  6.36200 1.70800 44.03200
H  7.65000 0.73600 44.87200
Mg -0.48200 34.98400 26.98300
C  -2.32100 33.04600 29.24200
C  0.82100 36.70300 29.64300
C  0.71000 37.07200 24.88500
C  -2.08600 33.21100 24.35600
N  -0.72000 34.84900 29.21500
C  -1.49800 33.95300 29.93000
C  -1.48300 34.25700 31.40600
C  -0.55900 35.50100 31.48000
C  -0.10100 35.75500 30.07500
C  -1.00800 36.83600 32.27600
C  -0.91100 33.00300 32.15200
C  -1.65500 32.52600 33.41400
H  -0.89600 32.44900 34.71700
N  0.70500 36.70100 27.23800
C  1.14300 37.24000 28.39000
C  1.95200 38.33800 28.07100
C  1.95400 38.48500 26.63300
C  1.05400 37.45900 26.22400
C  2.76400 39.15400 29.03300
C  2.66900 39.41500 25.68400
O  2.41300 39.55400 24.44000
C  3.72600 40.33400 26.25300
N  -0.51400 34.97200 24.89900
C  -0.04100 36.07300 24.23000
C  -0.34700 36.06500 22.70400
C  -1.10500 34.68900 22.56400
C  -1.23700 34.21400 24.03100
C  -1.19400 37.30700 22.25200
C  -0.55200 33.64900 21.64900
C  0.52600 32.71500 22.20600
N  -1.90300 33.43100 26.76900
C  -2.42400 32.79700 25.65800
C  -3.29900 31.72800 26.09500
C  -3.30500 31.84600 27.51600
C  -2.45300 32.88300 27.85400
C  -3.95700 30.75000 25.19100
C  -3.83900 31.22000 28.71100
O  -4.54100 30.21200 28.86700
C  -3.28300 32.11300 29.87900
C  -4.43600 32.76900 30.55100
O  -4.92100 33.82900 30.26200
O  -4.93700 31.96000 31.61000
C  -6.04300 32.52500 32.42200
H  1.29400 37.23600 30.47000
H  1.02500 37.73100 24.07500
H  -2.61200 32.68800 23.55500
H  -2.50300 34.46900 31.72900
H  0.39600 35.26600 31.95000
H  -1.37000 37.59400 31.58100
H  -0.17200 37.29600 32.80200
H  -1.75200 36.62200 33.04400
H  0.02000 33.28400 32.64400
H  -0.69000 32.13100 31.53700
H  -2.04100 31.51000 33.32400
H  -2.48400 33.23000 33.48600
H  3.79500 38.80800 29.10000
H  2.46300 39.21300 30.07900
H  2.66200 40.19300 28.71900
H  4.52100 39.87200 26.83800
H  3.28300 41.07100 26.92400
H  4.11300 40.82900 25.36200
H  0.60200 35.96900 22.17600
H  -2.09400 34.89500 22.15300
H  -1.54900 37.69100 23.20800
H  -1.99800 37.08400 21.55000
H  -0.41500 37.90000 21.77300
H  -0.16700 34.19400 20.78800
H  -1.35900 33.04400 21.23600
H  0.03800 31.99700 22.86500
H  1.26200 33.25200 22.80400
H  1.03600 32.07400 21.48700
H  -3.13600 30.51200 24.51500
H  -4.82500 31.14300 24.66200
H  -4.06200 29.81200 25.73600
H  -2.67300 31.54800 30.58400
H  -5.81600 33.11300 33.31100
H  -6.58800 31.66500 32.81200
H  -6.72200 33.12200 31.81400

