158

Mg 1.15700 8.09500 25.52000
C  1.72500 9.96700 28.45100
C  1.81600 5.19800 27.29800
C  0.95200 6.42300 22.70100
C  0.96900 11.08500 23.69900
N  1.57200 7.68600 27.68600
C  1.71800 8.61100 28.69300
C  1.74100 7.84300 30.11300
C  2.03100 6.37400 29.63400
C  1.81100 6.41800 28.10200
C  3.53400 5.87400 30.00100
C  0.47600 8.11500 31.01100
C  0.69600 8.54600 32.48500
H  2.00700 8.19200 33.17500
N  1.23500 6.10100 25.07700
C  1.47200 5.06400 25.95100
C  1.07700 3.83100 25.32900
C  0.89000 4.11700 23.95100
C  1.04000 5.57800 23.81100
C  0.92000 2.53700 26.00200
C  0.55200 3.15100 22.81200
O  0.25100 3.49800 21.71200
C  0.69900 1.64200 22.98600
N  0.99600 8.67800 23.54100
C  0.84700 7.73700 22.58000
C  0.73100 8.42700 21.15500
C  0.46000 9.91700 21.54500
C  0.91700 9.93300 22.98500
C  2.05600 8.09900 20.34700
C  -1.05300 10.34300 21.31900
C  -1.13400 11.53900 20.42800
N  1.29800 10.14300 25.93800
C  1.16900 11.22200 25.14000
C  1.40000 12.44600 25.88100
C  1.59300 12.02200 27.15000
C  1.48800 10.56700 27.22000
C  1.50700 13.90500 25.41800
C  1.99200 12.45700 28.47200
O  2.29500 13.56000 28.87800
C  1.92900 11.15400 29.36900
C  3.07100 11.07000 30.30800
O  4.06300 10.32700 30.26800
O  2.86900 12.08700 31.23900
C  3.92500 12.13400 32.25800
H  2.04200 4.31600 27.90100
H  0.76100 5.88600 21.77000
H  0.74200 11.95900 23.08500
H  2.61200 8.27600 30.60500
H  1.33100 5.65800 30.06500
H  4.22000 5.69800 29.17300
H  3.31800 5.00900 30.62900
H  4.03900 6.60800 30.62900
H  -0.19900 7.26200 31.08200
H  -0.04500 8.96100 30.56200
H  -0.07500 8.06800 33.08900
H  0.57300 9.62600 32.55600
H  0.72000 2.69800 27.06200
H  1.89200 2.04400 25.98200
H  0.16600 1.90000 25.54000
H  1.50700 1.38500 23.67100
H  0.95900 1.15700 22.04500
H  -0.22300 1.14900 23.29500
H  0.03600 8.08300 20.39000
H  1.18200 10.54600 21.02500
H  1.87700 7.38400 19.54400
H  2.87600 7.68700 20.93600
H  2.39600 8.99100 19.82200
H  -1.41500 10.46500 22.34000
H  -1.56300 9.55500 20.76600
H  -0.17800 11.59400 19.90800
H  -1.42800 12.31700 21.13200
H  -1.88900 11.31100 19.67600
H  2.42400 13.95700 24.83100
H  1.73500 14.58800 26.23500
H  0.63400 14.20600 24.83900
H  0.99900 11.23400 29.93200
H  3.98200 11.18900 32.79700
H  3.78700 12.91400 33.00800
H  4.88100 12.31400 31.76800
Mg 26.29300 49.78300 26.16400
C  24.19300 51.00500 28.78400
C  28.33900 48.65300 28.58800
C  28.62600 49.35500 23.80300
C  24.28600 51.30800 23.91800
N  26.40300 50.08400 28.47400
C  25.35000 50.39300 29.30100
C  25.65500 49.97400 30.79600
C  27.02000 49.33600 30.66200
C  27.27600 49.30700 29.12700
C  28.13300 50.12300 31.41800
C  24.52300 49.12400 31.42600
C  23.64600 49.79800 32.49800
H  23.66100 49.05300 33.84600
N  28.22900 49.10400 26.22900
C  28.88100 48.60700 27.29800
C  30.14900 48.07900 26.91900
C  30.30900 48.33400 25.53900
C  29.04200 48.97000 25.15500
C  31.22400 47.47300 27.88300
C  31.39500 47.95000 24.58500
O  31.38800 48.07600 23.35600
C  32.61500 47.22400 25.11900
N  26.40000 50.33600 24.13500
C  27.40000 49.88400 23.40200
C  27.07300 50.13800 21.87400
C  25.58400 50.66100 21.94100
C  25.40900 50.84300 23.37300
C  28.12600 51.12300 21.21600
C  24.56000 49.71200 21.38200
C  24.01400 49.94300 19.97600
N  24.56000 50.80000 26.25800
C  23.91000 51.41000 25.28200
C  22.65800 51.93300 25.79200
C  22.73700 51.66800 27.18200
C  23.91000 51.10300 27.44500
C  21.49900 52.66100 25.08600
C  21.96300 51.92500 28.37000
O  20.80900 52.35300 28.52800
C  22.86200 51.45000 29.46800
C  23.08300 52.55100 30.45000
O  24.02100 53.34400 30.48700
O  22.18400 52.56800 31.43200
C  22.27500 53.67000 32.41800
H  28.92600 48.13500 29.34900
H  29.22500 49.03300 22.94800
H  23.55100 51.57100 23.15400
H  25.80300 50.84200 31.43900
H  26.94800 48.29100 30.96200
H  28.90800 50.58000 30.80200
H  28.56500 49.56400 32.24800
H  27.63400 50.96800 31.89300
H  24.96400 48.22000 31.84600
H  23.84900 48.69300 30.68600
H  22.59800 49.98700 32.26700
H  23.98100 50.82500 32.64700
H  30.97100 47.54800 28.94100
H  32.16800 48.01600 27.85300
H  31.43200 46.44000 27.60300
H  33.20400 47.72800 25.88600
H  33.10300 46.97600 24.17700
H  32.13400 46.30500 25.45600
H  27.13400 49.25700 21.23500
H  25.51800 51.64500 21.47700
H  27.60900 51.86300 20.60400
H  28.71500 50.63600 20.43800
H  28.80900 51.74100 21.80000
H  23.65800 49.61700 21.98600
H  25.10400 48.78000 21.22500
H  24.72200 50.32800 19.24200
H  23.11100 50.53800 20.11300
H  23.73300 48.93400 19.67400
H  21.85400 52.93000 24.09100
H  21.24000 53.61500 25.54600
H  20.69300 51.92900 25.04200
H  22.40600 50.63000 30.02400
H  22.52200 54.65000 32.01000
H  23.18200 53.48300 32.99400
H  21.46200 53.78600 33.13500

