158

Mg 48.38500 15.57600 27.11800
C  46.80100 15.65400 30.33500
C  50.93800 17.52200 28.59900
C  49.69700 15.77400 24.23300
C  45.57200 13.87000 25.97200
N  48.83100 16.36900 29.22300
C  48.10900 16.24500 30.37100
C  48.85200 16.83000 31.54800
C  49.98900 17.67000 30.91500
C  49.93200 17.16100 29.45800
C  49.81400 19.21600 30.89600
C  49.37200 15.71800 32.47300
C  49.22900 16.10600 34.07100
H  48.99400 17.52800 34.52500
N  50.14800 16.51200 26.47500
C  51.08000 17.20600 27.18400
C  52.16600 17.50500 26.24700
C  51.69500 17.16700 24.95100
C  50.49800 16.39200 25.16800
C  53.33100 18.38300 26.78100
C  52.17300 17.53700 23.62700
O  51.72200 17.13000 22.56700
C  53.31600 18.46700 23.56700
N  47.64400 15.19200 25.34200
C  48.46600 15.15100 24.26400
C  47.79000 14.68000 23.00800
C  46.50000 14.11600 23.60000
C  46.61500 14.34000 25.07600
C  47.52900 15.76100 21.91800
C  46.21900 12.59000 23.26800
C  44.95400 12.39500 22.45600
N  46.50500 14.98200 27.93100
C  45.54600 14.23600 27.34800
C  44.41000 13.99400 28.24900
C  44.93200 14.40000 29.46500
C  46.21000 15.07000 29.21000
C  43.14800 13.24900 27.92000
C  44.59500 14.53100 30.90900
O  43.55400 14.15100 31.49100
C  45.80800 15.36600 31.54000
C  45.26700 16.62300 32.25600
O  44.98800 17.70200 31.77600
O  44.90800 16.33900 33.50300
C  43.75800 17.11900 33.98900
H  51.60100 18.25700 29.06000
H  50.12100 15.64200 23.23500
H  44.80100 13.18200 25.61700
H  48.13100 17.44300 32.08800
H  50.98500 17.50100 31.32400
H  48.85100 19.51700 31.30900
H  49.82200 19.74100 29.94000
H  50.63600 19.63600 31.47400
H  50.43200 15.50400 32.33300
H  48.81600 14.84200 32.13900
H  50.16300 15.80600 34.54600
H  48.46900 15.49300 34.55500
H  53.21200 19.46500 26.72600
H  54.26200 18.14100 26.26800
H  53.43900 18.20600 27.85200
H  53.22600 19.42100 24.08600
H  53.43800 18.68800 22.50700
H  54.17200 17.95500 24.00800
H  48.33800 13.82700 22.60900
H  45.62200 14.74300 23.44400
H  48.00900 16.71200 22.15200
H  46.47000 15.94600 21.74100
H  47.89700 15.33900 20.98300
H  45.99100 12.07600 24.20200
H  47.08400 12.19600 22.73500
H  45.16400 11.85500 21.53300
H  44.68300 13.39200 22.11100
H  44.07800 12.11900 23.04500
H  43.45600 12.45200 27.24400
H  42.44400 13.95800 27.48400
H  42.79000 12.84600 28.86700
H  46.18400 14.64700 32.26700
H  43.29000 16.61500 34.83500
H  43.01200 17.20500 33.19900
H  44.13300 18.10300 34.27200
Mg 9.07500 48.16100 25.05000
C  6.75300 49.02300 27.39900
C  11.61600 49.53000 26.87100
C  11.17300 47.45600 22.49000
C  6.37200 47.79400 22.64000
N  9.17700 49.08300 26.95400
C  8.09700 49.21900 27.83900
C  8.62200 49.63300 29.17100
C  10.06200 50.24100 28.81200
C  10.32200 49.61700 27.43600
C  10.10900 51.72200 28.70200
C  8.83300 48.36800 30.19000
C  9.29200 48.65500 31.66900
H  8.77000 47.81000 32.82600
N  11.13800 48.31700 24.80200
C  12.02900 48.82200 25.76100
C  13.35600 48.70700 25.24100
C  13.22000 48.02600 24.01800
C  11.78000 47.89600 23.71900
C  14.54900 49.18100 26.05700
C  14.32600 47.74500 22.98000
O  14.11000 47.23500 21.88200
C  15.69200 48.14100 23.26000
N  8.70800 47.88700 22.86100
C  9.81700 47.48400 22.12900
C  9.41600 47.05000 20.67600
C  7.86000 47.36700 20.69600
C  7.58000 47.58400 22.14200
C  10.09800 47.73900 19.49300
C  7.00900 46.29800 19.91100
C  6.32800 46.80500 18.69000
N  6.98300 48.15800 25.05500
C  6.06400 47.97900 24.04800
C  4.70600 47.99500 24.59900
C  4.90200 48.41800 25.91600
C  6.29400 48.57100 26.14200
C  3.43000 47.85700 23.86300
C  4.29300 48.83100 27.15600
O  3.09000 48.92400 27.41600
C  5.47000 49.34700 28.11900
C  5.29500 48.72100 29.43100
O  4.97500 47.56800 29.63300
O  5.39300 49.66600 30.42200
C  5.12200 49.37700 31.79600
H  12.44900 49.95800 27.43300
H  11.81500 47.13100 21.66800
H  5.47600 47.75700 22.01700
H  7.91200 50.33100 29.61500
H  10.81500 49.96900 29.55200
H  10.67300 52.18400 29.51200
H  9.10200 52.13900 28.66400
H  10.65300 51.86300 27.76800
H  9.56900 47.69200 29.75600
H  7.91500 47.78100 30.18400
H  9.05100 49.69500 31.88500
H  10.37700 48.58400 31.74800
H  14.96400 50.06900 25.58000
H  15.33500 48.42600 26.08800
H  14.28900 49.43000 27.08600
H  15.90900 47.37700 24.00700
H  15.62800 49.15400 23.65700
H  16.33200 48.03200 22.38500
H  9.78800 46.02500 20.66900
H  7.66000 48.37200 20.32300
H  10.23300 48.80400 19.68100
H  9.55800 47.61300 18.55500
H  11.07400 47.35300 19.19700
H  6.26100 46.05500 20.66600
H  7.57800 45.37200 19.83100
H  5.25000 46.70600 18.81300
H  6.70900 46.27400 17.81800
H  6.55400 47.86300 18.56100
H  2.68400 47.38100 24.49900
H  3.44600 47.37500 22.88500
H  3.03600 48.87200 23.81100
H  5.23100 50.40400 28.23600
H  6.03900 49.57500 32.35200
H  4.79900 48.35200 31.97800
H  4.32000 50.06200 32.07000

