158

Mg -2.26600 18.51300 27.16500
C  -2.96300 16.24000 29.88600
C  -3.22100 21.02400 29.25500
C  -1.96500 20.40800 24.45200
C  -2.21300 15.60800 25.07500
N  -3.07600 18.59100 29.34200
C  -3.10000 17.59400 30.26700
C  -3.45000 18.08000 31.62900
C  -3.67900 19.61600 31.38700
C  -3.30900 19.74200 29.90700
C  -5.01800 20.30100 31.70100
C  -2.34600 17.91100 32.68600
C  -2.80600 17.23200 34.01300
H  -1.73300 17.21600 35.15300
N  -2.47600 20.40700 26.90700
C  -2.85700 21.32300 27.87600
C  -2.79100 22.64600 27.20200
C  -2.22800 22.48800 25.89500
C  -2.26800 21.05700 25.67500
C  -3.16700 23.88500 28.03900
C  -1.69700 23.58800 24.98900
O  -1.36300 23.36900 23.80700
C  -1.57600 25.01700 25.49500
N  -2.08200 18.06200 25.07700
C  -1.90900 19.03600 24.18900
C  -1.88100 18.36300 22.79700
C  -1.63600 16.91000 23.07300
C  -2.11000 16.85200 24.44700
C  -3.22400 18.58300 22.07100
C  -0.19800 16.32500 22.91700
C  0.92000 17.20900 23.64500
N  -2.54900 16.38900 27.34300
C  -2.41800 15.37600 26.35200
C  -2.71700 14.07600 27.09100
C  -2.87000 14.38000 28.44400
C  -2.81200 15.75600 28.54600
C  -2.85800 12.80200 26.35600
C  -3.04100 13.80700 29.77900
O  -3.22800 12.66200 30.05300
C  -3.15000 15.02300 30.79000
C  -2.06200 14.87100 31.76200
O  -0.94200 15.37300 31.71500
O  -2.37900 13.97500 32.69600
C  -1.34000 13.68500 33.66800
H  -3.49900 21.87800 29.87600
H  -1.90000 20.93300 23.49700
H  -2.03700 14.66200 24.55900
H  -4.38600 17.55100 31.80200
H  -2.85700 20.15000 31.86300
H  -5.59500 19.69200 32.39700
H  -5.76100 20.30900 30.90300
H  -4.86400 21.28100 32.15400
H  -2.15100 18.91100 33.07200
H  -1.42700 17.53200 32.23900
H  -3.34100 16.29300 33.87500
H  -3.53400 17.91300 34.45200
H  -3.45300 23.63600 29.06100
H  -3.99500 24.35200 27.50500
H  -2.46400 24.69900 28.21300
H  -2.63900 25.23700 25.59500
H  -0.97300 25.58200 24.78500
H  -0.99300 25.03300 26.41600
H  -1.07000 18.79900 22.21400
H  -2.28800 16.28200 22.46600
H  -4.00100 19.02700 22.69400
H  -3.72500 17.67100 21.74800
H  -3.07200 19.33400 21.29500
H  0.16400 16.15700 21.90300
H  -0.23400 15.29400 23.26700
H  0.57700 17.15600 24.67800
H  0.88600 18.25200 23.32900
H  1.94700 16.84500 23.65700
H  -1.93400 12.46400 25.88700
H  -3.58700 12.87000 25.54900
H  -3.21200 12.06900 27.08200
H  -4.16700 14.98900 31.18100
H  -1.73700 12.97900 34.39800
H  -1.12400 14.56300 34.27700
H  -0.44700 13.44800 33.08900
Mg -5.71300 25.61900 26.16300
C  -4.78800 27.20800 29.22400
C  -7.67800 23.61900 27.96600
C  -6.44700 24.11000 23.37600
C  -3.35400 27.64000 24.55300
N  -6.11200 25.45200 28.29900
C  -5.69100 26.17800 29.37600
C  -6.37400 25.73900 30.65900
C  -7.05600 24.34300 30.32600
C  -6.92600 24.40700 28.71900
C  -6.41600 23.12300 30.93600
C  -7.35800 26.68700 31.34700
C  -7.09800 26.97800 32.84200
H  -6.49000 25.92200 33.74900
N  -6.90700 24.05300 25.71300
C  -7.76300 23.43200 26.58400
C  -8.74400 22.56100 25.87900
C  -8.28100 22.68700 24.53900
C  -7.17400 23.63200 24.48200
C  -10.06400 21.96500 26.42500
C  -8.81500 21.99800 23.31700
O  -8.36700 22.23800 22.16900
C  -10.06500 21.13400 23.40300
N  -4.92400 25.79400 24.30200
C  -5.42600 25.08800 23.26700
C  -4.68200 25.30600 21.96900
C  -3.58200 26.43700 22.30000
C  -3.92100 26.63000 23.83600
C  -4.12000 24.03600 21.37600
C  -3.79600 27.69700 21.34800
C  -3.13300 27.46900 19.96900
N  -4.32900 27.14000 26.64600
C  -3.44400 27.94100 25.88900
C  -2.92700 28.97500 26.73900
C  -3.39200 28.77300 28.08300
C  -4.23600 27.61900 28.02000
C  -1.98000 30.12400 26.30100
C  -3.29000 29.14200 29.51500
O  -2.54800 29.99300 30.02400
C  -4.25800 28.25500 30.26300
C  -3.41200 27.65800 31.37400
O  -2.48300 26.87000 31.19200
O  -3.85100 28.10900 32.60000
C  -2.91700 27.75700 33.68400
H  -8.33500 22.92800 28.49800
H  -6.63400 23.74400 22.36400
H  -2.67100 28.38900 24.14700
H  -5.55800 25.69100 31.38000
H  -8.10000 24.22000 30.61300
H  -6.28700 22.46800 30.07400
H  -7.13100 22.80100 31.69300
H  -5.42700 23.26100 31.37300
H  -8.36700 26.28900 31.23700
H  -7.27900 27.56500 30.70600
H  -8.04200 27.27800 33.29800
H  -6.43700 27.83300 32.98300
H  -10.96900 22.35400 25.95800
H  -10.31900 22.21400 27.45500
H  -9.99700 20.87800 26.44800
H  -9.82400 20.43700 24.20600
H  -10.21600 20.64500 22.44100
H  -11.02600 21.52500 23.73500
H  -5.43400 25.84200 21.39000
H  -2.61600 25.93400 22.25000
H  -3.07400 24.26000 21.16400
H  -4.61600 23.74400 20.45000
H  -4.19500 23.19100 22.05900
H  -3.44300 28.57600 21.88600
H  -4.86000 27.89200 21.21500
H  -3.36500 28.38800 19.43000
H  -3.69600 26.64000 19.54200
H  -2.04900 27.37500 19.89800
H  -2.12600 30.32100 25.23900
H  -1.00000 29.65000 26.34900
H  -2.02700 30.99700 26.95200
H  -5.06000 28.91600 30.59400
H  -2.39900 26.80000 33.62000
H  -3.45300 27.91500 34.62000
H  -2.12500 28.50500 33.66000

