158

Mg -10.64500 17.03500 42.36100
C  -7.26000 16.03300 42.15600
C  -9.51100 20.19100 41.53000
C  -13.76900 17.80000 41.80600
C  -11.44000 13.58700 42.53300
N  -8.52400 17.98300 41.69600
C  -7.37100 17.35000 41.80000
C  -6.19300 18.34600 41.50400
C  -6.96700 19.71500 41.61900
C  -8.44000 19.30900 41.69500
C  -6.46600 20.57700 42.70900
C  -5.43400 18.17500 40.12900
C  -6.35000 17.64400 39.01100
H  -5.70600 17.76500 37.65900
N  -11.56500 18.83500 41.94200
C  -10.97200 19.97300 41.59100
C  -11.92300 20.96500 41.34300
C  -13.19500 20.31700 41.42200
C  -12.92200 18.87600 41.74200
C  -11.59100 22.40100 40.94100
C  -14.51900 21.04600 41.26500
O  -14.58700 22.21400 41.01500
C  -15.85400 20.29200 41.45800
N  -12.36400 15.83100 42.25100
C  -13.57200 16.46300 42.06700
C  -14.65500 15.49800 42.16700
C  -13.97200 14.11600 42.30300
C  -12.49500 14.49400 42.34000
C  -15.73200 15.82100 43.24000
C  -14.22100 13.16200 41.10900
C  -14.36600 11.68400 41.53000
N  -9.61100 15.21300 42.41600
C  -10.01700 13.90200 42.55400
C  -8.88900 12.97000 42.56900
C  -7.82700 13.84900 42.54300
C  -8.26600 15.16900 42.38400
C  -8.93900 11.49600 42.61000
C  -6.39200 13.77200 42.46300
O  -5.63300 12.80100 42.48800
C  -5.94200 15.22600 42.27100
C  -5.12100 15.69900 43.43800
O  -3.91800 15.89200 43.32000
O  -5.84500 15.92700 44.59900
C  -5.14800 16.59400 45.81900
H  -9.14300 21.18100 41.25100
H  -14.74800 18.18200 41.50700
H  -11.74500 12.54600 42.65500
H  -5.47900 18.26700 42.32300
H  -6.69400 20.29700 40.73900
H  -6.00900 19.95600 43.48000
H  -7.40800 20.95800 43.10200
H  -5.85800 21.42200 42.38700
H  -4.60600 17.49100 40.31200
H  -5.06200 19.12900 39.75600
H  -7.24600 18.26300 39.07300
H  -6.45800 16.58100 39.22800
H  -11.44600 22.47600 39.86300
H  -10.66600 22.69200 41.43900
H  -12.39700 23.06400 41.25300
H  -16.07300 19.62500 40.62400
H  -16.62700 21.05000 41.32800
H  -15.92700 19.83700 42.44600
H  -15.29000 15.48900 41.28100
H  -14.19700 13.63400 43.25400
H  -16.76800 15.76500 42.90700
H  -15.57300 16.88100 43.44200
H  -15.62500 15.19200 44.12400
H  -13.40700 13.14700 40.38300
H  -15.00100 13.56900 40.46500
H  -14.84100 11.49100 42.49200
H  -13.43400 11.12400 41.47000
H  -15.10500 11.19000 40.89900
H  -8.19400 11.09900 41.92000
H  -9.85200 10.96500 42.34300
H  -8.60600 11.15100 43.58900
H  -5.31300 15.34100 41.38800
H  -5.17900 17.68000 45.91200
H  -4.06900 16.48000 45.72200
H  -5.55700 16.19200 46.74600
Mg -5.27000 25.00500 26.80600
C  -3.75700 26.51100 29.56800
C  -6.97300 22.88000 28.81000
C  -6.45500 23.61700 23.99200
C  -3.17000 27.13300 24.78000
N  -5.30600 24.74200 28.93500
C  -4.67800 25.48000 29.88600
C  -5.17700 25.03800 31.23300
C  -5.84900 23.67400 30.96200
C  -6.10400 23.71400 29.48200
C  -5.04400 22.46800 31.46800
C  -6.13800 26.11100 31.78600
C  -6.01100 26.37100 33.22800
H  -5.41100 25.29700 34.14400
N  -6.57300 23.49600 26.46900
C  -7.29100 22.77200 27.40000
C  -8.19300 21.90400 26.74300
C  -8.04600 22.14700 25.36900
C  -6.94900 23.11100 25.19200
C  -9.28600 21.13100 27.52300
C  -8.88900 21.48500 24.21000
O  -8.67100 21.74200 23.06300
C  -9.98800 20.48000 24.41900
N  -4.87600 25.34200 24.73000
C  -5.51900 24.57900 23.76200
C  -5.25100 25.14400 22.40400
C  -4.27100 26.39700 22.68800
C  -4.05200 26.27300 24.15000
C  -4.75700 24.09700 21.22700
C  -4.85800 27.81800 22.18500
C  -3.86900 28.55500 21.26200
N  -3.71200 26.44900 27.01100
C  -2.97900 27.15300 26.10800
C  -1.95500 27.93500 26.93600
C  -2.33700 27.82000 28.24800
C  -3.37000 26.90700 28.23100
C  -0.90100 28.88000 26.44800
C  -1.96100 28.23200 29.57500
O  -1.18600 29.05100 30.00400
C  -2.96500 27.40700 30.53500
C  -2.02800 26.67700 31.37100
O  -1.54300 25.62500 31.09000
O  -1.85000 27.35000 32.60000
C  -0.99300 26.75600 33.63300
H  -7.49200 22.23900 29.52600
H  -6.63800 23.10100 23.04700
H  -2.51800 27.78300 24.19200
H  -4.27100 24.83700 31.80400
H  -6.83500 23.74300 31.42100
H  -4.03200 22.67100 31.82000
H  -4.99100 21.79000 30.61600
H  -5.63600 21.97600 32.23800
H  -7.16900 25.78400 31.65500
H  -6.07100 27.06800 31.26800
H  -7.03000 26.45100 33.60800
H  -5.49900 27.28300 33.53200
H  -10.29200 21.35800 27.17000
H  -9.16100 21.17200 28.60500
H  -9.08100 20.09500 27.25400
H  -9.96700 19.89500 23.49900
H  -10.97500 20.90500 24.60300
H  -9.70900 19.78700 25.21300
H  -6.19700 25.55600 22.04900
H  -3.36000 26.12300 22.15600
H  -5.44900 24.07600 20.38500
H  -5.03500 23.15000 21.68900
H  -3.72300 24.17200 20.89000
H  -5.11700 28.44900 23.03400
H  -5.71200 27.74100 21.51200
H  -3.66000 29.53000 21.70400
H  -4.38500 28.84000 20.34500
H  -2.99800 27.93200 21.05900
H  -0.62100 28.59200 25.43400
H  0.02600 28.72200 26.99900
H  -1.26600 29.90500 26.37900
H  -3.37600 28.19100 31.17200
H  0.00600 26.67100 33.20600
H  -1.50900 25.81500 33.82300
H  -0.93700 27.26700 34.59500

