158

Mg 1.94700 -2.15900 42.77900
C  5.31500 -1.88500 42.22500
C  1.50400 0.95900 41.32500
C  -1.27400 -2.90200 42.39700
C  2.60500 -5.60300 43.54000
N  3.31500 -0.76100 41.66000
C  4.65900 -0.79100 41.75200
C  5.24100 0.40800 41.10500
C  4.10500 1.44900 41.06200
C  2.86800 0.55200 41.39700
C  4.31700 2.70000 41.97700
C  6.11300 0.33400 39.78400
C  5.58600 -0.70000 38.80700
H  5.24400 -0.29000 37.38700
N  0.37400 -1.10400 41.98600
C  0.33500 0.22400 41.38200
C  -1.02900 0.56000 41.12000
C  -1.88100 -0.49900 41.52400
C  -0.93600 -1.53800 42.05200
C  -1.53100 1.99600 40.71100
C  -3.46100 -0.50900 41.69800
O  -4.13500 0.41300 41.26600
C  -4.15700 -1.58000 42.35200
N  0.83500 -3.92500 42.92500
C  -0.51000 -3.99300 42.82000
C  -1.13000 -5.34400 42.99200
C  0.13400 -6.20400 43.36200
C  1.28100 -5.18700 43.30200
C  -2.27800 -5.39100 44.01300
C  0.44900 -7.43400 42.56500
C  0.52500 -8.79800 43.34900
N  3.59600 -3.44600 43.21300
C  3.73200 -4.78000 43.44000
C  5.07800 -5.16500 43.71400
C  5.79400 -4.06800 43.23200
C  4.76200 -3.05600 42.86400
C  5.46200 -6.55600 44.21700
C  7.08800 -3.54000 42.97800
O  8.26300 -3.86300 43.07400
C  6.82500 -2.15200 42.18900
C  7.68800 -1.04800 42.91600
O  8.84500 -0.76500 42.62300
O  7.02400 -0.48000 43.89800
C  7.47800 0.80100 44.36500
H  1.40700 2.01400 41.06000
H  -2.27900 -3.32400 42.32100
H  2.72500 -6.61800 43.92500
H  5.90200 0.81300 41.87200
H  3.95800 1.78500 40.03500
H  5.26700 2.72000 42.51100
H  3.61000 2.62200 42.80200
H  4.01400 3.65500 41.54700
H  7.16100 0.16500 40.02800
H  6.00500 1.26300 39.22400
H  4.75900 -1.28200 39.21400
H  6.31600 -1.50700 38.74500
H  -2.45400 2.25000 41.23200
H  -1.73400 1.87200 39.64700
H  -0.74500 2.74500 40.80300
H  -5.18900 -1.30700 42.57000
H  -3.71300 -1.91400 43.29000
H  -4.04100 -2.36100 41.60000
H  -1.46100 -5.75900 42.04000
H  0.08000 -6.58100 44.38300
H  -3.01900 -6.00500 43.50100
H  -2.63300 -4.37100 44.16000
H  -1.97900 -5.92400 44.91600
H  1.40400 -7.23300 42.07900
H  -0.29500 -7.60300 41.78700
H  1.51700 -9.01800 43.74500
H  0.03400 -9.58900 42.78300
H  -0.10500 -8.75000 44.23700
H  5.70600 -7.27800 43.43800
H  4.76200 -6.95700 44.95000
H  6.39300 -6.36300 44.75000
H  7.15600 -2.34900 41.16900
H  7.75300 0.64700 45.40900
H  6.75100 1.60700 44.27300
H  8.44200 1.14600 43.99200
Mg -0.74100 34.83000 26.84200
C  -2.77900 33.13000 29.35300
C  0.42300 36.85700 29.29100
C  0.71300 36.68200 24.40900
C  -2.29900 32.89900 24.39800
N  -1.30400 35.07400 29.02900
C  -1.95500 34.15600 29.87400
C  -1.86100 34.54500 31.37600
C  -0.90800 35.79200 31.18900
C  -0.50100 35.91000 29.69000
C  -1.54000 37.11100 31.72600
C  -1.23900 33.39300 32.29500
C  -1.83600 33.18100 33.67700
H  -1.00600 32.96600 34.96000
N  0.47100 36.49500 26.84900
C  0.93500 37.07500 27.99000
C  1.94300 37.99200 27.65700
C  2.01000 38.09100 26.21200
C  1.05200 37.00800 25.75400
C  2.69000 38.77400 28.72400
C  2.91200 38.89900 25.41500
O  2.92100 38.69500 24.20500
C  3.85300 39.93000 25.98800
N  -0.88300 34.89600 24.74700
C  -0.16400 35.69500 23.96700
C  -0.36300 35.44300 22.39400
C  -1.16400 34.14400 22.42600
C  -1.46800 33.93300 23.91800
C  -1.10000 36.60200 21.64700
C  -0.50500 32.84600 21.82800
C  0.54600 32.04900 22.65100
N  -2.16900 33.28600 26.80300
C  -2.65300 32.57500 25.71200
C  -3.53800 31.52700 26.23600
C  -3.57700 31.63700 27.64500
C  -2.81300 32.81500 27.91500
C  -4.12200 30.40200 25.44500
C  -4.14000 31.16000 28.93500
O  -4.82400 30.19200 29.26000
C  -3.56400 32.07100 30.10200
C  -4.69500 32.56400 30.94200
O  -5.52800 33.41900 30.58000
O  -4.56100 31.99900 32.13200
C  -5.56600 32.42000 33.12800
H  0.80400 37.34900 30.18900
H  1.28200 37.10700 23.58000
H  -2.63500 32.16100 23.66800
H  -2.81700 34.76400 31.85200
H  -0.04800 35.56500 31.82000
H  -2.57500 36.93000 31.43600
H  -1.24300 38.04900 31.25700
H  -1.49200 37.30800 32.79700
H  -0.21200 33.71400 32.47200
H  -1.13700 32.47900 31.71000
H  -2.41400 32.25800 33.64500
H  -2.57000 33.96900 33.84500
H  2.95100 38.15700 29.58300
H  2.11100 39.65700 28.99600
H  3.64400 39.12200 28.32800
H  4.34000 40.49900 25.19600
H  4.66200 39.45600 26.54300
H  3.31800 40.64900 26.60800
H  0.57800 35.19800 21.90100
H  -2.11900 34.28300 21.92000
H  -0.46500 36.93500 20.82700
H  -1.14200 37.36100 22.42900
H  -2.10500 36.33600 21.31800
H  -0.10600 33.00200 20.82600
H  -1.27200 32.11900 21.56300
H  0.65200 32.46800 23.65100
H  1.54700 31.99900 22.22100
H  0.14500 31.04800 22.81300
H  -3.57100 30.32100 24.50900
H  -5.16600 30.58000 25.18800
H  -4.02300 29.42200 25.91400
H  -2.89100 31.45500 30.69800
H  -5.76800 31.50000 33.67700
H  -6.45800 32.77900 32.61400
H  -5.08600 33.07900 33.85100

