158

Mg 41.26500 7.29100 29.36500
C  43.14800 8.46500 32.06800
C  39.04800 5.98400 31.61100
C  39.45100 6.21300 26.77300
C  43.96400 7.97700 27.24800
N  41.11600 7.19700 31.59700
C  41.86400 7.88700 32.46500
C  41.22500 7.97100 33.82700
C  40.22200 6.77200 33.73600
C  40.13900 6.58200 32.24200
C  40.67900 5.42400 34.42400
C  40.68000 9.31200 34.14300
C  40.58700 9.68000 35.59800
H  41.53300 10.72200 36.30200
N  39.52200 6.27100 29.22400
C  38.71500 5.83400 30.21600
C  37.55600 5.18400 29.57700
C  37.54800 5.39100 28.20900
C  38.91600 5.95600 28.02200
C  36.55300 4.42200 30.50200
C  36.49800 5.06700 27.24400
O  36.58800 5.04100 26.04200
C  35.11000 4.85400 27.81400
N  41.71800 6.91600 27.33500
C  40.72100 6.62600 26.48800
C  41.10500 6.79700 24.98400
C  42.49600 7.45800 25.08200
C  42.84400 7.38500 26.66800
C  40.98300 5.55200 24.07400
C  42.58400 8.94600 24.48500
C  42.13600 10.12800 25.42100
N  43.18100 8.12800 29.55800
C  44.15600 8.29900 28.62700
C  45.26000 9.01700 29.21400
C  44.87600 9.14300 30.57900
C  43.63400 8.55300 30.76700
C  46.40100 9.64500 28.51800
C  45.29600 9.74100 31.84200
O  46.27000 10.39400 32.16000
C  44.10300 9.33800 32.80000
C  44.61700 8.66000 34.00300
O  44.44700 7.44400 34.28400
O  45.44200 9.48800 34.78800
C  45.88500 8.82300 36.01600
H  38.28800 5.58000 32.28300
H  38.73100 5.96900 25.98900
H  44.66800 8.19300 26.44200
H  42.05600 7.79700 34.51000
H  39.26400 7.06700 34.16400
H  40.11900 5.16700 35.32300
H  41.75000 5.56000 34.57700
H  40.60400 4.56800 33.75500
H  39.68900 9.45800 33.71400
H  41.30400 9.99300 33.56400
H  40.56500 8.77700 36.20800
H  39.58200 10.09900 35.66200
H  37.09300 4.06200 31.37800
H  36.08400 3.55700 30.03300
H  35.78500 5.13000 30.81500
H  35.16800 3.83200 28.18700
H  34.39300 5.06600 27.02100
H  34.97200 5.53400 28.65600
H  40.42400 7.50600 24.51200
H  43.30000 6.90200 24.59900
H  40.22400 4.83300 24.38100
H  41.96300 5.07500 24.07000
H  40.73200 5.89300 23.06900
H  41.97700 8.85800 23.58400
H  43.49400 9.15500 23.92400
H  41.85000 9.84400 26.43400
H  41.30400 10.56400 24.86700
H  42.91100 10.89500 25.44200
H  46.26600 10.14300 27.55800
H  47.18900 8.89300 28.48200
H  46.90900 10.38500 29.13700
H  43.68600 10.28800 33.13500
H  45.05300 8.63900 36.69600
H  46.56600 9.52600 36.49700
H  46.46900 7.92400 35.82200
Mg 48.01000 35.29600 28.13700
C  46.34700 33.80000 30.83900
C  48.31300 38.19400 30.06300
C  49.51300 36.87800 25.42800
C  47.35700 32.64300 26.08700
N  47.36600 35.92400 30.20200
C  46.92900 35.06600 31.16400
C  46.96200 35.81100 32.52400
C  47.16000 37.36300 32.14500
C  47.78700 37.11400 30.78300
C  45.94400 38.23700 32.01100
C  48.12200 35.30000 33.47300
C  47.82100 34.98900 34.96900
H  47.35700 36.20100 35.81500
N  48.90000 37.22900 27.80400
C  48.89600 38.28500 28.78200
C  49.70600 39.34900 28.26500
C  50.08600 38.92500 26.94000
C  49.47400 37.58800 26.65100
C  49.94000 40.65900 28.92600
C  50.94500 39.66200 25.93200
O  51.32200 39.07800 24.91900
C  51.34000 41.16600 26.12000
N  48.13000 34.95700 25.91800
C  48.91800 35.68800 25.05900
C  48.89000 35.08100 23.64600
C  48.43300 33.65800 23.97400
C  47.91200 33.69300 25.41500
C  47.99400 35.97000 22.77700
C  49.60100 32.53500 23.92300
C  49.08600 31.15100 23.45700
N  47.08100 33.56500 28.47000
C  46.83400 32.57200 27.49100
C  46.02300 31.49800 28.07700
C  45.81400 31.95300 29.44000
C  46.43700 33.22400 29.56600
C  45.63000 30.13100 27.49700
C  45.29600 31.51100 30.76300
O  44.83400 30.44800 31.15900
C  45.51700 32.80800 31.67500
C  46.04900 32.29300 32.93800
O  47.10400 31.75400 33.05200
O  44.99200 32.31600 33.93800
C  45.37800 31.86700 35.29900
H  48.31300 39.17700 30.53700
H  50.08300 37.35200 24.62500
H  47.27400 31.80900 25.38700
H  45.97900 35.62800 32.95900
H  47.88000 37.89800 32.76400
H  45.63100 38.62100 32.98200
H  45.13000 37.64600 31.59100
H  46.10200 39.08200 31.34100
H  48.98000 35.95900 33.33800
H  48.54800 34.40900 33.01100
H  48.79400 34.69000 35.35900
H  47.07600 34.19500 35.01300
H  49.17700 41.38800 28.65400
H  50.90500 41.08600 28.65100
H  49.91700 40.55000 30.01100
H  52.23100 41.35600 26.71800
H  50.44100 41.64000 26.51200
H  51.57200 41.58600 25.14100
H  49.84500 35.25700 23.15000
H  47.66800 33.35100 23.26100
H  48.67000 36.32300 21.99800
H  47.80900 36.93500 23.25100
H  47.16100 35.42200 22.33700
H  49.93500 32.38900 24.95000
H  50.44600 32.86000 23.31500
H  49.63000 30.80900 22.57700
H  48.07700 31.32900 23.08500
H  48.98900 30.35100 24.19100
H  46.08600 29.34100 28.09300
H  46.10100 30.05600 26.51700
H  44.54900 30.02900 27.39900
H  44.54200 33.21600 31.94300
H  45.07100 30.85300 35.55300
H  44.81100 32.54500 35.93600
H  46.41900 32.12400 35.49300

