158

Mg 0.17700 -2.57200 44.39500
C  3.68900 -2.23200 44.30300
C  -0.02800 0.24100 42.48700
C  -3.06000 -3.21900 44.11100
C  0.61900 -5.69500 45.85200
N  1.78400 -1.20000 43.35100
C  3.09800 -1.16500 43.53000
C  3.76700 0.02200 42.75500
C  2.50600 0.88100 42.41500
C  1.32000 -0.08800 42.73000
C  2.39300 2.18700 43.18700
C  4.64400 -0.43100 41.55100
C  5.62400 0.61500 40.97100
H  5.25500 1.09800 39.60500
N  -1.26100 -1.60800 43.43000
C  -1.20000 -0.46600 42.72500
C  -2.51000 -0.03000 42.31700
C  -3.41700 -1.08700 42.62000
C  -2.59400 -2.01400 43.49200
C  -2.69100 1.07900 41.33200
C  -4.77200 -1.17600 42.05500
O  -5.26000 -0.32300 41.31000
C  -5.53900 -2.42400 42.24900
N  -1.06800 -4.10100 45.00400
C  -2.36300 -4.15100 44.82400
C  -3.03200 -5.43800 45.23400
C  -1.85300 -6.27900 45.80500
C  -0.68000 -5.32200 45.48500
C  -4.23800 -5.28100 46.19000
C  -1.77400 -7.76600 45.28500
C  -1.55900 -8.87400 46.33600
N  1.74500 -3.69300 45.07300
C  1.75400 -4.92800 45.67000
C  3.15400 -5.29400 45.94400
C  3.89400 -4.21600 45.42200
C  3.02000 -3.31800 44.82200
C  3.65100 -6.43900 46.66200
C  5.28500 -3.70600 45.28700
O  6.34600 -4.12500 45.74500
C  5.15900 -2.52200 44.35000
C  5.98500 -1.34900 44.85500
O  5.74400 -0.59300 45.76800
O  7.03800 -1.07400 43.90800
C  8.02000 -0.05000 44.29400
H  -0.14000 1.19100 41.96000
H  -4.11600 -3.48600 44.18700
H  0.74800 -6.65800 46.35000
H  4.38400 0.54100 43.48800
H  2.53700 1.32900 41.42200
H  3.33600 2.69600 43.38600
H  1.77500 2.15400 44.08400
H  1.95800 2.91800 42.50600
H  3.91700 -0.63000 40.76400
H  5.23600 -1.29000 41.86600
H  6.60700 0.14500 40.97800
H  5.72800 1.42900 41.68800
H  -2.33500 0.79800 40.34100
H  -2.18000 1.98800 41.64900
H  -3.72000 1.40700 41.18300
H  -4.94900 -3.30400 41.99300
H  -6.35700 -2.33800 41.53300
H  -5.94500 -2.32000 43.25600
H  -3.26700 -5.94500 44.29800
H  -1.96100 -6.48100 46.87100
H  -4.01100 -5.59800 47.20800
H  -4.88200 -6.03800 45.74200
H  -4.55100 -4.24200 46.29100
H  -0.94500 -7.76300 44.57700
H  -2.70900 -8.04500 44.80000
H  -0.59000 -9.35900 46.22300
H  -2.26700 -9.68800 46.17600
H  -1.58800 -8.50600 47.36100
H  3.12800 -6.56700 47.60900
H  4.70000 -6.22400 46.86800
H  3.48800 -7.33600 46.06400
H  5.48600 -3.02800 43.44200
H  7.42600 0.64100 44.89300
H  8.33600 0.47800 43.39400
H  8.79100 -0.57500 44.85700
Mg 9.90000 47.27200 26.22700
C  7.63600 47.27100 28.80300
C  12.59700 47.77500 28.24500
C  12.13200 47.35500 23.45200
C  7.33100 46.87100 23.86800
N  10.04700 47.38200 28.32800
C  9.00900 47.41900 29.25600
C  9.61400 47.55700 30.67500
C  11.17300 47.93400 30.37900
C  11.32000 47.67800 28.90600
C  11.70800 49.27700 30.87600
C  9.39800 46.33500 31.62000
C  8.95700 46.63600 33.05100
H  9.16200 45.63700 34.15000
N  12.01100 47.58500 25.85600
C  12.93900 47.80800 26.89400
C  14.26700 47.98600 26.33400
C  14.18000 47.57200 25.01200
C  12.71800 47.48300 24.71800
C  15.42200 48.41000 27.14600
C  15.23400 47.22100 24.03500
O  14.98000 46.72600 22.92900
C  16.69000 47.35500 24.56600
N  9.78300 47.24500 24.01800
C  10.79200 47.17400 23.10600
C  10.41200 47.06400 21.64800
C  8.84000 46.86000 21.79300
C  8.62300 47.03100 23.33600
C  10.81900 48.35000 20.82200
C  8.26900 45.43500 21.29500
C  6.92900 45.61100 20.44700
N  7.94000 47.21100 26.23900
C  6.96800 47.00100 25.24500
C  5.65300 46.99300 25.87600
C  5.89600 47.04500 27.26200
C  7.30100 47.26200 27.44400
C  4.30200 46.77000 25.20200
C  5.21400 46.95100 28.58000
O  4.02600 46.84000 28.88100
C  6.36800 47.12100 29.61500
C  6.37200 45.88500 30.34300
O  6.91000 44.84400 30.00400
O  5.65800 46.03900 31.54200
C  5.68400 44.92000 32.42500
H  13.32100 47.97100 29.03900
H  12.80200 47.37800 22.59100
H  6.51900 46.90400 23.13900
H  9.12400 48.45100 31.06000
H  11.83500 47.16800 30.78300
H  12.03300 49.88800 30.03400
H  12.56400 49.15500 31.54000
H  10.87300 49.80800 31.33300
H  10.33800 45.81900 31.81600
H  8.72100 45.54800 31.28800
H  7.89100 46.86000 33.03000
H  9.52100 47.52900 33.32300
H  15.17300 48.69600 28.16800
H  15.80900 49.28900 26.63100
H  16.25800 47.71100 27.15300
H  17.33400 47.32500 23.68700
H  16.91600 46.47600 25.16900
H  16.75300 48.31900 25.07300
H  10.82800 46.13600 21.25500
H  8.28700 47.67400 21.32500
H  11.20500 49.07300 21.54200
H  9.96700 48.86700 20.38000
H  11.57300 48.14500 20.06200
H  7.99100 44.85200 22.17300
H  8.95600 44.80200 20.73300
H  6.48500 46.57500 20.69200
H  6.20800 44.92800 20.89600
H  6.97500 45.39800 19.37900
H  4.54900 46.59000 24.15600
H  3.62000 47.61500 25.29600
H  3.95900 45.82900 25.63100
H  6.04400 47.93800 30.25900
H  6.22500 45.19000 33.33200
H  5.99500 43.96100 32.01200
H  4.61000 44.95600 32.60800

