158

Mg 53.75600 24.07000 45.12800
C  51.11400 26.08000 43.76100
C  52.72600 21.41000 43.30400
C  56.69800 22.73200 45.70900
C  54.94600 27.23000 46.49700
N  52.28600 23.84700 43.49400
C  51.27300 24.76000 43.26500
C  50.19500 24.13400 42.43100
C  50.44800 22.54000 42.63300
C  51.90900 22.56800 43.18500
C  49.43500 21.97600 43.68700
C  50.28900 24.54600 40.93900
C  48.89600 24.80400 40.26800
H  48.51100 23.80100 39.20700
N  54.58000 22.26900 44.60800
C  53.99700 21.29200 43.87300
C  54.86600 20.16700 43.86900
C  56.03700 20.49400 44.67800
C  55.78900 21.85800 45.07600
C  54.58200 18.88700 43.11800
C  57.26300 19.58000 44.96400
O  57.21500 18.40800 44.61100
C  58.52100 20.12700 45.67300
N  55.50300 24.88500 45.93500
C  56.57800 24.05000 46.06500
C  57.72600 24.85400 46.73100
C  57.21200 26.26900 46.63900
C  55.77000 26.14000 46.34900
C  58.18000 24.30700 48.08400
C  57.94900 27.20700 45.56700
C  58.55000 28.44300 46.26300
N  53.05200 26.21000 45.40100
C  53.62700 27.25800 46.02800
C  52.71100 28.32900 46.02000
C  51.72700 27.97100 45.08100
C  52.06100 26.65000 44.68900
C  52.84700 29.54800 46.77200
C  50.40900 28.34100 44.47900
O  49.75100 29.36200 44.57200
C  49.96600 27.04900 43.62000
C  49.66200 27.45400 42.22200
O  50.37100 27.89600 41.31800
O  48.34800 27.45000 42.18800
C  47.63800 28.08400 41.01100
H  52.28900 20.47600 42.94400
H  57.68400 22.36000 45.99300
H  55.22600 28.14500 47.02400
H  49.22800 24.42400 42.84300
H  50.35400 21.96200 41.71400
H  49.08900 22.82000 44.28300
H  50.03200 21.35100 44.35100
H  48.59000 21.41800 43.28300
H  50.80100 23.73000 40.42900
H  50.98600 25.37400 40.80800
H  48.95200 25.81300 39.85900
H  48.09000 24.66600 40.98900
H  53.82400 19.15800 42.38300
H  54.21300 18.13900 43.82000
H  55.43300 18.42400 42.61700
H  58.99300 21.02300 45.27200
H  59.27200 19.33800 45.61900
H  58.33200 20.19600 46.74400
H  58.57900 24.70200 46.07000
H  57.26400 26.70200 47.63800
H  58.44500 25.09600 48.78800
H  59.12800 23.79000 47.93600
H  57.46200 23.64900 48.57400
H  57.11700 27.55300 44.95300
H  58.73000 26.69200 45.00800
H  57.90000 29.27200 45.98200
H  59.48300 28.70000 45.76200
H  58.73600 28.30500 47.32800
H  51.90200 29.98400 47.09600
H  53.39100 30.24200 46.13100
H  53.46800 29.46500 47.66400
H  49.02100 26.74600 44.07300
H  47.97800 29.10400 40.83000
H  46.57100 28.10900 41.23200
H  47.78200 27.57400 40.05900
Mg 46.47600 24.42800 28.13500
C  47.00500 26.71000 30.82000
C  45.22600 22.16800 30.23300
C  46.57600 22.21900 25.60600
C  47.53300 27.00200 25.98300
N  46.08400 24.49800 30.30600
C  46.45900 25.46100 31.23700
C  45.87900 25.01900 32.59800
C  45.28300 23.59400 32.38700
C  45.51600 23.40000 30.88300
C  45.86200 22.46800 33.30500
C  44.92400 26.01100 33.32100
C  45.25400 26.81500 34.57500
H  44.32500 26.80600 35.82800
N  45.99400 22.40100 27.98800
C  45.46200 21.65200 29.01400
C  45.23100 20.29800 28.48000
C  45.69800 20.31100 27.11600
C  46.19800 21.62600 26.86900
C  44.78200 19.22700 29.48400
C  45.73000 19.19700 26.12100
O  46.28800 19.25200 25.06100
C  45.11200 17.95400 26.55400
N  47.03400 24.63200 26.09400
C  46.87100 23.54700 25.19000
C  47.01900 24.02400 23.67600
C  47.12200 25.58800 23.87700
C  47.26300 25.76500 25.42100
C  48.17800 23.30900 22.99200
C  45.97600 26.49000 23.34600
C  44.55800 26.16300 23.68600
N  47.26900 26.44000 28.29400
C  47.68000 27.32200 27.32500
C  48.14100 28.60400 27.99000
C  47.92600 28.42300 29.35900
C  47.40000 27.09100 29.48900
C  48.68300 29.79800 27.24500
C  47.94100 28.94400 30.72400
O  48.37200 30.05700 31.09000
C  47.35500 27.91300 31.76100
C  48.42500 27.58000 32.76700
O  49.58500 27.17600 32.51300
O  48.09000 28.04100 34.10700
C  49.12700 28.00500 35.13200
H  44.69400 21.59800 30.99800
H  46.59800 21.56400 24.73200
H  47.89300 27.85400 25.40300
H  46.64800 24.78700 33.33500
H  44.19600 23.57100 32.46500
H  45.06600 21.86200 33.73900
H  46.46600 22.84700 34.12900
H  46.55000 21.78100 32.81200
H  44.04800 25.40200 33.54200
H  44.57600 26.69500 32.54700
H  45.40200 27.83900 34.23300
H  46.16900 26.44800 35.04100
H  43.71900 19.08300 29.29300
H  44.73000 19.55100 30.52400
H  45.31800 18.27800 29.47500
H  45.54600 17.52000 27.45500
H  44.89700 17.27800 25.72600
H  44.07800 18.21200 26.78600
H  46.07500 23.85300 23.15700
H  48.02800 25.97900 23.41400
H  48.60900 22.51400 23.59900
H  48.89000 24.05000 22.62800
H  47.72600 22.88400 22.09600
H  46.06000 26.52300 22.25900
H  46.20500 27.54400 23.50400
H  44.51200 25.20300 24.20100
H  43.99400 25.99000 22.77000
H  44.14800 26.92900 24.34500
H  48.55800 30.68600 27.86500
H  47.90900 29.96900 26.49700
H  49.65500 29.69300 26.76300
H  46.50400 28.36100 32.27400
H  49.97200 27.34900 34.92300
H  48.71700 27.71400 36.09900
H  49.47400 29.02900 35.26900

