158

Mg 1.57100 -1.44900 44.86400
C  4.88300 -0.39100 44.02600
C  0.52100 1.26500 43.03200
C  -1.48500 -2.88500 44.89700
C  3.00600 -4.49100 45.89200
N  2.71500 0.13200 43.33000
C  3.99300 0.42400 43.37400
C  4.27000 1.73900 42.72000
C  2.84300 2.38200 42.73000
C  1.92900 1.15100 42.94400
C  2.55900 3.45000 43.81600
C  4.87700 1.52300 41.32000
C  5.96200 2.48900 40.88700
H  5.78600 3.47600 39.75500
N  -0.12000 -0.89400 44.10300
C  -0.43400 0.30700 43.41600
C  -1.83500 0.51300 43.25000
C  -2.44100 -0.66000 43.74000
C  -1.38300 -1.55800 44.28200
C  -2.40600 1.76900 42.61500
C  -3.91700 -0.88000 43.83800
O  -4.60500 0.03900 43.42400
C  -4.62800 -2.07500 44.42200
N  0.83100 -3.41800 45.41600
C  -0.50700 -3.79200 45.35500
C  -0.73000 -5.18900 45.95600
C  0.74000 -5.64300 46.28500
C  1.60000 -4.45300 45.86000
C  -1.94400 -5.29800 46.99900
C  1.14100 -7.02600 45.63100
C  1.70400 -8.16800 46.58100
N  3.52400 -2.15900 45.18400
C  3.91200 -3.44300 45.63300
C  5.34700 -3.43600 45.87400
C  5.76700 -2.16900 45.34800
C  4.56700 -1.52400 44.84800
C  6.30400 -4.48300 46.46400
C  6.91300 -1.36700 45.05500
O  8.07900 -1.53700 45.37700
C  6.33200 -0.14300 44.25900
C  6.56700 1.10000 45.06300
O  6.03800 1.49300 46.12100
O  7.64400 1.69900 44.43400
C  7.94500 3.17500 44.80900
H  0.09300 2.16500 42.58400
H  -2.50100 -3.28100 44.95900
H  3.40400 -5.41900 46.30800
H  4.97100 2.26500 43.36900
H  2.56700 2.89400 41.80800
H  1.78300 3.21700 44.54600
H  2.27300 4.30400 43.20200
H  3.49900 3.67300 44.32200
H  4.13600 1.65000 40.53100
H  5.21300 0.49400 41.19600
H  6.86700 1.88200 40.87500
H  6.21500 3.14800 41.71800
H  -2.18700 2.55500 43.33700
H  -3.48200 1.83800 42.46000
H  -1.93800 1.98500 41.65400
H  -5.69800 -1.86600 44.42700
H  -4.24300 -2.20900 45.43300
H  -4.41400 -2.91400 43.76000
H  -1.00900 -5.73200 45.05300
H  0.66700 -5.79200 47.36200
H  -2.53900 -4.38600 47.03900
H  -1.50400 -5.56300 47.96100
H  -2.57900 -6.16300 46.81100
H  1.98500 -6.86200 44.96100
H  0.30600 -7.45900 45.08000
H  0.88900 -8.89200 46.62200
H  2.04900 -7.82000 47.55500
H  2.63000 -8.61600 46.22200
H  6.77800 -5.05200 45.66400
H  5.83500 -5.20100 47.13700
H  7.13500 -3.99900 46.97700
H  6.79200 -0.07600 43.27300
H  8.39500 3.70300 43.96800
H  8.75600 3.17500 45.53800
H  7.10300 3.73800 45.21200
Mg -10.17700 39.31100 40.24400
C  -9.38100 35.99400 39.13400
C  -7.01900 40.26200 39.29700
C  -11.38000 42.49100 40.14200
C  -13.52600 38.28100 40.92500
N  -8.46100 38.21000 39.09800
C  -8.32000 36.90900 38.94700
C  -6.91700 36.58700 38.53000
C  -6.08700 37.90500 38.90200
C  -7.27600 38.83800 39.15600
C  -5.22900 37.83600 40.14800
C  -6.86400 36.23100 36.99700
C  -7.49300 37.11100 35.94200
H  -8.68200 36.55700 35.16100
N  -9.30100 41.15600 39.90100
C  -7.97600 41.35000 39.51600
C  -7.79100 42.80100 39.29100
C  -8.98500 43.48100 39.55700
C  -9.96400 42.39500 39.96800
C  -6.43800 43.31600 38.73200
C  -9.16800 44.98100 39.19500
O  -8.22300 45.61700 38.74200
C  -10.48500 45.67400 39.31300
N  -12.11600 40.17900 40.53500
C  -12.34500 41.51600 40.42000
C  -13.86300 41.84900 40.68100
C  -14.49400 40.42500 40.81300
C  -13.32400 39.60600 40.79000
C  -14.03700 42.80700 41.90900
C  -15.67600 40.14300 39.72800
C  -17.07200 40.54100 40.15800
N  -11.23200 37.59000 40.15900
C  -12.58800 37.26500 40.49200
C  -12.81500 35.86700 40.31400
C  -11.62100 35.35400 39.81900
C  -10.64200 36.42200 39.68600
C  -14.03000 35.08000 40.89800
C  -10.87700 34.11800 39.33800
O  -11.28900 32.96200 39.13100
C  -9.48200 34.55000 38.95200
C  -8.44800 33.66400 39.62800
O  -8.34200 33.61600 40.87000
O  -7.50100 33.25100 38.73400
C  -6.33200 32.57100 39.23900
H  -6.00000 40.55300 39.03400
H  -11.82500 43.48800 40.11000
H  -14.47100 37.87300 41.29200
H  -6.47300 35.72700 39.03200
H  -5.47400 38.22400 38.06000
H  -4.29700 38.35000 39.91300
H  -5.08200 36.77700 40.36200
H  -5.70200 38.28100 41.02300
H  -7.27100 35.22400 36.90600
H  -5.78800 36.13600 36.85500
H  -6.69900 37.17700 35.19900
H  -7.56000 38.10100 36.39400
H  -6.42600 43.28200 37.64300
H  -5.73500 42.57400 39.11100
H  -6.24600 44.32200 39.10400
H  -10.83700 45.69000 40.34500
H  -11.28700 45.14500 38.79900
H  -10.50900 46.65300 38.83500
H  -14.21900 42.27500 39.74300
H  -14.93000 40.31400 41.80600
H  -13.03600 43.01700 42.28700
H  -14.61000 42.30400 42.68800
H  -14.46700 43.78500 41.69600
H  -15.61700 39.15100 39.28100
H  -15.48900 40.83900 38.90900
H  -17.67100 39.63300 40.10100
H  -17.46100 41.34500 39.53300
H  -17.21200 40.80700 41.20600
H  -14.93100 35.18000 40.29300
H  -14.29100 35.31900 41.92900
H  -13.65500 34.05800 40.94300
H  -9.22200 34.32900 37.91700
H  -6.58600 32.05600 40.16600
H  -5.48800 33.22700 39.44800
H  -6.10100 31.81500 38.48900

