158

Mg -11.22300 39.93000 39.02300
C  -10.40100 36.40200 38.81800
C  -7.85200 40.48600 38.79500
C  -12.05800 42.99700 38.35600
C  -14.59300 38.87600 39.14700
N  -9.37900 38.52500 38.96000
C  -9.26100 37.18300 38.86500
C  -7.84600 36.71700 38.76400
C  -7.03700 38.06200 39.02000
C  -8.12800 39.12700 38.88400
C  -6.14900 37.98600 40.29600
C  -7.59400 36.06400 37.31100
C  -7.86900 36.88100 36.00200
H  -8.92000 36.49300 34.95200
N  -10.04900 41.62600 38.60400
C  -8.66800 41.66500 38.61300
C  -8.29000 43.05600 38.37100
C  -9.51300 43.79200 38.24700
C  -10.63200 42.82800 38.35200
C  -6.85100 43.57800 38.31700
C  -9.64400 45.30900 38.03800
O  -8.63300 46.06800 38.09300
C  -10.97400 45.98100 37.84000
N  -13.10100 40.81800 38.79400
C  -13.17400 42.15000 38.49400
C  -14.63900 42.65600 38.58800
C  -15.43900 41.37600 38.92100
C  -14.34700 40.27000 38.98000
C  -14.96800 43.90800 39.55700
C  -16.55100 41.00700 37.86500
C  -17.92200 40.65500 38.46400
N  -12.29400 38.13600 39.13300
C  -13.64400 37.79600 39.06400
C  -13.90500 36.48500 38.99600
C  -12.67000 35.84900 38.88500
C  -11.71200 36.90200 38.96100
C  -15.23400 35.81800 39.20000
C  -12.00200 34.53800 38.73500
O  -12.39200 33.37300 38.59900
C  -10.52900 34.94900 38.72700
C  -9.89300 34.18200 39.80100
O  -10.12800 34.25400 40.97600
O  -9.04700 33.29800 39.17400
C  -8.27500 32.55600 40.18600
H  -6.80600 40.79400 38.73300
H  -12.42500 43.99200 38.09600
H  -15.63000 38.53600 39.10000
H  -7.59000 35.95200 39.49700
H  -6.40800 38.23100 38.14700
H  -5.09900 38.00800 40.00600
H  -6.20300 37.03200 40.82100
H  -6.51600 38.75800 40.97200
H  -8.21000 35.16600 37.26800
H  -6.57000 35.70600 37.20400
H  -6.96000 36.85400 35.40200
H  -8.17500 37.91800 36.14100
H  -6.16800 42.78200 38.01900
H  -6.49900 43.93000 39.28600
H  -6.70800 44.46700 37.70300
H  -11.46200 45.81100 38.79900
H  -11.52200 45.75200 36.92500
H  -10.79000 47.05500 37.86700
H  -14.79600 42.89900 37.53700
H  -15.89900 41.36600 39.91000
H  -15.66100 43.59900 40.33900
H  -15.47400 44.68800 38.98800
H  -14.06700 44.33500 39.99800
H  -16.17700 40.08500 37.41900
H  -16.50400 41.73800 37.05800
H  -17.92000 40.93600 39.51700
H  -18.10300 39.58000 38.46400
H  -18.74300 41.11500 37.91300
H  -15.61000 35.77500 38.17800
H  -15.80600 36.45900 39.87000
H  -15.00700 34.82900 39.59800
H  -10.13200 34.47900 37.82700
H  -8.77300 31.59900 40.33800
H  -8.12600 32.98600 41.17600
H  -7.34600 32.15900 39.77700
Mg -5.45700 25.60100 26.01800
C  -4.37800 27.32700 28.96700
C  -7.46400 23.78400 27.98100
C  -6.34300 23.95200 23.26400
C  -3.20000 27.55500 24.17400
N  -5.64100 25.44700 28.25500
C  -5.28600 26.32200 29.26500
C  -5.87900 25.98700 30.59000
C  -6.74200 24.70500 30.25100
C  -6.63900 24.60200 28.71600
C  -6.29600 23.37000 30.96300
C  -6.77500 27.10500 31.16600
C  -6.93600 27.18900 32.74100
H  -6.37300 26.00400 33.64700
N  -6.77900 24.11200 25.59600
C  -7.57200 23.55900 26.60400
C  -8.36800 22.44800 25.92600
C  -8.08000 22.48200 24.48700
C  -7.03700 23.57800 24.40600
C  -9.42400 21.73000 26.65900
C  -8.66600 21.72300 23.33800
O  -8.38600 21.89500 22.14500
C  -9.78200 20.75800 23.65900
N  -4.77500 25.59900 24.00000
C  -5.29100 24.78500 23.05300
C  -4.55800 24.93900 21.70300
C  -3.70300 26.27100 21.94500
C  -3.96500 26.52600 23.43800
C  -3.83600 23.64600 21.31200
C  -3.88100 27.38900 20.92700
C  -5.21500 28.24100 21.04500
N  -4.00700 27.04200 26.39000
C  -3.26300 27.83000 25.55400
C  -2.51700 28.80600 26.33000
C  -2.90100 28.58600 27.69900
C  -3.82200 27.58800 27.65100
C  -1.68800 29.82100 25.68000
C  -2.71500 29.06300 29.08100
O  -1.98400 29.96800 29.44900
C  -3.68400 28.25300 30.00400
C  -2.81800 27.59900 31.02600
O  -1.92400 26.76500 30.86700
O  -3.10800 28.13200 32.24900
C  -2.39000 27.61300 33.42100
H  -8.16100 23.20900 28.59400
H  -6.64400 23.29100 22.44800
H  -2.50800 28.10500 23.53200
H  -5.01600 25.85600 31.24200
H  -7.82200 24.81800 30.34700
H  -6.00700 23.59100 31.99100
H  -5.41300 22.98400 30.45400
H  -7.12800 22.66700 30.91100
H  -7.80300 26.94900 30.84100
H  -6.45900 28.10100 30.85500
H  -7.93800 27.52100 33.01200
H  -6.25900 27.93500 33.15700
H  -10.37200 22.13300 26.30300
H  -9.37100 21.88400 27.73600
H  -9.17400 20.68900 26.45500
H  -9.52800 19.94900 24.34400
H  -9.99900 20.31900 22.68500
H  -10.62400 21.40100 23.91300
H  -5.28200 25.24500 20.94700
H  -2.64700 26.01200 21.87500
H  -4.07200 22.98700 22.14800
H  -2.77900 23.91100 21.27100
H  -4.19400 23.36600 20.32100
H  -3.59500 27.15700 19.90100
H  -3.16300 28.12100 21.29700
H  -5.83500 27.89100 21.87100
H  -5.75900 28.19400 20.10100
H  -4.99300 29.26900 21.33000
H  -2.28900 30.64800 25.30300
H  -1.13400 29.40200 24.84000
H  -1.05100 30.34100 26.39500
H  -4.33400 28.97000 30.50600
H  -1.95200 26.62900 33.25600
H  -3.15700 27.61200 34.19600
H  -1.59300 28.29200 33.72500

