158

Mg 47.94700 15.83900 28.67200
C  45.77800 15.63800 31.39700
C  50.25600 17.61700 30.68300
C  49.71900 16.46800 25.94000
C  45.24200 14.63500 26.63900
N  47.95500 16.60600 30.79200
C  47.00500 16.32500 31.71000
C  47.44400 16.78900 33.13000
C  48.80400 17.52200 32.88400
C  49.06100 17.18800 31.36700
C  48.92900 19.06800 33.32400
C  47.57900 15.63300 34.10700
C  46.69800 15.56500 35.37000
H  46.50500 16.91100 36.10700
N  49.91200 16.74200 28.41100
C  50.61500 17.45000 29.35600
C  51.74700 17.94200 28.69300
C  51.64300 17.66000 27.27300
C  50.37200 16.92100 27.15000
C  52.84600 18.75900 29.38400
C  52.58700 17.87000 26.06400
O  52.31300 17.50100 24.92600
C  53.86000 18.60400 26.25400
N  47.57400 15.60300 26.57900
C  48.47500 15.87500 25.65500
C  48.01100 15.46000 24.25400
C  46.69000 14.73500 24.59500
C  46.45300 15.01500 26.07000
C  47.95600 16.58700 23.14800
C  46.57500 13.29100 24.07700
C  46.95400 12.23900 25.10400
N  45.92300 15.18900 28.85900
C  44.98700 14.72200 27.99600
C  43.75800 14.30700 28.74900
C  44.03800 14.61800 30.10500
C  45.32300 15.16300 30.11900
C  42.45900 13.86700 28.20300
C  43.56300 14.56100 31.47300
O  42.49400 14.12900 31.81700
C  44.70800 15.21700 32.33600
C  44.01300 16.36900 33.12300
O  43.80100 17.51300 32.85600
O  43.51400 15.83600 34.29800
C  42.79800 16.56500 35.18500
H  50.98900 18.07400 31.35100
H  50.27200 16.73000 25.03500
H  44.54500 14.16700 25.94200
H  46.78400 17.57200 33.50400
H  49.61600 16.94900 33.33200
H  48.01400 19.52700 33.69800
H  49.19200 19.59800 32.40800
H  49.70500 19.25600 34.06500
H  48.60900 15.64000 34.46300
H  47.46700 14.70800 33.54200
H  47.32400 15.04000 36.09100
H  45.78700 15.00000 35.17400
H  53.83600 18.36200 29.16100
H  52.78700 18.65400 30.46700
H  52.83700 19.79500 29.04300
H  53.56900 19.63800 26.43800
H  54.57500 18.56200 25.43200
H  54.43000 18.37400 27.15500
H  48.76000 14.77200 23.86100
H  45.94400 15.26500 24.00300
H  48.58800 16.23100 22.33500
H  48.33500 17.57100 23.42700
H  46.94300 16.60900 22.74800
H  47.17700 13.22400 23.17100
H  45.54200 13.10200 23.78300
H  46.14600 11.54300 25.32600
H  47.28900 12.55500 26.09200
H  47.84700 11.79300 24.66600
H  42.24600 14.46200 27.31400
H  41.63900 14.01700 28.90500
H  42.36900 12.84200 27.84400
H  45.05500 14.54600 33.12300
H  42.91800 17.64700 35.24500
H  43.16400 16.28500 36.17300
H  41.74200 16.38200 34.98600
Mg -5.93900 25.49300 26.23300
C  -4.04100 26.95500 28.82000
C  -7.23200 23.33300 28.51000
C  -7.15700 23.80500 23.59900
C  -4.21000 27.71500 24.06700
N  -5.58700 25.18100 28.41000
C  -5.06000 26.10500 29.27800
C  -5.52600 25.87500 30.72100
C  -6.29900 24.54700 30.55500
C  -6.42300 24.29600 29.07600
C  -5.89800 23.27900 31.31900
C  -6.26800 27.08200 31.35600
C  -6.82300 26.83800 32.72300
H  -6.14800 25.82200 33.62700
N  -7.13500 23.84900 26.05100
C  -7.56900 23.09600 27.12100
C  -8.36900 22.00800 26.60200
C  -8.40900 22.17300 25.18700
C  -7.53700 23.27600 24.84200
C  -9.06500 21.11500 27.53700
C  -9.25500 21.44600 24.15400
O  -9.36900 21.82700 22.97900
C  -10.18500 20.36600 24.61500
N  -5.67500 25.62300 24.13500
C  -6.22900 24.79900 23.23800
C  -5.98800 25.25300 21.77600
C  -5.21700 26.56600 21.91700
C  -5.00800 26.70900 23.50100
C  -5.39100 24.14800 20.86300
C  -5.77300 27.84400 21.24200
C  -5.05600 28.47800 20.06200
N  -4.42100 27.00600 26.36800
C  -3.80100 27.79100 25.38600
C  -2.81700 28.66500 25.94700
C  -2.84000 28.28400 27.32800
C  -3.79600 27.28500 27.49000
C  -1.98200 29.70300 25.23700
C  -2.30900 28.56100 28.63500
O  -1.45300 29.42200 28.92400
C  -3.06900 27.69700 29.65600
C  -2.15000 27.09800 30.72100
O  -1.47100 26.10800 30.55500
O  -2.27400 27.82800 31.88900
C  -1.87600 27.21600 33.11500
H  -7.68000 22.67200 29.25600
H  -7.31700 23.21100 22.69600
H  -3.75000 28.43500 23.38700
H  -4.68700 25.69400 31.39400
H  -7.31200 24.79800 30.87000
H  -5.04300 23.38700 31.98600
H  -5.57200 22.44600 30.69600
H  -6.73900 23.02600 31.96500
H  -7.10700 27.19200 30.67000
H  -5.60500 27.94800 31.37900
H  -7.86900 26.57700 32.56400
H  -6.76500 27.74400 33.32700
H  -10.07900 21.51400 27.56500
H  -8.64300 21.21700 28.53600
H  -9.09600 20.05800 27.27400
H  -10.74300 20.00800 23.75000
H  -10.98800 20.72400 25.25800
H  -9.54800 19.61600 25.08300
H  -6.95600 25.52700 21.35700
H  -4.17600 26.49500 21.60200
H  -5.53200 23.13300 21.23600
H  -4.31200 24.29800 20.84200
H  -5.86700 24.17400 19.88300
H  -5.84900 28.58200 22.04000
H  -6.77000 27.64600 20.84900
H  -4.44600 29.31700 20.39800
H  -5.82400 28.92600 19.43100
H  -4.48900 27.75700 19.47300
H  -2.03800 29.73400 24.14900
H  -0.94000 29.70300 25.55900
H  -2.33100 30.64000 25.67100
H  -3.69100 28.50300 30.04500
H  -1.27100 28.00200 33.56700
H  -1.35500 26.26300 33.03000
H  -2.74600 27.17900 33.77100

