158

Mg 15.62600 52.24400 26.00800
C  17.66700 51.22400 28.58500
C  13.01700 52.64100 28.02700
C  13.73200 52.72300 23.28900
C  18.34300 51.13400 23.79200
N  15.35600 51.90400 28.04500
C  16.33400 51.70500 28.95100
C  15.80400 51.96000 30.38300
C  14.26100 52.10200 30.15900
C  14.16700 52.25400 28.69200
C  13.47500 50.91400 30.58800
C  16.42700 53.20100 30.99300
C  16.65200 53.13900 32.60700
H  16.03200 52.07700 33.40600
N  13.67200 52.76300 25.74800
C  12.71900 52.88900 26.67700
C  11.49500 53.41400 26.14000
C  11.59100 53.36100 24.74300
C  13.08800 52.94700 24.48900
C  10.27300 53.69600 27.01300
C  10.46100 53.50900 23.66700
O  10.58500 53.26300 22.50400
C  9.05600 53.93200 24.07500
N  15.99900 52.02900 23.81700
C  15.02300 52.36200 22.95700
C  15.52800 52.26100 21.51500
C  17.04400 51.86600 21.66400
C  17.16400 51.72700 23.21000
C  14.73400 51.30700 20.54100
C  18.05500 52.89300 21.05700
C  19.26100 52.27700 20.22400
N  17.55300 51.25500 26.09900
C  18.59400 51.01700 25.16400
C  19.75800 50.49300 25.82300
C  19.43500 50.53200 27.19300
C  18.08700 51.00100 27.29300
C  21.03500 50.10400 25.07900
C  19.91000 50.27400 28.52100
O  21.06800 49.98200 28.87200
C  18.77100 50.72600 29.47800
C  18.41100 49.49800 30.24200
O  17.90900 48.49200 29.72500
O  18.66500 49.66300 31.56400
C  18.20300 48.63800 32.48600
H  12.22800 53.00100 28.69100
H  13.13200 52.91900 22.39800
H  19.20100 51.04600 23.12300
H  15.99900 51.10700 31.03300
H  13.89300 53.03100 30.59600
H  12.72200 51.16900 31.33400
H  14.09600 50.09100 30.94200
H  12.89700 50.48300 29.77000
H  15.88300 54.11800 30.76600
H  17.43300 53.18500 30.57500
H  16.31800 54.10700 32.98100
H  17.73100 53.06100 32.74000
H  10.41300 53.68500 28.09400
H  9.50000 52.93300 26.92000
H  9.87500 54.66100 26.70000
H  9.05500 54.99900 24.29400
H  8.61400 53.38900 24.91000
H  8.52400 53.70200 23.15100
H  15.46900 53.29400 21.17100
H  17.20800 50.94300 21.10800
H  13.80500 51.02800 21.03900
H  15.36600 50.45900 20.27600
H  14.49300 51.86700 19.63800
H  18.43900 53.56100 21.82700
H  17.54100 53.44600 20.27100
H  19.35900 51.19700 20.32800
H  20.12600 52.69200 20.74100
H  19.34100 52.63000 19.19600
H  21.16700 50.63700 24.13800
H  21.02000 49.02500 24.92500
H  21.84800 50.30500 25.77600
H  19.22000 51.36300 30.24000
H  18.81000 47.73300 32.50500
H  17.23400 48.30200 32.11600
H  17.96400 49.01000 33.48200
Mg -1.78700 34.09900 26.57800
C  -2.87500 32.23700 29.32700
C  -0.99200 36.63000 28.57900
C  -1.42700 36.07000 23.79000
C  -3.78600 32.01100 24.57300
N  -1.89200 34.27700 28.64200
C  -2.10400 33.33700 29.63300
C  -1.63500 33.83300 31.08700
C  -1.09500 35.19600 30.74800
C  -1.38900 35.42700 29.22900
C  -1.43900 36.43300 31.61100
C  -0.77600 32.94000 31.97800
C  -1.04900 33.02000 33.53000
H  -0.01400 32.38000 34.54000
N  -1.13800 36.02600 26.20000
C  -0.84600 36.87300 27.16900
C  -0.09300 37.95500 26.64200
C  -0.33700 37.90700 25.22200
C  -1.03200 36.65900 25.03700
C  0.78800 38.88200 27.49300
C  0.18700 38.77300 24.06600
O  0.06100 38.56600 22.85800
C  0.88200 40.04500 24.54600
N  -2.34700 34.05200 24.50000
C  -2.01000 34.89100 23.51300
C  -2.60300 34.53800 22.16700
C  -3.27600 33.18400 22.45000
C  -3.14000 33.06700 24.00800
C  -3.56900 35.58200 21.58600
C  -2.77400 32.02700 21.55000
C  -1.62800 31.21900 22.09800
N  -2.91100 32.23800 26.82600
C  -3.74100 31.61600 25.89200
C  -4.43000 30.53400 26.56400
C  -4.08800 30.74700 27.98400
C  -3.20900 31.77500 28.02400
C  -5.20800 29.37600 25.98300
C  -4.24500 30.25500 29.32600
O  -4.95900 29.36500 29.77900
C  -3.49900 31.19300 30.22600
C  -4.39500 31.86100 31.22500
O  -5.14700 32.80700 31.02200
O  -4.19100 31.23500 32.43000
C  -4.76700 31.83700 33.70200
H  -0.50900 37.33200 29.26200
H  -1.30500 36.74200 22.93800
H  -4.47700 31.46700 23.92600
H  -2.54700 33.94200 31.67400
H  -0.01100 35.08300 30.75700
H  -2.00700 36.23300 32.52000
H  -2.03000 37.13000 31.01700
H  -0.53300 37.01000 31.79700
H  0.25400 33.28700 31.89800
H  -0.82300 31.90800 31.63000
H  -1.99500 32.49300 33.65500
H  -1.24400 34.04700 33.83900
H  1.84900 38.87400 27.24000
H  0.58400 38.60600 28.52700
H  0.32900 39.86300 27.37500
H  0.88900 40.84600 23.80600
H  1.89100 39.89100 24.92900
H  0.24500 40.35500 25.37500
H  -1.74300 34.34400 21.52600
H  -4.30700 33.40800 22.17400
H  -3.00200 36.49800 21.42000
H  -4.21600 35.87600 22.41300
H  -4.01900 35.22300 20.66100
H  -2.50700 32.29500 20.52700
H  -3.61400 31.38000 21.29700
H  -0.91200 31.16600 21.27800
H  -2.01300 30.20800 22.22800
H  -1.10100 31.69500 22.92500
H  -4.85700 28.43000 26.39400
H  -5.20600 29.38900 24.89300
H  -6.22400 29.41100 26.37600
H  -2.63100 30.64800 30.59600
H  -4.16500 32.71600 33.93200
H  -4.72300 31.11200 34.51400
H  -5.77800 32.16500 33.45900

