158

Mg 2.26800 -1.94200 44.71100
C  5.47000 -1.00200 43.69900
C  0.88700 0.46100 42.73300
C  -0.76600 -3.35200 45.10700
C  3.68900 -4.84700 46.19000
N  3.14700 -0.33800 43.43300
C  4.46700 -0.26700 43.03100
C  4.68800 0.97000 42.14900
C  3.21100 1.44900 41.81500
C  2.29000 0.42800 42.69900
C  2.93800 2.93100 41.93800
C  5.54300 0.69700 40.85000
C  6.56100 1.72900 40.44000
H  6.28500 2.27800 38.95400
N  0.29100 -1.41500 44.04800
C  -0.03800 -0.30900 43.37300
C  -1.56000 -0.28300 43.34000
C  -2.04400 -1.39400 44.06900
C  -0.82500 -2.13400 44.47200
C  -2.29200 0.76500 42.49600
C  -3.49400 -1.60900 44.46500
O  -4.37000 -0.88500 44.03300
C  -3.88600 -2.64200 45.52000
N  1.53200 -3.91900 45.46900
C  0.27000 -4.18900 45.62400
C  0.05800 -5.59100 46.23300
C  1.50400 -6.12700 46.52400
C  2.30300 -4.91900 46.02100
C  -0.88800 -5.72100 47.46800
C  1.96400 -7.38800 45.74200
C  2.28900 -8.55100 46.62500
N  4.14100 -2.85200 44.89800
C  4.59400 -3.93200 45.65300
C  6.03600 -3.90900 45.71200
C  6.39200 -2.73300 45.02400
C  5.25900 -2.20500 44.49600
C  6.96300 -4.86300 46.40700
C  7.54300 -1.90300 44.61800
O  8.72400 -1.99300 45.00800
C  6.91100 -0.77700 43.72400
C  7.16500 0.56300 44.48000
O  6.71400 0.98400 45.55900
O  8.02500 1.38500 43.69600
C  8.21700 2.74000 44.14900
H  0.58900 1.26900 42.06300
H  -1.74000 -3.84700 45.12400
H  4.11200 -5.71500 46.70000
H  4.98900 1.80600 42.78000
H  3.18500 1.34500 40.73000
H  3.85500 3.51200 41.84100
H  2.55200 2.93700 42.95800
H  2.17200 3.23200 41.22300
H  4.90300 0.42100 40.01200
H  6.14200 -0.19700 41.02000
H  7.61300 1.44700 40.47600
H  6.51200 2.59200 41.10500
H  -3.10900 0.20600 42.04100
H  -1.69100 1.23600 41.71800
H  -2.90600 1.46000 43.06700
H  -4.86900 -2.40500 45.92700
H  -3.14000 -2.75400 46.30800
H  -3.90400 -3.62000 45.03800
H  -0.40500 -6.10800 45.39300
H  1.58800 -6.18600 47.60900
H  -0.23400 -5.76000 48.34000
H  -1.42300 -6.66400 47.35300
H  -1.48400 -4.80900 47.50400
H  2.82900 -7.14000 45.12700
H  1.18200 -7.66800 45.03600
H  1.54900 -8.62600 47.42200
H  3.27100 -8.37800 47.06700
H  2.26400 -9.49200 46.07600
H  7.85800 -4.78400 45.79000
H  6.60900 -5.88300 46.55100
H  7.16500 -4.39500 47.37100
H  7.42400 -0.81200 42.76200
H  7.58100 3.47400 43.65400
H  9.17000 3.09500 43.75600
H  8.17900 2.79700 45.23600
Mg 9.33500 3.15400 27.63500
C  10.90600 1.40600 30.34300
C  7.38600 4.81600 30.09700
C  7.52300 4.40100 25.23100
C  10.79000 0.71100 25.42500
N  9.19500 3.15500 29.95400
C  10.05700 2.42900 30.83700
C  9.78800 2.80100 32.35800
C  8.68300 3.94900 32.17400
C  8.34700 3.95400 30.65100
C  7.38200 3.75300 33.07600
C  11.10100 3.24200 33.19400
C  10.97400 4.37900 34.23600
H  11.60100 4.14600 35.65400
N  7.78500 4.58100 27.65300
C  7.10500 5.11800 28.71700
C  6.17000 6.07100 28.25400
C  6.13600 6.00600 26.80600
C  7.20800 4.98400 26.52800
C  5.43800 6.99800 29.25400
C  5.29300 6.77100 25.65400
O  5.41100 6.48000 24.50300
C  4.25000 7.77800 26.08900
N  9.24800 2.76400 25.67500
C  8.47600 3.47700 24.87800
C  8.74800 3.08600 23.45200
C  9.61500 1.82300 23.47400
C  9.92300 1.73400 24.98500
C  7.50600 2.88800 22.53200
C  10.94400 1.78800 22.61000
C  10.94600 0.62100 21.56800
N  10.62600 1.44800 27.75500
C  11.11400 0.55700 26.79700
C  11.92400 -0.41900 27.52400
C  11.91600 -0.07000 28.85100
C  11.10200 1.01600 28.99500
C  12.67700 -1.57100 26.90400
C  12.39800 -0.48200 30.15000
O  13.18000 -1.40000 30.50500
C  11.78400 0.48000 31.10500
C  10.99600 -0.27900 32.20400
O  9.81800 -0.64300 32.22200
O  11.80900 -0.21600 33.29200
C  11.10500 -0.48600 34.54700
H  6.94200 5.44500 30.87100
H  6.97900 4.76200 24.35600
H  11.16900 0.00500 24.68400
H  9.39700 1.88200 32.79500
H  9.14000 4.87900 32.51300
H  7.35800 4.60500 33.75500
H  7.45200 2.89400 33.74300
H  6.39600 3.58500 32.64200
H  11.91100 3.54300 32.53000
H  11.49300 2.33700 33.65800
H  9.93000 4.57000 34.48300
H  11.52700 5.16600 33.72300
H  6.11900 7.83400 29.41100
H  5.24000 6.51900 30.21300
H  4.51700 7.36300 28.79900
H  3.46300 7.40300 26.74200
H  3.71800 8.38300 25.35400
H  4.81600 8.50200 26.67500
H  9.40400 3.84900 23.03200
H  9.03300 0.94300 23.19900
H  6.75600 2.52400 23.23400
H  7.54800 2.15400 21.72700
H  7.21600 3.78400 21.98300
H  11.87900 1.60900 23.14000
H  11.19000 2.69200 22.05400
H  11.32900 1.06500 20.64900
H  9.92500 0.25700 21.45700
H  11.62900 -0.07600 22.05400
H  12.47600 -1.73600 25.84500
H  12.42400 -2.51200 27.39200
H  13.75700 -1.52900 27.04500
H  12.52600 1.03200 31.68200
H  11.69000 -1.20100 35.12600
H  10.05200 -0.76700 34.53700
H  11.34700 0.44600 35.05800

