158

Mg 25.70900 1.63500 29.54800
C  27.76600 1.21700 32.35000
C  23.00700 1.82000 31.68300
C  23.72000 1.76800 26.88000
C  28.39700 0.57300 27.52700
N  25.49200 1.48000 31.76700
C  26.42900 1.36700 32.70600
C  25.77400 1.59200 34.12400
C  24.28000 1.69500 33.81200
C  24.24400 1.66700 32.30200
C  23.41100 0.62100 34.54700
C  26.32500 2.86200 34.85600
C  25.60500 3.10600 36.23400
H  26.48600 3.41800 37.44400
N  23.60400 1.70800 29.30900
C  22.70600 1.78100 30.32500
C  21.34600 1.93600 29.71400
C  21.60300 1.95800 28.29500
C  23.01700 1.86400 28.09200
C  20.12800 2.12000 30.59200
C  20.55300 2.01900 27.19400
O  20.76100 2.11700 25.96100
C  19.11700 2.13400 27.64000
N  26.05300 1.34200 27.45700
C  25.08800 1.55900 26.59400
C  25.72200 1.61100 25.16700
C  27.15800 1.18700 25.41500
C  27.23700 1.00000 26.91700
C  24.93100 0.83400 24.05200
C  28.21600 2.24900 24.85900
C  29.57700 1.53800 24.52100
N  27.71700 1.03300 29.80000
C  28.65000 0.63600 28.87100
C  29.87900 0.35500 29.54700
C  29.61100 0.56200 30.89600
C  28.30200 1.01300 31.01700
C  31.21400 0.03200 28.98900
C  30.17700 0.44100 32.22200
O  31.26300 0.11400 32.69700
C  28.96900 0.88500 33.17500
C  28.65500 -0.23200 34.04400
O  28.19600 -1.29000 33.66700
O  28.95300 0.08200 35.35000
C  28.72400 -0.93800 36.33700
H  22.21200 2.00000 32.41000
H  23.10400 1.99300 26.00700
H  29.24400 0.41500 26.85700
H  26.02100 0.66800 34.64600
H  23.96900 2.69800 34.10400
H  22.50400 1.16200 34.81600
H  23.87100 0.21700 35.44900
H  23.03500 -0.18600 33.91900
H  26.16700 3.67100 34.14300
H  27.40200 2.77100 34.99900
H  25.08800 2.18000 36.48500
H  24.95900 3.89400 35.84700
H  19.55300 1.21900 30.37500
H  19.66400 3.10000 30.48300
H  20.34900 2.01100 31.65300
H  19.01800 2.99100 28.30700
H  18.95300 1.21700 28.20500
H  18.47800 2.28500 26.77000
H  25.70900 2.64700 24.82900
H  27.34200 0.20200 24.98400
H  24.60900 1.51400 23.26300
H  24.11500 0.20000 24.39800
H  25.53900 0.12400 23.49200
H  28.24500 3.08000 25.56300
H  27.90300 2.62400 23.88400
H  29.70500 1.73100 23.45600
H  29.53300 0.45200 24.44300
H  30.47000 1.95400 24.98800
H  31.52200 0.69000 28.17600
H  31.16900 -0.97500 28.57600
H  31.95400 0.05200 29.78800
H  29.27900 1.79700 33.68400
H  29.59700 -1.01900 36.98400
H  28.51900 -1.98500 36.11500
H  27.92500 -0.53500 36.95900
Mg 35.65000 2.33700 29.09600
C  33.48600 3.11600 31.68100
C  38.30200 2.49600 31.32500
C  37.77800 2.23100 26.39300
C  32.94500 2.73300 26.80300
N  35.84600 2.73400 31.23600
C  34.79800 2.80500 32.09100
C  35.24100 2.93600 33.48400
C  36.83000 2.94400 33.43600
C  37.03900 2.73900 31.86700
C  37.53100 4.23000 34.03400
C  34.63900 1.74400 34.36800
C  34.48800 2.08900 35.87900
H  34.90600 3.49600 36.46700
N  37.71700 2.25500 28.94300
C  38.64100 2.35900 29.98400
C  39.94800 2.18100 29.44600
C  39.83900 2.08300 28.01300
C  38.39300 2.23700 27.69600
C  41.19000 2.12900 30.30300
C  41.01300 1.94300 27.05200
O  40.81900 1.98300 25.79100
C  42.36000 1.62900 27.50700
N  35.43200 2.37400 27.00800
C  36.40600 2.37300 26.09000
C  35.94100 2.64100 24.65700
C  34.41800 2.38300 24.74200
C  34.19400 2.44200 26.25200
C  36.27100 4.08800 24.07400
C  33.89900 1.10200 24.06300
C  33.24400 1.39700 22.73000
N  33.58700 2.81400 29.15500
C  32.60500 2.96100 28.14500
C  31.39200 3.56800 28.72900
C  31.70000 3.58200 30.13600
C  33.03100 3.15900 30.32500
C  30.11300 3.90600 28.00900
C  31.13500 3.86100 31.52900
O  29.98200 3.96500 31.90700
C  32.28400 3.60800 32.53500
C  32.48000 4.83000 33.27700
O  33.16400 5.83600 33.01500
O  31.67900 4.66700 34.47200
C  31.45600 5.89300 35.27800
H  39.15800 2.35100 31.98800
H  38.49800 2.16400 25.57500
H  32.02800 2.83400 26.22000
H  34.94500 3.87500 33.95200
H  37.21300 2.04900 33.92600
H  38.24800 3.91900 34.79400
H  36.76900 4.93400 34.37000
H  38.17000 4.69000 33.28000
H  35.36700 0.93700 34.27900
H  33.69900 1.42800 33.91600
H  35.05200 1.30500 36.38600
H  33.46300 1.90400 36.20000
H  41.93700 2.84300 29.95500
H  41.52200 1.09200 30.35100
H  41.13600 2.40700 31.35600
H  42.65200 2.45500 28.15600
H  42.91800 1.49100 26.58100
H  42.33700 0.67400 28.03100
H  36.35900 1.88500 23.99200
H  33.82000 3.22100 24.38600
H  36.67400 4.00900 23.06400
H  36.96800 4.49300 24.80800
H  35.40900 4.74200 23.93900
H  33.21700 0.57300 24.72800
H  34.68400 0.36600 23.88900
H  32.17700 1.36900 22.95200
H  33.42000 0.56100 22.05300
H  33.70000 2.31800 22.36600
H  29.65100 2.98700 27.64600
H  30.37300 4.65000 27.25600
H  29.36100 4.30300 28.69000
H  32.02600 2.89200 33.31600
H  31.38900 6.84400 34.75000
H  32.12300 5.89700 36.14000
H  30.48200 5.78900 35.75400

