158

Mg 1.61300 -1.44700 43.68500
C  4.86600 -0.82100 43.21700
C  0.72600 1.22300 41.49700
C  -1.67700 -2.35200 43.77400
C  2.51200 -4.71100 44.86100
N  2.63800 -0.01000 42.40400
C  4.06200 0.12300 42.49200
C  4.50200 1.39000 41.76000
C  3.17200 2.07800 41.29200
C  2.08600 1.06300 41.80600
C  2.94900 3.51500 41.82300
C  5.30200 1.00800 40.47400
C  6.35000 2.03200 40.01400
H  6.22400 2.61800 38.61500
N  -0.18800 -0.57000 42.92800
C  -0.31100 0.43700 42.05800
C  -1.76800 0.57500 41.69600
C  -2.45300 -0.26900 42.58200
C  -1.39600 -1.13200 43.18100
C  -2.26600 1.48300 40.66500
C  -3.98200 -0.42700 42.75500
O  -4.75700 0.12900 42.02300
C  -4.60800 -0.99500 43.98200
N  0.55700 -3.40100 44.05200
C  -0.77600 -3.33700 44.25900
C  -1.19300 -4.57900 44.92100
C  0.03200 -5.53000 44.97800
C  1.13500 -4.47900 44.69100
C  -1.79400 -4.24700 46.28200
C  0.00000 -6.69300 43.90500
C  -0.05500 -8.17900 44.34100
N  3.36400 -2.53900 44.10400
C  3.60700 -3.75200 44.56000
C  5.01300 -3.90600 44.80600
C  5.56800 -2.74600 44.34400
C  4.49700 -1.98700 43.84000
C  5.58700 -5.08300 45.47300
C  6.74600 -2.02500 44.19900
O  7.87200 -2.34800 44.42600
C  6.36200 -0.76900 43.44800
C  6.78700 0.32300 44.33000
O  6.35400 0.61500 45.42700
O  7.72000 1.11800 43.68900
C  8.10900 2.25800 44.51600
H  0.40600 1.98200 40.78000
H  -2.74900 -2.54100 43.86900
H  2.85200 -5.64100 45.32100
H  5.09800 2.04500 42.39600
H  3.21400 2.11900 40.20400
H  2.30800 3.45700 42.70300
H  2.56600 4.14300 41.01900
H  3.91200 3.95500 42.07800
H  4.62700 0.78500 39.64800
H  5.80700 0.04200 40.48400
H  7.33600 1.57500 40.10400
H  6.37000 2.88800 40.68800
H  -2.97300 1.04900 39.95800
H  -1.49900 1.86700 39.99200
H  -2.64400 2.36500 41.18100
H  -5.02100 -1.99100 43.82400
H  -5.43400 -0.32300 44.21600
H  -3.82000 -0.93900 44.73300
H  -1.96300 -4.96300 44.25200
H  0.26800 -5.88200 45.98200
H  -2.67200 -3.63800 46.06600
H  -1.20800 -3.63500 46.96800
H  -2.22800 -5.19200 46.60900
H  0.90700 -6.58000 43.31200
H  -0.79800 -6.58500 43.17100
H  -0.56100 -8.20300 45.30700
H  0.93800 -8.58700 44.53000
H  -0.64200 -8.78500 43.65100
H  5.04600 -5.91500 45.02100
H  5.45800 -4.98500 46.55100
H  6.61200 -5.24700 45.14100
H  6.94000 -0.74100 42.52400
H  9.02000 2.71500 44.12800
H  8.35800 2.04200 45.55500
H  7.30400 2.98700 44.61200
Mg 10.06900 47.55000 26.59300
C  8.29700 47.68100 29.50800
C  12.75600 49.05600 28.14900
C  11.65200 47.39700 23.72900
C  7.01300 46.56200 24.84500
N  10.40200 48.37100 28.56500
C  9.59000 48.08400 29.67600
C  10.28800 48.47600 30.98200
C  11.63000 49.19000 30.47500
C  11.65100 48.73600 29.00400
C  11.49300 50.79200 30.58200
C  10.60500 47.22800 31.82100
C  10.81400 47.42600 33.33800
H  10.35800 46.30000 34.23100
N  12.02000 48.06800 26.04300
C  12.93400 48.72700 26.78300
C  14.15300 48.84100 26.04300
C  13.84000 48.32100 24.67300
C  12.43800 47.94300 24.75800
C  15.54200 49.25700 26.70000
C  14.81900 48.20900 23.42700
O  14.38800 47.95200 22.31300
C  16.33100 48.58200 23.57000
N  9.31900 47.25400 24.50600
C  10.31900 47.05400 23.56600
C  9.73000 46.46600 22.23200
C  8.30200 46.16600 22.67000
C  8.20500 46.63600 24.12100
C  9.84900 47.43800 21.00700
C  7.93700 44.72400 22.47500
C  8.82500 43.72700 23.20900
N  7.99800 47.20900 27.07600
C  6.90600 46.83600 26.25300
C  5.72800 46.87300 27.12000
C  6.23900 47.10200 28.44200
C  7.60200 47.40000 28.30800
C  4.38400 46.57200 26.71400
C  5.89100 47.15800 29.83200
O  4.84900 46.94800 30.39900
C  7.17500 47.43400 30.56800
C  7.33700 46.16900 31.30500
O  7.83700 45.13000 30.82900
O  6.90400 46.37000 32.62200
C  6.81000 45.13600 33.46400
H  13.66900 49.47000 28.58300
H  12.28300 47.39700 22.83800
H  6.09800 46.14800 24.41800
H  9.65900 49.16900 31.54200
H  12.51300 48.92800 31.05800
H  10.62200 51.05300 31.18300
H  11.42700 51.20600 29.57500
H  12.34000 51.12000 31.18500
H  11.53100 46.85700 31.38200
H  9.84900 46.45400 31.68500
H  10.31400 48.35600 33.60800
H  11.89400 47.47400 33.47500
H  15.81000 50.28100 26.44100
H  16.39100 48.61500 26.46500
H  15.55300 49.16000 27.78500
H  16.93400 48.44200 22.67300
H  16.73800 47.91200 24.32800
H  16.39800 49.58400 23.99400
H  10.32500 45.55600 22.30100
H  7.60800 46.81600 22.13600
H  9.69700 48.35900 21.57100
H  9.07900 47.14700 20.29300
H  10.73000 47.58400 20.38200
H  7.94900 44.51300 21.40500
H  6.89100 44.67300 22.77800
H  9.48300 44.23600 23.91300
H  9.42400 43.13700 22.51600
H  8.20800 43.05600 23.80700
H  4.27000 45.66600 26.11800
H  4.17500 47.44600 26.09800
H  3.60300 46.61200 27.47200
H  7.23000 48.37700 31.11200
H  7.75400 44.60200 33.35400
H  6.09000 44.37000 33.17600
H  6.80600 45.40800 34.52000

