158

Mg 16.70000 -1.67400 28.30300
C  15.63300 0.20300 30.96200
C  18.86400 -3.46600 30.39400
C  18.04600 -3.24200 25.66000
C  14.89300 0.34600 26.13800
N  17.13600 -1.60200 30.46300
C  16.59900 -0.78500 31.40900
C  17.16400 -1.05100 32.83600
C  18.32300 -2.16500 32.56900
C  18.14700 -2.42600 31.04400
C  19.78700 -1.76600 32.98600
C  16.10600 -1.52400 33.83200
C  16.44600 -1.36100 35.28800
H  17.52400 -0.33700 35.69100
N  18.26100 -3.14400 28.07500
C  18.97300 -3.80100 29.04000
C  19.72900 -4.90000 28.48100
C  19.51900 -4.84900 27.10200
C  18.62300 -3.67600 26.87400
C  20.50400 -5.88000 29.25400
C  20.05400 -5.72600 25.91100
O  19.61200 -5.71100 24.77600
C  20.94200 -6.75800 26.27800
N  16.45900 -1.45700 26.17900
C  17.16500 -2.21500 25.34200
C  16.81800 -1.81800 23.87500
C  15.73700 -0.69200 23.99700
C  15.72200 -0.58800 25.47800
C  18.00400 -1.42600 22.90200
C  14.35500 -1.24000 23.47900
C  13.58500 -0.26700 22.57700
N  15.47300 -0.10500 28.47900
C  14.80800 0.64000 27.49500
C  14.05000 1.66600 28.17500
C  14.36700 1.58000 29.55700
C  15.21700 0.48200 29.66800
C  13.15600 2.65300 27.46200
C  14.10500 2.14000 30.87700
O  13.40000 3.07500 31.19000
C  14.97300 1.22400 31.87900
C  15.80500 2.13500 32.69400
O  16.95500 2.43800 32.53100
O  15.01600 2.69000 33.70400
C  15.67100 3.60100 34.65300
H  19.61700 -3.91800 31.04200
H  18.50400 -3.61100 24.73900
H  14.29200 1.01900 25.52300
H  17.64400 -0.09100 33.02900
H  18.08400 -3.15200 32.96500
H  19.68100 -0.83600 33.54500
H  20.44900 -1.50800 32.16000
H  20.35500 -2.46400 33.60300
H  15.94500 -2.58200 33.62700
H  15.21900 -0.93600 33.59800
H  16.61000 -2.33500 35.74900
H  15.56900 -1.07400 35.86800
H  20.41900 -5.74900 30.33200
H  21.54600 -5.99600 28.95700
H  20.11800 -6.89800 29.20500
H  21.85500 -6.45900 26.79400
H  21.16100 -7.31600 25.36800
H  20.44600 -7.41500 26.99200
H  16.38700 -2.70600 23.41200
H  16.09700 0.26400 23.61800
H  18.20300 -2.31300 22.30000
H  18.84800 -1.14500 23.53200
H  17.67900 -0.59000 22.28300
H  13.79900 -1.71100 24.28900
H  14.48900 -2.07400 22.79000
H  14.23600 0.57900 22.35600
H  12.72400 0.22200 23.03400
H  13.29000 -0.77900 21.66100
H  12.72300 2.05800 26.65800
H  13.71300 3.58100 27.33500
H  12.41400 2.91600 28.21600
H  14.20800 0.75700 32.50000
H  15.67100 4.61700 34.25800
H  16.65400 3.31100 35.02200
H  15.00000 3.51900 35.50800
Mg 43.13400 41.55300 26.34500
C  41.97800 43.87100 28.54200
C  44.29100 39.50600 28.82000
C  44.68000 39.72100 23.93000
C  42.42400 43.93100 23.78500
N  43.24000 41.79900 28.46100
C  42.47000 42.69400 29.12800
C  42.36200 42.41900 30.66100
C  43.16500 41.01100 30.69700
C  43.62700 40.74500 29.24500
C  44.47200 41.01200 31.51200
C  40.85200 42.25400 31.27500
C  40.72400 41.47300 32.57100
H  39.91900 42.05000 33.71100
N  44.18300 39.78200 26.37000
C  44.49600 39.07400 27.47300
C  45.09000 37.81800 27.06600
C  45.19300 37.81600 25.68300
C  44.70300 39.16600 25.26300
C  45.53600 36.83800 28.08500
C  45.64200 36.77500 24.67300
O  45.71900 37.00300 23.45300
C  46.04700 35.42800 25.11000
N  43.73200 41.88700 24.13200
C  44.23900 40.89900 23.40700
C  44.25200 41.25900 21.86700
C  43.47000 42.63200 21.80300
C  43.21300 42.90000 23.32400
C  45.64000 41.27200 21.24700
C  42.19300 42.54300 20.98300
C  42.01100 43.61000 19.88700
N  42.33500 43.50100 26.14200
C  42.08500 44.25800 25.06000
C  41.46100 45.50800 25.48200
C  41.30800 45.43100 26.89100
C  41.86300 44.19500 27.19200
C  41.01400 46.61200 24.59700
C  40.83100 46.02300 28.12000
O  40.28400 47.11000 28.23500
C  41.20100 45.01200 29.28100
C  42.17400 45.71800 30.13000
O  43.38400 45.82300 30.03600
O  41.55000 46.11300 31.29600
C  42.44400 46.56200 32.46700
H  44.38500 38.78500 29.63500
H  45.14200 39.13300 23.13400
H  42.04800 44.61000 23.01700
H  42.90900 43.19400 31.19700
H  42.51200 40.22200 31.07000
H  44.24700 41.81400 32.21400
H  45.31500 41.32500 30.89500
H  44.72600 40.09700 32.04700
H  40.20100 41.92800 30.46400
H  40.59800 43.25000 31.63700
H  41.66300 41.07200 32.95400
H  40.20600 40.53200 32.38800
H  44.99300 35.90200 27.95300
H  45.46900 37.13100 29.13300
H  46.55100 36.57500 27.78800
H  45.31700 34.99200 25.79300
H  46.99600 35.55400 25.63100
H  46.28500 34.78600 24.26200
H  43.78900 40.42300 21.34300
H  44.13000 43.43900 21.48400
H  46.33300 40.95100 22.02500
H  45.88100 42.23600 20.80100
H  45.71400 40.46700 20.51600
H  41.33700 42.68300 21.64300
H  42.05900 41.58300 20.48500
H  41.89800 43.09300 18.93400
H  42.91400 44.13500 19.57500
H  41.19600 44.33400 19.92900
H  40.51800 47.37000 25.20400
H  40.43200 46.17800 23.78400
H  41.87100 47.18000 24.23500
H  40.31700 44.49500 29.65300
H  43.51000 46.68400 32.27200
H  42.27900 45.74500 33.17000
H  42.03700 47.48100 32.88700

