158

Mg 1.64400 -0.98300 43.23800
C  5.16000 -0.54400 42.69000
C  1.20900 2.01200 41.65200
C  -1.62600 -1.75800 43.15500
C  2.39300 -4.34500 44.28000
N  2.99500 0.43300 42.20600
C  4.39300 0.44200 42.15000
C  4.85600 1.46400 41.18200
C  3.68500 2.49600 41.21400
C  2.56100 1.57400 41.70000
C  3.87200 3.71500 42.21200
C  5.12100 0.90000 39.73600
C  6.50300 1.24200 39.17200
H  6.55000 1.71200 37.71000
N  -0.06600 0.00800 42.56800
C  0.01600 1.31200 42.03200
C  -1.28700 1.76400 41.79300
C  -2.13500 0.70700 42.37100
C  -1.33900 -0.41400 42.72400
C  -1.64900 3.12600 41.16100
C  -3.66300 0.83900 42.44100
O  -4.18800 1.93900 42.26700
C  -4.57900 -0.24800 42.81700
N  0.52800 -2.79100 43.75600
C  -0.78000 -2.82900 43.56800
C  -1.30300 -4.21400 43.82300
C  -0.07000 -5.04300 44.25300
C  1.06000 -4.02900 44.10600
C  -2.34700 -4.26900 44.94600
C  0.30300 -6.20900 43.35900
C  0.73600 -7.45700 44.09300
N  3.40400 -2.21200 43.61000
C  3.52400 -3.52300 44.03700
C  4.93600 -3.84000 44.20700
C  5.60300 -2.67400 43.68900
C  4.65900 -1.74400 43.32300
C  5.42500 -5.13400 44.75500
C  6.91500 -2.09700 43.44700
O  7.99800 -2.52600 43.73400
C  6.71400 -0.67000 42.69300
C  7.49200 0.36300 43.37900
O  7.63300 0.42800 44.59200
O  7.93500 1.21900 42.41200
C  8.53400 2.41400 42.97000
H  1.09700 2.99600 41.19200
H  -2.70300 -1.93100 43.19600
H  2.72100 -5.28400 44.73000
H  5.74300 2.00000 41.52000
H  3.43000 2.92900 40.24700
H  4.33900 3.40000 43.14600
H  2.87400 4.07300 42.46700
H  4.44100 4.53700 41.77800
H  4.31600 1.26100 39.09500
H  4.99300 -0.17900 39.82000
H  7.12600 0.34800 39.15300
H  6.98600 1.99500 39.79500
H  -0.83000 3.61700 40.63600
H  -2.03200 3.81500 41.91400
H  -2.53900 3.01800 40.54100
H  -5.58600 0.11900 42.61800
H  -4.51400 -0.49100 43.87800
H  -4.53400 -1.08200 42.11800
H  -1.63100 -4.52600 42.83100
H  -0.04600 -5.35300 45.29700
H  -2.08800 -3.67600 45.82400
H  -2.34400 -5.31000 45.27100
H  -3.32200 -4.12600 44.48200
H  1.05100 -5.88400 42.63600
H  -0.61700 -6.48600 42.84300
H  0.42600 -8.43500 43.72500
H  0.40400 -7.34500 45.12400
H  1.82600 -7.45400 44.07600
H  5.12600 -6.04100 44.23000
H  5.08100 -5.18100 45.78900
H  6.51400 -5.09400 44.76900
H  7.08500 -0.74400 41.67100
H  9.40300 2.14300 43.57000
H  7.86900 3.02900 43.57600
H  8.79100 3.00300 42.09000
Mg 30.14700 59.12400 40.28200
C  27.38500 57.06100 39.14200
C  32.14400 56.83300 38.72100
C  32.48600 61.31900 40.68600
C  27.65500 61.50700 41.30700
N  29.80900 57.12800 39.18600
C  28.64400 56.47700 38.88700
C  28.91300 55.33000 37.94300
C  30.47700 55.10000 38.10000
C  30.84900 56.45500 38.71100
C  30.81000 53.82100 38.88500
C  28.60700 55.74600 36.44600
C  27.69100 54.70600 35.75000
H  26.73300 55.32800 34.68000
N  32.02200 59.06100 39.85000
C  32.69700 58.03100 39.23100
C  34.08500 58.30500 39.30200
C  34.24200 59.55500 39.92400
C  32.91000 60.10400 40.13000
C  35.14700 57.33000 38.80000
C  35.60800 60.12100 40.44300
O  36.67700 59.58500 40.23800
C  35.65900 61.30200 41.37700
N  29.96500 61.17500 40.77700
C  31.18400 61.87600 40.86700
C  30.84800 63.28400 41.24700
C  29.34900 63.28100 41.67100
C  28.99500 61.93000 41.19600
C  31.75200 63.91700 42.24800
C  28.45700 64.35700 41.08400
C  27.42900 64.95100 42.08000
N  27.94500 59.18300 40.39200
C  27.15700 60.29800 40.73900
C  25.75200 59.84900 40.61400
C  25.75500 58.61600 39.96500
C  27.15900 58.26300 39.82200
C  24.56800 60.65600 40.96900
C  25.01400 57.46700 39.40000
O  23.82300 57.27400 39.47600
C  26.07300 56.42500 38.81100
C  25.83700 54.97700 39.35900
O  26.41300 54.52400 40.32500
O  24.89200 54.27000 38.59000
C  24.24100 53.18600 39.27200
H  32.84600 56.19700 38.17700
H  33.31700 61.99500 40.89800
H  27.01400 62.28600 41.72500
H  28.33000 54.45900 38.24200
H  30.93100 54.94500 37.12200
H  29.88400 53.44000 39.31500
H  31.37200 54.12500 39.76800
H  31.49800 53.09800 38.44500
H  29.49900 55.91300 35.84200
H  28.15300 56.72900 36.32000
H  27.11100 54.07800 36.42600
H  28.23800 53.93800 35.20200
H  35.14700 57.15000 37.72500
H  35.09700 56.31100 39.18400
H  36.15400 57.63200 39.08800
H  35.01900 61.02100 42.21400
H  35.47500 62.23800 40.85100
H  36.68900 61.45900 41.69900
H  30.83000 63.79300 40.28400
H  29.24800 63.35800 42.75400
H  32.54400 63.24700 42.58100
H  31.28400 64.35600 43.12900
H  32.30100 64.74600 41.80300
H  27.91700 63.93800 40.23500
H  28.88300 65.31100 40.77300
H  26.45000 64.65900 41.69800
H  27.43800 66.03800 41.99900
H  27.54000 64.54200 43.08400
H  23.77300 60.01200 41.34600
H  24.28400 61.18800 40.06100
H  24.89100 61.50800 41.56700
H  25.97300 56.45800 37.72600
H  24.82000 52.68400 40.04700
H  23.92300 52.39100 38.59600
H  23.35300 53.50100 39.82100

