158

Mg 1.31100 7.98800 25.57700
C  2.15600 9.92000 28.35500
C  1.70600 5.18700 27.29500
C  0.86700 6.25300 22.69900
C  1.45900 10.85300 23.62700
N  1.77900 7.64600 27.57600
C  1.91900 8.57000 28.60700
C  2.17000 7.91300 29.88200
C  2.11700 6.32800 29.61400
C  1.89300 6.40800 28.05200
C  3.42400 5.54200 29.95700
C  1.10900 8.38200 30.98400
C  1.51400 8.60400 32.51900
H  2.76600 7.86400 33.08200
N  1.28700 5.99300 25.09300
C  1.38500 5.00900 25.97200
C  1.25500 3.75200 25.30800
C  0.84600 4.04700 23.99300
C  0.99300 5.43500 23.81300
C  1.31700 2.40600 26.04000
C  0.35900 3.10400 22.89900
O  0.07900 3.54500 21.78400
C  0.44400 1.66800 23.04200
N  1.14100 8.51700 23.44400
C  0.95700 7.60500 22.46300
C  1.16100 8.30000 21.02100
C  1.09200 9.76700 21.38800
C  1.26000 9.73300 22.88200
C  2.53400 7.82600 20.30600
C  -0.18300 10.54200 20.95500
C  -0.04800 11.64100 19.94700
N  1.59000 10.00500 25.91700
C  1.70200 11.01400 25.00100
C  1.94800 12.21000 25.76100
C  2.15400 11.78500 27.05100
C  1.97600 10.44200 27.09700
C  2.06600 13.67700 25.18900
C  2.50600 12.25800 28.38700
O  2.75400 13.39800 28.74900
C  2.27200 11.01500 29.32800
C  3.49800 10.95300 30.25200
O  4.56500 10.40500 30.02500
O  3.16600 11.69900 31.37600
C  4.14700 11.66700 32.53600
H  2.05900 4.36600 27.92200
H  0.81800 5.64700 21.79200
H  1.57100 11.83900 23.17200
H  3.18500 8.17200 30.18300
H  1.32000 5.78400 30.12100
H  4.21300 6.14800 30.40400
H  3.89600 5.01200 29.13000
H  3.20800 4.84000 30.76200
H  0.35000 7.61500 30.83000
H  0.65900 9.34100 30.72900
H  0.65000 8.26900 33.09300
H  1.56900 9.66900 32.74600
H  0.36000 1.92100 25.84800
H  1.53800 2.61800 27.08600
H  2.12400 1.81400 25.60800
H  -0.39900 1.44200 23.69500
H  1.40500 1.32300 23.42500
H  0.28800 1.17000 22.08500
H  0.37400 7.85700 20.41100
H  1.99600 10.27300 21.05100
H  3.11600 8.68000 19.96200
H  2.32100 7.34200 19.35300
H  3.23300 7.19200 20.85100
H  -0.73600 10.91500 21.81700
H  -0.83500 9.85800 20.41200
H  -0.34300 11.30800 18.95200
H  1.01800 11.86400 19.92800
H  -0.53400 12.52700 20.35600
H  2.49000 13.78300 24.19100
H  2.67400 14.23800 25.89800
H  1.07400 14.12800 25.15900
H  1.37100 11.22800 29.90300
H  3.68200 10.99400 33.25600
H  4.35100 12.60100 33.06000
H  5.15800 11.27800 32.41100
Mg 41.90800 41.36600 26.26200
C  41.06500 43.97300 28.52700
C  42.72600 39.37100 28.92000
C  42.97400 39.10700 24.01000
C  41.39700 43.75900 23.67500
N  41.92400 41.68700 28.39200
C  41.47400 42.80100 29.09000
C  41.37900 42.49700 30.58700
C  41.99800 41.14600 30.69100
C  42.28500 40.69100 29.21800
C  43.11400 40.90900 31.70300
C  39.89300 42.60300 31.09600
C  39.51500 41.95100 32.46800
H  38.72200 42.84100 33.46100
N  42.77900 39.51400 26.46200
C  42.95400 38.80000 27.60500
C  43.35700 37.47400 27.30100
C  43.29200 37.31700 25.87400
C  42.97300 38.67400 25.40500
C  43.67400 36.43500 28.39600
C  43.43800 36.04500 24.99600
O  43.28900 35.97900 23.80000
C  43.85600 34.69000 25.67400
N  42.22700 41.46100 24.18000
C  42.65800 40.37900 23.43900
C  42.33500 40.52700 21.87600
C  41.84100 42.02800 21.81800
C  41.78100 42.43500 23.29700
C  43.55700 40.34000 20.92900
C  40.48700 42.20200 21.13500
C  39.25700 42.08500 21.96700
N  41.32000 43.42500 26.11100
C  41.20000 44.26600 24.97400
C  40.84200 45.60400 25.38500
C  40.88100 45.54600 26.76100
C  41.11100 44.18300 27.12800
C  40.54900 46.79000 24.52500
C  40.58800 46.37300 27.97800
O  40.31500 47.52200 28.16800
C  40.69400 45.32300 29.14400
C  41.70500 45.76200 30.19900
O  42.88900 45.76200 30.09000
O  41.11100 45.92400 31.40200
C  41.93200 46.27600 32.66800
H  42.94100 38.77900 29.81200
H  43.07300 38.35800 23.22100
H  41.24200 44.51100 22.89800
H  41.95900 43.22300 31.15600
H  41.16900 40.47300 30.91000
H  43.18700 41.81400 32.30600
H  44.04000 40.77400 31.14500
H  42.90800 40.15100 32.45800
H  39.25400 42.17000 30.32700
H  39.74500 43.68000 31.16800
H  40.44200 41.71400 32.99100
H  39.07600 40.96700 32.30400
H  43.20500 36.71700 29.33900
H  44.72400 36.61900 28.62300
H  43.43000 35.45900 27.97800
H  43.06100 34.42600 26.37200
H  44.78000 34.90000 26.21200
H  43.95900 33.89900 24.93100
H  41.54800 39.85300 21.53700
H  42.55900 42.62200 21.25400
H  44.26000 40.88800 21.55700
H  43.55000 40.76900 19.92700
H  43.75500 39.27300 21.02300
H  40.34100 41.51800 20.30000
H  40.57100 43.22500 20.76800
H  39.26200 41.28700 22.71100
H  38.44000 41.86000 21.28200
H  38.96100 43.04100 22.39800
H  39.48500 46.92200 24.33100
H  41.10700 46.68600 23.59400
H  41.01900 47.63500 25.02900
H  39.67600 45.26400 29.52900
H  41.87500 47.31600 32.98900
H  42.97100 46.05900 32.42200
H  41.56800 45.56500 33.40900

