158

Mg -0.47800 6.94400 26.60400
C  0.27400 8.82700 29.46000
C  -0.67100 4.15600 28.65500
C  -0.88800 4.89000 23.85600
C  -0.13700 9.73700 24.62700
N  -0.18400 6.52700 28.88100
C  -0.04200 7.46600 29.80300
C  0.07300 6.88000 31.20900
C  -0.23000 5.38800 30.95900
C  -0.32600 5.28800 29.40300
C  0.74500 4.40500 31.61200
C  -0.80200 7.57300 32.31200
C  -0.14800 7.82000 33.77600
H  1.11500 7.01600 34.14100
N  -0.73900 4.81500 26.27700
C  -0.83800 3.92400 27.29300
C  -1.15700 2.65500 26.77400
C  -1.25000 2.77300 25.38900
C  -0.87800 4.18400 25.09400
C  -1.29000 1.37300 27.67100
C  -1.70000 1.79400 24.37100
O  -1.68400 2.07500 23.20100
C  -2.21100 0.43200 24.79000
N  -0.43300 7.20100 24.51800
C  -0.70400 6.29200 23.55700
C  -0.80900 6.94600 22.16100
C  -0.74500 8.51100 22.49400
C  -0.47800 8.48900 24.01500
C  0.36600 6.52400 21.23100
C  -2.05500 9.25500 22.07200
C  -1.88200 10.27900 20.98400
N  0.03300 8.85700 26.88700
C  0.10600 9.94000 26.03400
C  0.60400 11.11600 26.72100
C  0.66000 10.69500 28.05900
C  0.31200 9.34200 28.14400
C  0.83300 12.44800 26.18200
C  1.00200 11.17100 29.35600
O  1.45800 12.21800 29.78100
C  0.56000 10.02900 30.36700
C  1.70300 9.96500 31.35300
O  2.77000 9.50600 31.16000
O  1.28200 10.61900 32.43000
C  2.27900 10.99100 33.38300
H  -0.85600 3.42500 29.44500
H  -1.12000 4.26000 22.99500
H  0.10200 10.66100 24.09800
H  1.12800 6.97900 31.46700
H  -1.24000 5.08000 31.23000
H  1.28900 3.93800 30.79000
H  0.21400 3.70600 32.25700
H  1.46200 4.90200 32.26600
H  -1.80900 7.15700 32.33900
H  -0.98900 8.60800 32.02700
H  -0.90300 7.53400 34.50800
H  0.05300 8.88000 33.93300
H  -2.33000 1.04800 27.65200
H  -0.84500 1.48300 28.66000
H  -0.64200 0.70700 27.10000
H  -1.46000 -0.25500 25.18100
H  -2.73700 -0.03700 23.95900
H  -3.11900 0.60900 25.36500
H  -1.81000 6.62500 21.87300
H  0.07300 8.92000 21.90100
H  0.15800 5.49300 20.94500
H  1.29700 6.71400 21.76500
H  0.44000 7.20100 20.37900
H  -2.50500 9.64900 22.98300
H  -2.88200 8.62400 21.74600
H  -1.04600 9.98400 20.34900
H  -1.66300 11.28700 21.33800
H  -2.72300 10.26200 20.29200
H  1.90600 12.58400 26.04200
H  0.57100 13.21100 26.91400
H  0.18800 12.68000 25.33400
H  -0.30900 10.38600 30.92100
H  3.24800 11.23300 32.94900
H  2.33400 10.16300 34.09000
H  1.87400 11.82400 33.95800
Mg -5.77800 24.52400 26.48000
C  -4.31500 25.97400 29.38100
C  -7.74900 22.73700 28.48300
C  -6.81300 22.95500 23.73800
C  -3.38900 26.24400 24.57700
N  -5.97800 24.31300 28.74200
C  -5.34200 25.02800 29.72800
C  -5.81400 24.58700 31.08400
C  -6.71500 23.38800 30.77900
C  -6.90100 23.45000 29.28600
C  -6.15800 22.05700 31.22500
C  -6.61300 25.84900 31.75900
C  -6.36500 26.15900 33.20800
H  -6.03100 24.98800 34.09800
N  -7.19400 23.22900 26.10300
C  -7.95300 22.64500 27.05200
C  -8.93400 21.73800 26.38100
C  -8.69200 21.83500 24.96800
C  -7.54600 22.68200 24.89000
C  -10.07200 21.11900 27.09500
C  -9.43000 21.18500 23.78800
O  -9.13800 21.35700 22.57800
C  -10.62800 20.27100 24.01200
N  -5.20000 24.60500 24.46400
C  -5.73900 23.84500 23.52900
C  -5.14100 24.03800 22.15100
C  -4.16200 25.18600 22.33300
C  -4.20700 25.30800 23.85400
C  -4.44800 22.70100 21.64900
C  -4.53500 26.61400 21.70100
C  -3.44400 27.27700 20.80300
N  -4.27600 26.02500 26.82000
C  -3.38000 26.55200 25.87400
C  -2.46400 27.47400 26.61900
C  -2.76100 27.22100 28.00200
C  -3.84500 26.29400 28.05500
C  -1.35700 28.31000 25.98200
C  -2.40200 27.45800 29.39600
O  -1.46900 28.08800 29.92600
C  -3.44000 26.77500 30.29800
C  -2.79100 26.03000 31.49900
O  -2.33900 24.86900 31.46700
O  -2.88500 26.81500 32.62200
C  -2.16500 26.24800 33.78900
H  -8.43300 22.17400 29.12200
H  -6.97600 22.61500 22.71300
H  -2.65700 26.76600 23.95700
H  -4.99200 24.26300 31.72200
H  -7.67100 23.51900 31.28600
H  -5.89300 21.33700 30.45100
H  -6.96400 21.50800 31.71400
H  -5.34900 22.14000 31.95100
H  -7.67500 25.66500 31.59500
H  -6.33800 26.67300 31.10100
H  -7.01600 26.90700 33.66000
H  -5.42400 26.70600 33.15800
H  -10.96200 21.52500 26.61400
H  -10.11200 21.44800 28.13300
H  -10.23000 20.05200 26.93900
H  -10.32600 19.37900 24.56100
H  -10.93900 19.92700 23.02600
H  -11.42200 20.73200 24.59900
H  -5.98500 24.41700 21.57400
H  -3.16100 24.90500 22.00500
H  -4.83800 21.89300 22.26800
H  -3.37300 22.62600 21.81100
H  -4.82100 22.41300 20.66600
H  -4.93200 27.28000 22.46700
H  -5.43900 26.40900 21.12800
H  -3.73300 27.61200 19.80600
H  -2.62200 26.61600 20.52600
H  -3.00500 28.03700 21.44900
H  -1.31800 29.27300 26.49000
H  -1.60600 28.42600 24.92700
H  -0.34700 27.90200 25.94500
H  -3.99700 27.61500 30.71300
H  -1.11200 26.15800 33.52300
H  -2.50200 25.23600 34.01300
H  -2.17100 27.02300 34.55600

