158

Mg 54.81800 24.18100 44.28000
C  52.37500 26.67900 43.93400
C  52.46300 21.85500 43.36900
C  57.30700 22.03200 43.98800
C  57.16000 26.75900 44.87100
N  52.77100 24.27700 43.61100
C  51.95000 25.37600 43.46400
C  50.45900 25.02000 43.15600
C  50.50000 23.47100 43.42900
C  51.97200 23.10900 43.52700
C  49.69800 22.83500 44.65200
C  50.00200 25.40700 41.68700
C  51.11100 25.36300 40.62900
H  50.64000 25.12600 39.17300
N  54.83300 22.17900 43.86800
C  53.80000 21.37400 43.52200
C  54.22500 20.04800 43.51300
C  55.66300 20.08400 43.68400
C  56.00000 21.47100 43.89200
C  53.33000 18.85600 43.16400
C  56.56600 18.78900 43.79500
O  56.05200 17.67800 43.57100
C  58.02600 18.85000 44.12400
N  56.96000 24.36400 44.31800
C  57.77000 23.33500 44.11700
C  59.26200 23.72200 44.25100
C  59.16200 25.18600 44.51000
C  57.69000 25.48300 44.59700
C  60.11200 22.92100 45.35000
C  59.91600 26.04600 43.44800
C  59.10900 26.44100 42.14800
N  54.81400 26.25900 44.55900
C  55.78700 27.20500 44.84800
C  55.25800 28.49900 45.01800
C  53.88400 28.30700 44.66500
C  53.66700 26.99600 44.34800
C  56.02200 29.72800 45.32900
C  52.62800 28.98600 44.56600
O  52.32600 30.14500 44.79200
C  51.57200 27.96600 44.04100
C  50.98100 28.46600 42.76900
O  51.60500 28.54000 41.70000
O  49.67500 28.83200 42.95900
C  49.12900 29.40100 41.72700
H  51.60100 21.18900 43.29700
H  58.11400 21.32200 43.79300
H  57.90100 27.55600 44.96400
H  49.74300 25.48000 43.83800
H  50.23100 22.99300 42.48800
H  49.25100 23.63100 45.24700
H  50.34800 22.34600 45.37700
H  48.89200 22.18500 44.31100
H  49.59600 26.41800 41.66500
H  49.33200 24.62900 41.32100
H  51.90400 24.71000 40.99300
H  51.66700 26.30000 40.65200
H  53.67900 18.18700 42.37800
H  52.26600 19.07600 43.07500
H  53.39900 18.20400 44.03500
H  58.31300 17.90400 44.58400
H  58.14100 19.63100 44.87500
H  58.71600 19.05000 43.30400
H  59.71900 23.62200 43.26700
H  59.59600 25.49000 45.46300
H  60.99300 22.52100 44.84700
H  59.53200 22.04600 45.64200
H  60.26400 23.46900 46.28000
H  60.75200 25.42200 43.13300
H  60.44500 26.91000 43.85100
H  59.46800 27.46500 42.04600
H  58.02200 26.50600 42.20400
H  59.39600 26.03600 41.17700
H  55.44600 30.57600 44.95700
H  56.97900 29.77400 44.81000
H  56.32100 29.80100 46.37400
H  50.77900 27.87200 44.78300
H  48.09600 29.05200 41.74500
H  49.36300 29.00800 40.73800
H  49.23500 30.48200 41.63700
Mg 17.24000 50.92400 25.90400
C  18.95000 49.78300 28.64000
C  14.95500 52.48600 28.02100
C  15.74300 52.11000 23.18100
C  19.71600 49.53400 23.80900
N  17.13400 51.30600 28.11600
C  17.87500 50.60200 29.04000
C  17.37400 50.82300 30.44700
C  16.04300 51.62000 30.23200
C  16.03800 51.83900 28.72400
C  14.83500 50.89600 30.80500
C  18.47300 51.50400 31.35500
C  18.20400 51.58600 32.87600
H  17.21600 50.64000 33.56900
N  15.51100 52.08500 25.58600
C  14.71300 52.59900 26.57600
C  13.66900 53.30700 25.93700
C  14.05300 53.47800 24.51200
C  15.09800 52.48100 24.37500
C  12.67700 54.06600 26.69700
C  13.58500 54.49000 23.44200
O  14.06000 54.55300 22.30800
C  12.58700 55.53400 23.93800
N  17.64000 50.90000 23.86000
C  16.92300 51.38700 22.86800
C  17.16100 50.85800 21.45900
C  18.59600 50.39700 21.69900
C  18.69500 50.30900 23.17500
C  16.15500 49.70000 21.19600
C  19.67100 51.36200 21.09900
C  20.56100 50.90000 19.94600
N  18.97300 49.94000 26.11300
C  19.81200 49.34600 25.19000
C  20.85200 48.62100 25.85700
C  20.50100 48.65800 27.21700
C  19.35400 49.51200 27.32700
C  22.03200 47.98500 25.30100
C  20.95000 48.31200 28.59200
O  22.00600 47.69400 28.93800
C  19.91500 48.99400 29.55400
C  19.35900 47.96000 30.41500
O  18.51000 47.16900 30.00300
O  19.99100 47.97600 31.65700
C  19.57600 46.94600 32.60300
H  14.20600 52.89100 28.70500
H  15.21300 52.47600 22.30000
H  20.41400 48.98300 23.17500
H  17.12600 49.91000 30.98800
H  16.03900 52.62500 30.65300
H  14.03500 50.74200 30.08100
H  14.48400 51.52800 31.62100
H  15.05400 49.93300 31.26600
H  18.44500 52.55100 31.05500
H  19.46100 51.10400 31.12600
H  17.89000 52.62600 32.96300
H  19.16900 51.41700 33.35300
H  12.99100 55.08800 26.91000
H  12.49600 53.53300 27.63100
H  11.72300 54.05200 26.16900
H  13.01200 56.17000 24.71400
H  11.59400 55.19500 24.23100
H  12.57700 56.27900 23.14200
H  17.15200 51.62200 20.68200
H  18.88100 49.42500 21.29800
H  15.87300 49.93200 20.17000
H  15.25500 49.60100 21.80300
H  16.54800 48.68400 21.16000
H  20.37100 51.42600 21.93100
H  19.36600 52.39600 20.93600
H  20.21600 49.90400 19.66900
H  21.59500 50.80700 20.27800
H  20.49300 51.54100 19.06700
H  22.31800 48.55600 24.41800
H  21.70900 47.03600 24.87200
H  22.82200 47.76000 26.01800
H  20.56900 49.69400 30.07200
H  20.15400 47.06600 33.51900
H  19.69300 45.94300 32.19400
H  18.56600 47.12200 32.97400

