158

Mg 1.78200 -2.20300 45.27200
C  5.15100 -1.22900 44.90000
C  0.78700 0.68100 43.73900
C  -1.21100 -3.68100 44.90100
C  3.05900 -5.34900 46.63800
N  2.87900 -0.50300 44.25600
C  4.25400 -0.22700 44.32900
C  4.64200 1.02500 43.52800
C  3.20000 1.73600 43.51200
C  2.19600 0.60300 43.87800
C  3.09900 2.85000 44.59100
C  5.15000 0.47700 42.10800
C  6.37200 1.13200 41.54700
H  6.10300 1.98200 40.30200
N  -0.01500 -1.49600 44.59500
C  -0.23400 -0.28400 44.03700
C  -1.66400 -0.24700 43.66000
C  -2.25400 -1.50200 43.78500
C  -1.12700 -2.32500 44.42800
C  -2.28000 1.05300 42.99700
C  -3.71200 -1.92400 43.42400
O  -4.55500 -1.10400 43.04500
C  -4.14200 -3.39300 43.35300
N  1.03000 -4.19900 45.76400
C  -0.28700 -4.49600 45.56200
C  -0.56900 -5.94400 45.73500
C  0.68000 -6.47100 46.41400
C  1.70700 -5.29200 46.25600
C  -1.87400 -6.19500 46.61800
C  1.15200 -7.86000 45.79900
C  1.90100 -8.83900 46.69100
N  3.67000 -3.06700 45.84900
C  4.03100 -4.33300 46.40600
C  5.50600 -4.43000 46.55600
C  5.94100 -3.24700 46.00400
C  4.79900 -2.46900 45.51600
C  6.26700 -5.57600 47.15600
C  7.11500 -2.44900 45.74600
O  8.28700 -2.69500 46.04400
C  6.64500 -1.14100 45.01300
C  7.01000 0.02300 45.82900
O  6.95000 0.11100 47.05200
O  7.49000 1.02800 45.02400
C  7.91300 2.27700 45.56400
H  0.50400 1.60600 43.23300
H  -2.23500 -4.05100 44.81000
H  3.32400 -6.30300 47.09900
H  5.30200 1.70200 44.06900
H  3.01500 2.29500 42.59500
H  3.03600 3.79400 44.05000
H  4.01700 3.01300 45.15500
H  2.21700 2.68800 45.21000
H  4.29400 0.56900 41.43900
H  5.41000 -0.56600 42.29100
H  7.01300 0.30100 41.25100
H  6.84500 1.78000 42.28400
H  -3.01800 0.86000 42.21800
H  -1.44300 1.62300 42.59400
H  -2.87000 1.52900 43.78100
H  -4.39000 -3.66600 44.37900
H  -3.39600 -3.99500 42.83400
H  -5.03500 -3.46100 42.73300
H  -0.53800 -6.51300 44.80600
H  0.60700 -6.53300 47.49900
H  -2.73100 -6.20000 45.94600
H  -2.06200 -5.44200 47.38300
H  -1.79500 -7.13500 47.16400
H  1.84200 -7.65100 44.98100
H  0.36400 -8.41200 45.28800
H  1.47600 -8.96200 47.68700
H  2.97900 -8.68000 46.73500
H  1.94100 -9.79000 46.16100
H  5.63200 -5.92600 47.97000
H  7.24900 -5.23300 47.48400
H  6.40700 -6.29400 46.34800
H  7.27200 -1.17400 44.12200
H  8.81100 2.56400 45.01700
H  8.18500 2.27000 46.61900
H  7.13300 3.00500 45.34100
Mg -1.81300 34.16000 27.53400
C  -4.09900 32.40600 29.70200
C  -0.63300 35.86400 30.24200
C  -0.12200 36.03400 25.36700
C  -3.53600 32.59700 24.85900
N  -2.36700 34.22900 29.78400
C  -3.36500 33.37900 30.41100
C  -3.34000 33.65100 31.87000
C  -2.43400 34.97200 31.97500
C  -1.75400 35.06500 30.59100
C  -3.23700 36.27200 32.20100
C  -2.61700 32.53500 32.63800
C  -3.40700 32.11900 33.95000
H  -2.61500 32.29800 35.28000
N  -0.36700 35.67700 27.86900
C  -0.03900 36.27500 29.01500
C  1.05600 37.24000 28.74000
C  1.26000 37.18300 27.33000
C  0.23800 36.24400 26.76300
C  1.82900 38.07000 29.73500
C  2.33000 37.96000 26.46600
O  2.40400 37.72300 25.25700
C  3.24400 38.85000 27.09400
N  -1.76900 34.17500 25.39100
C  -1.04000 35.14400 24.74800
C  -1.25700 35.02200 23.20600
C  -2.24300 33.84400 23.07900
C  -2.61600 33.59300 24.56600
C  -1.77000 36.48200 22.67300
C  -1.81000 32.56100 22.28700
C  -0.78400 31.57500 22.98000
N  -3.40200 32.83800 27.26100
C  -3.88200 32.16500 26.13900
C  -4.71600 31.08600 26.50300
C  -4.80800 31.17100 27.88200
C  -4.04100 32.26400 28.31000
C  -5.43800 30.08600 25.58600
C  -5.55000 30.60500 29.02800
O  -6.29400 29.62200 29.08300
C  -5.00600 31.42400 30.24400
C  -6.05800 31.92800 31.21300
O  -6.88000 32.82200 31.04400
O  -6.06200 31.17800 32.37200
C  -7.19200 31.42500 33.29900
H  -0.21000 36.32500 31.13600
H  0.42700 36.75600 24.75900
H  -4.10100 32.11100 24.06100
H  -4.32700 33.80000 32.30700
H  -1.65900 34.95600 32.74100
H  -3.43600 36.77600 31.25600
H  -2.53800 36.89800 32.75600
H  -4.02700 36.11200 32.93500
H  -1.55500 32.68400 32.83000
H  -2.55400 31.60800 32.06900
H  -3.68200 31.06600 33.88900
H  -4.32700 32.70400 33.95600
H  1.48800 37.89800 30.75600
H  1.79500 39.13400 29.49800
H  2.87300 37.76500 29.65300
H  3.80000 39.53900 26.45800
H  3.89200 38.22800 27.71200
H  2.74600 39.53900 27.77600
H  -0.32900 34.76700 22.69500
H  -3.00700 34.25700 22.42100
H  -1.21300 36.75100 21.77600
H  -1.76700 37.34000 23.34500
H  -2.73400 36.47400 22.16500
H  -1.29500 33.03400 21.45100
H  -2.72700 32.01300 22.06900
H  -0.45200 32.01700 23.91900
H  0.10400 31.32000 22.40200
H  -1.31200 30.64700 23.20000
H  -5.61500 29.17200 26.15400
H  -4.87900 29.81300 24.69200
H  -6.40100 30.49700 25.28100
H  -4.47500 30.59300 30.70700
H  -8.15800 31.23500 32.83200
H  -7.26600 32.46900 33.60400
H  -7.18500 30.73900 34.14600

