158

Mg -1.45200 18.21200 27.34400
C  -2.39700 15.93700 29.90000
C  -1.79900 20.76000 29.39900
C  -0.49300 20.18000 24.72700
C  -1.72200 15.46900 24.99900
N  -1.88300 18.24400 29.40500
C  -2.18900 17.25700 30.35000
C  -2.32700 17.78300 31.76400
C  -2.33400 19.38200 31.48600
C  -1.93800 19.50900 30.02200
C  -3.61500 20.21700 31.97200
C  -1.06300 17.36800 32.67100
C  -1.45900 16.52500 33.83800
H  -0.92000 16.65100 35.28900
N  -1.05200 20.16700 27.19000
C  -1.32500 21.06800 28.12100
C  -0.89100 22.43700 27.62100
C  -0.30700 22.16700 26.32400
C  -0.55300 20.80400 25.99800
C  -1.06400 23.71000 28.41800
C  0.15300 23.11400 25.29600
O  0.79100 22.88600 24.29000
C  0.09600 24.57000 25.67000
N  -1.42400 17.94900 25.04300
C  -0.83300 18.94100 24.25600
C  -0.59700 18.46700 22.80200
C  -0.95100 16.86400 22.93000
C  -1.32300 16.69300 24.42700
C  -1.33800 19.38300 21.82100
C  0.16200 15.87100 22.59400
C  1.49800 16.09600 23.39000
N  -2.03700 16.13800 27.32800
C  -2.01700 15.17500 26.33600
C  -2.34300 13.91700 26.93500
C  -2.59600 14.14000 28.30000
C  -2.28200 15.50800 28.50700
C  -2.51900 12.62200 26.11400
C  -3.05400 13.59900 29.51900
O  -3.55600 12.56100 29.83700
C  -2.95300 14.70300 30.66000
C  -2.05600 14.06600 31.54500
O  -0.84700 14.00100 31.47800
O  -2.84800 13.49200 32.51800
C  -2.23700 12.61900 33.53700
H  -1.90000 21.67200 29.99000
H  -0.06900 20.71700 23.87600
H  -1.86000 14.65500 24.28500
H  -3.27400 17.42700 32.17000
H  -1.47200 19.79900 32.00700
H  -4.15700 20.68700 31.15200
H  -3.24800 21.00500 32.63000
H  -4.30400 19.62400 32.57400
H  -0.53200 18.18600 33.15900
H  -0.31600 16.82000 32.09500
H  -1.12500 15.54500 33.49600
H  -2.54200 16.56200 33.95900
H  -0.18400 24.05300 28.96100
H  -1.83000 23.61900 29.18800
H  -1.41500 24.49000 27.74200
H  0.70700 24.73600 26.55700
H  -0.97300 24.78400 25.69700
H  0.72700 25.18600 25.03000
H  0.45000 18.54800 22.51000
H  -1.88900 16.73500 22.39000
H  -1.97900 20.08400 22.35700
H  -1.96800 18.83900 21.11700
H  -0.64800 19.96200 21.20700
H  0.34600 16.12100 21.55000
H  -0.18900 14.85900 22.79500
H  2.15100 15.22300 23.41500
H  1.26500 16.38300 24.41500
H  2.07500 16.90300 22.93800
H  -1.67300 12.50600 25.43600
H  -3.46400 12.45900 25.59600
H  -2.27600 11.76700 26.74400
H  -3.96200 14.89600 31.02500
H  -2.97600 11.95900 33.98900
H  -1.76300 13.26200 34.27900
H  -1.42400 12.04000 33.09800
Mg 24.93000 -5.71700 46.64300
C  26.93900 -3.52400 44.76100
C  22.33500 -4.87000 44.57300
C  23.52600 -8.55300 47.59200
C  27.94800 -6.69900 48.40200
N  24.68200 -4.28200 44.88300
C  25.58700 -3.47500 44.27000
C  24.98800 -2.49500 43.21200
C  23.46300 -2.80100 43.53300
C  23.47800 -4.04700 44.36400
C  22.71400 -1.60900 44.13100
C  25.52000 -2.62200 41.75800
C  25.93600 -1.33400 41.06200
H  25.40300 -1.01200 39.65100
N  23.11300 -6.57700 46.26500
C  22.22500 -6.03300 45.39400
C  21.07300 -6.92500 45.31500
C  21.37700 -8.07600 46.17300
C  22.69400 -7.76800 46.72700
C  19.76000 -6.70000 44.47500
C  20.46500 -9.28500 46.28800
O  19.40400 -9.30700 45.63400
C  20.77500 -10.41500 47.27600
N  25.61700 -7.32800 48.00200
C  24.81100 -8.35400 48.21300
C  25.48900 -9.35800 49.16500
C  26.81200 -8.55700 49.58800
C  26.85400 -7.52100 48.56900
C  24.62400 -9.95600 50.25200
C  28.12100 -9.43500 49.60300
C  29.09400 -8.99800 50.70700
N  26.88400 -5.06000 46.80100
C  28.00000 -5.58000 47.58100
C  29.21600 -4.83300 47.23300
C  28.81400 -4.06000 46.09400
C  27.46200 -4.21100 45.89100
C  30.62100 -4.96900 47.77900
C  29.38300 -3.21600 45.02600
O  30.51100 -2.84700 44.81600
C  28.10600 -2.72700 44.22300
C  28.05800 -1.27600 44.63700
O  27.74100 -0.86500 45.71100
O  28.42000 -0.43600 43.53200
C  28.41400 1.05900 43.78900
H  21.46900 -4.61400 43.95900
H  23.04200 -9.49100 47.87000
H  28.84500 -6.76600 49.02200
H  25.24800 -1.48100 43.51700
H  22.98600 -2.89200 42.55700
H  23.42600 -0.78300 44.15600
H  22.52600 -1.87000 45.17300
H  21.78300 -1.35000 43.62700
H  24.79200 -3.22000 41.21000
H  26.47600 -3.13700 41.84700
H  27.02500 -1.28400 41.07900
H  25.74200 -0.50800 41.74700
H  19.96800 -7.11400 43.48800
H  19.62000 -5.62000 44.50600
H  18.82500 -7.07400 44.89300
H  20.01400 -11.19300 47.22400
H  20.82100 -9.93000 48.25100
H  21.75900 -10.84300 47.08700
H  25.91700 -10.10100 48.49100
H  26.66300 -8.14000 50.58400
H  25.13500 -9.96800 51.21500
H  24.51400 -10.99300 49.93700
H  23.60000 -9.59700 50.14100
H  28.68600 -9.38600 48.67300
H  27.85400 -10.48700 49.70500
H  28.65300 -8.19600 51.29900
H  30.02300 -8.53100 50.37900
H  29.34000 -9.85200 51.33800
H  30.97900 -5.97400 47.55600
H  30.64500 -4.87600 48.86500
H  31.17500 -4.18700 47.26000
H  28.24200 -2.89100 43.15400
H  29.32100 1.19900 44.37600
H  27.69600 1.47500 44.49600
H  28.32500 1.60900 42.85200

