158

Mg -1.17100 17.80000 26.25600
C  -1.59400 15.28400 28.68700
C  -1.88900 20.09600 28.62700
C  -0.95200 20.08400 23.90600
C  -1.16700 15.26900 23.85600
N  -1.53400 17.68800 28.43900
C  -1.61800 16.57000 29.21700
C  -1.78100 16.91500 30.66700
C  -2.20000 18.46900 30.58000
C  -1.94100 18.74400 29.11400
C  -3.63400 18.99100 31.03800
C  -0.64100 16.50300 31.72000
C  -0.53400 17.37000 32.99400
H  -0.26600 16.78300 34.32900
N  -1.25000 19.84000 26.28000
C  -1.51100 20.59100 27.38600
C  -1.48800 21.97900 26.92600
C  -1.13000 21.96800 25.51100
C  -1.09800 20.58800 25.14200
C  -1.87000 23.23600 27.86000
C  -0.97600 23.11500 24.62300
O  -0.67000 22.93600 23.42200
C  -1.10600 24.54600 25.15200
N  -1.02700 17.69500 24.18700
C  -0.97300 18.80600 23.46100
C  -1.03800 18.48900 21.87900
C  -0.96300 16.92900 21.89700
C  -1.09300 16.59800 23.42500
C  -2.24700 19.16300 21.21200
C  0.18800 16.30000 21.14600
C  1.59500 16.24900 21.70200
N  -1.36400 15.69700 26.25200
C  -1.33700 14.81800 25.20200
C  -1.58100 13.47500 25.67500
C  -1.63300 13.62800 27.06200
C  -1.47800 15.00500 27.33000
C  -1.69800 12.33400 24.80400
C  -1.81300 12.88600 28.27000
O  -1.82900 11.65700 28.43300
C  -1.86400 13.92800 29.41200
C  -0.83800 13.51200 30.35900
O  0.33500 13.72400 30.26400
O  -1.40900 12.94200 31.46100
C  -0.58000 12.47000 32.53600
H  -2.23300 20.81400 29.37400
H  -0.99300 20.71500 23.01500
H  -1.24700 14.47500 23.11100
H  -2.72200 16.41900 30.90500
H  -1.56000 19.11500 31.18100
H  -3.52200 19.78800 31.77300
H  -4.12600 18.21100 31.61700
H  -4.27500 19.28900 30.20800
H  0.25000 16.32600 31.11600
H  -0.99600 15.50400 31.97100
H  -1.51000 17.84000 33.11600
H  0.25800 18.08900 32.78400
H  -2.67200 23.82300 27.41200
H  -1.01100 23.89700 27.96900
H  -2.01400 22.91500 28.89200
H  -1.02600 25.31600 24.38500
H  -0.32300 24.53700 25.91100
H  -2.10200 24.79400 25.51700
H  -0.17200 18.99400 21.45100
H  -1.86200 16.60900 21.36900
H  -2.92200 19.63600 21.92600
H  -2.74500 18.43200 20.57400
H  -1.81400 19.98500 20.64200
H  0.24400 16.89200 20.23300
H  -0.11900 15.31300 20.80200
H  1.56200 16.67600 22.70400
H  2.39000 16.70200 21.11000
H  1.82200 15.18800 21.80500
H  -1.70400 11.39900 25.36500
H  -0.93400 12.39000 24.02900
H  -2.71400 12.38100 24.41200
H  -2.81500 13.87300 29.94400
H  -1.23000 11.98100 33.26200
H  -0.06100 13.33800 32.94100
H  0.10900 11.68300 32.23000
Mg 41.92200 41.11600 27.31600
C  41.05800 43.34300 29.61200
C  43.02600 38.92800 29.72700
C  42.64700 38.90900 24.82200
C  41.08300 43.53100 24.77700
N  41.88900 41.06200 29.36600
C  41.48000 42.13500 30.14100
C  41.56300 41.81200 31.67900
C  42.50200 40.57000 31.62500
C  42.49400 40.15400 30.18100
C  43.89900 40.67800 32.32300
C  40.18400 41.57900 32.38100
C  39.96700 42.57000 33.52500
H  39.15100 41.85800 34.72700
N  42.71800 39.14600 27.29800
C  43.08000 38.37800 28.40600
C  43.40400 37.11900 27.91400
C  43.25400 37.03700 26.50700
C  42.88000 38.39500 26.12300
C  43.74800 36.03900 28.88800
C  43.49700 35.89100 25.54300
O  43.40500 36.00500 24.30500
C  43.95700 34.52700 26.03700
N  42.16700 41.32400 25.07500
C  42.33700 40.16100 24.31900
C  42.40500 40.55700 22.85100
C  41.66300 41.86700 22.76000
C  41.62600 42.31200 24.29600
C  43.84000 40.48800 22.21800
C  40.25700 41.76400 22.06100
C  39.10900 41.23000 22.95300
N  41.14300 43.06500 27.15700
C  40.82800 43.91400 26.10900
C  40.36700 45.17300 26.67600
C  40.38300 44.98300 28.04700
C  40.85700 43.66700 28.27600
C  39.95000 46.40200 25.89400
C  40.18400 45.61800 29.26300
O  39.79700 46.76100 29.48000
C  40.59300 44.58700 30.33000
C  41.57300 45.10600 31.26300
O  42.75100 44.87700 31.28300
O  40.87300 45.75500 32.29600
C  41.64200 46.18200 33.47900
H  43.29400 38.22300 30.51800
H  42.80900 38.20000 24.00700
H  40.84600 44.31700 24.05700
H  42.10800 42.71200 31.96300
H  41.98300 39.82700 32.23000
H  43.90200 40.08300 33.23600
H  44.18700 41.68400 32.62900
H  44.69700 40.36200 31.65000
H  40.19000 40.55200 32.74700
H  39.35700 41.72800 31.68800
H  39.43000 43.48100 33.26300
H  40.96200 42.86100 33.86200
H  42.93200 35.32000 28.81900
H  43.65900 36.41400 29.90800
H  44.71000 35.59300 28.63600
H  44.15400 33.72600 25.32400
H  43.18700 34.18600 26.72900
H  44.82200 34.69800 26.67800
H  41.87200 39.76000 22.33300
H  42.24700 42.58500 22.18500
H  44.54800 40.70500 23.01700
H  43.96200 41.13500 21.34900
H  44.06900 39.47500 21.88800
H  40.35100 41.07300 21.22400
H  39.95000 42.70500 21.60500
H  39.41100 40.74400 23.88100
H  38.49900 40.53700 22.37400
H  38.37100 42.01400 23.12500
H  39.51200 45.94500 25.00600
H  40.76900 47.11200 25.77500
H  39.14400 46.89300 26.43900
H  39.69200 44.21500 30.81800
H  41.90100 45.31100 34.08100
H  41.14100 46.89200 34.13800
H  42.63000 46.58100 33.24900

