158

Mg 26.05400 -0.50000 28.93500
C  28.04000 -1.12500 31.87800
C  23.27800 -0.24300 31.07200
C  24.32000 -0.47400 26.25400
C  29.03000 -1.09900 27.05200
N  25.67600 -0.81500 31.22200
C  26.68900 -0.78600 32.16800
C  26.06100 -0.58300 33.57000
C  24.57200 -0.31600 33.31300
C  24.49300 -0.38700 31.77900
C  23.52700 -1.18900 33.98300
C  26.77300 0.62300 34.37200
C  27.37800 0.20700 35.74700
H  27.19400 1.08800 36.94700
N  24.05900 -0.41100 28.71200
C  23.09000 -0.31700 29.66800
C  21.81800 -0.25200 28.96400
C  22.07100 -0.29800 27.54600
C  23.56300 -0.36100 27.45400
C  20.52900 -0.08700 29.71300
C  21.01400 -0.27300 26.38600
O  21.27500 -0.23800 25.19200
C  19.67000 -0.61800 26.79400
N  26.58600 -0.88400 26.99100
C  25.66300 -0.72400 25.97400
C  26.20300 -0.93200 24.53600
C  27.69200 -1.04900 24.79400
C  27.78900 -1.03300 26.35200
C  25.65600 -2.04900 23.59000
C  28.57800 0.05400 24.07400
C  29.79500 -0.48700 23.34200
N  28.17000 -1.00500 29.28400
C  29.24200 -1.17000 28.45900
C  30.43500 -1.42600 29.23200
C  30.01100 -1.47300 30.56200
C  28.60700 -1.23100 30.53500
C  31.77400 -1.61700 28.65300
C  30.44600 -1.64500 31.91900
O  31.57800 -1.99600 32.31000
C  29.21900 -1.37500 32.79100
C  28.95900 -2.52800 33.73500
O  28.19600 -3.46200 33.54000
O  29.74700 -2.31400 34.89900
C  29.42900 -3.27400 35.97000
H  22.40900 0.04800 31.66600
H  23.72500 -0.52300 25.33900
H  29.89800 -1.02300 26.39300
H  26.17700 -1.53600 34.08800
H  24.23900 0.65200 33.68700
H  23.76800 -2.19200 33.62900
H  22.49600 -0.84200 33.91300
H  23.84600 -1.19700 35.02600
H  25.95500 1.34000 34.43900
H  27.48200 1.01600 33.64400
H  28.46100 0.24300 35.62400
H  27.15700 -0.82000 36.03700
H  20.67900 0.17700 30.76000
H  20.14600 -1.10800 29.71800
H  19.92100 0.68500 29.24200
H  19.16500 -1.04800 25.92900
H  19.13900 0.24400 27.19900
H  19.71600 -1.31300 27.63200
H  25.91600 -0.01900 24.01500
H  28.05100 -2.05300 24.56600
H  25.05300 -1.56800 22.82100
H  25.00700 -2.75100 24.11300
H  26.45900 -2.53600 23.03600
H  28.94900 0.74000 24.83600
H  27.93600 0.59200 23.37600
H  29.75300 -1.57600 23.36100
H  30.63800 -0.14400 23.94100
H  29.90200 -0.00500 22.37000
H  32.54000 -1.38500 29.39300
H  31.86700 -0.88900 27.84700
H  31.94100 -2.60100 28.21500
H  29.43100 -0.42900 33.28900
H  28.41600 -3.12700 36.34400
H  30.17500 -3.09300 36.74400
H  29.49400 -4.32200 35.67600
Mg 6.46500 56.95000 42.38700
C  5.67200 53.46100 42.16400
C  9.23600 56.37800 40.57000
C  6.88800 60.19800 42.34900
C  3.22100 57.38000 43.71700
N  7.19100 55.13400 41.28800
C  6.82100 53.83800 41.43100
C  7.77800 52.87800 40.60600
C  9.08400 53.79700 40.57900
C  8.51600 55.23800 40.78200
C  10.18400 53.56200 41.66800
C  7.30200 52.57700 39.17300
C  7.69900 51.19700 38.56200
H  6.85200 50.54600 37.53500
N  7.78300 58.23500 41.40700
C  8.94700 57.74800 40.77100
C  9.80000 58.83900 40.59900
C  9.16700 59.98600 41.08800
C  7.87600 59.55800 41.67100
C  11.05800 58.79700 39.72000
C  9.59900 61.47800 40.90800
O  10.57400 61.74000 40.25700
C  8.81900 62.63600 41.43000
N  5.11500 58.56300 42.72800
C  5.59400 59.79200 42.68300
C  4.57900 60.80500 43.03300
C  3.38100 59.92300 43.46400
C  3.87500 58.49700 43.21800
C  5.03800 61.77800 44.14400
C  2.10200 60.28400 42.74000
C  0.88500 60.49500 43.58800
N  4.83100 55.69100 43.05700
C  3.67700 56.03900 43.63600
C  3.07300 54.80900 44.15700
C  3.82100 53.70800 43.60400
C  4.89100 54.31400 42.90600
C  1.82800 54.71700 44.90600
C  3.92200 52.24900 43.45800
O  3.19100 51.39100 43.88400
C  5.19100 52.06500 42.58000
C  4.85400 51.18100 41.44300
O  4.13500 51.48800 40.53500
O  5.29300 49.90400 41.63500
C  4.94800 48.78800 40.81000
H  10.20300 56.20800 40.09100
H  7.16400 61.23700 42.54400
H  2.23000 57.38400 44.17500
H  7.98100 51.94900 41.14000
H  9.58600 53.77000 39.61200
H  11.08100 53.15800 41.19900
H  9.84800 52.82500 42.39700
H  10.55400 54.47800 42.12900
H  7.83600 53.25500 38.50700
H  6.23800 52.81500 39.15600
H  7.70300 50.57600 39.45800
H  8.75500 51.28600 38.30600
H  11.04700 59.57600 38.95700
H  11.13100 57.92500 39.07000
H  12.02000 58.90300 40.22200
H  8.76500 62.56700 42.51700
H  7.87300 62.42000 40.93400
H  9.30000 63.54300 41.06400
H  4.42600 61.23400 42.04300
H  3.15300 60.02200 44.52500
H  5.98700 61.58000 44.64100
H  4.27600 62.04900 44.87500
H  5.05200 62.71500 43.58700
H  1.68100 59.42600 42.21700
H  2.17000 61.15000 42.08100
H  0.46000 61.48600 43.42400
H  1.27900 60.46300 44.60400
H  0.07900 59.78100 43.41600
H  1.97800 53.97800 45.69200
H  1.04600 54.19800 44.35100
H  1.44300 55.60000 45.41700
H  5.90000 51.40600 43.08200
H  3.99500 48.28200 40.96300
H  5.64000 47.95300 40.91400
H  5.09600 49.07900 39.77000

