158

Mg 54.15500 24.87500 44.89000
C  51.65400 27.16600 43.97400
C  52.26300 22.41700 43.36100
C  56.80700 23.04300 45.02900
C  56.13600 27.71800 45.94700
N  52.24100 24.84000 43.71200
C  51.37300 25.87200 43.55000
C  50.21700 25.38200 42.76100
C  50.18000 23.85900 43.05700
C  51.64400 23.65700 43.36500
C  49.21100 23.50300 44.21100
C  50.18400 25.68100 41.18600
C  51.60100 25.90000 40.53800
H  52.13100 24.69300 39.77600
N  54.45900 22.93600 44.30300
C  53.58300 22.10900 43.69000
C  54.23400 20.85200 43.50200
C  55.55700 20.92600 44.04700
C  55.65500 22.30600 44.56100
C  53.55100 19.66800 42.72600
C  56.60100 19.85700 43.98800
O  56.45900 18.86000 43.30000
C  58.00200 19.86500 44.70300
N  56.22400 25.27800 45.49600
C  57.16100 24.32500 45.43300
C  58.49900 24.80300 45.94500
C  58.27000 26.34300 45.98900
C  56.79400 26.46700 45.83100
C  58.74200 24.07700 47.25500
C  59.11100 27.21100 45.00600
C  59.81400 28.44000 45.67800
N  53.94700 27.02100 45.06400
C  54.77400 28.03400 45.60500
C  54.01100 29.23200 45.71200
C  52.77000 28.98000 45.05100
C  52.77900 27.63500 44.72700
C  54.47600 30.58800 46.38500
C  51.52400 29.59100 44.55500
O  51.04800 30.69600 44.70100
C  50.80300 28.48000 43.82400
C  50.52600 28.91200 42.44100
O  51.34400 29.16400 41.58600
O  49.18600 28.90600 42.24400
C  48.70100 29.37700 40.95600
H  51.65300 21.55900 43.07000
H  57.68400 22.41000 45.18000
H  56.78300 28.54200 46.25600
H  49.24900 25.81000 43.02400
H  49.88100 23.31200 42.16300
H  48.90000 24.42300 44.70600
H  49.56600 22.79100 44.95600
H  48.29100 23.02800 43.86700
H  49.53600 26.54100 41.01700
H  49.63100 24.83700 40.77200
H  52.32800 26.12600 41.31800
H  51.54300 26.80000 39.92500
H  53.48200 19.94200 41.67300
H  52.56400 19.48100 43.14900
H  54.14000 18.75400 42.80200
H  58.36200 18.84100 44.80900
H  57.91700 20.45300 45.61700
H  58.67900 20.49700 44.12800
H  59.34300 24.51900 45.31600
H  58.37400 26.69100 47.01700
H  59.24600 23.12200 47.10500
H  57.83600 23.98300 47.85400
H  59.39300 24.70500 47.86300
H  58.55000 27.61900 44.16500
H  59.90300 26.59500 44.57800
H  60.81200 28.45900 45.24000
H  59.88300 28.38200 46.76400
H  59.26300 29.30700 45.31400
H  53.81100 30.83100 47.21400
H  54.32000 31.46000 45.75000
H  55.51100 30.52800 46.72100
H  49.82500 28.41900 44.30100
H  49.24100 29.05300 40.06600
H  48.44400 30.43600 40.91700
H  47.82200 28.74800 40.82000
Mg 7.76200 52.99600 41.60600
C  6.94800 49.59200 41.35800
C  10.70000 52.21400 40.01100
C  8.25100 56.17100 41.15800
C  4.60000 53.54400 42.92900
N  8.68000 51.14500 40.75600
C  8.13600 49.88100 40.78400
C  9.06900 48.86600 40.12600
C  10.38500 49.68600 40.18400
C  9.93600 51.10700 40.30300
C  11.42200 49.15800 41.13900
C  8.59700 48.48200 38.68100
C  9.13700 49.32200 37.44200
H  8.14200 49.68800 36.41800
N  9.26100 54.11200 40.63400
C  10.38800 53.61900 40.00500
C  11.21100 54.71800 39.61800
C  10.48400 55.87800 39.83200
C  9.28300 55.40800 40.56800
C  12.50400 54.60000 39.03000
C  10.87400 57.22700 39.33600
O  11.95600 57.33100 38.71400
C  9.94800 58.39500 39.36800
N  6.59200 54.62900 42.05700
C  7.01800 55.84500 41.78500
C  6.14000 56.92400 42.47100
C  4.90800 56.06100 42.93700
C  5.39500 54.64000 42.65500
C  6.75900 57.82500 43.55600
C  3.62800 56.25300 42.19400
C  3.56600 56.02500 40.62300
N  6.09400 51.80100 42.31500
C  4.84900 52.16200 42.81900
C  3.98200 50.98200 43.02300
C  4.81200 49.99500 42.45300
C  6.05400 50.52400 42.03000
C  2.49900 50.96300 43.31300
C  4.95500 48.51500 42.24600
O  4.29000 47.54600 42.57300
C  6.24700 48.21900 41.49300
C  5.84900 47.49600 40.21400
O  4.96600 47.97900 39.47800
O  6.41100 46.29000 40.01100
C  6.10900 45.61400 38.79000
H  11.67000 52.01600 39.55000
H  8.45200 57.24500 41.13500
H  3.62300 53.80100 43.34200
H  9.12200 48.10500 40.90400
H  10.85700 49.42800 39.23600
H  12.34000 48.96900 40.58200
H  11.05800 48.33900 41.75900
H  11.72500 49.90900 41.86900
H  7.53100 48.67000 38.54800
H  8.70500 47.41300 38.49800
H  9.66600 48.48500 36.98600
H  9.74900 50.17700 37.72900
H  12.91000 53.60300 39.20200
H  13.27100 55.17900 39.54400
H  12.48900 54.72800 37.94800
H  9.84100 58.80700 40.37100
H  8.96800 58.08200 39.00900
H  10.17600 59.22500 38.69900
H  5.92400 57.48400 41.56100
H  4.84900 56.26500 44.00600
H  6.76300 58.87200 43.25200
H  7.78200 57.59200 43.85000
H  6.18700 57.84000 44.48400
H  3.43700 57.32500 42.25100
H  2.81100 55.69000 42.64700
H  4.30200 55.32300 40.23100
H  3.43500 56.97000 40.09600
H  2.65100 55.51800 40.31800
H  2.08400 51.97000 43.34400
H  2.32600 50.39100 44.22400
H  2.08700 50.36100 42.50200
H  6.84100 47.48300 42.03400
H  6.83100 44.82900 38.56800
H  6.19400 46.28800 37.93700
H  5.14500 45.10900 38.72800

