158

Mg 25.00100 0.99500 28.97200
C  27.16800 0.58100 31.69100
C  22.35800 0.89000 31.07500
C  22.91600 0.94800 26.12700
C  27.77400 0.36100 26.79900
N  24.73800 0.70000 31.08800
C  25.77400 0.69100 32.02600
C  25.21500 0.94300 33.43600
C  23.72000 0.91200 33.25000
C  23.59200 0.82500 31.71900
C  23.02300 -0.35500 34.03200
C  25.91700 2.19300 34.12000
C  25.08100 2.92100 35.27900
H  25.84500 3.06900 36.57100
N  22.87200 0.89700 28.67600
C  22.00000 0.88900 29.62200
C  20.67100 0.91500 29.05100
C  20.80100 0.94800 27.65200
C  22.22300 0.89500 27.38900
C  19.41200 0.84300 29.91300
C  19.72700 1.18000 26.57800
O  20.01000 1.44500 25.42600
C  18.22900 1.13400 26.95200
N  25.26100 0.63600 26.75100
C  24.27900 0.79200 25.82200
C  24.80500 0.98300 24.46000
C  26.35400 0.77300 24.64700
C  26.49800 0.54000 26.16700
C  24.23800 0.15200 23.30800
C  27.16800 1.98200 24.06200
C  27.22600 3.22800 24.96100
N  27.03900 0.63000 29.18700
C  28.01900 0.35700 28.24500
C  29.25100 -0.04500 28.92800
C  28.93200 0.11200 30.29400
C  27.61500 0.47200 30.37900
C  30.54100 -0.59500 28.25900
C  29.47100 0.12000 31.59500
O  30.54700 -0.31700 31.92700
C  28.36800 0.48100 32.66300
C  28.25500 -0.60400 33.67400
O  27.52900 -1.56800 33.56100
O  29.03200 -0.34700 34.75100
C  28.85500 -1.16800 35.94900
H  21.51700 1.03000 31.75700
H  22.23300 0.94600 25.27500
H  28.50600 0.17000 26.01100
H  25.60600 0.09300 33.99600
H  23.22600 1.84000 33.53900
H  23.81400 -0.96500 34.46800
H  22.49200 -0.93400 33.27600
H  22.33000 -0.07100 34.82400
H  26.24000 2.88100 33.33800
H  26.78000 1.68500 34.55100
H  24.18600 2.33800 35.49600
H  24.72800 3.90900 34.98100
H  18.72000 0.11000 29.49700
H  18.88400 1.78700 29.78100
H  19.60000 0.60300 30.95900
H  17.70700 1.33800 26.01700
H  17.94300 1.77900 27.78200
H  18.00600 0.09300 27.18100
H  24.61500 2.03800 24.26500
H  26.61800 -0.11400 24.07100
H  23.53400 -0.59400 23.67900
H  24.95700 -0.37900 22.68400
H  23.61800 0.76800 22.65600
H  26.76100 2.16900 23.06800
H  28.20200 1.67800 23.89400
H  28.25900 3.52800 25.13800
H  26.71000 2.98200 25.88900
H  26.70400 4.15600 24.73100
H  31.40000 -0.27200 28.84800
H  30.68100 -0.23000 27.24100
H  30.31300 -1.66000 28.28800
H  28.61500 1.38100 33.22500
H  29.19200 -2.17800 35.71400
H  27.86400 -1.21700 36.40000
H  29.41000 -0.69400 36.75900
Mg 1.18800 42.08800 25.72700
C  1.97500 42.36900 28.96600
C  -1.75700 40.74100 26.68600
C  0.52000 41.17300 22.46900
C  4.38800 43.05500 24.78200
N  0.16900 41.81300 27.60500
C  0.71000 42.07900 28.81900
C  -0.33700 41.95900 29.96100
C  -1.49100 41.22100 29.16300
C  -0.98200 41.14500 27.72800
C  -1.91100 39.88100 29.82000
C  -0.79300 43.33000 30.46800
C  -0.82700 43.33500 31.98300
H  -1.68800 42.30400 32.71700
N  -0.55800 41.25800 24.65500
C  -1.57800 40.69500 25.27100
C  -2.45200 40.09900 24.22200
C  -1.91200 40.29700 22.98400
C  -0.59600 40.96900 23.33800
C  -3.79300 39.45700 24.49900
C  -2.42000 39.99600 21.60800
O  -1.81600 40.30100 20.62100
C  -3.70200 39.26900 21.48200
N  2.28900 42.06100 23.94600
C  1.75800 41.72600 22.72300
C  2.67100 42.19800 21.57600
C  3.76800 43.03000 22.28000
C  3.49800 42.73300 23.76300
C  3.30600 40.99200 20.73300
C  3.73100 44.51900 21.89000
C  4.87800 45.06400 21.11100
N  2.91900 42.47500 26.66800
C  4.11300 42.91300 26.20900
C  4.94100 43.32200 27.29700
C  4.20400 43.07600 28.48500
C  2.96900 42.57400 27.96300
C  6.39700 43.65900 27.19300
C  4.17600 42.99000 29.88300
O  5.09600 43.24300 30.66100
C  2.78400 42.51900 30.34200
C  2.84500 41.25500 31.07600
O  3.47600 40.19700 30.73800
O  2.03000 41.34100 32.11500
C  2.04000 40.35200 33.16300
H  -2.65700 40.28200 27.10100
H  0.33500 40.95400 21.41500
H  5.33700 43.45200 24.41500
H  0.04200 41.28500 30.72900
H  -2.41400 41.77600 28.99600
H  -1.34400 39.05800 29.38600
H  -2.98500 39.69400 29.79700
H  -1.63400 39.96600 30.87100
H  -1.83200 43.41200 30.14900
H  -0.25600 44.17300 30.03500
H  -1.20100 44.33800 32.19300
H  0.21700 43.22300 32.27500
H  -3.89500 39.41400 25.58400
H  -3.67400 38.44200 24.12200
H  -4.64400 40.06900 24.19700
H  -3.71600 38.41100 22.15400
H  -3.81400 39.02300 20.42600
H  -4.39200 40.08100 21.71100
H  2.16800 42.86100 20.87200
H  4.65900 42.50900 21.93000
H  3.09000 40.04400 21.22600
H  4.36800 40.95300 20.49000
H  3.01300 41.08100 19.68700
H  3.61100 45.03700 22.84100
H  2.89000 44.75500 21.23800
H  5.64400 44.29700 20.99600
H  5.32600 45.95500 21.55100
H  4.50000 45.33100 20.12400
H  7.12800 42.85500 27.28100
H  6.55900 44.32500 28.04100
H  6.52600 44.11000 26.20900
H  2.36400 43.29700 30.97900
H  2.64400 39.48300 32.90200
H  1.04300 39.93800 33.31400
H  2.40000 40.78900 34.09400

