158

Mg 27.14800 49.91900 26.12900
C  25.21900 50.91400 28.84800
C  29.69000 48.91400 28.42400
C  29.14600 49.21700 23.46900
C  24.69300 50.94200 23.95700
N  27.41400 49.92700 28.36500
C  26.41400 50.35700 29.25600
C  26.89000 50.03500 30.71800
C  28.35600 49.41700 30.56000
C  28.51900 49.48100 28.99700
C  29.50800 50.20800 31.27700
C  25.81900 49.19200 31.49500
C  25.69700 49.74500 32.94000
H  25.74800 48.87200 34.14100
N  29.14500 49.18600 25.99600
C  30.03800 48.85400 27.03900
C  31.26500 48.36700 26.41600
C  31.16700 48.47000 24.98000
C  29.74400 48.96200 24.76300
C  32.42100 47.90200 27.36300
C  32.25400 48.28300 23.89200
O  32.07300 48.64100 22.71600
C  33.52300 47.64900 24.25500
N  26.94100 50.05600 24.06500
C  27.84700 49.59200 23.17100
C  27.22900 49.65100 21.74900
C  25.87000 50.22200 21.89000
C  25.80100 50.29300 23.41200
C  28.08400 50.31300 20.66500
C  24.76400 49.27800 21.33300
C  23.78200 49.98200 20.38100
N  25.30000 50.85600 26.29000
C  24.39900 51.10300 25.34800
C  23.25300 51.72700 25.99400
C  23.57200 51.77800 27.33000
C  24.78000 51.06700 27.47900
C  21.98900 52.17100 25.35900
C  23.06600 52.16800 28.66000
O  22.07200 52.81100 28.91800
C  24.08200 51.44800 29.68900
C  24.49000 52.57100 30.68800
O  25.19800 53.53800 30.46600
O  23.67500 52.45200 31.82900
C  24.11400 53.36200 32.86800
H  30.45900 48.46700 29.05700
H  29.73700 48.90500 22.60500
H  23.93800 51.31700 23.26200
H  26.91700 51.03400 31.15400
H  28.30200 48.41200 30.97900
H  29.08500 50.62600 32.19000
H  29.97100 50.95300 30.62900
H  30.28300 49.48500 31.53300
H  26.11300 48.14400 31.55000
H  24.84600 49.21000 31.00500
H  24.72000 50.19500 33.11900
H  26.43100 50.52300 33.14500
H  32.09900 47.04200 27.94900
H  32.63400 48.72700 28.04300
H  33.31400 47.65900 26.78700
H  34.13200 48.24900 24.93100
H  34.05400 47.57500 23.30600
H  33.44600 46.64300 24.67000
H  27.15500 48.59900 21.47300
H  25.93900 51.24400 21.51600
H  29.03800 50.56500 21.12800
H  27.68200 51.28300 20.37300
H  28.09800 49.74600 19.73400
H  24.25200 48.91100 22.22300
H  25.20200 48.48000 20.73400
H  24.27000 49.96700 19.40700
H  23.66700 51.01900 20.69600
H  22.83600 49.44800 20.29500
H  22.05300 53.20000 25.00800
H  21.21400 52.19300 26.12500
H  21.79100 51.47100 24.54700
H  23.52500 50.66800 30.20700
H  23.47600 53.29000 33.74800
H  23.91300 54.35100 32.45600
H  25.11400 53.20500 33.27300
Mg 17.01900 51.07100 26.90000
C  19.24200 49.93500 29.26900
C  15.00100 52.14600 29.35000
C  15.14100 52.09500 24.43900
C  19.45300 49.85500 24.45700
N  17.05300 50.98700 29.04800
C  18.16300 50.54000 29.84100
C  17.88900 50.76900 31.34200
C  16.33900 51.15700 31.28000
C  16.12000 51.50800 29.80900
C  15.40600 50.05700 31.84300
C  18.77400 51.94000 31.92500
C  18.92900 51.89300 33.53600
H  17.84300 51.20500 34.30800
N  15.30000 51.95000 26.88000
C  14.61100 52.34600 27.96000
C  13.40100 53.04100 27.53600
C  13.41300 53.05500 26.05500
C  14.67100 52.30700 25.70800
C  12.30000 53.49600 28.54700
C  12.41000 53.50600 24.96500
O  12.52400 53.45100 23.76600
C  11.17700 54.16400 25.47800
N  17.32300 50.97600 24.73900
C  16.33100 51.50600 24.00600
C  16.78800 51.54300 22.56000
C  18.23200 51.00300 22.53300
C  18.35900 50.57600 23.96700
C  15.87200 50.92600 21.56100
C  19.26400 52.10900 22.10300
C  20.22700 51.64300 20.99200
N  18.84500 49.87900 26.86500
C  19.75000 49.56100 25.85000
C  20.85700 48.76300 26.34200
C  20.72900 48.96200 27.72100
C  19.51700 49.62000 27.95600
C  22.01000 48.23300 25.58100
C  21.44200 48.77700 28.94600
O  22.46900 48.27100 29.27400
C  20.42100 49.43600 29.98700
C  19.97800 48.38500 30.97200
O  19.14800 47.54100 30.68600
O  20.69700 48.43600 32.17600
C  20.07600 47.59400 33.22300
H  14.33100 52.57200 30.09900
H  14.49300 52.46300 23.64000
H  20.22400 49.61900 23.72200
H  18.20500 49.86200 31.85900
H  16.17200 52.10200 31.79600
H  14.54300 49.96900 31.18200
H  15.03700 50.26600 32.84700
H  15.84400 49.05900 31.81800
H  18.35900 52.92500 31.71100
H  19.73800 51.93400 31.41700
H  19.06800 52.89400 33.94300
H  19.89000 51.38200 33.59600
H  11.32500 53.03100 28.40200
H  12.14100 54.55900 28.36600
H  12.42500 53.36100 29.62200
H  10.76300 53.47900 26.21700
H  10.46800 54.41000 24.68800
H  11.57400 55.12300 25.81200
H  16.69600 52.60100 22.31400
H  18.32300 50.16500 21.84200
H  15.67900 49.93000 21.95800
H  16.41900 50.80700 20.62500
H  14.99400 51.56800 21.49000
H  19.91900 52.32500 22.94800
H  18.78500 53.03800 21.79700
H  19.69200 51.76400 20.05000
H  20.50000 50.60300 21.17200
H  21.12600 52.25900 20.98500
H  22.88200 48.39400 26.21400
H  22.20500 48.65400 24.59500
H  21.83900 47.17800 25.36600
H  21.06500 50.21600 30.39300
H  19.02100 47.34000 33.12200
H  20.27500 47.90000 34.25000
H  20.45800 46.61100 32.94500

