158

Mg 30.92400 58.72400 40.73900
C  28.32400 56.62900 39.78000
C  33.14700 56.35700 39.46400
C  33.41400 61.07000 40.93300
C  28.57400 61.16800 41.69000
N  30.70700 56.77400 39.75500
C  29.55600 56.17500 39.35500
C  29.73100 54.88200 38.58700
C  31.29400 54.72500 38.76600
C  31.74700 56.00800 39.38300
C  31.69700 53.41900 39.52200
C  29.27200 54.95900 37.09900
C  28.23300 53.98800 36.54100
H  27.14300 54.52000 35.55200
N  32.92000 58.72100 40.25100
C  33.69300 57.63600 39.82700
C  35.07800 57.97000 39.76300
C  35.16100 59.30000 40.12000
C  33.80300 59.76500 40.41100
C  36.19500 56.96800 39.40200
C  36.51900 60.00900 40.29500
O  37.53300 59.37700 40.18900
C  36.62500 61.46100 40.61000
N  30.93600 60.92100 41.03600
C  32.16200 61.55500 41.24800
C  31.90600 62.93900 41.81200
C  30.37600 63.02600 42.05300
C  29.88600 61.63700 41.56600
C  32.81000 63.38200 43.10100
C  29.65400 64.15800 41.33800
C  28.31200 64.64700 41.90200
N  28.92400 58.83900 40.81300
C  28.06100 59.94300 41.16100
C  26.74000 59.61800 40.80700
C  26.74400 58.29900 40.30900
C  28.06700 57.87300 40.42600
C  25.52300 60.54200 41.05400
C  25.98800 57.21500 39.80900
O  24.81100 57.11400 39.57800
C  26.92800 56.08700 39.38200
C  26.59100 54.91100 40.17600
O  26.96200 54.60700 41.29900
O  25.69900 54.16000 39.42800
C  25.24900 52.85800 40.05500
H  33.78600 55.59300 39.01500
H  34.19100 61.81800 41.10400
H  27.88400 61.91900 42.08000
H  29.12100 54.19400 39.17400
H  31.79300 54.78500 37.79900
H  32.01200 53.72800 40.51900
H  32.57700 52.97300 39.05900
H  30.95500 52.62200 39.55500
H  30.14200 54.76600 36.47100
H  28.95900 55.98900 36.93200
H  27.66900 53.63300 37.40300
H  28.71300 53.11200 36.10400
H  35.79100 56.23500 38.70400
H  36.64000 56.62000 40.33400
H  36.98900 57.46800 38.84700
H  36.00700 62.15000 40.03400
H  37.67000 61.76500 40.54200
H  36.27100 61.70600 41.61100
H  32.18400 63.57100 40.96900
H  30.12400 62.90600 43.10700
H  32.20800 63.37800 44.00900
H  33.33800 64.33400 43.04600
H  33.58100 62.63600 43.29500
H  29.62600 63.69700 40.35100
H  30.27700 65.05100 41.31300
H  28.15600 64.27200 42.91300
H  27.54600 64.29100 41.21200
H  28.30800 65.73700 41.90700
H  24.99700 60.18200 41.93900
H  24.82800 60.50300 40.21600
H  25.83200 61.57100 41.23800
H  26.84200 55.95900 38.30300
H  24.38100 52.96700 40.70600
H  26.04400 52.46200 40.68700
H  24.94100 52.13900 39.29500
Mg 27.01000 50.69700 26.62500
C  24.85000 51.58800 29.24100
C  29.39500 49.80200 29.00800
C  29.02300 49.91900 24.17600
C  24.66200 51.90400 24.34000
N  27.07900 50.80900 28.82000
C  26.00700 50.93400 29.70000
C  26.40400 50.63900 31.18600
C  27.95900 50.40700 31.04700
C  28.14200 50.26200 29.49900
C  28.87500 51.39000 31.76500
C  25.58400 49.42100 31.85100
C  24.57400 49.76100 33.01800
H  24.63100 48.99700 34.32400
N  28.91600 49.95700 26.63700
C  29.77400 49.67700 27.67000
C  31.01100 49.27700 27.20700
C  30.95600 49.29700 25.77300
C  29.55400 49.76600 25.47000
C  32.15200 48.88400 28.07500
C  32.04900 49.07900 24.70500
O  31.89800 49.18500 23.44700
C  33.48300 48.82400 25.11900
N  26.84500 50.90300 24.55700
C  27.80900 50.44700 23.72200
C  27.34400 50.35300 22.25700
C  25.96900 51.02200 22.39100
C  25.81600 51.26200 23.86200
C  28.29800 50.96100 21.23000
C  24.77400 50.18900 21.83300
C  25.00300 49.53700 20.36600
N  25.15100 51.66500 26.70600
C  24.35700 52.07100 25.68000
C  23.19300 52.71200 26.26200
C  23.38100 52.54800 27.66600
C  24.58400 51.95000 27.84600
C  22.04000 53.32500 25.58400
C  22.74200 52.76300 28.97200
O  21.73100 53.39300 29.30900
C  23.61600 52.07600 30.02100
C  23.93000 53.14200 30.88600
O  24.60400 54.16700 30.60000
O  23.59400 52.77700 32.16000
C  24.31200 53.65700 33.11500
H  30.11500 49.51500 29.77700
H  29.71800 49.73600 23.35300
H  23.80100 52.06200 23.68700
H  26.20000 51.48200 31.84700
H  28.17000 49.39800 31.40100
H  28.29000 52.26800 32.04100
H  29.69700 51.73700 31.14000
H  29.28100 50.97700 32.68900
H  26.23600 48.61000 32.17700
H  24.94500 49.03600 31.05600
H  23.63100 49.66100 32.48100
H  24.55200 50.82400 33.25800
H  32.12300 49.09600 29.14400
H  32.92900 49.59300 27.79100
H  32.60100 47.92300 27.82300
H  34.09800 48.48300 24.28600
H  33.47700 47.95300 25.77400
H  33.82300 49.68300 25.69800
H  27.14400 49.32300 21.95800
H  25.97700 51.98000 21.87200
H  28.88100 50.20400 20.70600
H  29.06200 51.65800 21.57500
H  27.78900 51.54300 20.46200
H  23.83300 50.73800 21.81700
H  24.60900 49.37800 22.54200
H  25.01900 48.45400 20.49200
H  25.95400 49.80900 19.90800
H  24.21300 49.76500 19.65100
H  22.06000 54.40400 25.43100
H  21.14100 53.03500 26.12800
H  21.91600 52.91700 24.58100
H  23.03100 51.27900 30.48100
H  25.19500 53.06700 33.36200
H  23.68200 53.67200 34.00400
H  24.56900 54.68300 32.85000

