158

Mg 47.88200 34.78700 26.63900
C  45.70600 33.25000 29.04000
C  48.19300 37.59800 28.75000
C  49.71100 36.30600 24.32500
C  47.21300 32.19300 24.51400
N  46.93500 35.28800 28.63800
C  46.26200 34.46600 29.47400
C  46.42200 34.99400 30.95000
C  46.86400 36.55400 30.64500
C  47.40500 36.53900 29.22800
C  45.62700 37.53100 30.89700
C  47.52400 34.32100 31.84700
C  47.30000 34.45900 33.43000
H  46.11500 35.26900 33.92400
N  48.79900 36.70200 26.56500
C  48.77900 37.69800 27.46700
C  49.40000 38.89100 26.97300
C  49.80700 38.52600 25.65200
C  49.43600 37.12000 25.45000
C  49.40700 40.22200 27.79100
C  50.42500 39.43900 24.58200
O  50.65800 39.14100 23.43200
C  50.86500 40.78000 25.03700
N  48.21800 34.42700 24.61300
C  49.14200 35.10400 23.95200
C  49.63200 34.32600 22.72400
C  48.80200 33.04400 22.65900
C  48.03800 33.19800 24.02800
C  49.56900 35.09300 21.42900
C  49.66500 31.67100 22.57800
C  49.64300 31.03100 21.16900
N  46.65300 33.14300 26.66400
C  46.57300 32.11500 25.75000
C  45.64600 31.06800 26.24900
C  45.27800 31.49200 27.46400
C  45.93100 32.74000 27.73200
C  45.18100 29.94700 25.46200
C  44.45400 31.18300 28.63100
O  43.77300 30.19800 28.81400
C  44.71400 32.22300 29.70000
C  45.09700 31.66100 30.95300
O  46.08900 31.04100 31.13600
O  44.13400 31.90800 31.92000
C  44.40000 31.32400 33.25800
H  48.14800 38.40900 29.48000
H  50.43100 36.65700 23.58200
H  46.99500 31.37400 23.82500
H  45.52700 34.94100 31.56900
H  47.68200 36.79000 31.32600
H  44.73100 36.97000 31.16200
H  45.45300 38.09100 29.97800
H  45.87700 38.13500 31.76900
H  48.52600 34.57400 31.50000
H  47.45100 33.24700 31.67500
H  48.20300 34.91700 33.83500
H  47.32300 33.41800 33.75100
H  48.91200 40.96500 27.16600
H  50.44600 40.51500 27.94200
H  48.75900 40.15200 28.66400
H  50.00800 41.43600 25.18400
H  51.64500 41.10100 24.34700
H  51.36100 40.73500 26.00700
H  50.68800 34.13700 22.91900
H  48.00400 33.10700 21.91900
H  49.01300 34.57800 20.64500
H  50.54300 35.38400 21.03600
H  49.06000 36.02900 21.65700
H  49.07200 31.03500 23.23500
H  50.69700 31.65000 22.92900
H  49.26300 31.68300 20.38300
H  49.06200 30.10900 21.19400
H  50.65500 30.88600 20.79000
H  45.90000 29.12700 25.48600
H  44.99200 30.33000 24.45900
H  44.20800 29.62000 25.83000
H  43.67400 32.54500 29.65700
H  43.64500 30.56600 33.46800
H  44.15600 32.00200 34.07500
H  45.45900 31.13700 33.43300
Mg 41.03700 40.70400 26.64800
C  40.77000 43.13100 29.18700
C  42.59200 38.67200 28.82700
C  41.32400 38.62200 24.07700
C  40.32500 43.31300 24.32900
N  41.55500 40.80600 28.80400
C  41.17000 41.81600 29.68600
C  41.33200 41.48300 31.09700
C  41.97700 40.04700 30.96700
C  42.02100 39.76500 29.43400
C  43.16100 39.85300 31.90300
C  39.97300 41.53900 31.82300
C  39.86100 42.49100 32.98400
H  39.23300 41.96700 34.23600
N  42.02400 38.95800 26.44400
C  42.59000 38.23400 27.45100
C  42.90400 36.91800 26.99400
C  42.45100 36.86100 25.59800
C  41.94400 38.19200 25.28300
C  43.42100 35.89200 27.98600
C  42.53900 35.64200 24.54700
O  42.33400 35.77300 23.31300
C  42.91500 34.28000 25.06400
N  40.74400 40.98700 24.54200
C  40.88100 39.87900 23.68500
C  40.56600 40.19800 22.27900
C  40.64500 41.79700 22.33300
C  40.55300 42.07100 23.79800
C  41.38500 39.56600 21.16500
C  39.51600 42.58000 21.60700
C  39.84900 43.72100 20.64000
N  40.47900 42.75400 26.68700
C  40.25100 43.70700 25.65600
C  40.07300 45.02600 26.16800
C  40.18200 44.79000 27.62400
C  40.58400 43.42700 27.81000
C  39.70600 46.27200 25.47400
C  39.92000 45.40500 28.88900
O  39.61000 46.57300 29.12300
C  40.36000 44.38400 29.94400
C  41.36800 44.90900 30.78000
O  42.50400 45.05300 30.34200
O  40.87500 45.33700 31.99100
C  41.76300 46.01800 32.95300
H  42.95100 37.93000 29.54300
H  41.27100 37.88700 23.27100
H  40.22700 44.11500 23.59500
H  42.07300 42.12400 31.57300
H  41.30500 39.23700 31.25100
H  44.14000 39.87300 31.42400
H  42.95100 38.89500 32.38000
H  43.17200 40.48300 32.79200
H  39.76900 40.56200 32.26300
H  39.17800 41.89600 31.16900
H  39.22200 43.34400 32.75200
H  40.89200 42.77100 33.19800
H  44.31500 36.40500 28.33900
H  43.86800 35.05300 27.45200
H  42.78500 35.70200 28.85100
H  42.55100 33.41100 24.51500
H  42.37400 34.15400 26.00200
H  43.98800 34.17200 25.21900
H  39.53800 39.87700 22.10800
H  41.64700 42.12600 22.05900
H  42.13700 38.92100 21.62100
H  42.02100 40.28500 20.64800
H  40.81800 39.07200 20.37700
H  38.70900 42.83100 22.29500
H  39.03600 41.83700 20.97000
H  39.36000 43.57600 19.67700
H  40.88600 43.65100 20.31200
H  39.40400 44.59700 21.11100
H  40.51600 46.77800 24.94800
H  39.30300 46.95100 26.22400
H  38.91000 46.02600 24.77200
H  39.44100 44.26100 30.51700
H  41.35200 47.01500 33.11500
H  42.77300 45.98500 32.54300
H  41.81600 45.58300 33.95100

