158

Mg 17.68800 -2.35000 28.90500
C  16.05500 -0.64000 31.44000
C  19.64100 -3.84500 31.21600
C  19.37700 -3.61600 26.21100
C  16.04000 -0.12700 26.49800
N  17.75400 -2.32000 31.09100
C  16.98600 -1.54100 31.98600
C  17.34200 -1.85700 33.44000
C  18.50900 -2.86400 33.38300
C  18.75400 -2.98400 31.80200
C  19.72900 -2.46900 34.16200
C  16.04100 -2.36600 34.21500
C  15.68200 -1.52900 35.44900
H  16.82500 -0.77800 36.23900
N  19.02100 -3.75300 28.71200
C  19.78400 -4.24200 29.80500
C  20.71400 -5.23500 29.23900
C  20.54600 -5.22500 27.84100
C  19.63500 -4.10200 27.58400
C  21.77000 -5.88100 30.11000
C  21.17200 -6.20200 26.84300
O  20.91800 -6.10200 25.65500
C  22.00300 -7.38500 27.33400
N  17.81500 -1.90400 26.66600
C  18.57800 -2.62600 25.83300
C  18.30000 -2.19200 24.43200
C  17.14300 -1.11300 24.50700
C  16.97600 -1.03300 26.01700
C  19.54300 -1.84900 23.67600
C  15.83600 -1.33100 23.69800
C  15.47800 -0.10300 22.74500
N  16.34200 -0.72500 28.94600
C  15.74500 0.04800 27.89600
C  14.85700 0.93600 28.48500
C  14.91100 0.72600 29.91900
C  15.87200 -0.28600 30.09400
C  13.97700 1.83000 27.73400
C  14.42700 1.24700 31.14900
O  13.63900 2.13700 31.39500
C  15.30500 0.43800 32.19500
C  16.21300 1.41300 32.81100
O  17.20100 1.80600 32.27300
O  15.68100 1.86400 34.03400
C  16.27300 3.01100 34.70200
H  20.31900 -4.33000 31.92100
H  19.86100 -4.02800 25.32300
H  15.41500 0.48200 25.84200
H  17.63200 -0.86500 33.78600
H  18.22600 -3.84600 33.76200
H  19.42200 -1.63100 34.78800
H  20.67900 -2.34900 33.64200
H  19.97600 -3.26800 34.86200
H  16.25900 -3.35800 34.61000
H  15.14200 -2.35100 33.59900
H  15.36900 -2.27200 36.18300
H  14.84100 -0.89000 35.18100
H  22.36100 -5.18300 30.70300
H  22.62400 -6.31600 29.59000
H  21.36900 -6.68000 30.73400
H  21.33400 -7.77900 28.09900
H  22.99700 -7.11700 27.69100
H  22.12700 -8.08300 26.50600
H  17.90300 -3.09200 23.96200
H  17.53500 -0.10900 24.33900
H  19.41300 -0.94700 23.07800
H  19.84000 -2.61500 22.95900
H  20.46000 -1.66100 24.23500
H  15.04600 -1.45300 24.44000
H  15.94100 -2.20400 23.05500
H  16.25100 0.64800 22.58400
H  14.58200 0.36300 23.15300
H  15.36200 -0.46100 21.72100
H  13.07800 2.04300 28.31200
H  13.60600 1.32400 26.84300
H  14.32200 2.83800 27.50100
H  14.63700 -0.03000 32.91800
H  15.45900 3.71400 34.52300
H  17.16900 3.34700 34.17900
H  16.46000 2.95700 35.77500
Mg 25.48100 0.60100 28.97000
C  27.29000 0.29600 32.08300
C  22.65800 0.67000 30.79400
C  23.94700 0.70000 26.04600
C  28.62600 -0.18600 27.40400
N  25.04300 0.34800 31.19200
C  25.93200 0.39200 32.24500
C  25.14700 0.43700 33.55400
C  23.66600 0.50200 33.04600
C  23.76300 0.43400 31.55200
C  22.66500 -0.55600 33.63700
C  25.53900 1.60800 34.50700
C  25.41300 1.29900 36.02300
H  26.48000 2.02400 36.92700
N  23.61000 0.79200 28.49100
C  22.56800 0.75900 29.38400
C  21.34000 0.86900 28.59300
C  21.67800 1.06200 27.23600
C  23.13100 0.88500 27.19700
C  20.00900 0.79600 29.19400
C  20.74800 1.35100 26.03600
O  21.13200 1.23700 24.84900
C  19.38700 1.94300 26.30500
N  26.19900 0.28000 27.01900
C  25.34200 0.39700 25.95200
C  26.13400 0.39700 24.61300
C  27.61800 0.16000 25.07100
C  27.48200 -0.02800 26.61300
C  25.53100 -0.45400 23.50500
C  28.70600 1.17700 24.55100
C  28.80100 2.39900 25.44900
N  27.58800 0.15300 29.56400
C  28.70200 -0.17400 28.81300
C  29.79100 -0.35300 29.65000
C  29.30600 -0.10100 30.89800
C  27.92000 0.11800 30.81400
C  31.23200 -0.67400 29.17700
C  29.71300 0.01200 32.26200
O  30.83700 -0.06300 32.81200
C  28.42800 0.25800 33.06000
C  28.26300 -0.88000 33.98800
O  27.83000 -1.97700 33.74100
O  28.80800 -0.51300 35.22100
C  28.59800 -1.28500 36.41100
H  21.69500 0.82500 31.28500
H  23.45600 0.94200 25.10200
H  29.58100 -0.19500 26.87400
H  25.40700 -0.47200 34.09700
H  23.28500 1.47100 33.36700
H  23.01100 -0.73900 34.65500
H  22.58500 -1.48900 33.08000
H  21.70000 -0.07900 33.80400
H  24.81000 2.41100 34.39800
H  26.48500 2.03500 34.17500
H  25.57200 0.22400 36.11700
H  24.40800 1.54300 36.36800
H  19.74300 1.80600 29.50700
H  20.06100 0.11000 30.03900
H  19.30800 0.39100 28.46400
H  18.69500 1.13900 26.55400
H  18.95100 2.38800 25.41000
H  19.40000 2.81900 26.95300
H  25.99900 1.43900 24.32400
H  27.92500 -0.84800 24.79000
H  24.45400 -0.59100 23.60300
H  26.05800 -1.39900 23.37700
H  25.65500 0.05500 22.55000
H  28.33700 1.66700 23.65000
H  29.71900 0.81400 24.38100
H  28.07500 2.37200 26.26100
H  28.62100 3.29100 24.84900
H  29.74900 2.58000 25.95600
H  31.31000 -0.59000 28.09300
H  31.48200 -1.68700 29.49500
H  31.91400 0.07900 29.57000
H  28.46800 1.20000 33.60800
H  29.58500 -1.53000 36.80200
H  28.22000 -2.28200 36.18800
H  27.98800 -0.82200 37.18700

