158

Mg 17.50700 -2.20800 27.67800
C  16.29700 -0.15700 30.28300
C  19.25800 -4.05200 30.00800
C  18.76100 -4.06900 25.14900
C  15.86700 -0.11700 25.39700
N  17.79300 -2.01900 29.88900
C  17.13500 -1.17600 30.74100
C  17.73200 -1.36400 32.13000
C  18.58500 -2.63500 32.02900
C  18.55400 -2.97100 30.56600
C  19.99300 -2.35900 32.57400
C  16.53300 -1.47600 33.24200
C  16.62700 -0.41400 34.35800
H  17.99800 0.21200 34.71800
N  18.77800 -3.84900 27.59100
C  19.35500 -4.51600 28.67000
C  20.06500 -5.61600 28.15700
C  20.07900 -5.61400 26.77200
C  19.14900 -4.50800 26.45800
C  20.84200 -6.53300 28.99900
C  20.85900 -6.47200 25.82800
O  20.77700 -6.32100 24.59900
C  21.93200 -7.40500 26.20300
N  17.26900 -2.18300 25.56700
C  17.92900 -2.98800 24.71200
C  17.83600 -2.53600 23.28300
C  16.79400 -1.37800 23.31400
C  16.65000 -1.18400 24.84200
C  19.20400 -2.04700 22.67200
C  15.42800 -1.65300 22.53600
C  15.11200 -0.52700 21.46900
N  16.31200 -0.41400 27.71000
C  15.68400 0.28600 26.72600
C  14.91000 1.38400 27.24900
C  15.08500 1.30300 28.68500
C  15.96000 0.17300 28.86300
C  13.95400 2.28400 26.42300
C  14.73300 1.81700 29.99400
O  13.98600 2.77400 30.31700
C  15.56100 0.97800 31.01800
C  16.57300 1.91500 31.62100
O  17.70500 1.97200 31.22600
O  16.03600 2.78900 32.46400
C  16.87100 3.96300 32.87000
H  19.80000 -4.56900 30.80300
H  19.10000 -4.60700 24.26100
H  15.25900 0.45000 24.68900
H  18.31000 -0.44600 32.24500
H  18.19200 -3.45300 32.63300
H  20.81100 -2.83600 32.03400
H  20.05200 -2.84300 33.54900
H  20.18500 -1.28600 32.59700
H  16.40100 -2.49600 33.60200
H  15.61400 -1.32400 32.67700
H  16.26700 -0.89000 35.27000
H  15.90500 0.30700 33.97400
H  20.73100 -6.34900 30.06800
H  21.88300 -6.23100 28.89100
H  20.62500 -7.58000 28.78700
H  22.08400 -8.14200 25.41400
H  21.65300 -8.06000 27.02800
H  22.83000 -6.86300 26.49700
H  17.48600 -3.36500 22.66800
H  17.32400 -0.52700 22.88700
H  19.71300 -2.82100 22.09700
H  19.83000 -1.90300 23.55200
H  19.05000 -1.18500 22.02200
H  14.67100 -1.40500 23.28000
H  15.35100 -2.61600 22.03200
H  14.47000 0.28000 21.82000
H  14.81400 -1.15900 20.63200
H  16.06800 -0.08600 21.18700
H  14.03800 2.12400 25.34800
H  14.11100 3.31000 26.75400
H  12.97400 1.94800 26.76200
H  14.86000 0.58600 31.75400
H  17.15800 4.58400 32.02200
H  17.72000 3.59600 33.44600
H  16.15500 4.61000 33.37700
Mg -9.99200 39.72500 41.59100
C  -9.20100 36.52000 40.39400
C  -7.00300 40.77200 39.92300
C  -10.93400 42.81700 42.09700
C  -13.39000 38.57000 42.15500
N  -8.35500 38.73400 40.26300
C  -8.22300 37.38600 39.98300
C  -6.94200 37.02900 39.13900
C  -6.20200 38.44700 39.10000
C  -7.24300 39.41200 39.77400
C  -4.67900 38.49000 39.61600
C  -7.33300 36.47500 37.70400
C  -6.65500 35.15500 37.31700
H  -5.79800 35.11500 36.01700
N  -9.02700 41.44500 41.27600
C  -7.82000 41.71800 40.51600
C  -7.59600 43.08000 40.52000
C  -8.65700 43.73400 41.24300
C  -9.58800 42.65400 41.62800
C  -6.25800 43.72500 39.96700
C  -8.66100 45.22800 41.56500
O  -7.72200 45.93400 41.21700
C  -9.76300 45.80700 42.46700
N  -11.94900 40.49900 42.02300
C  -12.02500 41.90600 42.26900
C  -13.42400 42.38600 42.72400
C  -14.20600 40.99700 42.71100
C  -13.12700 39.94100 42.30800
C  -13.43300 43.10700 44.11600
C  -15.55200 40.88400 41.81500
C  -16.73100 40.22700 42.59400
N  -11.06300 37.90000 41.55000
C  -12.38200 37.60200 41.75700
C  -12.49600 36.15200 41.75400
C  -11.30500 35.67300 41.19700
C  -10.46300 36.80700 40.98800
C  -13.63300 35.29900 42.21500
C  -10.50400 34.49900 40.82300
O  -10.81400 33.32600 40.85100
C  -9.14000 34.97100 40.29000
C  -8.12100 34.41900 41.25000
O  -7.89400 34.84500 42.39200
O  -7.67800 33.20000 40.81200
C  -6.67100 32.68600 41.67300
H  -6.05900 40.94600 39.40400
H  -11.16200 43.84300 42.39500
H  -14.39800 38.17200 42.29100
H  -6.39300 36.24700 39.66400
H  -6.22700 38.98800 38.15400
H  -4.55100 38.94300 40.60000
H  -4.13400 39.09300 38.89000
H  -4.23900 37.51500 39.40900
H  -7.10800 37.23400 36.95500
H  -8.42000 36.47600 37.62200
H  -7.39200 34.37600 37.12100
H  -5.99200 34.78200 38.09800
H  -6.48300 44.49400 39.22800
H  -5.64600 43.06600 39.35200
H  -5.71100 44.14900 40.80900
H  -9.67900 45.31800 43.43700
H  -10.77300 45.64200 42.09000
H  -9.72500 46.89400 42.54100
H  -13.80800 43.16200 42.06200
H  -14.52400 40.83900 43.74100
H  -12.46000 43.44600 44.47200
H  -13.97800 42.48800 44.82900
H  -14.00300 44.00500 43.88000
H  -15.22300 40.13000 41.10000
H  -15.91000 41.79000 41.32700
H  -16.49800 39.19000 42.83600
H  -17.71600 40.38300 42.15400
H  -16.68100 40.74400 43.55200
H  -14.03400 34.68700 41.40700
H  -14.30000 36.04700 42.64300
H  -13.26000 34.59000 42.95400
H  -9.10000 34.52500 39.29700
H  -6.07700 31.95000 41.13300
H  -7.08100 32.24500 42.58100
H  -5.89700 33.38200 41.99500

