158

Mg 36.05800 49.41300 24.61200
C  36.47100 47.14500 27.37000
C  34.79500 51.66100 26.64800
C  35.27600 51.02800 21.84100
C  36.83600 46.44700 22.45100
N  35.65100 49.36400 26.70400
C  36.03200 48.43000 27.69300
C  35.75600 48.90100 29.11900
C  35.00000 50.24500 28.85000
C  35.08000 50.43600 27.32200
C  33.47300 50.37800 29.42100
C  37.05800 49.04900 29.94000
C  37.01900 48.33100 31.32600
H  35.65900 48.56100 32.14800
N  35.27000 51.10400 24.29500
C  34.87400 51.97400 25.29100
C  34.60100 53.19400 24.63100
C  34.77900 53.11200 23.23000
C  35.13000 51.68100 23.06200
C  34.10000 54.37900 25.42600
C  34.68700 54.18000 22.10800
O  34.85700 53.82600 20.96900
C  34.44300 55.56200 22.43200
N  36.22200 48.81900 22.40800
C  35.72300 49.72500 21.54400
C  35.79400 49.16400 20.10500
C  36.72100 47.90000 20.28600
C  36.49600 47.65700 21.78000
C  34.41700 48.85700 19.53400
C  38.19200 48.12100 19.92400
C  38.92100 47.07900 19.16200
N  36.56500 47.25400 24.83200
C  36.79400 46.22400 23.82400
C  37.20200 45.03500 24.56300
C  37.00800 45.31200 25.90900
C  36.68000 46.69100 26.04300
C  37.70700 43.80600 23.91500
C  37.20700 44.80300 27.30700
O  37.58200 43.72100 27.67600
C  36.83600 45.99000 28.33100
C  35.66500 45.48600 29.18800
O  34.48100 45.55500 28.87500
O  36.17600 45.08800 30.34600
C  35.18000 44.69300 31.32400
H  34.45300 52.48600 27.27600
H  34.89000 51.53000 20.95100
H  37.01500 45.58000 21.81200
H  35.00900 48.27200 29.60500
H  35.31100 51.14800 29.37500
H  33.03400 49.46900 29.83300
H  32.81200 50.72700 28.62700
H  33.44500 51.18500 30.15300
H  37.21800 50.09800 30.18700
H  37.86900 48.71600 29.29200
H  37.84300 48.77400 31.88400
H  37.19400 47.29400 31.04000
H  33.66700 55.17500 24.82000
H  34.95500 54.75500 25.98800
H  33.41100 54.00700 26.18400
H  33.41000 55.60100 22.77800
H  34.54300 56.21500 21.56500
H  35.11300 55.98700 23.18000
H  36.22700 49.96200 19.50200
H  36.38500 46.96900 19.82800
H  34.02200 49.82600 19.23100
H  33.70400 48.39700 20.21800
H  34.57900 48.36600 18.57500
H  38.70900 48.37500 20.85000
H  38.26300 49.07700 19.40600
H  38.21500 46.54200 18.52900
H  39.33500 46.39700 19.90400
H  39.72000 47.52500 18.57000
H  36.87200 43.17200 23.61800
H  38.37400 43.25900 24.58200
H  38.17200 44.11600 22.97900
H  37.68800 46.09900 29.00200
H  35.53300 44.85500 32.34300
H  34.87800 43.66500 31.12600
H  34.28800 45.30300 31.18400
Mg 0.76200 42.52600 25.90700
C  2.49300 42.29800 28.97800
C  -2.13000 41.43100 27.57400
C  -0.84500 42.31500 22.96800
C  3.66400 43.41800 24.31800
N  0.27800 42.00300 28.02800
C  1.11600 42.10900 29.17800
C  0.26100 41.91900 30.45400
C  -1.14800 41.66300 29.91400
C  -1.02900 41.67300 28.37500
C  -1.85000 40.35600 30.48400
C  0.38300 43.22100 31.42000
C  0.44300 43.01000 32.96600
H  0.17800 41.68300 33.61200
N  -1.19500 41.85100 25.35000
C  -2.20300 41.46300 26.15800
C  -3.42600 41.26200 25.37600
C  -3.09000 41.59300 24.03200
C  -1.64600 41.91100 24.04700
C  -4.66400 40.66500 26.06200
C  -4.02600 41.65600 22.85100
O  -3.63300 41.85800 21.76900
C  -5.52200 41.51600 23.12400
N  1.46100 42.51100 23.86300
C  0.52300 42.60900 22.87400
C  1.27200 42.75300 21.50500
C  2.52000 43.54300 22.01000
C  2.61000 43.08900 23.48300
C  1.53800 41.39200 20.92200
C  2.53400 45.11000 21.79100
C  3.66600 45.71200 20.90400
N  2.70800 42.84500 26.50600
C  3.75800 43.19300 25.72900
C  4.88700 43.22100 26.53400
C  4.47600 43.00000 27.85500
C  3.15300 42.65200 27.76900
C  6.29100 43.52600 26.01500
C  4.89800 42.92100 29.24300
O  5.98300 42.99000 29.83200
C  3.57800 42.55100 30.03400
C  4.00700 41.35700 30.78200
O  4.21700 40.22700 30.37800
O  3.95400 41.65500 32.20100
C  4.10500 40.55600 33.07500
H  -3.06000 41.15800 28.07700
H  -1.32100 42.38800 21.98800
H  4.56100 43.77200 23.80600
H  0.57100 41.04100 31.02100
H  -1.83800 42.45300 30.21300
H  -1.52300 40.20600 31.51200
H  -1.66200 39.46400 29.88700
H  -2.92200 40.52400 30.38000
H  -0.42600 43.92000 31.20800
H  1.27200 43.77300 31.11500
H  -0.24000 43.72600 33.42300
H  1.35700 43.35100 33.45300
H  -4.55400 40.32900 27.09300
H  -5.02400 39.84200 25.44600
H  -5.38200 41.48100 25.98100
H  -5.85100 40.66500 23.72000
H  -6.06300 41.41400 22.18400
H  -5.73100 42.46900 23.61000
H  0.63900 43.33300 20.83400
H  3.42400 43.18100 21.52100
H  1.78200 40.64800 21.68100
H  2.46200 41.54600 20.36400
H  0.78700 40.92500 20.28400
H  2.72100 45.48300 22.79800
H  1.59700 45.38500 21.30600
H  4.22500 46.38700 21.55300
H  3.34300 46.42600 20.14700
H  4.35600 44.98200 20.48000
H  7.01400 43.07600 26.69600
H  6.47700 44.56200 25.73200
H  6.51800 42.95300 25.11600
H  3.37500 43.37600 30.71700
H  4.94800 39.91100 32.82900
H  3.24500 39.89100 33.00300
H  4.25800 41.01000 34.05500

