158

Mg 0.92300 42.38000 24.38800
C  1.81600 42.44400 27.76900
C  -2.11500 40.91000 25.25800
C  0.25700 41.72900 21.11100
C  4.09800 43.37300 23.48400
N  -0.03000 41.74800 26.45200
C  0.49400 41.91900 27.66700
C  -0.44200 41.45200 28.79100
C  -1.56200 40.78800 27.92300
C  -1.24400 41.09700 26.45800
C  -1.89300 39.26200 28.10200
C  -0.78500 42.68900 29.73100
C  -1.07600 42.36900 31.24500
H  -1.86900 41.07300 31.59200
N  -0.85500 41.74500 23.36600
C  -1.98100 41.21100 23.86900
C  -2.92200 40.87500 22.85700
C  -2.24100 41.14800 21.59700
C  -0.85900 41.59800 21.95300
C  -4.28500 40.27900 23.12200
C  -2.78400 40.75900 20.17900
O  -2.10400 40.87800 19.18400
C  -4.23800 40.26800 19.94700
N  2.08000 42.32200 22.70500
C  1.56300 42.03100 21.46200
C  2.65600 42.13300 20.47100
C  3.70900 43.02100 21.05900
C  3.30100 42.90300 22.47100
C  3.16000 40.67300 20.17100
C  3.62200 44.54400 20.57100
C  2.42000 45.32800 20.98500
N  2.66800 42.90200 25.42900
C  3.91600 43.37000 24.89900
C  4.79700 43.63500 26.05800
C  4.02800 43.29300 27.17800
C  2.71700 42.87800 26.76200
C  6.14400 44.26900 26.01800
C  4.06800 43.10500 28.64800
O  4.90900 43.25100 29.52800
C  2.64400 42.60000 29.01400
C  2.74400 41.32800 29.76800
O  3.32200 40.27400 29.44500
O  2.03500 41.50500 30.89400
C  1.92000 40.30600 31.67000
H  -3.01000 40.34300 25.52400
H  0.06700 41.58100 20.04600
H  5.03100 43.82800 23.14600
H  -0.00400 40.70400 29.45200
H  -2.52400 41.20100 28.22800
H  -1.99200 38.83200 27.10500
H  -2.75700 39.04400 28.72900
H  -1.01300 38.73100 28.46400
H  -1.62000 43.15700 29.20900
H  0.06500 43.36500 29.64000
H  -1.80000 43.10500 31.59300
H  -0.21300 42.55800 31.88400
H  -4.48900 40.15500 24.18500
H  -4.36800 39.30800 22.63300
H  -5.08800 40.91900 22.75700
H  -4.97000 41.00600 20.27700
H  -4.43500 39.28900 20.38500
H  -4.24500 40.27300 18.85700
H  2.17500 42.58600 19.60500
H  4.71600 42.61500 20.96500
H  2.93300 40.08700 21.06100
H  4.23400 40.69800 19.98500
H  2.54400 40.30000 19.35200
H  3.71600 44.60100 19.48700
H  4.54900 44.89700 21.02400
H  1.57900 44.67400 21.21600
H  2.10900 45.82000 20.06300
H  2.52400 46.12100 21.72500
H  6.44000 43.98500 27.02700
H  6.21400 45.34800 25.87900
H  6.92300 43.87900 25.36300
H  2.19000 43.29600 29.71900
H  1.86200 39.32600 31.19700
H  1.11600 40.26000 32.40500
H  2.83600 40.31100 32.26000
Mg -1.41400 33.90700 26.38500
C  -3.32200 32.50100 28.94600
C  0.08600 35.96000 28.66000
C  0.25900 35.49500 23.74800
C  -2.86700 31.79200 24.15900
N  -1.73100 34.28300 28.59200
C  -2.46800 33.51100 29.47500
C  -2.34800 34.00500 30.88700
C  -1.24400 35.13600 30.75700
C  -0.86200 35.12900 29.25400
C  -1.66400 36.48800 31.38100
C  -1.91200 32.83400 31.85400
C  -1.19500 33.19700 33.09500
H  -1.66200 32.51000 34.39100
N  -0.12200 35.59300 26.22800
C  0.40100 36.24600 27.30800
C  1.24200 37.33000 26.77400
C  1.17200 37.26400 25.32700
C  0.36100 36.09300 25.01300
C  2.08600 38.25600 27.68700
C  1.79900 38.16500 24.32800
O  1.67800 38.08600 23.13100
C  2.53100 39.39900 24.82300
N  -1.16700 33.55400 24.27300
C  -0.44600 34.29100 23.38300
C  -0.71700 33.79000 21.91900
C  -1.55500 32.42100 22.20000
C  -1.82500 32.53700 23.65100
C  -1.46200 34.80000 20.97600
C  -0.76700 31.11300 21.77900
C  0.17800 30.40400 22.75500
N  -2.93100 32.59400 26.46500
C  -3.39200 31.75300 25.46100
C  -4.42300 30.91000 25.95200
C  -4.44000 31.12800 27.35300
C  -3.44500 32.10100 27.61300
C  -5.29300 30.01200 25.13300
C  -5.06100 30.84300 28.57000
O  -6.04100 30.10900 28.78000
C  -4.27200 31.64000 29.74900
C  -5.22600 32.44400 30.54600
O  -5.75800 33.53100 30.28900
O  -5.33600 31.70300 31.70200
C  -6.09000 32.39500 32.77100
H  0.52100 36.68200 29.35400
H  0.50500 36.10900 22.87900
H  -3.37200 31.23100 23.37000
H  -3.33500 34.40200 31.12500
H  -0.37600 34.79500 31.32200
H  -0.78900 36.95700 31.83200
H  -2.51900 36.20200 31.99400
H  -2.05700 37.08300 30.55700
H  -1.31100 32.10300 31.31300
H  -2.82200 32.34800 32.20400
H  -1.35100 34.25800 33.29300
H  -0.14200 32.93800 32.98500
H  3.10400 38.43600 27.34100
H  1.97800 37.81100 28.67600
H  1.62500 39.24200 27.74400
H  1.94000 39.85400 25.61800
H  2.73900 40.14800 24.05900
H  3.46600 39.01700 25.23100
H  0.25000 33.55800 21.47300
H  -2.52100 32.37600 21.69600
H  -1.67900 35.70300 21.54600
H  -2.43400 34.57200 20.53900
H  -0.84200 35.12000 20.13900
H  -0.15800 31.48700 20.95500
H  -1.58600 30.53500 21.35100
H  0.27300 30.84000 23.75000
H  1.20900 30.35200 22.40600
H  -0.11300 29.35600 22.83200
H  -5.32400 29.06700 25.67500
H  -4.82900 29.91600 24.15200
H  -6.32200 30.37200 25.16400
H  -3.69300 31.00000 30.41600
H  -6.76200 31.67500 33.23900
H  -6.62300 33.31500 32.53200
H  -5.35000 32.74600 33.49100

