158

Mg 35.40300 2.69400 30.09800
C  33.05600 3.71300 32.60100
C  37.74600 2.42300 32.52100
C  37.51200 2.47800 27.69200
C  32.78500 3.21000 27.73600
N  35.39500 3.16800 32.27800
C  34.38800 3.50600 33.09800
C  34.79800 3.38900 34.60100
C  36.28000 3.16500 34.53700
C  36.51300 2.88400 32.99100
C  37.01800 4.39300 35.19900
C  34.02900 2.22300 35.36300
C  33.96400 2.29400 36.86400
H  34.66800 3.41200 37.67500
N  37.31500 2.51300 30.12600
C  38.10900 2.29800 31.20500
C  39.51900 2.02600 30.78500
C  39.47200 1.96900 29.38700
C  38.06300 2.33900 29.05300
C  40.66300 1.65900 31.79200
C  40.57600 1.72200 28.35700
O  40.58800 1.73800 27.11900
C  42.01500 1.48800 28.96400
N  35.18800 3.09700 27.94000
C  36.19000 2.66100 27.20100
C  35.78100 2.56500 25.73500
C  34.25700 2.80800 25.79200
C  34.03500 3.05700 27.23500
C  36.59000 3.67400 24.94900
C  33.39700 1.68300 25.26800
C  33.43600 0.36500 26.03900
N  33.34100 3.34400 30.10500
C  32.47400 3.47900 29.07200
C  31.18600 4.04600 29.58300
C  31.43600 4.14300 31.01000
C  32.71200 3.63600 31.26500
C  29.96900 4.33900 28.70600
C  30.80400 4.48000 32.26300
O  29.68000 4.94700 32.38500
C  31.80800 4.15100 33.34300
C  32.01400 5.39700 34.09600
O  32.48000 6.44700 33.75600
O  31.33000 5.19300 35.26800
C  31.22100 6.45900 36.06100
H  38.40300 2.01500 33.29200
H  38.24400 2.21700 26.92500
H  31.92400 3.33000 27.07600
H  34.56700 4.35700 35.04600
H  36.45800 2.26800 35.12900
H  37.40400 5.03800 34.40900
H  37.82200 4.02000 35.83200
H  36.39300 5.09500 35.75100
H  34.44500 1.27500 35.02000
H  33.04000 2.16200 34.90900
H  34.41300 1.35100 37.17400
H  32.93300 2.19800 37.20400
H  41.01700 2.62300 32.15600
H  41.44400 1.05500 31.33000
H  40.30900 1.09100 32.65200
H  42.77100 1.71300 28.21100
H  42.14500 0.49700 29.39700
H  42.16200 2.22200 29.75800
H  35.87800 1.57100 25.29700
H  33.96500 3.65700 25.17400
H  37.06300 3.32200 24.03200
H  37.41600 4.08600 25.52800
H  35.96900 4.54300 24.73100
H  33.60800 1.38000 24.24200
H  32.38600 2.08900 25.24900
H  32.42200 -0.00600 26.18400
H  33.84400 0.63900 27.01200
H  34.11100 -0.34600 25.56200
H  30.27300 5.21500 28.13400
H  29.21200 4.63100 29.43400
H  29.65000 3.54700 28.02900
H  31.26900 3.38100 33.89500
H  32.12700 6.99700 36.34200
H  30.64100 6.27000 36.96400
H  30.62000 7.13100 35.44900
Mg 10.26400 47.23900 26.25100
C  8.22900 47.29000 29.14200
C  12.77800 48.54500 28.06200
C  12.16500 47.30000 23.41700
C  7.37300 46.82700 24.32100
N  10.50500 47.58500 28.40400
C  9.54700 47.60800 29.40000
C  10.10800 48.16000 30.77600
C  11.36600 48.91700 30.20600
C  11.62500 48.22900 28.85100
C  11.18100 50.51200 30.11700
C  10.45000 47.06000 31.81000
C  10.61200 47.41900 33.32900
H  10.41900 46.22400 34.31300
N  12.20400 47.70000 25.86500
C  13.11000 48.19100 26.74300
C  14.41400 48.30200 26.13600
C  14.28600 47.83000 24.77000
C  12.80100 47.61200 24.60100
C  15.67700 48.71800 26.82000
C  15.30500 47.69600 23.57500
O  15.05100 47.47300 22.37800
C  16.86200 47.88400 23.88100
N  9.86600 46.94400 24.12200
C  10.81400 47.08700 23.11400
C  10.13300 46.83700 21.74800
C  8.67500 46.46700 22.16400
C  8.64200 46.86500 23.62400
C  10.30100 47.97900 20.75200
C  8.10400 45.01500 21.82300
C  8.78800 43.84000 22.53000
N  8.27300 47.04500 26.66500
C  7.20200 46.79800 25.75200
C  6.01800 46.41800 26.48700
C  6.38400 46.71100 27.81500
C  7.72600 47.07400 27.84500
C  4.63300 45.99400 25.90600
C  5.89900 46.70600 29.22900
O  4.83300 46.48000 29.66800
C  7.11500 47.11000 30.10400
C  7.33700 45.91000 31.00300
O  7.81600 44.83000 30.71600
O  6.76300 46.16800 32.21700
C  6.87900 45.02000 33.18300
H  13.58100 49.04800 28.60400
H  12.81600 47.41200 22.54800
H  6.43400 46.84700 23.76400
H  9.42200 48.86500 31.24600
H  12.27300 48.77000 30.79100
H  11.46100 50.81200 29.10700
H  11.84100 50.94500 30.86900
H  10.21100 50.93100 30.38200
H  11.36000 46.67600 31.34900
H  9.76100 46.23800 31.61700
H  9.95300 48.21600 33.67300
H  11.62000 47.82300 33.41800
H  16.51800 48.03700 26.94300
H  15.43100 49.05300 27.82800
H  16.13100 49.63500 26.44400
H  17.03400 48.87700 24.29700
H  17.38300 47.65700 22.95100
H  17.26500 47.23200 24.65600
H  10.60600 45.99000 21.24900
H  7.93800 47.12000 21.69700
H  10.89600 48.71800 21.28800
H  9.33200 48.44000 20.56100
H  10.92100 47.75500 19.88400
H  8.22200 44.78100 20.76500
H  7.05300 44.99300 22.11100
H  9.39000 44.13700 23.38900
H  9.36000 43.16500 21.89400
H  8.01600 43.15100 22.87300
H  4.15300 46.85700 25.44400
H  3.93700 45.46800 26.55900
H  4.90800 45.24200 25.16600
H  6.86200 48.09200 30.50500
H  6.59300 45.11600 34.23100
H  7.95200 44.83200 33.18100
H  6.27700 44.14800 32.92600

