158

Mg 16.33300 -1.75500 28.65600
C  15.65400 0.15400 31.59000
C  18.58100 -3.53600 30.59400
C  17.46200 -3.43800 25.92600
C  14.57500 0.47300 26.81100
N  17.00700 -1.72400 30.87700
C  16.51000 -0.88400 31.89300
C  17.02300 -1.40200 33.23500
C  18.20000 -2.37700 32.82400
C  17.95600 -2.56000 31.32700
C  19.70500 -1.80700 33.04900
C  16.01400 -2.14100 34.17700
C  15.84100 -1.61200 35.60800
H  17.02800 -0.84200 36.24100
N  17.76700 -3.28300 28.30400
C  18.44500 -3.95900 29.28500
C  19.17100 -5.04300 28.67100
C  19.06600 -4.89000 27.28800
C  18.03500 -3.84500 27.10700
C  20.18000 -6.01900 29.40000
C  19.71000 -5.69300 26.09900
O  19.46500 -5.47600 24.92600
C  20.64400 -6.87300 26.42400
N  15.97300 -1.55800 26.62900
C  16.50800 -2.39700 25.70200
C  16.40100 -1.75600 24.33700
C  15.27000 -0.57000 24.52300
C  15.25300 -0.52700 26.08100
C  17.71500 -1.15100 23.93100
C  13.86500 -0.88800 23.82900
C  13.69700 -0.10900 22.51700
N  15.21700 -0.11200 29.05400
C  14.60500 0.72800 28.18500
C  13.81100 1.70500 28.89400
C  14.21500 1.56900 30.23500
C  15.05500 0.43000 30.29900
C  12.93400 2.79300 28.29700
C  14.04900 2.08200 31.59100
O  13.42600 3.07600 32.00100
C  14.96300 1.19100 32.56600
C  15.82400 2.19400 33.22800
O  16.62400 2.85100 32.57900
O  15.38000 2.43300 34.51700
C  15.86100 3.76800 35.04300
H  19.28700 -4.14700 31.16000
H  17.88800 -3.96100 25.06700
H  14.08100 1.19200 26.15300
H  17.43800 -0.55900 33.78800
H  18.04700 -3.34200 33.30800
H  20.35600 -2.05700 32.21100
H  20.16700 -2.25900 33.92700
H  19.66200 -0.74000 33.26300
H  16.37800 -3.15900 34.31800
H  15.04000 -2.14700 33.68900
H  15.70900 -2.45500 36.28700
H  15.04600 -0.86700 35.59000
H  20.13600 -7.08900 29.19800
H  20.16100 -5.78800 30.46500
H  21.20100 -5.74800 29.12800
H  21.55900 -6.62800 26.96200
H  20.91100 -7.30300 25.45900
H  20.00800 -7.50000 27.05000
H  16.06500 -2.51100 23.62500
H  15.74200 0.36800 24.22800
H  18.16800 -0.57200 24.73500
H  17.57700 -0.43600 23.12100
H  18.27000 -2.04500 23.64600
H  13.11900 -0.55800 24.55200
H  13.70500 -1.95800 23.69600
H  14.57600 0.34100 22.05600
H  13.13100 0.79000 22.75900
H  13.22400 -0.65600 21.70100
H  13.34400 3.11500 27.34000
H  12.83000 3.56900 29.05600
H  11.97300 2.33800 28.05500
H  14.40900 0.61800 33.31000
H  15.68500 3.71400 36.11700
H  15.38400 4.56400 34.47100
H  16.94900 3.81900 35.01900
Mg 6.00000 53.22400 41.27200
C  4.20800 50.24400 41.45900
C  8.54100 51.47400 39.76100
C  7.54800 56.21800 40.76000
C  3.27300 54.78500 42.47700
N  6.25800 51.10500 40.60100
C  5.41400 50.06400 40.76700
C  5.86800 48.90800 39.89500
C  7.35900 49.17700 39.70900
C  7.42200 50.68200 40.06200
C  8.27800 48.25100 40.51400
C  5.07000 48.99300 38.55300
C  4.88000 47.70500 37.75600
H  5.64300 47.52300 36.50600
N  7.73900 53.75700 40.43700
C  8.66900 52.89200 39.86000
C  9.78200 53.61500 39.32600
C  9.62600 54.94100 39.77200
C  8.28100 55.01100 40.38400
C  10.87600 52.95600 38.49100
C  10.55900 56.08600 39.51600
O  11.49300 56.06000 38.75300
C  10.44700 57.43400 40.20200
N  5.47100 55.22400 41.54800
C  6.24800 56.29000 41.32400
C  5.52500 57.60300 41.50200
C  4.23200 57.13600 42.12700
C  4.28000 55.61500 41.98000
C  6.27500 58.63000 42.31500
C  2.91600 57.80200 41.50600
C  1.92400 58.44800 42.47300
N  4.05400 52.67500 41.83900
C  3.13000 53.41000 42.45500
C  2.06700 52.56300 43.00500
C  2.40300 51.27400 42.66700
C  3.63500 51.47700 41.91700
C  0.92000 53.02400 43.86100
C  2.10100 49.84500 42.70100
O  1.11200 49.31200 43.12300
C  3.30600 49.09200 42.08800
C  2.93100 47.95500 41.19400
O  2.25900 48.08300 40.17000
O  3.54400 46.77600 41.61900
C  3.53300 45.62500 40.71200
H  9.43300 51.04500 39.29900
H  7.92700 57.22000 40.54700
H  2.45500 55.37000 42.90100
H  5.57700 47.99600 40.41600
H  7.69200 49.00700 38.68600
H  7.71300 47.48400 41.04500
H  9.01300 48.79100 41.11100
H  8.80600 47.64100 39.78100
H  5.53800 49.65300 37.82300
H  4.04700 49.36700 38.59500
H  3.81700 47.64800 37.52000
H  5.00500 46.78300 38.32400
H  11.05800 53.69500 37.71000
H  10.63900 52.02400 37.97900
H  11.82400 52.88700 39.02400
H  11.40400 57.94100 40.32700
H  10.02100 57.24300 41.18700
H  9.95500 58.21500 39.62400
H  5.39200 58.04800 40.51600
H  4.12400 57.32600 43.19500
H  6.62400 59.46800 41.71000
H  7.15800 58.17800 42.76600
H  5.65400 58.94700 43.15200
H  2.40400 56.98200 41.00400
H  3.08500 58.54200 40.72400
H  2.35100 58.61300 43.46300
H  1.05900 57.78700 42.51200
H  1.65800 59.37100 41.95700
H  1.11200 53.95500 44.39400
H  0.62800 52.22600 44.54400
H  0.05300 53.25300 43.24000
H  3.92700 48.58800 42.82900
H  4.55300 45.23900 40.71600
H  3.20700 45.79200 39.68500
H  2.83100 44.87100 41.06700

