158

Mg 17.53900 -0.99800 27.87100
C  16.50100 0.83600 30.65000
C  19.67800 -2.78000 29.91500
C  19.29600 -2.10600 25.14600
C  15.65900 1.18400 25.76600
N  17.99200 -0.91000 29.95700
C  17.45100 -0.09200 30.96000
C  17.92700 -0.48100 32.33800
C  19.17600 -1.45900 32.07000
C  18.91200 -1.77000 30.56400
C  20.61100 -0.89900 32.36300
C  16.85900 -1.04700 33.28900
C  16.82800 -0.42600 34.67900
H  18.17600 -0.17400 35.28900
N  19.16200 -2.40900 27.57700
C  19.80300 -3.13800 28.56100
C  20.73400 -4.09400 27.91400
C  20.56000 -3.83900 26.50900
C  19.72200 -2.69100 26.36900
C  21.68100 -4.97400 28.78700
C  21.25000 -4.51700 25.45100
O  21.19400 -4.17900 24.25100
C  21.89200 -5.83800 25.75200
N  17.49700 -0.47400 25.83500
C  18.38100 -0.97800 24.94100
C  18.15500 -0.50600 23.50800
C  16.81200 0.30800 23.70700
C  16.63900 0.35000 25.18800
C  19.35200 0.31200 22.80500
C  15.49300 -0.05500 22.94000
C  15.42200 0.55400 21.47800
N  16.19700 0.51600 28.10900
C  15.46200 1.30600 27.20400
C  14.65900 2.23600 27.93700
C  14.96000 2.06900 29.34400
C  15.95300 1.03100 29.34300
C  13.82200 3.37500 27.31000
C  14.70700 2.53800 30.65800
O  14.04200 3.48300 31.02600
C  15.65700 1.68700 31.59100
C  16.44900 2.68800 32.34700
O  17.52400 3.13700 31.97600
O  15.71400 3.02500 33.45400
C  16.29500 3.98400 34.37900
H  20.30900 -3.29900 30.64000
H  19.69300 -2.54100 24.22600
H  15.08300 1.88500 25.15800
H  18.33400 0.41200 32.81400
H  19.00300 -2.36200 32.65500
H  20.95400 -1.50800 33.19900
H  20.57600 0.15600 32.63500
H  21.35000 -0.95800 31.56400
H  17.13700 -2.10000 33.30200
H  15.94400 -0.92100 32.70900
H  16.29400 -1.06400 35.38300
H  16.19400 0.45200 34.55600
H  21.59500 -4.66400 29.82800
H  22.72200 -4.78500 28.52700
H  21.32500 -5.98900 28.61000
H  21.14100 -6.51500 26.16000
H  22.84500 -5.79400 26.27900
H  22.26500 -6.18900 24.79000
H  17.86600 -1.35700 22.89000
H  17.17200 1.31500 23.49600
H  20.19100 0.50700 23.47300
H  18.95900 1.24800 22.40700
H  19.70500 -0.30200 21.97700
H  14.57800 0.22400 23.46300
H  15.63500 -1.10500 22.68300
H  14.81000 1.45600 21.47100
H  15.26200 -0.21000 20.71700
H  16.43100 0.89200 21.24100
H  12.78600 3.17800 27.58300
H  13.79100 3.35800 26.22000
H  14.21100 4.35700 27.58000
H  14.94200 1.07700 32.14200
H  17.00400 3.34000 34.90000
H  15.48500 4.23000 35.06600
H  16.63100 4.85100 33.81000
Mg 35.61200 48.57300 26.15400
C  36.02700 46.54500 28.95200
C  34.89500 51.19600 28.17400
C  34.77200 50.24400 23.36500
C  36.60200 45.84100 24.16400
N  35.55300 48.82600 28.37200
C  35.70500 47.88200 29.32500
C  35.46500 48.41300 30.69700
C  34.94400 49.82300 30.42000
C  35.12400 49.99700 28.90500
C  33.42800 50.12600 30.77200
C  36.86100 48.41300 31.43700
C  36.83200 47.82400 32.80400
H  36.80600 48.84300 33.88100
N  35.01500 50.41700 25.81800
C  34.89900 51.40300 26.77000
C  34.66900 52.67400 26.11300
C  34.57100 52.40100 24.66000
C  34.70500 50.97500 24.60700
C  34.41700 53.90200 26.92200
C  34.33900 53.44400 23.48400
O  34.27200 53.17300 22.32500
C  34.12500 54.87200 23.92000
N  35.37400 48.02600 24.02300
C  35.21600 49.00600 23.08400
C  35.24500 48.37400 21.67500
C  35.99000 47.05900 21.96700
C  35.99900 46.95300 23.47000
C  33.92700 48.20800 20.99400
C  37.46200 46.97100 21.47700
C  38.66000 47.60500 22.31200
N  36.02200 46.62200 26.45500
C  36.53100 45.65800 25.57600
C  36.92300 44.46900 26.35400
C  36.62000 44.75500 27.65900
C  36.22300 46.13600 27.62500
C  37.49400 43.14400 25.96100
C  36.66300 44.22100 28.94800
O  36.91000 43.12000 29.35200
C  36.22500 45.41200 29.86700
C  34.99400 44.93600 30.51800
O  33.93000 44.85800 29.93800
O  35.36700 44.46500 31.74300
C  34.27000 43.91100 32.57100
H  34.66000 52.01200 28.86000
H  34.55000 50.79900 22.45000
H  37.06500 45.08100 23.53100
H  34.68200 47.75600 31.07400
H  35.58400 50.58500 30.86500
H  32.98700 49.34300 31.38900
H  32.77600 50.17100 29.89900
H  33.26600 50.95500 31.46100
H  37.36700 49.37800 31.45800
H  37.47500 47.77300 30.80400
H  37.65300 47.11600 32.91200
H  35.94000 47.21900 32.96800
H  34.94300 53.86100 27.87700
H  33.34400 54.06100 27.02800
H  34.87000 54.77500 26.45200
H  33.46100 55.14000 23.09900
H  35.01200 55.50500 23.93200
H  33.63000 54.92300 24.89000
H  35.94800 48.96600 21.09000
H  35.54300 46.14700 21.57100
H  33.72800 49.03600 20.31400
H  33.10500 48.20000 21.71000
H  33.81700 47.39800 20.27400
H  37.47100 47.62700 20.60600
H  37.81600 45.98500 21.18000
H  39.01700 48.41700 21.68000
H  39.39800 46.80500 22.35800
H  38.51500 47.96300 23.33200
H  38.30600 42.89300 26.64300
H  37.79200 43.10300 24.91300
H  36.77200 42.34300 26.11600
H  37.07700 45.52700 30.53700
H  34.07800 42.87800 32.27900
H  33.37700 44.53600 32.58900
H  34.70800 43.88800 33.56800

