158

Mg 35.60400 1.84300 30.12300
C  33.03600 3.07700 32.41500
C  37.72400 1.87400 32.70800
C  37.85500 1.31500 27.92400
C  33.29500 2.59400 27.41500
N  35.32600 2.47700 32.31000
C  34.23200 2.85900 33.01900
C  34.51200 2.96100 34.47000
C  36.07900 2.88200 34.51000
C  36.44000 2.34000 33.10900
C  36.72300 4.26200 34.76500
C  33.78600 1.86300 35.27600
C  33.25700 2.20700 36.71700
H  34.07200 3.32500 37.49900
N  37.55500 1.37600 30.33700
C  38.22100 1.41600 31.47100
C  39.56700 0.93200 31.15300
C  39.66500 0.97500 29.73100
C  38.37000 1.27500 29.28100
C  40.49600 0.51400 32.26500
C  40.95800 0.81100 28.86400
O  40.95900 0.86900 27.63900
C  42.24400 0.60600 29.52000
N  35.47300 1.75300 27.95000
C  36.59000 1.50800 27.30200
C  36.46600 1.84100 25.78800
C  34.89000 1.88900 25.62500
C  34.53100 2.08400 27.07000
C  37.29200 3.05700 25.26200
C  34.10700 0.79300 24.94400
C  33.70000 -0.44500 25.65500
N  33.66500 2.63700 29.86100
C  32.89400 2.86200 28.76400
C  31.52900 3.28900 29.24600
C  31.58500 3.37300 30.61000
C  32.85300 3.00300 30.99400
C  30.30300 3.56800 28.47400
C  30.79300 3.70600 31.76600
O  29.66200 4.16600 31.85800
C  31.74500 3.47900 33.01500
C  31.91200 4.78700 33.67600
O  32.60300 5.74500 33.27100
O  31.00900 4.91000 34.72100
C  30.91300 6.22300 35.37800
H  38.42600 1.79400 33.54100
H  38.56600 1.00100 27.15700
H  32.47300 2.90400 26.76600
H  34.15700 3.95000 34.76000
H  36.50900 2.22700 35.26800
H  35.97500 5.05300 34.70900
H  37.51600 4.51600 34.06200
H  37.31600 4.28600 35.68000
H  34.52200 1.06100 35.21900
H  32.87700 1.47100 34.81900
H  33.21000 1.32300 37.35300
H  32.19700 2.43900 36.61400
H  41.14100 -0.29800 31.92900
H  39.91500 0.19700 33.13100
H  41.09500 1.31600 32.69600
H  42.58100 1.43800 30.13700
H  42.89600 0.49400 28.65400
H  42.27700 -0.29900 30.12700
H  36.77400 0.92800 25.27800
H  34.77600 2.84100 25.10500
H  37.69800 2.76200 24.29400
H  38.11800 3.31500 25.92400
H  36.68800 3.92800 25.00900
H  34.76400 0.50600 24.12200
H  33.21000 1.07500 24.39300
H  33.96300 -1.34200 25.09500
H  32.62700 -0.46300 25.84700
H  34.28200 -0.53400 26.57200
H  30.22800 2.75000 27.75600
H  30.49500 4.47600 27.90300
H  29.34700 3.62800 28.99400
H  31.15200 2.76100 33.58200
H  31.78000 6.43300 36.00500
H  30.09800 6.07100 36.08500
H  30.67000 7.08800 34.76100
Mg 26.78800 50.26000 26.51700
C  24.65500 51.04700 29.24000
C  29.09500 49.37100 28.95500
C  28.77800 49.59200 24.13400
C  24.57600 51.85900 24.35900
N  26.72700 50.05000 28.88700
C  25.73100 50.42200 29.71300
C  26.19800 50.32500 31.14700
C  27.76700 50.05200 31.07600
C  27.93400 49.84600 29.54700
C  28.70900 51.06700 31.82600
C  25.36100 49.19800 31.82800
C  25.09500 49.34400 33.29400
H  25.97800 50.21800 34.21300
N  28.67400 49.41800 26.50400
C  29.43900 49.10700 27.59000
C  30.67200 48.57200 27.11900
C  30.64700 48.67500 25.70100
C  29.32100 49.18900 25.36000
C  31.79600 47.95700 28.07000
C  31.68300 48.31300 24.65700
O  31.50600 48.58200 23.51300
C  32.95700 47.60300 25.09900
N  26.75200 50.76200 24.55100
C  27.66900 50.31000 23.72900
C  27.29600 50.49900 22.30500
C  25.98500 51.30000 22.30600
C  25.76000 51.43400 23.82900
C  28.29300 51.25700 21.46200
C  24.84800 50.57200 21.56400
C  23.95500 51.57000 20.90000
N  24.98500 51.31400 26.66000
C  24.13100 51.84300 25.69500
C  22.96300 52.43600 26.31200
C  23.12100 52.12900 27.69800
C  24.36600 51.41200 27.85900
C  21.89800 53.20400 25.68500
C  22.54600 52.34300 29.02800
O  21.50500 52.83900 29.32500
C  23.43700 51.65300 30.09400
C  23.85300 52.77000 30.99900
O  24.75700 53.59300 30.83500
O  23.02300 52.68800 32.08200
C  23.21500 53.72900 33.13900
H  29.75400 49.09000 29.77900
H  29.40400 49.26900 23.30000
H  23.86700 52.31200 23.66300
H  26.08600 51.30100 31.62100
H  27.92300 49.06400 31.51000
H  29.09300 50.56500 32.71300
H  28.18800 51.97000 32.14400
H  29.52700 51.37000 31.17300
H  25.82600 48.22600 31.66500
H  24.34400 49.17100 31.43700
H  25.24400 48.34100 33.69200
H  24.05500 49.64900 33.41200
H  31.63100 46.88800 28.20600
H  31.67800 48.22700 29.12000
H  32.75000 48.28400 27.65800
H  33.71200 48.28100 25.49800
H  33.30000 47.25500 24.12500
H  32.79300 46.76000 25.77000
H  27.20700 49.50400 21.86800
H  26.14400 52.34300 22.03200
H  28.99700 51.63400 22.20300
H  27.91400 52.01200 20.77300
H  28.85700 50.55600 20.84600
H  24.28600 49.99000 22.29500
H  25.29000 49.92700 20.80500
H  22.98900 51.09000 20.74700
H  24.31500 51.82800 19.90400
H  23.77800 52.40300 21.58000
H  21.83600 54.20400 26.11300
H  20.92200 52.75800 25.87500
H  22.17700 53.22600 24.63100
H  22.85600 50.87700 30.59300
H  22.30400 53.65300 33.73300
H  23.38400 54.67900 32.63400
H  24.21300 53.63000 33.56400

