158

Mg 47.77700 16.48200 28.06200
C  45.62700 16.96600 30.98700
C  50.22800 18.22300 30.00400
C  49.44800 16.81900 25.39100
C  44.97100 15.36900 26.37000
N  47.94600 17.33200 30.37900
C  46.90300 17.47000 31.26300
C  47.51100 17.93200 32.67000
C  48.82000 18.62500 32.18400
C  49.07300 18.03100 30.78800
C  48.79300 20.19400 32.24700
C  47.83000 16.68900 33.52100
C  47.86200 16.90200 35.10700
H  47.80900 18.26800 35.63400
N  49.72000 17.19900 27.75900
C  50.51900 17.87700 28.63900
C  51.77600 17.92000 27.92600
C  51.56500 17.69500 26.53200
C  50.17800 17.18100 26.49000
C  53.06700 18.28500 28.61600
C  52.48400 17.76100 25.32600
O  52.12500 17.60500 24.15300
C  53.95900 18.02400 25.49100
N  47.21900 16.22600 26.11800
C  48.13500 16.35300 25.14300
C  47.57700 15.90700 23.75300
C  46.23000 15.25200 24.12600
C  46.08200 15.61500 25.62400
C  47.40900 16.97700 22.70800
C  46.28800 13.71500 23.85400
C  45.37500 13.30000 22.71500
N  45.68900 16.25600 28.47800
C  44.72500 15.73000 27.68000
C  43.53000 15.66100 28.38600
C  43.81600 16.09600 29.64400
C  45.17800 16.44900 29.71200
C  42.20600 15.08000 27.92700
C  43.27300 16.26600 31.04500
O  42.14600 16.03100 31.50500
C  44.47900 16.73500 31.96100
C  44.03100 17.94000 32.67800
O  43.96600 19.04400 32.29400
O  43.47700 17.59500 33.83000
C  42.87200 18.56300 34.74500
H  51.04600 18.81800 30.41700
H  50.01700 16.72200 24.46400
H  44.18500 14.83500 25.83300
H  46.81700 18.63800 33.12600
H  49.69800 18.31400 32.75100
H  49.15800 20.72600 31.36800
H  49.45000 20.49800 33.06200
H  47.81000 20.66400 32.29100
H  48.78000 16.25900 33.20300
H  47.01700 16.00500 33.27800
H  48.77300 16.38500 35.40900
H  47.01400 16.42300 35.59600
H  53.01800 17.88000 29.62700
H  53.25600 19.35900 28.64000
H  53.95100 17.88400 28.12000
H  54.51700 17.33900 26.12900
H  54.24100 19.04800 25.73600
H  54.28200 17.70000 24.50200
H  48.26900 15.17300 23.33900
H  45.39700 15.67100 23.56200
H  46.47500 17.48100 22.46200
H  47.85300 16.66700 21.76100
H  47.89100 17.87300 23.09900
H  45.98300 13.08100 24.68700
H  47.28000 13.29300 23.69200
H  45.17300 14.15900 22.07500
H  44.46100 12.92100 23.17300
H  45.85200 12.54500 22.09000
H  42.37900 14.02800 27.69900
H  41.99000 15.54200 26.96400
H  41.37200 15.19900 28.61800
H  44.79800 16.01500 32.71500
H  43.60100 18.75000 35.53400
H  42.04200 18.07000 35.25100
H  42.49600 19.43300 34.20600
Mg 42.68400 42.03100 26.46500
C  41.48300 44.21100 28.88700
C  43.74500 39.87200 28.88100
C  43.86500 39.99700 24.01900
C  41.92200 44.47100 24.04700
N  42.73800 42.15000 28.74800
C  42.09500 43.06700 29.50300
C  41.97900 42.59000 31.01900
C  42.98500 41.33400 30.93600
C  43.23800 41.10000 29.44000
C  44.31700 41.38300 31.80500
C  40.52500 42.27700 31.50700
C  39.85900 43.33600 32.41900
H  39.31700 42.95000 33.72500
N  43.58200 40.14600 26.49700
C  43.91900 39.43000 27.52400
C  44.47900 38.18100 27.14100
C  44.35300 38.05800 25.72300
C  43.97300 39.43800 25.36900
C  45.03500 37.12000 28.08900
C  44.56000 36.91500 24.78400
O  44.33000 37.02700 23.56600
C  44.91300 35.48300 25.25800
N  42.79300 42.14100 24.35700
C  43.34000 41.19700 23.59000
C  43.24800 41.50700 22.12000
C  42.48000 42.89300 22.06600
C  42.37100 43.21400 23.59200
C  44.64800 41.60300 21.48200
C  41.09300 42.76800 21.40200
C  40.24700 41.69900 22.07000
N  41.93000 43.96300 26.44200
C  41.69200 44.79200 25.36900
C  41.20400 46.12500 25.86600
C  41.08700 45.94400 27.26800
C  41.50100 44.60200 27.50900
C  41.03100 47.35100 25.05800
C  40.69800 46.60200 28.54000
O  40.18700 47.67600 28.73100
C  40.94600 45.50400 29.64100
C  42.00100 46.09100 30.55800
O  43.19000 46.26800 30.30800
O  41.40900 46.22900 31.79000
C  42.29200 46.82900 32.83600
H  44.03400 39.11500 29.61300
H  44.34200 39.32200 23.30600
H  41.69400 45.21300 23.27900
H  42.48300 43.33400 31.63700
H  42.39300 40.48500 31.27800
H  44.23000 42.34400 32.31200
H  45.10900 41.47100 31.06000
H  44.46200 40.69300 32.63600
H  40.38100 41.26600 31.88700
H  40.01000 42.19400 30.55000
H  39.02800 43.78200 31.87400
H  40.62100 44.08400 32.64000
H  46.02200 36.72900 27.83900
H  44.32400 36.31300 28.26900
H  45.18700 37.66500 29.02100
H  45.03100 34.93000 24.32700
H  44.09000 35.01900 25.80100
H  45.83300 35.64700 25.82100
H  42.67400 40.74500 21.59200
H  42.99300 43.70400 21.54900
H  44.86200 40.62500 21.05000
H  45.41800 41.80400 22.22700
H  44.60600 42.35000 20.69000
H  41.24300 42.50700 20.35400
H  40.50500 43.68500 21.37600
H  39.89600 41.02400 21.28900
H  39.29300 42.14800 22.34600
H  40.69500 41.23500 22.94900
H  40.88100 48.21700 25.70300
H  40.10200 47.24800 24.49900
H  41.85200 47.59800 24.38500
H  40.05500 45.28100 30.22800
H  42.15600 46.13600 33.66600
H  41.88400 47.77000 33.20700
H  43.36300 46.86800 32.63700

