158

Mg 24.94400 -8.00300 46.11800
C  27.31400 -5.44300 44.82900
C  22.58600 -6.75400 43.90400
C  23.30500 -10.75000 46.68700
C  27.64500 -9.18400 47.95600
N  25.05800 -6.48700 44.41900
C  26.06900 -5.50400 44.24200
C  25.46900 -4.42800 43.28900
C  24.01300 -4.83200 43.09100
C  23.86200 -6.15000 43.84300
C  22.99200 -3.76700 43.70700
C  26.20300 -4.36100 41.92900
C  26.10600 -3.04000 41.21500
H  25.53100 -2.99700 39.82300
N  23.14300 -8.69300 45.46400
C  22.26100 -7.97300 44.59300
C  21.03800 -8.74800 44.46900
C  21.22100 -9.93800 45.25900
C  22.60300 -9.86800 45.81000
C  19.91000 -8.30800 43.64000
C  20.19200 -10.99400 45.41700
O  19.05300 -10.84900 44.93300
C  20.44100 -12.24500 46.12500
N  25.42700 -9.78800 47.11700
C  24.50600 -10.75400 47.34000
C  25.14400 -11.96200 48.05600
C  26.38900 -11.36700 48.72500
C  26.55700 -10.00300 47.90600
C  24.16200 -12.74000 49.02200
C  27.64700 -12.32900 48.68600
C  28.22500 -12.59900 50.11300
N  27.02900 -7.42700 46.38100
C  27.97900 -8.02600 47.18400
C  29.17900 -7.22100 47.27900
C  28.94000 -6.21400 46.36300
C  27.67100 -6.41200 45.73000
C  30.43100 -7.41800 48.07600
C  29.55200 -5.01700 45.81600
O  30.65900 -4.47600 45.97800
C  28.52300 -4.57000 44.71100
C  28.22200 -3.12400 44.78500
O  28.53600 -2.33400 43.89000
O  27.60300 -2.73400 45.97200
C  27.20600 -1.31900 46.03700
H  21.88400 -6.26900 43.22200
H  22.78400 -11.68700 46.89800
H  28.50700 -9.48400 48.55500
H  25.58500 -3.46600 43.78800
H  23.76700 -5.00500 42.04400
H  22.32400 -3.27100 43.00400
H  23.51400 -2.91600 44.14500
H  22.46100 -4.19400 44.55800
H  25.80000 -5.16000 41.30700
H  27.25700 -4.57800 42.10300
H  27.15400 -2.76900 41.08900
H  25.57800 -2.30600 41.82400
H  20.09800 -7.37900 43.10200
H  19.03000 -8.03700 44.22300
H  19.74500 -9.15200 42.97000
H  20.45800 -12.07000 47.20000
H  21.34100 -12.76000 45.79100
H  19.66700 -12.90100 45.72700
H  25.36800 -12.63600 47.22800
H  26.06400 -11.24000 49.75700
H  24.57300 -12.87900 50.02100
H  23.90400 -13.70500 48.58600
H  23.18600 -12.28200 49.18100
H  28.48700 -11.83700 48.19500
H  27.37800 -13.28200 48.23100
H  29.04700 -11.92500 50.35300
H  28.73500 -13.54500 49.93200
H  27.45500 -12.64900 50.88200
H  30.35700 -8.06000 48.95300
H  30.99500 -6.52100 48.32900
H  31.07000 -8.08700 47.49900
H  29.00600 -4.57200 43.73400
H  26.11800 -1.38400 46.01100
H  27.47300 -0.64300 45.22500
H  27.58300 -0.91700 46.97800
Mg 47.54300 44.86300 43.56100
C  44.10500 43.90000 43.38100
C  48.31400 41.55100 43.32100
C  50.55500 45.91700 43.02000
C  46.24900 48.22800 43.16400
N  46.31200 42.99800 43.53200
C  44.96000 42.79300 43.44400
C  44.53000 41.29500 43.50900
C  45.92900 40.62100 43.67200
C  46.90100 41.76700 43.39200
C  46.05700 40.08400 45.06600
C  43.97300 41.04800 41.95500
C  44.92700 41.37700 40.76600
H  44.87700 40.51100 39.47500
N  49.26900 43.84200 43.25200
C  49.35300 42.47900 43.25200
C  50.73000 42.12500 43.14600
C  51.43700 43.35400 42.81900
C  50.45300 44.46600 42.96700
C  51.26800 40.73300 43.00500
C  52.90700 43.48200 42.40300
O  53.65400 42.51800 42.29700
C  53.45800 44.79100 42.02000
N  48.26300 46.76100 43.04300
C  49.53100 46.91900 43.13100
C  49.91700 48.43900 43.31200
C  48.49300 49.15100 43.26900
C  47.60700 47.96900 43.06300
C  50.76100 48.82500 44.54600
C  48.37100 50.23800 42.11500
C  48.11600 51.67400 42.65000
N  45.62900 45.89600 43.42500
C  45.30500 47.26500 43.39000
C  43.87000 47.48100 43.45000
C  43.36200 46.17000 43.46300
C  44.45000 45.26700 43.37800
C  43.01900 48.82000 43.48300
C  42.11400 45.42700 43.48600
O  40.95700 45.77600 43.52300
C  42.58900 43.91000 43.37600
C  41.98800 43.16000 44.52800
O  42.07900 43.45500 45.71100
O  41.23800 42.10600 44.06400
C  40.47100 41.34000 45.05100
H  48.67900 40.52500 43.24100
H  51.54700 46.37100 42.98400
H  45.91500 49.26700 43.19900
H  43.79400 41.10500 44.29000
H  46.03600 39.77800 42.98900
H  46.04800 38.99600 45.12300
H  45.21200 40.40300 45.67700
H  46.96500 40.44500 45.54900
H  43.04200 41.58800 41.78400
H  43.63900 40.01100 41.97500
H  45.96900 41.42600 41.08400
H  44.65700 42.36300 40.38800
H  51.60200 40.44700 42.00800
H  50.61200 39.95500 43.39500
H  52.18300 40.66700 43.59300
H  52.75700 45.27900 41.34200
H  54.40500 44.69400 41.49000
H  53.57700 45.52700 42.81600
H  50.41200 48.74800 42.39100
H  48.30000 49.51300 44.27900
H  50.54400 49.82200 44.92900
H  51.78100 48.66400 44.19600
H  50.50400 48.12200 45.33900
H  47.50900 50.19300 41.45000
H  49.24200 50.11700 41.47200
H  49.10900 52.11500 42.56600
H  47.87400 51.68800 43.71300
H  47.36300 52.25900 42.12200
H  43.36000 49.41400 44.33100
H  41.98900 48.49300 43.62800
H  43.06800 49.35700 42.53500
H  42.28100 43.44900 42.43800
H  39.57900 41.88700 45.35300
H  41.15700 41.00800 45.83000
H  40.19500 40.41600 44.54300

