158

Mg 25.11000 -4.93500 46.10300
C  27.17900 -3.03200 44.37200
C  22.63300 -4.49200 43.59500
C  23.22100 -7.73200 47.17000
C  27.75300 -6.09300 47.99200
N  24.94200 -3.90200 44.14000
C  25.96700 -3.12900 43.69600
C  25.71000 -2.46300 42.36300
C  24.12000 -2.57700 42.30400
C  23.83400 -3.80300 43.38000
C  23.25300 -1.28100 42.77000
C  26.51600 -3.14100 41.26400
C  27.31100 -2.25200 40.28800
H  26.74400 -2.27500 38.83900
N  23.12400 -5.73500 45.70300
C  22.28300 -5.40800 44.62400
C  21.02300 -5.96900 44.79800
C  21.08500 -7.00000 45.79800
C  22.52700 -6.82200 46.30100
C  19.83200 -5.53000 43.88800
C  20.02300 -8.02100 46.24300
O  18.89600 -8.10400 45.68300
C  20.29600 -9.07300 47.37100
N  25.41600 -6.60900 47.39200
C  24.49800 -7.64000 47.64600
C  25.24200 -8.71300 48.45100
C  26.52600 -8.11700 48.92700
C  26.58900 -6.82100 48.08500
C  24.48500 -9.45000 49.52900
C  27.80400 -9.05100 48.76100
C  28.43100 -9.33300 50.10400
N  27.06600 -4.65300 46.23700
C  27.99900 -5.02000 47.13900
C  29.23900 -4.33100 46.97800
C  28.90800 -3.40400 45.99100
C  27.63400 -3.74800 45.49600
C  30.58200 -4.38500 47.75500
C  29.42400 -2.26500 45.18500
O  30.51500 -1.74500 45.15900
C  28.32900 -2.00400 44.12500
C  27.97900 -0.56600 44.32100
O  27.18700 -0.08700 45.10500
O  28.62100 0.20600 43.40200
C  28.57800 1.64200 43.48600
H  21.91400 -4.29700 42.79700
H  22.78700 -8.71800 47.35200
H  28.62800 -6.33000 48.60100
H  25.90600 -1.39100 42.32200
H  23.77400 -2.82300 41.30000
H  22.81300 -1.45600 43.75100
H  22.52200 -1.05000 41.99500
H  23.93200 -0.45500 42.98100
H  25.84000 -3.73100 40.64400
H  27.24000 -3.81300 41.72500
H  28.32600 -2.64200 40.36700
H  27.39400 -1.20200 40.56900
H  20.03800 -4.65100 43.27800
H  18.93100 -5.42800 44.49300
H  19.63200 -6.34000 43.18600
H  19.41700 -9.63000 47.69600
H  20.74200 -8.62000 48.25700
H  21.01300 -9.81900 47.02800
H  25.41400 -9.51300 47.73100
H  26.42600 -7.92400 49.99500
H  24.03300 -10.35100 49.11500
H  23.58300 -8.93700 49.86400
H  25.11200 -9.75200 50.36800
H  28.53400 -8.60500 48.08600
H  27.38100 -9.87800 48.18900
H  28.48200 -10.42200 50.11600
H  27.89400 -9.06500 51.01400
H  29.46900 -9.01900 50.20700
H  30.92200 -5.42000 47.73500
H  30.26500 -4.07900 48.75200
H  31.33000 -3.63600 47.49500
H  28.85400 -2.12000 43.17700
H  29.53300 2.16500 43.52100
H  27.95400 2.03700 44.28800
H  28.13400 2.04700 42.57700
Mg 40.95600 8.81400 29.38900
C  42.78500 10.22600 32.11800
C  38.91500 7.23600 31.69000
C  39.28800 7.43200 26.90900
C  43.56900 9.70700 27.25200
N  40.74300 8.96000 31.65900
C  41.65800 9.47900 32.55400
C  41.37700 9.03300 33.95300
C  40.35400 7.85300 33.70100
C  39.98700 8.01000 32.27100
C  40.73800 6.40300 34.15500
C  40.85800 10.16700 34.91400
C  40.47500 9.63200 36.27500
H  41.24600 10.29200 37.50100
N  39.21100 7.71900 29.27900
C  38.50300 7.19700 30.32900
C  37.37100 6.34400 29.83800
C  37.35700 6.61300 28.40700
C  38.66900 7.20300 28.11300
C  36.58300 5.48900 30.75700
C  36.31900 6.34700 27.42900
O  36.51300 6.38900 26.23200
C  34.94400 6.05800 27.79200
N  41.44400 8.53400 27.39800
C  40.50800 8.01600 26.53000
C  40.95800 8.23600 25.02000
C  42.38100 8.94400 25.17500
C  42.48300 9.13100 26.68900
C  41.08400 6.99600 24.12900
C  42.52100 10.33700 24.37100
C  41.84000 11.50400 24.96300
N  42.75100 9.82400 29.57200
C  43.75900 10.08100 28.60000
C  44.84900 10.83700 29.21700
C  44.49000 11.00400 30.57500
C  43.24200 10.33200 30.75300
C  46.10200 11.37800 28.55400
C  44.95900 11.49700 31.91200
O  45.94700 12.16200 32.21000
C  43.88300 11.00100 32.97100
C  44.63000 10.02900 33.94900
O  44.92100 8.90400 33.78100
O  44.85300 10.72600 35.13100
C  45.66900 10.03100 36.12400
H  38.31300 6.71300 32.43500
H  38.72200 7.26800 25.99000
H  44.39700 10.02400 26.61500
H  42.29200 8.69200 34.43800
H  39.40500 8.06800 34.19300
H  41.74700 6.55900 34.53800
H  40.75900 5.56300 33.46000
H  40.29100 6.16800 35.12000
H  40.02800 10.57200 34.33600
H  41.68400 10.87600 34.94900
H  40.69500 8.57000 36.38900
H  39.42200 9.90900 36.32600
H  36.93200 5.30100 31.77300
H  36.38500 4.49000 30.36900
H  35.61500 5.98600 30.81900
H  34.96500 5.34700 28.61700
H  34.51000 5.66800 26.87100
H  34.40800 6.99900 27.91500
H  40.22400 8.89400 24.55300
H  43.20400 8.26500 24.95100
H  42.04500 6.85400 23.63700
H  40.38000 7.23400 23.33100
H  40.80900 6.10000 24.68500
H  42.19000 10.29000 23.33300
H  43.59100 10.51600 24.26400
H  42.42100 12.38400 25.23700
H  41.19700 11.18200 25.78200
H  41.05400 11.82300 24.27900
H  45.90900 11.59300 27.50300
H  46.83400 10.59600 28.75900
H  46.46100 12.26000 29.08500
H  43.59200 11.91900 33.48200
H  45.24200 9.11900 36.54400
H  46.08100 10.55800 36.98500
H  46.56400 9.69500 35.60000

