158

Mg -1.49400 16.99200 26.04600
C  -1.79600 15.02400 28.92600
C  -1.86400 19.82500 28.10500
C  -1.67300 18.90600 23.33100
C  -1.55900 14.18800 24.11300
N  -1.78900 17.33900 28.27800
C  -1.92400 16.32500 29.23400
C  -2.32800 16.93000 30.59800
C  -2.35100 18.48800 30.29600
C  -2.00000 18.57400 28.79300
C  -3.78900 19.24000 30.47800
C  -1.41500 16.50300 31.71200
C  -1.83000 17.04800 33.04700
H  -1.63400 16.28100 34.33200
N  -1.49900 19.10000 25.81100
C  -1.68300 20.12000 26.77600
C  -1.63600 21.36400 26.05500
C  -1.34600 21.14100 24.70000
C  -1.57300 19.65100 24.55700
C  -1.71500 22.68300 26.77800
C  -0.95700 22.11000 23.65900
O  -0.97200 21.86000 22.46900
C  -0.58200 23.47600 23.98000
N  -1.76000 16.62000 24.03500
C  -1.65300 17.59300 23.09700
C  -1.81100 17.01000 21.70800
C  -1.30800 15.51100 21.97300
C  -1.59600 15.39900 23.45300
C  -3.27500 17.04800 21.10400
C  0.18500 15.25800 21.57000
C  0.44200 15.12300 20.09500
N  -1.57800 15.03500 26.40200
C  -1.68200 14.01500 25.49000
C  -1.92000 12.79200 26.17100
C  -1.88100 13.13400 27.50600
C  -1.68600 14.54400 27.62800
C  -2.22700 11.53800 25.50300
C  -2.06500 12.51000 28.78000
O  -2.14300 11.32100 29.15300
C  -2.04500 13.77300 29.75700
C  -0.90900 13.33700 30.60800
O  0.18600 13.77300 30.46200
O  -1.39400 12.59900 31.68300
C  -0.47400 12.32100 32.79600
H  -2.05700 20.72900 28.68800
H  -1.57000 19.59600 22.49100
H  -1.53400 13.35100 23.41200
H  -3.30500 16.62200 30.97000
H  -1.62400 19.08900 30.84300
H  -3.52100 20.21600 30.88100
H  -4.61200 18.79800 31.04000
H  -4.25800 19.28900 29.49600
H  -0.41100 16.67000 31.32000
H  -1.49000 15.42900 31.88300
H  -2.87100 17.33600 32.90400
H  -1.23400 17.96000 33.07300
H  -2.12500 22.55300 27.77900
H  -2.36800 23.37800 26.25100
H  -0.72300 23.11100 26.92500
H  -1.15900 24.07000 24.69000
H  -0.29000 24.04500 23.09700
H  0.35900 23.17800 24.44100
H  -1.16600 17.58300 21.04200
H  -1.90900 14.82900 21.37200
H  -3.75800 16.07300 21.04700
H  -3.14400 17.53900 20.13900
H  -3.92300 17.72600 21.66000
H  0.56700 14.44000 22.18200
H  0.74200 16.13500 21.90000
H  1.41800 15.58400 19.94500
H  -0.32100 15.59600 19.47700
H  0.40000 14.05700 19.87100
H  -1.35000 10.89200 25.45700
H  -2.52400 11.73700 24.47300
H  -2.92000 10.91400 26.06700
H  -2.95300 13.79000 30.36000
H  0.57200 12.23000 32.50500
H  -0.86900 11.46000 33.33600
H  -0.53500 13.21200 33.42200
Mg 53.75600 24.07000 45.12800
C  51.11400 26.08000 43.76100
C  52.72600 21.41000 43.30400
C  56.69800 22.73200 45.70900
C  54.94600 27.23000 46.49700
N  52.28600 23.84700 43.49400
C  51.27300 24.76000 43.26500
C  50.19500 24.13400 42.43100
C  50.44800 22.54000 42.63300
C  51.90900 22.56800 43.18500
C  49.43500 21.97600 43.68700
C  50.28900 24.54600 40.93900
C  48.89600 24.80400 40.26800
H  48.51100 23.80100 39.20700
N  54.58000 22.26900 44.60800
C  53.99700 21.29200 43.87300
C  54.86600 20.16700 43.86900
C  56.03700 20.49400 44.67800
C  55.78900 21.85800 45.07600
C  54.58200 18.88700 43.11800
C  57.26300 19.58000 44.96400
O  57.21500 18.40800 44.61100
C  58.52100 20.12700 45.67300
N  55.50300 24.88500 45.93500
C  56.57800 24.05000 46.06500
C  57.72600 24.85400 46.73100
C  57.21200 26.26900 46.63900
C  55.77000 26.14000 46.34900
C  58.18000 24.30700 48.08400
C  57.94900 27.20700 45.56700
C  58.55000 28.44300 46.26300
N  53.05200 26.21000 45.40100
C  53.62700 27.25800 46.02800
C  52.71100 28.32900 46.02000
C  51.72700 27.97100 45.08100
C  52.06100 26.65000 44.68900
C  52.84700 29.54800 46.77200
C  50.40900 28.34100 44.47900
O  49.75100 29.36200 44.57200
C  49.96600 27.04900 43.62000
C  49.66200 27.45400 42.22200
O  50.37100 27.89600 41.31800
O  48.34800 27.45000 42.18800
C  47.63800 28.08400 41.01100
H  52.28900 20.47600 42.94400
H  57.68400 22.36000 45.99300
H  55.22600 28.14500 47.02400
H  49.22800 24.42400 42.84300
H  50.35400 21.96200 41.71400
H  49.08900 22.82000 44.28300
H  50.03200 21.35100 44.35100
H  48.59000 21.41800 43.28300
H  50.80100 23.73000 40.42900
H  50.98600 25.37400 40.80800
H  48.95200 25.81300 39.85900
H  48.09000 24.66600 40.98900
H  53.82400 19.15800 42.38300
H  54.21300 18.13900 43.82000
H  55.43300 18.42400 42.61700
H  58.99300 21.02300 45.27200
H  59.27200 19.33800 45.61900
H  58.33200 20.19600 46.74400
H  58.57900 24.70200 46.07000
H  57.26400 26.70200 47.63800
H  58.44500 25.09600 48.78800
H  59.12800 23.79000 47.93600
H  57.46200 23.64900 48.57400
H  57.11700 27.55300 44.95300
H  58.73000 26.69200 45.00800
H  57.90000 29.27200 45.98200
H  59.48300 28.70000 45.76200
H  58.73600 28.30500 47.32800
H  51.90200 29.98400 47.09600
H  53.39100 30.24200 46.13100
H  53.46800 29.46500 47.66400
H  49.02100 26.74600 44.07300
H  47.97800 29.10400 40.83000
H  46.57100 28.10900 41.23200
H  47.78200 27.57400 40.05900

