158

Mg 1.67400 -0.73100 44.42900
C  4.96600 0.21900 44.07300
C  0.59600 2.24500 43.20000
C  -1.60900 -1.84300 44.33700
C  2.72000 -3.96400 45.49400
N  2.67000 0.94700 43.62000
C  4.08200 1.23900 43.65600
C  4.37400 2.73400 43.22200
C  2.93700 3.30900 42.98400
C  2.01500 2.10100 43.34000
C  2.54700 4.60200 43.78600
C  5.38100 2.79500 42.08200
C  5.75600 4.19600 41.65700
H  5.64000 4.63900 40.17100
N  -0.32300 0.11000 43.92100
C  -0.45500 1.32200 43.29300
C  -1.87000 1.47200 42.99100
C  -2.57600 0.29800 43.33000
C  -1.52700 -0.55800 43.86800
C  -2.52200 2.73000 42.36700
C  -4.01700 -0.01800 43.15200
O  -4.75600 0.80200 42.64400
C  -4.71200 -1.17800 43.79600
N  0.67100 -2.57200 44.73900
C  -0.67300 -2.75400 44.73300
C  -1.06500 -4.19800 44.88900
C  0.27300 -4.82900 45.46500
C  1.32800 -3.73900 45.25700
C  -2.26300 -4.51700 45.81000
C  0.65000 -6.24600 44.79000
C  0.78100 -7.38600 45.85800
N  3.41600 -1.76200 44.69400
C  3.73800 -3.04100 45.12000
C  5.22200 -3.17600 45.26000
C  5.70600 -1.94700 44.79800
C  4.61300 -1.13600 44.48900
C  5.95700 -4.41600 45.62100
C  6.99300 -1.17400 44.60400
O  8.15500 -1.56400 44.73700
C  6.58900 0.26400 44.15100
C  6.96400 1.35800 45.13200
O  6.46600 1.52100 46.21900
O  8.01200 2.04700 44.53300
C  8.40100 3.21000 45.38900
H  0.29100 3.24300 42.87700
H  -2.58000 -2.33600 44.26200
H  3.04800 -4.93700 45.86600
H  4.82500 3.17800 44.10900
H  2.92300 3.46600 41.90600
H  3.39300 4.93500 44.38700
H  1.75300 4.39700 44.50400
H  2.32200 5.43200 43.11500
H  5.04400 2.24700 41.20200
H  6.33600 2.41600 42.44700
H  6.72400 4.44400 42.09500
H  5.02000 4.87900 42.08300
H  -1.70200 3.43500 42.23100
H  -3.28700 3.12600 43.03500
H  -2.84300 2.38000 41.38600
H  -5.79300 -1.05200 43.85300
H  -4.26300 -1.26700 44.78500
H  -4.42300 -2.10000 43.29200
H  -1.19000 -4.58500 43.87800
H  0.02100 -4.81500 46.52500
H  -2.03600 -5.30400 46.53000
H  -3.14400 -4.88900 45.28800
H  -2.61900 -3.60200 46.28300
H  1.66900 -6.12800 44.42100
H  0.06100 -6.61400 43.94900
H  1.80200 -7.68100 46.10000
H  0.25800 -8.28800 45.54300
H  0.35300 -6.93700 46.75500
H  5.44700 -4.77400 46.51500
H  7.02300 -4.26100 45.78800
H  5.73300 -5.15000 44.84800
H  7.01400 0.47600 43.17000
H  9.32300 3.67800 45.04500
H  8.60100 2.92500 46.42200
H  7.56600 3.90900 45.34200
Mg 16.77500 51.84300 25.77800
C  18.72600 50.55600 28.36000
C  14.36500 52.47000 28.04600
C  14.97300 53.00800 23.14900
C  19.23400 50.64300 23.45300
N  16.47200 51.42200 27.93300
C  17.50600 51.11900 28.75300
C  17.07000 51.29400 30.21000
C  15.54100 51.56100 30.13200
C  15.42200 51.78700 28.63500
C  14.53200 50.50400 30.53200
C  17.94600 52.35600 30.92300
C  18.27500 52.22900 32.37500
H  17.24800 51.43600 33.22400
N  14.99800 52.76000 25.64400
C  14.09800 52.86700 26.67700
C  12.87500 53.60000 26.13100
C  13.04900 53.79200 24.66700
C  14.40600 53.20200 24.41700
C  11.70500 53.95700 26.96400
C  12.17900 54.45900 23.68700
O  12.50100 54.68500 22.52000
C  10.86900 55.11600 24.10000
N  17.05100 51.76900 23.65500
C  16.15100 52.36100 22.75500
C  16.61400 52.30200 21.31000
C  18.02900 51.69100 21.49800
C  18.15000 51.36300 22.94500
C  15.75300 51.28200 20.41300
C  19.12100 52.51900 20.79500
C  19.86800 51.90000 19.57600
N  18.61100 50.72300 25.86800
C  19.42600 50.29500 24.86900
C  20.57800 49.67300 25.49300
C  20.32400 49.61000 26.86100
C  19.10500 50.40400 27.01600
C  21.94500 49.31000 24.78100
C  20.78500 49.17600 28.19000
O  21.74000 48.51700 28.51600
C  19.81200 49.78700 29.18500
C  19.26300 48.75800 30.02900
O  18.34200 48.02100 29.76600
O  19.96800 48.71800 31.20700
C  19.31800 47.85800 32.18000
H  13.61600 52.88800 28.72200
H  14.49300 53.42600 22.26100
H  19.88500 50.32500 22.63700
H  17.33200 50.35600 30.69800
H  15.35100 52.53400 30.58400
H  13.82200 51.06200 31.14300
H  14.97300 49.79300 31.23100
H  14.06400 50.01500 29.67700
H  17.59400 53.38800 30.91600
H  18.89200 52.34500 30.38200
H  18.40600 53.19800 32.85700
H  19.20500 51.66100 32.40200
H  10.89200 53.27100 26.72600
H  11.48100 55.00300 26.75800
H  11.94300 53.95200 28.02800
H  10.98000 56.05000 24.65000
H  10.12800 54.43800 24.52200
H  10.37800 55.33800 23.15300
H  16.59900 53.34400 20.99000
H  18.15800 50.76100 20.94400
H  14.84800 50.87200 20.86300
H  16.35000 50.40300 20.17200
H  15.54500 51.86200 19.51400
H  19.66000 52.95800 21.63400
H  18.68600 53.40600 20.33500
H  19.24000 51.14700 19.10000
H  20.81500 51.43300 19.84600
H  20.15200 52.67400 18.86300
H  22.12700 49.72200 23.78800
H  22.11200 48.24200 24.91700
H  22.66700 49.88600 25.36000
H  20.38300 50.50000 29.78000
H  19.28200 46.79700 31.92900
H  18.28900 48.11700 32.43000
H  19.90400 47.80900 33.09800

