158

Mg 47.85300 24.59600 28.06000
C  48.42900 27.02700 30.33700
C  46.62700 22.63000 30.53800
C  47.32700 22.24000 25.73000
C  49.25600 26.65700 25.60100
N  47.77700 24.77200 30.22900
C  47.90300 25.89800 30.96500
C  47.47200 25.69700 32.44200
C  47.04300 24.26600 32.48500
C  47.13000 23.82800 30.99300
C  47.74400 23.25600 33.39900
C  46.43700 26.76200 32.97100
C  46.71300 27.31400 34.43700
H  45.53900 27.33300 35.41800
N  47.06900 22.68100 28.16100
C  46.55700 21.99000 29.24900
C  46.09600 20.71200 28.85600
C  46.26000 20.63400 27.45300
C  46.96900 21.87300 27.05900
C  45.49700 19.75900 29.80700
C  45.75300 19.57900 26.48300
O  45.97300 19.52700 25.23900
C  44.88500 18.49200 27.00600
N  48.37500 24.40900 26.00100
C  48.05000 23.34600 25.26400
C  48.36400 23.60200 23.75400
C  48.70500 25.13300 23.67700
C  48.81400 25.41200 25.20500
C  49.48200 22.67600 23.11100
C  47.68100 25.91600 22.91100
C  46.47900 26.53000 23.66000
N  48.75900 26.44400 27.92600
C  49.27600 27.18900 26.85000
C  49.75200 28.50000 27.32900
C  49.46600 28.47000 28.71200
C  48.83100 27.21200 28.98800
C  50.19000 29.56700 26.44800
C  49.54500 29.21200 29.96900
O  50.08300 30.26500 30.15100
C  48.75100 28.32300 31.05600
C  49.79900 28.12300 32.13100
O  50.63800 27.28700 32.11200
O  49.44200 28.85700 33.20100
C  50.19000 28.67100 34.45300
H  46.24600 22.06700 31.39200
H  47.10800 21.45900 24.99900
H  49.65400 27.35700 24.86400
H  48.39000 25.85000 33.01000
H  46.02700 24.15800 32.86400
H  48.60100 23.79300 33.80400
H  48.03000 22.35100 32.86200
H  47.09400 22.92900 34.21100
H  45.41800 26.38300 33.04700
H  46.33400 27.57200 32.25000
H  47.04400 28.35000 34.35500
H  47.49900 26.68100 34.85000
H  44.43200 19.95200 29.93700
H  45.89900 19.93000 30.80500
H  45.72600 18.73600 29.50700
H  44.30900 18.12000 26.15900
H  44.14900 18.94700 27.67000
H  45.46100 17.69600 27.47700
H  47.49700 23.30400 23.16500
H  49.66400 25.32400 23.19700
H  50.29500 23.37400 22.91000
H  49.11300 22.03400 22.31200
H  49.88600 22.01300 23.87500
H  47.22000 25.38500 22.07800
H  48.21400 26.73900 22.43300
H  46.52300 27.61900 23.68000
H  46.43700 26.07500 24.64900
H  45.58100 26.27600 23.09700
H  49.75700 29.69500 25.45600
H  51.24200 29.34000 26.27500
H  50.12900 30.50300 27.00300
H  47.87300 28.84900 31.43100
H  49.42500 28.34300 35.15700
H  50.53400 29.65900 34.76000
H  51.02400 27.97500 34.53300
Mg -2.17400 34.73500 25.77600
C  -3.91300 33.10800 28.33000
C  -1.10500 36.98900 28.01500
C  -0.89300 36.58900 23.15400
C  -3.73700 32.67500 23.44800
N  -2.65100 35.04500 27.94300
C  -3.26900 34.27300 28.80800
C  -3.03800 34.70200 30.28300
C  -2.27000 36.02800 30.15300
C  -1.93500 36.00200 28.60600
C  -3.06400 37.35900 30.53500
C  -2.36900 33.58800 31.13600
C  -3.06900 33.28200 32.45600
H  -2.08400 33.16800 33.60100
N  -1.18400 36.52800 25.67000
C  -0.76100 37.25700 26.73100
C  0.04100 38.43500 26.20400
C  0.09200 38.32900 24.75400
C  -0.64600 37.14000 24.46900
C  0.53500 39.53200 27.10600
C  0.68200 39.27600 23.65000
O  0.72500 39.09900 22.42700
C  1.47900 40.51300 24.11400
N  -2.43400 34.72300 23.71700
C  -1.67200 35.49800 22.82800
C  -1.79100 35.00800 21.34900
C  -2.41100 33.60100 21.59500
C  -2.88900 33.67900 23.03800
C  -2.75100 35.96500 20.52600
C  -1.43600 32.35200 21.38200
C  -0.72500 31.70200 22.62300
N  -3.55900 33.10600 25.80300
C  -4.12000 32.41600 24.78300
C  -4.94000 31.30500 25.39400
C  -4.82500 31.51300 26.75900
C  -4.02600 32.65300 26.98300
C  -5.86000 30.42600 24.74200
C  -5.29800 31.03800 28.03500
O  -5.94900 30.04100 28.31100
C  -4.71500 32.06800 29.15600
C  -5.82500 32.60500 29.88100
O  -6.55000 33.48800 29.46300
O  -5.87400 32.08500 31.14000
C  -6.89100 32.44400 32.15500
H  -0.63600 37.69100 28.70700
H  -0.30600 36.93200 22.30000
H  -4.00900 31.95700 22.67000
H  -4.08100 34.80500 30.58200
H  -1.27700 36.09900 30.59700
H  -3.61300 37.75000 29.67800
H  -2.36300 38.13800 30.83500
H  -3.69600 37.13400 31.39500
H  -1.40700 33.97200 31.47600
H  -2.22200 32.71500 30.50100
H  -3.38500 32.24800 32.31900
H  -3.88300 33.98000 32.65100
H  0.98300 40.39900 26.62000
H  1.32000 39.31500 27.83100
H  -0.24700 39.92200 27.75700
H  1.91000 40.94800 23.21200
H  2.37400 40.03400 24.51000
H  1.00600 41.22800 24.78700
H  -0.89300 34.90100 20.74000
H  -3.31200 33.47500 20.99400
H  -2.21300 36.78300 20.04800
H  -3.47900 36.43400 21.18800
H  -3.08500 35.35900 19.68400
H  -0.64600 32.75000 20.74700
H  -1.92900 31.60500 20.76000
H  -1.15200 32.09900 23.54400
H  0.34300 31.89200 22.51400
H  -0.88200 30.62600 22.69600
H  -5.55800 30.29500 23.70300
H  -6.87400 30.81400 24.83400
H  -5.84700 29.48200 25.28700
H  -4.04900 31.43500 29.74200
H  -7.12800 31.57800 32.77300
H  -7.78600 32.96600 31.81500
H  -6.34600 33.11900 32.81500

