158

Mg 35.73400 1.37800 29.23300
C  33.52200 2.44200 31.69600
C  38.20200 1.06500 31.62400
C  37.83000 0.51100 26.83700
C  33.23300 2.00000 26.73300
N  35.87100 1.87300 31.36600
C  34.81600 2.12000 32.17200
C  35.22500 2.02400 33.68500
C  36.72600 1.77000 33.57600
C  36.98400 1.49700 32.09500
C  37.53300 3.00800 33.97600
C  34.42100 0.85800 34.43200
C  33.97600 1.37000 35.82100
H  34.75500 2.41900 36.52000
N  37.68200 0.95200 29.25600
C  38.50800 0.69700 30.32600
C  39.77300 0.10500 29.90600
C  39.75500 0.09100 28.46500
C  38.40200 0.55500 28.09600
C  40.78700 -0.25300 30.91200
C  40.88500 -0.23000 27.52100
O  40.85400 -0.11800 26.27200
C  42.03900 -0.99600 28.10800
N  35.49400 1.23700 27.17000
C  36.54400 0.90100 26.34800
C  36.20800 0.71800 24.89300
C  34.76700 1.24700 24.78200
C  34.42300 1.43500 26.31100
C  37.24500 1.37000 23.87900
C  33.83300 0.22200 24.08100
C  32.58900 0.67200 23.30900
N  33.74800 2.09400 29.16200
C  32.92700 2.33800 28.10200
C  31.70400 2.87200 28.63400
C  31.89800 2.95600 30.01300
C  33.13000 2.46800 30.30200
C  30.44200 3.07200 27.95100
C  31.25000 3.26900 31.22900
O  30.17900 3.67900 31.30800
C  32.25300 2.96400 32.37700
C  32.53700 4.20500 33.18000
O  33.29300 5.07200 32.83500
O  31.79900 4.26200 34.30900
C  31.96100 5.47800 35.20700
H  39.06200 1.04300 32.29700
H  38.50800 0.07000 26.10300
H  32.56600 2.23400 25.90100
H  35.00700 2.98900 34.14100
H  36.99500 0.85800 34.10900
H  36.85900 3.69100 34.49400
H  37.98600 3.51800 33.12600
H  38.30800 2.65400 34.65500
H  35.12900 0.03700 34.54900
H  33.50600 0.74300 33.85200
H  34.02200 0.55300 36.54100
H  32.97300 1.74300 35.61500
H  40.84900 0.53600 31.66200
H  41.82700 -0.39900 30.62200
H  40.62800 -1.24200 31.34100
H  41.90500 -1.73500 28.89900
H  42.77200 -0.24900 28.41300
H  42.43200 -1.55100 27.25600
H  36.22500 -0.34200 24.63800
H  34.60000 2.17800 24.23800
H  36.72800 1.99500 23.15100
H  37.65300 0.61100 23.21200
H  38.06600 1.85400 24.40800
H  33.57200 -0.52400 24.83200
H  34.44300 -0.30700 23.34900
H  32.52600 0.14000 22.36000
H  32.49100 1.75200 23.19900
H  31.72500 0.28900 23.85100
H  30.22400 2.15700 27.40000
H  30.53900 3.85600 27.20000
H  29.62500 3.24100 28.65200
H  31.89000 2.15200 33.00800
H  32.72200 6.19900 34.90800
H  32.22900 5.21000 36.23000
H  30.98300 5.95900 35.24000
Mg 41.90800 41.36600 26.26200
C  41.06500 43.97300 28.52700
C  42.72600 39.37100 28.92000
C  42.97400 39.10700 24.01000
C  41.39700 43.75900 23.67500
N  41.92400 41.68700 28.39200
C  41.47400 42.80100 29.09000
C  41.37900 42.49700 30.58700
C  41.99800 41.14600 30.69100
C  42.28500 40.69100 29.21800
C  43.11400 40.90900 31.70300
C  39.89300 42.60300 31.09600
C  39.51500 41.95100 32.46800
H  38.72200 42.84100 33.46100
N  42.77900 39.51400 26.46200
C  42.95400 38.80000 27.60500
C  43.35700 37.47400 27.30100
C  43.29200 37.31700 25.87400
C  42.97300 38.67400 25.40500
C  43.67400 36.43500 28.39600
C  43.43800 36.04500 24.99600
O  43.28900 35.97900 23.80000
C  43.85600 34.69000 25.67400
N  42.22700 41.46100 24.18000
C  42.65800 40.37900 23.43900
C  42.33500 40.52700 21.87600
C  41.84100 42.02800 21.81800
C  41.78100 42.43500 23.29700
C  43.55700 40.34000 20.92900
C  40.48700 42.20200 21.13500
C  39.25700 42.08500 21.96700
N  41.32000 43.42500 26.11100
C  41.20000 44.26600 24.97400
C  40.84200 45.60400 25.38500
C  40.88100 45.54600 26.76100
C  41.11100 44.18300 27.12800
C  40.54900 46.79000 24.52500
C  40.58800 46.37300 27.97800
O  40.31500 47.52200 28.16800
C  40.69400 45.32300 29.14400
C  41.70500 45.76200 30.19900
O  42.88900 45.76200 30.09000
O  41.11100 45.92400 31.40200
C  41.93200 46.27600 32.66800
H  42.94100 38.77900 29.81200
H  43.07300 38.35800 23.22100
H  41.24200 44.51100 22.89800
H  41.95900 43.22300 31.15600
H  41.16900 40.47300 30.91000
H  43.18700 41.81400 32.30600
H  44.04000 40.77400 31.14500
H  42.90800 40.15100 32.45800
H  39.25400 42.17000 30.32700
H  39.74500 43.68000 31.16800
H  40.44200 41.71400 32.99100
H  39.07600 40.96700 32.30400
H  43.20500 36.71700 29.33900
H  44.72400 36.61900 28.62300
H  43.43000 35.45900 27.97800
H  43.06100 34.42600 26.37200
H  44.78000 34.90000 26.21200
H  43.95900 33.89900 24.93100
H  41.54800 39.85300 21.53700
H  42.55900 42.62200 21.25400
H  44.26000 40.88800 21.55700
H  43.55000 40.76900 19.92700
H  43.75500 39.27300 21.02300
H  40.34100 41.51800 20.30000
H  40.57100 43.22500 20.76800
H  39.26200 41.28700 22.71100
H  38.44000 41.86000 21.28200
H  38.96100 43.04100 22.39800
H  39.48500 46.92200 24.33100
H  41.10700 46.68600 23.59400
H  41.01900 47.63500 25.02900
H  39.67600 45.26400 29.52900
H  41.87500 47.31600 32.98900
H  42.97100 46.05900 32.42200
H  41.56800 45.56500 33.40900

