158

Mg 7.15700 1.68900 28.15700
C  8.96400 0.51200 30.89900
C  5.66300 4.01900 30.22500
C  5.55000 2.96900 25.49100
C  8.40400 -0.85900 26.18000
N  7.36500 2.27600 30.26200
C  8.00500 1.52000 31.26100
C  7.81800 2.11700 32.68700
C  6.51700 3.04800 32.39000
C  6.48800 3.12100 30.88000
C  5.20000 2.39100 33.02600
C  9.04500 2.83400 33.28900
C  9.49100 2.43900 34.70700
H  9.92100 3.57200 35.65900
N  5.81200 3.30600 27.86200
C  5.38300 4.15500 28.86100
C  4.58300 5.18500 28.25700
C  4.65400 5.00700 26.84500
C  5.37800 3.71300 26.67000
C  3.90400 6.35100 28.94200
C  4.08600 5.88800 25.66100
O  4.13800 5.51400 24.54000
C  3.20100 7.20800 25.89100
N  6.93600 1.02100 26.16100
C  6.26400 1.77700 25.24900
C  6.38600 1.11300 23.80800
C  7.45100 -0.06000 24.05300
C  7.49000 -0.05000 25.53900
C  5.06700 0.60800 23.12900
C  8.83100 0.20000 23.43700
C  9.50500 -0.96900 22.65900
N  8.39600 0.17800 28.40500
C  8.83000 -0.77900 27.49600
C  9.90800 -1.56700 28.15300
C  9.96100 -1.14600 29.46800
C  8.99600 -0.10300 29.60500
C  10.77700 -2.56500 27.45800
C  10.64500 -1.28200 30.70000
O  11.55000 -2.04700 30.92600
C  10.01000 -0.29000 31.73100
C  9.52200 -0.99300 32.94800
O  8.60300 -1.84100 32.83400
O  10.19900 -0.58300 34.05900
C  9.42100 -0.90200 35.26800
H  5.20400 4.75100 30.89300
H  5.16000 3.23900 24.50700
H  8.79400 -1.75900 25.70000
H  7.47000 1.24200 33.23700
H  6.52600 4.10100 32.67300
H  4.78000 3.13000 33.70700
H  5.43200 1.44000 33.50600
H  4.55100 2.17800 32.17700
H  8.77100 3.88900 33.31000
H  9.90200 2.62700 32.64900
H  10.39000 1.82500 34.66400
H  8.67500 1.90500 35.19400
H  4.24000 7.30100 28.52600
H  4.21600 6.38300 29.98600
H  2.82300 6.21600 28.92000
H  3.09300 7.77100 24.96400
H  3.58000 7.86200 26.67700
H  2.23300 6.82800 26.21600
H  6.77500 1.95100 23.22900
H  7.22800 -1.04100 23.63400
H  4.55600 0.21800 24.00900
H  5.13500 -0.14000 22.34000
H  4.49400 1.45300 22.74500
H  9.54900 0.40300 24.23200
H  8.88700 1.09800 22.82200
H  10.32800 -1.32200 23.28000
H  9.94800 -0.53300 21.76300
H  8.91900 -1.85700 22.41800
H  11.28000 -2.07800 26.62300
H  10.32900 -3.50900 27.15100
H  11.71800 -2.78700 27.96100
H  10.73500 0.47600 32.00900
H  10.00300 -0.73000 36.17300
H  8.97700 -1.89500 35.19700
H  8.57100 -0.24600 35.45900
Mg 10.20300 47.51500 26.05000
C  8.17200 47.80000 28.89400
C  12.82000 48.77300 27.84400
C  12.02600 47.22100 23.28000
C  7.29500 46.55900 24.26400
N  10.46500 48.16100 28.09400
C  9.52700 48.12200 29.12200
C  10.18900 48.44400 30.47100
C  11.40000 49.28700 29.95400
C  11.63400 48.79600 28.58200
C  11.17600 50.88800 30.02200
C  10.61400 47.17000 31.26900
C  10.73400 47.28800 32.74500
H  10.46300 46.12700 33.74200
N  12.23500 47.94600 25.59700
C  13.16400 48.44000 26.48900
C  14.50800 48.35900 25.85700
C  14.22100 47.91800 24.51500
C  12.79200 47.65100 24.37100
C  15.71600 48.76500 26.63800
C  15.20100 47.78900 23.31300
O  14.87000 47.60800 22.12300
C  16.73600 47.94500 23.63600
N  9.70600 47.16400 23.94400
C  10.67100 46.97600 23.06200
C  10.01200 46.68700 21.64600
C  8.56200 46.31600 22.01800
C  8.50900 46.66700 23.47500
C  10.08500 47.93600 20.75300
C  8.10800 44.85100 21.70800
C  8.20600 43.67900 22.77900
N  8.09100 47.30000 26.45600
C  7.02300 46.89600 25.59900
C  5.81200 46.97800 26.36700
C  6.21500 47.19200 27.68200
C  7.59600 47.48100 27.69600
C  4.35400 46.58700 26.01900
C  5.77400 47.31900 29.06600
O  4.69600 47.06300 29.61400
C  7.07500 47.65700 29.97000
C  7.23400 46.42300 30.75100
O  7.34000 45.27800 30.30500
O  7.25800 46.76800 32.08900
C  7.20000 45.58400 33.02600
H  13.59900 49.18900 28.48600
H  12.48500 47.16500 22.29100
H  6.41000 46.30000 23.68000
H  9.43900 49.04700 30.98400
H  12.37800 49.19100 30.42400
H  12.12600 51.32300 30.33300
H  10.47900 51.14100 30.82100
H  10.85200 51.28600 29.06100
H  11.63000 46.93400 30.95500
H  9.98100 46.29200 31.13900
H  10.18500 48.08200 33.25100
H  11.75300 47.65000 32.88200
H  15.51200 48.53200 27.68300
H  16.01000 49.80300 26.48400
H  16.50500 48.06500 26.36400
H  16.91200 47.32700 24.51600
H  16.84300 48.93200 24.08600
H  17.34900 47.77200 22.75100
H  10.65100 45.87000 21.30900
H  7.80200 46.92700 21.53100
H  9.10300 48.13500 20.32300
H  10.83200 47.80400 19.97000
H  10.24900 48.89500 21.24400
H  8.66000 44.47500 20.84700
H  7.06500 44.89100 21.39400
H  8.38500 43.82700 23.84400
H  8.94400 42.90200 22.57800
H  7.26800 43.14500 22.63000
H  4.38100 45.60100 25.55400
H  4.02400 47.32900 25.29200
H  3.67200 46.61100 26.86800
H  6.89500 48.53500 30.59100
H  6.46700 44.80900 32.80600
H  6.99700 45.98900 34.01700
H  8.12200 45.00400 33.07100

