158

Mg 36.27100 2.51400 30.12500
C  33.86900 3.46000 32.68400
C  38.68000 2.77100 32.40100
C  38.46400 1.92900 27.62200
C  33.54500 2.87200 27.88000
N  36.15000 2.92000 32.35500
C  35.16700 3.20200 33.18900
C  35.54100 3.06300 34.58600
C  37.08700 3.14200 34.50600
C  37.35300 2.94500 32.96200
C  37.82400 4.37600 35.10100
C  34.90200 1.78900 35.22200
C  34.57600 1.84200 36.68700
H  35.05100 3.00400 37.52100
N  38.24500 2.21800 30.08600
C  39.09700 2.36900 31.12500
C  40.38100 1.93400 30.78600
C  40.35600 1.66200 29.34300
C  38.96300 1.97400 28.93100
C  41.50500 1.70000 31.73200
C  41.52000 1.24500 28.37400
O  41.26800 0.84400 27.23800
C  42.88200 1.19700 28.89100
N  35.99600 2.19700 27.99900
C  37.04700 1.95500 27.17100
C  36.54400 1.70100 25.83500
C  34.93800 2.07500 25.86800
C  34.80100 2.40500 27.32100
C  37.40600 2.36800 24.82000
C  33.93300 0.99800 25.54300
C  32.74900 1.46700 24.71300
N  34.18000 3.14900 30.16000
C  33.26400 3.22600 29.17200
C  31.97000 3.77200 29.66900
C  32.19000 3.85400 31.05300
C  33.49500 3.45200 31.30200
C  30.66900 3.87800 28.94400
C  31.56300 4.06100 32.41300
O  30.42200 4.39800 32.64000
C  32.67200 3.78200 33.45400
C  32.75000 4.90000 34.39000
O  33.17300 5.99100 34.04200
O  32.29600 4.56100 35.63400
C  31.81600 5.65000 36.44300
H  39.48800 2.92500 33.12000
H  39.20900 1.94900 26.82400
H  32.67700 2.99900 27.23100
H  35.22200 3.96700 35.10500
H  37.49900 2.28500 35.03800
H  37.15300 5.23500 35.13700
H  38.74100 4.64300 34.57500
H  38.16000 4.17900 36.11900
H  35.68000 1.03300 35.11600
H  34.04300 1.43200 34.65400
H  34.98100 0.93200 37.12900
H  33.53600 1.61300 36.91900
H  42.39000 2.28800 31.49200
H  41.72300 0.63400 31.80000
H  41.29700 2.00500 32.75800
H  42.94900 0.77300 29.89300
H  43.29000 2.19600 29.04500
H  43.47200 0.68200 28.13200
H  36.68100 0.62500 25.73300
H  34.82100 2.94900 25.22700
H  36.94200 3.11000 24.17100
H  37.87000 1.55400 24.26300
H  38.15400 3.01000 25.28500
H  33.58600 0.54200 26.47100
H  34.41900 0.22900 24.94300
H  32.95800 2.29400 24.03500
H  31.89200 1.71400 25.34000
H  32.56200 0.64300 24.02500
H  29.99500 4.45300 29.58000
H  30.31900 2.88000 28.68100
H  30.91200 4.55300 28.12400
H  32.38100 2.87900 33.99200
H  32.67700 5.98000 37.02400
H  30.96500 5.29700 37.02500
H  31.51500 6.54800 35.90300
Mg -9.94900 39.16000 39.63000
C  -8.53900 36.07900 39.38100
C  -6.73300 40.38200 38.57600
C  -11.39900 42.13800 38.77900
C  -13.03400 37.82400 40.05700
N  -7.75000 38.38900 39.24400
C  -7.54700 37.06100 39.09400
C  -6.02200 36.77300 38.70600
C  -5.45200 38.19700 38.94200
C  -6.69800 39.05200 38.92100
C  -4.61800 38.31400 40.30500
C  -5.87000 36.01100 37.37000
C  -5.16700 36.72600 36.22200
H  -5.65600 36.33400 34.76500
N  -9.20600 41.01200 38.91800
C  -7.87100 41.24700 38.47300
C  -7.79100 42.67600 38.10100
C  -9.09200 43.21400 38.15600
C  -9.98700 42.11400 38.57600
C  -6.52000 43.40400 37.71600
C  -9.42800 44.59800 37.60000
O  -8.61100 45.36100 37.15000
C  -10.86600 45.03700 37.55200
N  -11.97800 39.90200 39.27900
C  -12.29200 41.18500 39.13000
C  -13.84200 41.35800 39.08500
C  -14.32500 39.92800 39.50400
C  -13.06800 39.11800 39.60700
C  -14.43800 42.57800 39.88400
C  -15.45600 39.39700 38.63100
C  -15.12200 38.95500 37.23100
N  -10.64600 37.38400 39.83100
C  -11.91300 36.96000 40.17100
C  -11.81300 35.55700 40.45200
C  -10.56100 35.16600 39.99500
C  -9.85100 36.27700 39.67100
C  -12.92500 34.62300 40.86900
C  -9.74200 33.98000 39.70600
O  -9.92600 32.79700 39.74900
C  -8.38300 34.52800 39.21900
C  -7.36700 33.69800 39.99400
O  -7.27100 33.57600 41.20400
O  -6.60100 33.01500 39.09400
C  -5.53200 32.31400 39.70300
H  -5.80600 40.82900 38.21000
H  -12.00000 43.03900 38.63900
H  -13.98200 37.33700 40.29600
H  -5.51500 36.16900 39.45900
H  -4.75700 38.58100 38.19500
H  -4.25400 37.40500 40.78300
H  -5.28200 38.65000 41.10100
H  -3.75400 38.96500 40.16800
H  -6.84900 35.69600 37.01000
H  -5.31300 35.09200 37.55000
H  -4.10900 36.49800 36.35100
H  -5.38400 37.79300 36.27200
H  -6.33100 43.22200 36.65800
H  -5.66700 43.06200 38.30200
H  -6.55100 44.49300 37.73100
H  -11.26100 45.02100 38.56700
H  -11.44400 44.35100 36.93200
H  -10.95300 46.05200 37.16400
H  -13.95600 41.56100 38.02000
H  -14.81000 39.98600 40.47900
H  -15.10100 42.19000 40.65700
H  -15.10600 43.17000 39.25900
H  -13.68300 43.21000 40.35200
H  -16.25700 40.13100 38.53900
H  -15.89400 38.52700 39.12100
H  -15.59300 39.71600 36.61000
H  -15.51600 37.95300 37.06100
H  -14.08600 38.76300 36.94900
H  -12.67600 33.60300 40.57400
H  -13.84100 34.80400 40.30700
H  -13.24100 34.74000 41.90500
H  -8.37700 34.42100 38.13500
H  -5.93700 31.57700 40.39700
H  -4.83400 32.89600 40.30500
H  -4.86000 31.77700 39.03300

