158

Mg 16.54900 -2.19100 27.10600
C  15.46900 -0.32000 29.94600
C  18.41300 -4.14200 29.27600
C  17.36900 -4.04900 24.53500
C  14.58000 -0.07500 25.13800
N  16.88200 -2.16300 29.40600
C  16.32300 -1.37200 30.32800
C  16.79800 -1.76200 31.72000
C  17.75900 -3.01800 31.47600
C  17.75300 -3.05200 29.95900
C  19.17800 -2.85600 32.02600
C  15.68500 -2.05200 32.82100
C  16.06800 -1.71700 34.23200
H  17.58000 -1.33200 34.58100
N  17.76200 -3.75300 26.90200
C  18.42200 -4.44900 27.90300
C  19.09000 -5.64700 27.33800
C  18.67400 -5.68100 26.03000
C  17.89300 -4.44500 25.73800
C  19.96300 -6.69500 28.19300
C  19.06600 -6.69200 24.97300
O  18.57800 -6.68900 23.85600
C  19.98900 -7.83100 25.38500
N  16.10600 -2.03100 25.13000
C  16.62600 -2.92100 24.23600
C  16.36500 -2.49600 22.80700
C  15.31900 -1.34900 23.00300
C  15.23800 -1.16000 24.50000
C  17.61400 -2.05700 22.01500
C  13.92900 -1.59400 22.32800
C  12.85200 -2.35100 22.98700
N  15.30100 -0.55600 27.39300
C  14.59000 0.23300 26.51800
C  13.88600 1.29600 27.13600
C  14.14800 1.07800 28.55000
C  15.07300 -0.00400 28.66300
C  12.98100 2.28700 26.45100
C  13.75700 1.55200 29.89500
O  13.05300 2.38100 30.35700
C  14.71400 0.65800 30.85600
C  15.56100 1.62000 31.54400
O  16.23600 2.49600 31.08000
O  15.32200 1.58400 32.88500
C  15.92000 2.61200 33.81400
H  19.02000 -4.80100 29.90100
H  17.57000 -4.66200 23.65400
H  14.01900 0.60900 24.49700
H  17.42400 -0.92000 32.01200
H  17.33700 -3.95100 31.84800
H  19.30200 -3.66300 32.74800
H  19.32100 -1.92100 32.56900
H  19.95100 -2.85800 31.25800
H  15.51400 -3.12800 32.79500
H  14.69200 -1.63800 32.65300
H  15.65200 -2.53900 34.81400
H  15.47400 -0.83500 34.47200
H  20.23000 -6.42600 29.21500
H  20.91700 -6.84800 27.68900
H  19.40700 -7.63200 28.17900
H  19.51000 -8.56000 26.03900
H  20.92200 -7.36000 25.69300
H  20.20800 -8.35000 24.45200
H  15.87900 -3.33700 22.31200
H  15.67100 -0.37700 22.65800
H  17.72500 -2.47600 21.01500
H  18.46600 -2.48600 22.54400
H  17.80600 -0.98700 21.93700
H  14.03900 -2.03800 21.33900
H  13.50300 -0.60800 22.14100
H  12.13900 -1.81200 23.61100
H  13.34500 -3.01800 23.69400
H  12.30700 -3.03300 22.33400
H  12.29600 1.68700 25.85100
H  13.63400 2.92600 25.85800
H  12.27900 2.82600 27.08800
H  14.03800 0.11400 31.51600
H  16.83600 2.19500 34.23200
H  15.15600 2.85800 34.55100
H  16.16100 3.49300 33.21900
Mg 29.60800 57.54500 41.01900
C  26.65400 55.71100 39.91500
C  31.45100 55.16800 39.58400
C  32.00400 59.65200 41.38300
C  27.20100 60.12100 41.97900
N  29.03400 55.76400 39.70900
C  27.78100 55.19800 39.41700
C  28.00400 53.87200 38.67100
C  29.52700 53.57700 38.89900
C  30.03400 54.90800 39.41600
C  29.83700 52.37100 39.91500
C  27.59600 53.68400 37.13100
C  27.13800 54.95600 36.38900
H  27.50300 55.08700 34.86200
N  31.49600 57.45200 40.52300
C  32.12100 56.33900 40.00700
C  33.48800 56.72800 39.76100
C  33.72500 58.04100 40.35800
C  32.38900 58.44200 40.86100
C  34.44000 55.84900 39.01400
C  35.03300 58.77100 40.43600
O  36.01500 58.17700 40.03200
C  35.22500 60.19800 40.99200
N  29.54700 59.54500 41.61900
C  30.73400 60.22300 41.73400
C  30.55400 61.72100 41.86000
C  29.15600 61.77600 42.33100
C  28.57500 60.40800 42.03700
C  31.69000 62.39900 42.75900
C  28.32500 63.03100 41.81800
C  28.37400 64.12000 42.89700
N  27.42100 57.83700 41.16700
C  26.60800 58.92200 41.61600
C  25.15300 58.62800 41.50000
C  25.21200 57.36400 40.86800
C  26.58500 56.94800 40.69500
C  23.97900 59.37300 41.81600
C  24.28400 56.32400 40.37400
O  23.07600 56.14600 40.51800
C  25.20300 55.23800 39.75500
C  24.78400 53.95100 40.43400
O  24.79500 53.73000 41.64800
O  24.38200 53.18000 39.41900
C  24.14300 51.75700 39.58300
H  32.12900 54.37900 39.25200
H  32.72600 60.45400 41.21700
H  26.54000 60.94400 42.26100
H  27.54500 53.05100 39.22200
H  30.11200 53.39400 37.99800
H  28.94600 51.75700 40.04900
H  30.26100 52.86700 40.78800
H  30.65700 51.80800 39.47000
H  26.63700 53.16700 37.16800
H  28.34000 53.12300 36.56600
H  27.66300 55.77400 36.88200
H  26.06200 54.99600 36.55700
H  35.13000 55.62100 39.82600
H  34.95300 56.42300 38.24200
H  34.15600 54.87300 38.62000
H  34.88000 60.82800 40.17200
H  36.28000 60.39900 41.18200
H  34.73800 60.37900 41.95000
H  30.54300 62.22800 40.89500
H  29.06400 61.62300 43.40700
H  32.07900 61.68600 43.48500
H  31.30100 63.24700 43.32200
H  32.43300 62.91000 42.14500
H  27.26000 62.85600 41.66700
H  28.70100 63.49700 40.90700
H  27.37400 64.07600 43.32900
H  28.78000 65.07000 42.55100
H  29.09000 63.91700 43.69400
H  23.95100 60.34100 41.31500
H  24.10300 59.55700 42.88300
H  23.05500 58.86100 41.54600
H  24.93700 55.13300 38.70300
H  24.42200 51.17000 38.70800
H  23.05400 51.72600 39.56800
H  24.58800 51.37800 40.50400

