158

Mg 40.80700 9.54600 29.83100
C  42.37500 10.19100 32.95000
C  38.23800 7.81700 31.76100
C  39.38900 8.62800 27.06700
C  43.48200 10.92600 28.19200
N  40.37900 9.18800 32.09400
C  41.09500 9.69000 33.13300
C  40.35400 9.60700 34.46600
C  39.23700 8.55800 34.07300
C  39.25400 8.49700 32.49700
C  39.52300 7.17600 34.57000
C  39.80400 10.99000 34.89700
C  39.48700 11.00400 36.35300
H  40.43500 11.77800 37.26600
N  38.98200 8.47600 29.43900
C  38.09500 7.81200 30.30500
C  36.97400 7.35700 29.57100
C  37.15000 7.67300 28.17600
C  38.57000 8.27000 28.14600
C  35.79000 6.58000 30.16000
C  36.24200 7.43500 26.87500
O  36.64800 7.74000 25.76700
C  34.83000 6.85400 27.03700
N  41.31700 9.74300 27.99500
C  40.58900 9.27500 26.96300
C  41.30000 9.25400 25.60100
C  42.48900 10.21000 25.93200
C  42.46900 10.35200 27.48700
C  41.78900 7.85100 25.11500
C  42.37200 11.62600 25.26800
C  40.96800 12.30500 25.27700
N  42.69000 10.28700 30.42600
C  43.69000 10.79900 29.59600
C  44.73900 11.38700 30.41800
C  44.20000 11.20600 31.79500
C  42.94800 10.55500 31.72400
C  45.97300 12.18800 30.05000
C  44.46600 11.57800 33.14300
O  45.39700 12.22400 33.59400
C  43.35000 10.91200 33.99600
C  44.09800 9.91500 34.84500
O  44.39300 8.81500 34.54100
O  44.52100 10.50500 36.03200
C  45.10300 9.58400 37.02300
H  37.45200 7.31000 32.32500
H  38.95700 8.25800 26.13500
H  44.38000 11.32900 27.72000
H  41.06200 9.24500 35.21300
H  38.22800 8.86900 34.34400
H  40.26100 6.72400 33.90800
H  38.60400 6.58900 34.56600
H  39.89800 7.30100 35.58600
H  38.92000 11.22300 34.30300
H  40.58100 11.73700 34.73000
H  39.44200 9.99500 36.76300
H  38.48400 11.38000 36.55600
H  36.03800 5.55400 29.88800
H  34.83000 6.90100 29.75600
H  35.72800 6.70100 31.24100
H  34.21400 6.90100 26.13900
H  34.39800 7.46100 27.83300
H  35.02700 5.83200 27.36200
H  40.68300 9.72400 24.83600
H  43.39100 9.65900 25.66600
H  42.82300 7.61800 25.37100
H  41.59600 7.78400 24.04400
H  41.11100 7.10300 25.52500
H  42.78700 11.66400 24.26100
H  43.07100 12.27400 25.79500
H  40.54100 12.29000 24.27400
H  41.16400 13.34900 25.52200
H  40.23100 11.98600 26.01400
H  46.67700 11.57800 29.48400
H  46.36900 12.36000 31.05100
H  45.60600 13.03400 29.47000
H  42.88500 11.70300 34.58500
H  44.66100 8.58800 36.99000
H  44.94600 10.03700 38.00200
H  46.18000 9.43000 36.96300
Mg 27.29900 49.67400 26.92000
C  25.33800 50.70100 29.54400
C  29.82300 49.06300 29.13900
C  29.23200 48.89800 24.33100
C  24.74500 50.64500 24.69400
N  27.56400 50.01400 29.14100
C  26.60000 50.33400 30.03600
C  27.03200 50.06400 31.50300
C  28.56000 49.79100 31.29400
C  28.68200 49.67000 29.77600
C  29.59600 50.75400 31.93700
C  26.24100 48.86000 32.22300
C  25.49000 49.21100 33.44600
H  26.29400 49.49300 34.75900
N  29.29800 49.04800 26.73600
C  30.15200 48.82600 27.78500
C  31.42500 48.41200 27.24900
C  31.29900 48.58600 25.84900
C  29.91600 48.87200 25.55500
C  32.58300 47.94200 28.09000
C  32.40000 48.45100 24.75800
O  32.24600 48.58800 23.54300
C  33.71700 47.99800 25.16700
N  26.97200 49.84900 24.80700
C  27.97300 49.40200 23.97800
C  27.51600 49.33100 22.54000
C  26.00600 49.65300 22.68700
C  25.95100 50.20800 24.07200
C  28.21600 50.32800 21.60100
C  25.01300 48.49600 22.44400
C  25.14800 47.17100 23.29700
N  25.46100 50.48500 27.06000
C  24.47500 50.74100 26.07800
C  23.32700 51.36700 26.70700
C  23.61200 51.34900 28.08100
C  24.91300 50.79600 28.20600
C  22.03700 51.81800 26.00900
C  23.07900 51.69900 29.36600
O  22.11000 52.36700 29.63900
C  24.15300 51.13400 30.41100
C  24.36500 52.17700 31.50600
O  25.22000 53.06200 31.49400
O  23.61800 51.90500 32.61000
C  23.86500 52.77300 33.76600
H  30.66900 48.75900 29.76000
H  29.81400 48.50200 23.49600
H  24.04100 50.94800 23.91600
H  26.92000 50.98300 32.07900
H  28.87700 48.86500 31.77300
H  30.33300 50.24500 32.55800
H  29.00100 51.36400 32.61700
H  30.13100 51.34100 31.19100
H  26.99500 48.20200 32.65400
H  25.72000 48.10200 31.63700
H  24.70100 48.46400 33.54000
H  24.98900 50.15400 33.22800
H  33.44400 48.58500 27.90300
H  32.77200 46.90400 27.81800
H  32.34200 47.79900 29.14400
H  34.24500 48.69900 25.81300
H  34.30500 47.79200 24.27200
H  33.73600 47.07500 25.74700
H  27.69100 48.30300 22.22300
H  25.63800 50.42900 22.01500
H  27.41700 50.86200 21.08800
H  28.99600 49.91800 20.96000
H  28.66600 51.01400 22.31900
H  25.10100 48.28900 21.37800
H  24.00800 48.85200 22.66900
H  26.16900 46.81600 23.43700
H  24.52000 46.43200 22.79900
H  24.75000 47.39800 24.28700
H  22.03000 52.90500 25.93800
H  21.08300 51.61000 26.49300
H  21.91800 51.35100 25.03100
H  23.59300 50.32000 30.87100
H  23.00600 53.41500 33.95600
H  24.82200 53.29100 33.82300
H  23.96600 52.11900 34.63200

