158

Mg 1.94700 -2.15900 42.77900
C  5.31500 -1.88500 42.22500
C  1.50400 0.95900 41.32500
C  -1.27400 -2.90200 42.39700
C  2.60500 -5.60300 43.54000
N  3.31500 -0.76100 41.66000
C  4.65900 -0.79100 41.75200
C  5.24100 0.40800 41.10500
C  4.10500 1.44900 41.06200
C  2.86800 0.55200 41.39700
C  4.31700 2.70000 41.97700
C  6.11300 0.33400 39.78400
C  5.58600 -0.70000 38.80700
H  5.24400 -0.29000 37.38700
N  0.37400 -1.10400 41.98600
C  0.33500 0.22400 41.38200
C  -1.02900 0.56000 41.12000
C  -1.88100 -0.49900 41.52400
C  -0.93600 -1.53800 42.05200
C  -1.53100 1.99600 40.71100
C  -3.46100 -0.50900 41.69800
O  -4.13500 0.41300 41.26600
C  -4.15700 -1.58000 42.35200
N  0.83500 -3.92500 42.92500
C  -0.51000 -3.99300 42.82000
C  -1.13000 -5.34400 42.99200
C  0.13400 -6.20400 43.36200
C  1.28100 -5.18700 43.30200
C  -2.27800 -5.39100 44.01300
C  0.44900 -7.43400 42.56500
C  0.52500 -8.79800 43.34900
N  3.59600 -3.44600 43.21300
C  3.73200 -4.78000 43.44000
C  5.07800 -5.16500 43.71400
C  5.79400 -4.06800 43.23200
C  4.76200 -3.05600 42.86400
C  5.46200 -6.55600 44.21700
C  7.08800 -3.54000 42.97800
O  8.26300 -3.86300 43.07400
C  6.82500 -2.15200 42.18900
C  7.68800 -1.04800 42.91600
O  8.84500 -0.76500 42.62300
O  7.02400 -0.48000 43.89800
C  7.47800 0.80100 44.36500
H  1.40700 2.01400 41.06000
H  -2.27900 -3.32400 42.32100
H  2.72500 -6.61800 43.92500
H  5.90200 0.81300 41.87200
H  3.95800 1.78500 40.03500
H  5.26700 2.72000 42.51100
H  3.61000 2.62200 42.80200
H  4.01400 3.65500 41.54700
H  7.16100 0.16500 40.02800
H  6.00500 1.26300 39.22400
H  4.75900 -1.28200 39.21400
H  6.31600 -1.50700 38.74500
H  -2.45400 2.25000 41.23200
H  -1.73400 1.87200 39.64700
H  -0.74500 2.74500 40.80300
H  -5.18900 -1.30700 42.57000
H  -3.71300 -1.91400 43.29000
H  -4.04100 -2.36100 41.60000
H  -1.46100 -5.75900 42.04000
H  0.08000 -6.58100 44.38300
H  -3.01900 -6.00500 43.50100
H  -2.63300 -4.37100 44.16000
H  -1.97900 -5.92400 44.91600
H  1.40400 -7.23300 42.07900
H  -0.29500 -7.60300 41.78700
H  1.51700 -9.01800 43.74500
H  0.03400 -9.58900 42.78300
H  -0.10500 -8.75000 44.23700
H  5.70600 -7.27800 43.43800
H  4.76200 -6.95700 44.95000
H  6.39300 -6.36300 44.75000
H  7.15600 -2.34900 41.16900
H  7.75300 0.64700 45.40900
H  6.75100 1.60700 44.27300
H  8.44200 1.14600 43.99200
Mg 24.71700 -5.76200 46.17200
C  26.51700 -2.96000 45.09200
C  22.10400 -4.60500 44.02200
C  23.22300 -8.60100 46.67600
C  27.63400 -6.98700 47.82100
N  24.47200 -4.02800 44.65200
C  25.30700 -3.05000 44.38400
C  24.73300 -2.07500 43.32700
C  23.22000 -2.34000 43.52300
C  23.27400 -3.74500 44.11400
C  22.37500 -1.37600 44.45700
C  25.35600 -2.61700 41.98400
C  25.65200 -1.55400 40.88200
H  25.27100 -1.95300 39.46200
N  22.85600 -6.51200 45.50300
C  22.00900 -5.91200 44.63600
C  20.92100 -6.86400 44.40700
C  21.16400 -8.03400 45.16700
C  22.44800 -7.73800 45.87600
C  19.70400 -6.47400 43.65700
C  20.37900 -9.30000 45.12600
O  19.44600 -9.21700 44.32000
C  20.65200 -10.47300 45.92100
N  25.35400 -7.57800 47.05200
C  24.45300 -8.54800 47.23700
C  25.12500 -9.76300 47.91500
C  26.49700 -9.12100 48.40400
C  26.57700 -7.82500 47.64600
C  24.37700 -10.49100 49.04300
C  27.76100 -10.00200 48.23000
C  28.62300 -9.82700 46.94900
N  26.60800 -5.12300 46.51800
C  27.71800 -5.71900 47.18200
C  28.83200 -4.81400 47.05000
C  28.44600 -3.75500 46.21600
C  27.06500 -3.89500 46.00500
C  30.20900 -4.99700 47.70300
C  28.92100 -2.59300 45.50900
O  29.99000 -1.99000 45.56400
C  27.64900 -2.01400 44.76200
C  27.33600 -0.66400 45.17200
O  26.42900 -0.25300 45.81300
O  28.31100 0.10100 44.65100
C  28.15500 1.46100 45.03900
H  21.31800 -4.24400 43.35600
H  22.77800 -9.58200 46.85800
H  28.54000 -7.31300 48.33700
H  25.06500 -1.05100 43.49400
H  22.65900 -2.31500 42.58900
H  21.70100 -1.87300 45.15600
H  21.70100 -0.75200 43.87000
H  23.01900 -0.70500 45.02400
H  24.54500 -3.18000 41.52200
H  26.29800 -3.16500 42.01300
H  26.71700 -1.32500 40.86700
H  25.02200 -0.68400 41.07000
H  18.80900 -6.84600 44.15600
H  19.84600 -6.77900 42.62000
H  19.60100 -5.39200 43.73300
H  19.81300 -11.15500 45.78300
H  20.79100 -10.16200 46.95600
H  21.56700 -10.85200 45.46700
H  25.43000 -10.53200 47.20400
H  26.56100 -8.90000 49.47000
H  24.17900 -11.51600 48.73000
H  23.41400 -10.04700 49.29200
H  24.90700 -10.41200 49.99300
H  27.34300 -11.00600 48.15000
H  28.30700 -9.95800 49.17300
H  28.76500 -10.80400 46.48700
H  29.62200 -9.48800 47.22600
H  28.24400 -9.11300 46.21800
H  30.09400 -5.22500 48.76300
H  30.82300 -4.09900 47.64800
H  30.83500 -5.74200 47.21200
H  27.65100 -2.16400 43.68200
H  28.93500 2.05300 44.56000
H  28.13000 1.48300 46.12800
H  27.22800 1.94700 44.73400

