158

Mg 1.77300 8.12400 25.29700
C  2.44700 9.93400 28.10800
C  1.66900 5.32300 27.05800
C  1.58800 6.48800 22.38600
C  1.75800 11.20300 23.37600
N  2.21900 7.66200 27.35400
C  2.25000 8.54500 28.38900
C  2.15000 7.90500 29.80200
C  2.08100 6.40800 29.34300
C  1.98000 6.43800 27.81600
C  3.22300 5.51100 29.83500
C  0.83200 8.36000 30.63100
C  0.93400 8.42500 32.21400
H  2.02400 7.59000 32.86800
N  1.63400 6.17800 24.77300
C  1.52800 5.17300 25.66900
C  1.26300 3.91700 24.92800
C  1.30800 4.22400 23.58600
C  1.58600 5.70000 23.54900
C  0.90400 2.60800 25.66300
C  1.00700 3.39600 22.41100
O  0.85700 3.80200 21.22200
C  0.94600 1.87200 22.55800
N  1.71300 8.75800 23.16100
C  1.65300 7.83500 22.18800
C  1.52400 8.49100 20.78600
C  1.36600 9.97900 21.15200
C  1.65900 10.00600 22.65400
C  2.74400 8.19000 19.86100
C  -0.05200 10.60500 20.81900
C  0.02300 11.50500 19.58400
N  1.97900 10.18900 25.59100
C  2.03400 11.31500 24.72400
C  2.22100 12.51600 25.57800
C  2.43100 11.99400 26.86100
C  2.32400 10.59300 26.85400
C  2.18500 13.94200 25.06900
C  2.73000 12.36600 28.27700
O  3.01800 13.44800 28.76000
C  2.72400 11.00700 29.10600
C  3.92500 10.91100 29.94500
O  4.99900 10.42500 29.54800
O  3.67500 11.32900 31.27000
C  4.86400 11.47500 32.15600
H  1.61900 4.40400 27.64600
H  1.64400 5.91800 21.45600
H  1.84300 12.15300 22.84400
H  3.04500 8.03100 30.41200
H  1.15900 5.96500 29.71900
H  2.98300 4.54500 30.28000
H  3.75300 6.02500 30.63600
H  3.93700 5.44000 29.01400
H  -0.00000 7.67900 30.45300
H  0.50300 9.29500 30.17800
H  -0.02500 8.07400 32.59400
H  1.15500 9.46700 32.44500
H  -0.14400 2.44300 25.41000
H  0.76300 2.63700 26.74400
H  1.54000 1.80700 25.28800
H  1.77400 1.37400 23.06400
H  0.91400 1.34200 21.60700
H  0.05400 1.53200 23.08400
H  0.64800 8.11400 20.25800
H  2.17900 10.55500 20.71100
H  2.58000 7.35400 19.18100
H  3.64700 8.03300 20.45100
H  2.88900 9.02000 19.16900
H  -0.29000 11.20500 21.69700
H  -0.87000 9.92700 20.57600
H  0.89700 11.42800 18.93700
H  0.02800 12.49500 20.03900
H  -0.88800 11.48000 18.98600
H  1.49700 13.97600 24.22500
H  3.16900 14.22200 24.69200
H  1.80400 14.64600 25.81000
H  1.78400 11.10900 29.64900
H  4.69200 12.32600 32.81400
H  5.81800 11.58000 31.63900
H  4.92900 10.55000 32.73000
Mg 35.76800 0.49500 29.33200
C  33.53400 1.22500 31.80400
C  38.18300 0.25400 31.65800
C  37.96700 -0.27000 26.90300
C  33.25000 0.74400 26.81200
N  35.85700 0.76700 31.34500
C  34.85000 1.01000 32.24700
C  35.35700 1.19200 33.73000
C  36.87800 1.17300 33.55900
C  37.00400 0.69500 32.07600
C  37.69100 2.53000 33.81500
C  34.88000 -0.06200 34.60400
C  34.74500 0.17600 36.17600
H  35.38300 1.41700 36.67400
N  37.81000 0.02300 29.29600
C  38.61800 -0.07200 30.34400
C  39.93900 -0.56400 29.93100
C  39.85300 -0.64500 28.47100
C  38.53000 -0.28600 28.14200
C  41.00700 -0.97100 30.85400
C  40.86900 -1.20700 27.48500
O  40.62800 -1.42600 26.32300
C  42.27700 -1.82700 28.01700
N  35.56600 0.26800 27.17800
C  36.71100 0.01600 26.40700
C  36.32600 -0.11200 24.92900
C  34.85400 0.37400 24.92200
C  34.44200 0.32500 26.36500
C  37.17100 0.79100 24.02100
C  34.00600 -0.59800 24.12400
C  32.96500 -1.50000 24.72400
N  33.79200 0.96400 29.28600
C  32.91800 1.04100 28.21400
C  31.61000 1.40800 28.75400
C  31.79800 1.45700 30.18700
C  33.15200 1.21300 30.44900
C  30.40200 1.40100 27.96900
C  31.09800 1.54500 31.47700
O  29.95200 1.54300 31.78800
C  32.27900 1.60700 32.56500
C  32.23600 2.98100 33.23500
O  32.43300 4.01200 32.58400
O  32.13700 2.87800 34.55600
C  32.14000 4.06900 35.43200
H  38.90300 0.15300 32.47200
H  38.65800 -0.50000 26.09000
H  32.52000 0.86000 26.00800
H  34.98600 2.13600 34.13000
H  37.34600 0.53100 34.30600
H  37.13700 3.15700 34.51300
H  37.69400 2.93300 32.80300
H  38.67000 2.26100 34.21200
H  35.50900 -0.94400 34.48600
H  33.93500 -0.31300 34.12300
H  35.26900 -0.69500 36.57200
H  33.70000 0.23900 36.47900
H  41.99400 -0.59800 30.57900
H  41.00400 -2.05700 30.76400
H  40.81500 -0.45200 31.79300
H  42.80800 -1.09100 28.62100
H  42.79800 -1.93300 27.06500
H  42.01600 -2.73500 28.56000
H  36.44900 -1.19100 24.84400
H  34.61800 1.33400 24.46400
H  36.48200 1.50600 23.57000
H  37.48100 0.27400 23.11300
H  38.08000 1.14400 24.50800
H  34.72200 -1.04300 23.43400
H  33.37500 -0.08800 23.39600
H  31.92800 -1.22600 24.52800
H  33.18800 -1.76300 25.75800
H  33.05100 -2.41700 24.14100
H  30.26300 0.52400 27.33600
H  30.27600 2.15800 27.19600
H  29.51900 1.52600 28.59600
H  32.09200 0.91500 33.38600
H  32.81700 4.88200 35.16900
H  32.38200 3.77600 36.45300
H  31.12500 4.46500 35.45900

