158

Mg 30.79700 58.39100 40.10900
C  27.98300 56.36300 39.46300
C  32.83800 55.91900 38.60200
C  33.43200 60.59100 40.06100
C  28.65500 60.96900 40.97800
N  30.39100 56.46200 38.96700
C  29.20800 55.77200 38.98400
C  29.37200 54.30600 38.43600
C  30.96200 54.11900 38.39100
C  31.46200 55.60400 38.69100
C  31.49400 53.04200 39.41600
C  28.64100 53.91900 37.10700
C  29.13700 54.95700 36.03000
H  28.11700 55.52900 34.96600
N  32.88300 58.26100 39.45100
C  33.53400 57.13300 38.96700
C  34.98300 57.40500 38.95000
C  35.14800 58.80700 39.38900
C  33.78100 59.32100 39.58900
C  36.04400 56.36700 38.61300
C  36.51700 59.53900 39.50800
O  37.52800 58.88700 39.36900
C  36.61400 61.00300 39.78300
N  31.00500 60.64400 40.31300
C  32.23000 61.21400 40.50300
C  32.09800 62.67500 40.96700
C  30.57700 62.72400 41.38500
C  30.01100 61.34400 40.93900
C  33.16700 63.29200 41.99100
C  29.73300 63.94000 40.94700
C  29.01600 64.64800 42.07500
N  28.77700 58.65000 40.26500
C  27.99900 59.74700 40.58600
C  26.62700 59.35500 40.75800
C  26.57900 58.04600 40.35600
C  27.87900 57.69700 39.98600
C  25.44200 60.19200 41.20500
C  25.68900 56.88100 40.09400
O  24.50900 56.74100 40.38700
C  26.49800 55.82700 39.33900
C  26.32600 54.54900 39.96200
O  26.76100 54.15800 40.98000
O  25.44300 53.76800 39.19500
C  25.45100 52.31700 39.48800
H  33.51400 55.08700 38.39600
H  34.27400 61.28500 40.10700
H  28.11300 61.63600 41.65200
H  28.88900 53.72100 39.21900
H  31.23500 53.80700 37.38300
H  32.10400 52.35900 38.82500
H  30.70100 52.48600 39.91700
H  32.03900 53.56900 40.19900
H  27.57100 53.79800 37.27500
H  29.05700 52.98000 36.74100
H  29.89300 54.46500 35.41800
H  29.46000 55.89600 36.47800
H  36.84400 56.87100 38.06900
H  35.64400 55.60900 37.94000
H  36.45200 55.92800 39.52300
H  36.25600 61.48700 38.87500
H  37.64600 61.31300 39.95000
H  36.06000 61.34000 40.65900
H  32.19700 63.38800 40.14900
H  30.48200 62.65700 42.46900
H  32.70200 63.82500 42.82000
H  33.84900 63.92800 41.42800
H  33.69900 62.41300 42.35600
H  29.02600 63.65100 40.17000
H  30.50300 64.55200 40.47800
H  29.13500 65.72900 42.00900
H  29.23300 64.30000 43.08500
H  27.97400 64.37700 41.90300
H  25.69300 60.83100 42.05100
H  24.57400 59.54900 41.35200
H  25.29000 60.95900 40.44500
H  25.88800 55.81400 38.43600
H  25.56500 51.89300 38.49000
H  24.46500 52.04800 39.86700
H  26.19900 52.00900 40.21900
Mg -1.95600 33.80900 26.96300
C  -3.76500 32.06200 29.45500
C  -0.73300 35.90000 29.31700
C  -0.67500 35.54700 24.47100
C  -3.93700 31.97800 24.62000
N  -2.42000 34.12600 29.17400
C  -2.90100 33.11400 29.92300
C  -2.70500 33.45000 31.43500
C  -1.98900 34.79700 31.39200
C  -1.65600 34.95700 29.88200
C  -2.82700 35.92100 31.97900
C  -1.87000 32.28400 32.18300
C  -2.52600 31.89500 33.60600
H  -1.49700 31.95200 34.77700
N  -0.76400 35.37100 26.92700
C  -0.31700 36.07400 27.96200
C  0.69500 37.02100 27.49700
C  0.69200 36.97300 26.10100
C  -0.27400 35.87800 25.75500
C  1.46600 37.91200 28.48600
C  1.47100 37.78600 25.09100
O  1.47800 37.51800 23.92700
C  2.29700 39.04000 25.52300
N  -2.25000 33.72600 24.80100
C  -1.56200 34.52300 23.99500
C  -2.13600 34.44200 22.57100
C  -2.99800 33.13500 22.62200
C  -3.09700 32.89100 24.10500
C  -2.96600 35.66900 22.13700
C  -2.30000 31.99300 21.79800
C  -1.27200 31.04900 22.50200
N  -3.49400 32.36600 26.97600
C  -4.09600 31.64400 25.95900
C  -4.87700 30.53600 26.46600
C  -4.77200 30.63600 27.90800
C  -3.93500 31.76100 28.09600
C  -5.49000 29.42900 25.59400
C  -5.26500 30.18700 29.23200
O  -6.11200 29.37500 29.51300
C  -4.44200 31.00600 30.27100
C  -5.39500 31.54200 31.19300
O  -6.16300 32.45700 30.98900
O  -5.46800 30.74100 32.34100
C  -6.47700 30.90200 33.40000
H  -0.23500 36.55300 30.03700
H  -0.33600 36.28900 23.74400
H  -4.50600 31.57100 23.78200
H  -3.70100 33.63900 31.83300
H  -1.04300 34.89900 31.92500
H  -3.65800 35.57900 32.59500
H  -3.32500 36.41200 31.14300
H  -2.16300 36.60200 32.51100
H  -0.83900 32.63400 32.24900
H  -1.75500 31.36300 31.61100
H  -2.78300 30.83800 33.68300
H  -3.34800 32.57200 33.84000
H  1.31900 38.96600 28.25100
H  2.51600 37.62100 28.46500
H  1.13800 37.70700 29.50500
H  2.89000 39.41800 24.69000
H  2.96000 38.62000 26.28000
H  1.71000 39.83100 25.98800
H  -1.28100 34.32800 21.90400
H  -4.04100 33.31600 22.36300
H  -2.59300 36.12900 21.22300
H  -3.08200 36.47700 22.86000
H  -4.01000 35.45800 21.90200
H  -1.95000 32.42200 20.85900
H  -3.10300 31.38000 21.38800
H  -1.62500 30.82500 23.50800
H  -0.26800 31.47500 22.48600
H  -1.39700 30.09000 21.99900
H  -4.76500 29.23100 24.80400
H  -6.37700 29.86100 25.13000
H  -5.65800 28.47300 26.09100
H  -3.74800 30.31900 30.75500
H  -7.19000 31.71900 33.29200
H  -5.97400 31.12000 34.34200
H  -6.98200 29.96100 33.62200

