158

Mg 26.00100 1.58200 29.91000
C  28.16900 1.21300 32.45100
C  23.44100 1.75900 32.28700
C  23.65900 1.57300 27.44700
C  28.35500 0.77800 27.62800
N  25.75100 1.29500 32.21500
C  26.87000 1.36200 32.97400
C  26.55300 1.62700 34.44700
C  24.98500 1.40600 34.40600
C  24.65800 1.53300 32.88200
C  24.39300 0.01700 34.94800
C  27.04400 2.98400 34.99700
C  27.02100 2.98200 36.55500
H  26.21900 4.09800 37.26000
N  23.85500 1.65100 29.85100
C  23.01300 1.73300 30.90600
C  21.65100 1.83900 30.47400
C  21.62300 1.68600 29.03700
C  23.03800 1.65800 28.74800
C  20.48400 2.06200 31.37900
C  20.45600 1.58900 28.05000
O  20.61200 1.38900 26.85800
C  19.08200 1.90600 28.48900
N  26.00600 1.31900 27.84500
C  24.98400 1.58300 27.04300
C  25.39000 1.50800 25.63100
C  26.88200 1.32700 25.65500
C  27.10000 1.01000 27.11900
C  24.63700 0.43900 24.68700
C  27.89000 2.42400 25.21200
C  27.65400 3.89900 25.59300
N  27.86100 1.05300 29.97500
C  28.75800 0.79500 28.99400
C  30.11100 0.54800 29.56800
C  29.90800 0.81100 30.95500
C  28.55300 1.06600 31.11800
C  31.34400 0.20800 28.76500
C  30.53600 0.81100 32.26000
O  31.66600 0.49500 32.58400
C  29.42400 1.21600 33.26900
C  29.37800 0.22100 34.42700
O  28.90000 -0.89100 34.33900
O  29.84100 0.79400 35.54300
C  29.63600 0.17600 36.88300
H  22.61200 1.99000 32.96000
H  22.94100 1.73000 26.64000
H  29.07400 0.57200 26.83200
H  26.91200 0.83300 35.10100
H  24.47600 2.15300 35.01600
H  25.15900 -0.75200 34.84500
H  23.57100 -0.30300 34.30800
H  23.98600 -0.01500 35.95800
H  26.40000 3.80600 34.68400
H  28.06300 3.14800 34.64600
H  28.02100 3.19000 36.93700
H  26.60900 2.02100 36.86300
H  19.83200 1.26900 31.01000
H  20.08000 3.05100 31.16200
H  20.70200 1.91200 32.43600
H  18.87100 0.95000 28.96900
H  18.45800 2.01600 27.60200
H  18.90000 2.74200 29.16400
H  25.23400 2.49500 25.19600
H  27.17400 0.39200 25.17700
H  23.66800 0.26400 25.15400
H  25.33600 -0.39300 24.60600
H  24.54000 0.96500 23.73700
H  27.82200 2.22200 24.14300
H  28.91000 2.14500 25.47500
H  27.07200 4.09000 26.49500
H  27.33100 4.34100 24.65100
H  28.66200 4.29300 25.73000
H  31.11000 -0.17100 27.77100
H  31.88400 -0.57300 29.30000
H  31.93900 1.11600 28.67200
H  29.64400 2.23500 33.58700
H  29.72600 -0.91000 36.88500
H  28.63700 0.39700 37.25900
H  30.32700 0.63400 37.59100
Mg 45.28900 5.03500 48.12300
C  43.40000 7.90100 47.31600
C  42.65400 3.13200 47.02100
C  47.41400 2.32000 48.02300
C  48.13200 7.11400 48.23900
N  43.23100 5.52200 47.30000
C  42.63600 6.78200 47.15600
C  41.14300 6.59800 46.86100
C  40.91400 5.02100 46.97100
C  42.39000 4.47900 47.00500
C  39.95700 4.44700 48.04300
C  40.51800 7.25300 45.57800
C  41.35800 7.14500 44.29300
H  41.44400 8.37400 43.29400
N  44.95400 2.98200 47.77800
C  43.84200 2.40900 47.28400
C  44.03300 1.02100 47.22400
C  45.37900 0.73000 47.58400
C  45.99900 1.98800 47.81900
C  42.96800 0.05700 46.82900
C  45.99400 -0.70000 47.66100
O  45.44000 -1.71100 47.28200
C  47.38300 -0.91300 48.23900
N  47.47700 4.74100 47.92900
C  48.04900 3.54400 48.19500
C  49.41300 3.62300 48.77400
C  49.73100 5.10000 48.65900
C  48.33100 5.71700 48.35200
C  49.59700 3.03700 50.16000
C  50.62400 5.47200 47.44400
C  52.12300 5.21500 47.60600
N  45.73300 7.10300 48.01900
C  46.92500 7.78300 48.05500
C  46.67400 9.25100 47.78500
C  45.25700 9.33500 47.56800
C  44.74100 8.00400 47.72700
C  47.62900 10.40600 47.67500
C  44.19000 10.22600 47.24200
O  44.18000 11.44300 47.09100
C  42.95200 9.37000 47.10200
C  41.97200 9.77000 48.06600
O  41.79600 9.29100 49.16200
O  41.13900 10.70700 47.46900
C  40.01300 11.13500 48.32900
H  41.77700 2.59800 46.64900
H  48.06000 1.46800 48.24600
H  48.99400 7.78400 48.25800
H  40.61900 7.04800 47.70300
H  40.45800 4.63500 46.05900
H  39.39600 5.18000 48.62300
H  40.54000 3.93300 48.80700
H  39.31400 3.64600 47.67800
H  40.20100 8.26500 45.82900
H  39.65800 6.63200 45.32700
H  40.94000 6.38100 43.63800
H  42.35300 6.73100 44.45900
H  43.33400 -0.41500 45.91800
H  42.04000 0.59000 46.62100
H  42.76200 -0.71200 47.57400
H  48.17200 -0.54700 47.58200
H  47.47400 -1.95700 48.53700
H  47.47200 -0.46300 49.22800
H  50.00500 3.04000 48.06900
H  50.18700 5.50700 49.56100
H  49.88400 1.98800 50.09800
H  48.73300 3.11700 50.82100
H  50.47000 3.44300 50.67100
H  50.42900 6.47600 47.06900
H  50.31200 4.82000 46.62800
H  52.76100 6.03100 47.26400
H  52.48400 4.40100 46.97700
H  52.38300 5.05000 48.65100
H  48.58700 10.20000 47.19700
H  47.85400 10.81900 48.65900
H  47.19700 11.22100 47.09500
H  42.52100 9.44100 46.10300
H  39.75400 10.37900 49.07000
H  39.15900 11.45100 47.72900
H  40.35600 12.01200 48.87800

