158

Mg 9.03200 3.96800 27.15800
C  10.04900 2.26200 30.07000
C  7.09900 6.05500 28.97500
C  7.95700 5.15000 24.26000
C  10.52900 1.24400 25.31300
N  8.64300 4.04700 29.37300
C  9.22100 3.31700 30.37600
C  8.87000 3.98500 31.79000
C  7.75200 5.02900 31.38700
C  7.83900 5.09600 29.82500
C  6.31600 4.81600 31.80700
C  10.07600 4.63800 32.56400
C  10.37900 4.10600 34.02200
H  10.86700 5.15900 35.12300
N  7.64700 5.42300 26.64800
C  6.98200 6.24000 27.55900
C  6.25800 7.28400 26.82400
C  6.53500 7.04500 25.40200
C  7.40900 5.87300 25.36000
C  5.37800 8.33400 27.49500
C  6.12700 7.87100 24.22100
O  6.53500 7.70900 23.11500
C  5.10100 8.96300 24.42000
N  9.37400 3.36100 25.05400
C  8.69500 3.97900 24.08000
C  9.13900 3.45300 22.75200
C  9.68100 2.04900 23.05700
C  9.89500 2.20600 24.57600
C  8.06800 3.32300 21.64600
C  10.96600 1.72100 22.31200
C  11.09000 0.28600 21.83100
N  10.13800 2.14400 27.51900
C  10.73500 1.21900 26.72400
C  11.48300 0.22000 27.51300
C  11.24400 0.63600 28.83600
C  10.44600 1.81700 28.79000
C  12.32800 -0.94900 27.00200
C  11.60100 0.38300 30.23000
O  12.39800 -0.40900 30.71500
C  10.87500 1.38800 31.02200
C  9.95800 0.63200 31.91200
O  8.89300 0.07200 31.57300
O  10.47000 0.74500 33.15100
C  9.74800 0.46400 34.40200
H  6.49800 6.76400 29.54700
H  7.67700 5.58900 23.30000
H  11.09600 0.49500 24.75600
H  8.34100 3.22100 32.36000
H  7.98800 5.97000 31.88400
H  5.73100 4.39400 30.99000
H  5.94000 5.80200 32.08100
H  6.36300 4.22600 32.72300
H  9.94000 5.71000 32.70700
H  10.98100 4.40300 32.00400
H  11.32300 3.56500 33.95500
H  9.56100 3.55600 34.48900
H  5.13600 7.98700 28.50000
H  4.43100 8.35100 26.95500
H  5.70100 9.37500 27.51900
H  4.29500 8.42700 24.92000
H  4.81500 9.30300 23.42500
H  5.56800 9.80400 24.93400
H  9.88400 4.18700 22.44600
H  8.98100 1.21700 22.98000
H  7.18600 3.25100 22.28300
H  8.08400 2.35600 21.14500
H  7.89100 4.21200 21.04000
H  11.85800 1.90000 22.91200
H  11.03200 2.35000 21.42400
H  11.88800 -0.32000 22.26100
H  11.21700 0.34800 20.75000
H  10.22100 -0.33700 22.04600
H  12.71500 -0.81000 25.99300
H  11.73200 -1.86200 27.00500
H  13.19500 -1.15000 27.63000
H  11.55000 2.04600 31.57000
H  10.23400 -0.08300 35.21000
H  8.84000 -0.09300 34.17300
H  9.33800 1.31600 34.94500
Mg 47.57900 24.57000 29.09400
C  48.45400 26.96400 31.53200
C  46.35500 22.60900 31.64100
C  46.77800 22.39800 26.78600
C  48.96000 26.58200 26.71000
N  47.42500 24.84400 31.32300
C  47.74800 25.88400 32.09400
C  47.30900 25.75100 33.59000
C  46.82000 24.20400 33.65500
C  46.89900 23.85000 32.14200
C  47.70100 23.31700 34.62500
C  46.15800 26.73700 33.96700
C  46.66200 27.71300 35.07900
H  47.08000 26.98100 36.41700
N  46.72300 22.69700 29.15200
C  46.25700 22.09700 30.35200
C  45.65100 20.85300 29.93600
C  45.59000 20.90200 28.47600
C  46.34300 22.05500 28.09100
C  45.06900 19.77600 30.91300
C  44.90900 19.89100 27.46300
O  45.10600 19.96000 26.23500
C  43.91600 18.84500 27.88700
N  48.09400 24.38000 27.10800
C  47.62100 23.39300 26.34300
C  48.09500 23.52300 24.87300
C  48.65500 24.98400 24.83500
C  48.57100 25.34600 26.31000
C  49.25800 22.50800 24.63400
C  47.89400 25.93000 23.97500
C  48.79500 27.01500 23.35200
N  48.53500 26.36500 29.03700
C  49.04300 27.11700 27.99600
C  49.48700 28.40700 28.39000
C  49.29800 28.33400 29.76900
C  48.72800 27.08000 30.13400
C  50.23700 29.39800 27.56900
C  49.63500 29.04400 30.97900
O  50.12000 30.15700 31.08700
C  49.04000 28.27700 32.14500
C  50.03000 27.98900 33.19800
O  50.81300 27.08800 33.31700
O  49.86300 28.98900 34.13500
C  50.62200 28.73800 35.42100
H  45.97800 21.92300 32.40200
H  46.39500 21.93600 25.87400
H  49.20600 27.27700 25.90400
H  48.26400 25.89900 34.09400
H  45.75100 24.23900 33.86800
H  48.57700 22.88700 34.13900
H  46.99100 22.58900 35.01700
H  47.98800 23.89500 35.50300
H  45.28000 26.18100 34.29600
H  45.91400 27.34200 33.09300
H  45.89600 28.48300 35.16600
H  47.53900 28.16800 34.61900
H  45.18800 18.77300 30.50200
H  44.01400 19.95600 31.12000
H  45.47200 19.92500 31.91500
H  43.11300 19.28300 28.48000
H  44.50500 18.16900 28.50700
H  43.51600 18.22000 27.08900
H  47.21700 23.20400 24.31100
H  49.72500 25.06600 24.64600
H  50.11000 23.11800 24.33500
H  48.90900 21.87600 23.81700
H  49.41500 21.98600 25.57800
H  47.03900 26.41600 24.44500
H  47.47000 25.36800 23.14300
H  48.37200 28.01900 23.40500
H  48.94700 26.76800 22.30100
H  49.83400 27.05900 23.67600
H  50.34400 30.29000 28.18600
H  49.76100 29.64000 26.61800
H  51.22000 28.99700 27.32300
H  48.11900 28.75000 32.48600
H  50.13100 27.95100 35.99300
H  50.72900 29.58700 36.09600
H  51.65800 28.44600 35.25500

