158

Mg 35.64300 48.99900 25.72900
C  35.96700 47.05200 28.62700
C  34.42100 51.54400 27.82500
C  35.15300 50.92000 23.18200
C  36.15100 46.21300 23.80100
N  35.03600 49.22500 27.91700
C  35.36000 48.23900 28.86200
C  35.24300 48.90200 30.31000
C  34.43300 50.23200 30.07100
C  34.61100 50.34400 28.52800
C  32.94100 50.28200 30.60300
C  36.71400 49.12800 30.91100
C  36.93100 48.67400 32.35900
H  35.66100 48.49700 33.25200
N  35.08000 50.96900 25.53000
C  34.65700 51.89100 26.50100
C  34.56300 53.17600 25.94100
C  34.80600 53.09900 24.57300
C  35.07400 51.62400 24.33000
C  34.14900 54.41900 26.70900
C  34.74300 54.13800 23.34700
O  34.96400 53.81100 22.18900
C  34.41500 55.60900 23.65000
N  35.40300 48.55500 23.75100
C  35.21400 49.51500 22.90900
C  35.19300 49.00400 21.42300
C  35.66900 47.48100 21.60000
C  35.82800 47.41300 23.18500
C  33.82300 49.09600 20.66800
C  37.00400 47.01500 20.92600
C  36.90000 45.76300 20.04600
N  36.11500 47.02600 26.12400
C  36.26700 46.00900 25.21000
C  36.73000 44.85400 25.97800
C  36.60700 45.18700 27.34500
C  36.19400 46.52000 27.37400
C  37.03200 43.52500 25.36600
C  36.68300 44.63200 28.70100
O  37.04200 43.54600 29.14200
C  36.23100 45.85300 29.59500
C  35.07700 45.45000 30.43700
O  33.89000 45.41400 30.03700
O  35.41800 45.13700 31.69100
C  34.37900 44.54800 32.49300
H  34.11400 52.29100 28.56000
H  34.86400 51.37900 22.23400
H  36.38800 45.35200 23.17200
H  34.61400 48.24900 30.91600
H  34.91200 51.08000 30.55900
H  32.31900 50.63500 29.78000
H  32.80100 50.83800 31.53000
H  32.58100 49.29000 30.87500
H  36.74100 50.21400 30.99300
H  37.42300 48.69800 30.20300
H  37.50600 49.37000 32.96900
H  37.30400 47.65000 32.39300
H  33.10000 54.58600 26.46700
H  34.80000 55.23300 26.38900
H  34.20800 54.25700 27.78500
H  33.38500 55.81000 23.94400
H  34.48300 56.18900 22.73000
H  35.07200 55.91300 24.46400
H  36.03200 49.48000 20.91500
H  34.86700 46.79400 21.32800
H  33.65900 48.20400 20.06200
H  33.82900 49.87600 19.90600
H  33.03600 49.20700 21.41300
H  37.68600 46.61000 21.67400
H  37.37100 47.76100 20.22100
H  37.41200 44.90900 20.48800
H  37.48700 45.92600 19.14200
H  35.83800 45.53100 19.96400
H  36.51700 42.74400 25.92500
H  38.11000 43.40400 25.26400
H  36.71800 43.55700 24.32300
H  37.03000 46.03300 30.31400
H  33.78300 43.85500 31.90000
H  33.67000 45.30300 32.83400
H  34.71100 44.05900 33.40800
Mg 6.75100 54.54400 41.39900
C  6.12900 50.98900 41.12500
C  9.79900 53.93500 40.04500
C  6.73800 57.73400 40.67000
C  3.46900 54.76900 42.68300
N  7.71100 52.66600 40.55700
C  7.39600 51.33300 40.63700
C  8.46600 50.39800 40.11300
C  9.71500 51.31300 40.26200
C  9.06900 52.70900 40.32000
C  10.63600 50.93800 41.44200
C  8.22400 49.82200 38.63300
C  7.54900 50.62700 37.55000
H  6.56500 49.82000 36.62300
N  8.08800 55.72000 40.46000
C  9.39900 55.31000 40.10400
C  10.09400 56.46700 39.65800
C  9.19500 57.57800 39.57800
C  7.90900 57.11400 40.22300
C  11.49400 56.47100 39.23000
C  9.42600 58.94500 39.06100
O  10.51800 59.27700 38.56700
C  8.44600 60.01100 39.13700
N  5.21400 56.02100 41.40900
C  5.56300 57.36600 41.23600
C  4.40800 58.31400 41.63900
C  3.48900 57.35800 42.45200
C  4.11400 55.97900 42.23100
C  4.75900 59.55600 42.44800
C  1.97000 57.48600 42.06800
C  1.14100 58.55100 42.86000
N  5.04900 53.20000 41.90300
C  3.84500 53.43600 42.51100
C  3.11000 52.23100 42.60800
C  3.95400 51.25900 42.12300
C  5.14900 51.86400 41.72300
C  1.75000 52.04500 43.11600
C  4.16000 49.87300 41.88900
O  3.38000 48.96200 42.06500
C  5.59100 49.63100 41.29900
C  5.46400 48.93200 40.02300
O  4.90200 49.38300 39.04500
O  6.04400 47.66500 40.12900
C  5.55800 46.68800 39.17000
H  10.79900 53.89400 39.60600
H  6.60000 58.79700 40.46200
H  2.48700 54.89400 43.14400
H  8.57800 49.47600 40.68300
H  10.36400 51.35200 39.38800
H  11.59900 50.79100 40.95200
H  10.39700 49.96800 41.87900
H  10.57600 51.55600 42.33800
H  7.74000 48.84700 38.68700
H  9.21600 49.54700 38.27400
H  8.26000 51.04400 36.83700
H  7.03500 51.51400 37.91900
H  11.55200 56.35600 38.14700
H  11.95000 55.62200 39.74000
H  11.93700 57.35700 39.68400
H  8.79800 60.87200 38.56800
H  8.41800 60.35300 40.17200
H  7.46600 59.75700 38.73500
H  4.00900 58.57800 40.65900
H  3.73500 57.46000 43.51000
H  5.60300 59.42200 43.12500
H  3.94500 59.96500 43.04700
H  5.11600 60.31200 41.75000
H  1.43400 56.54300 42.17500
H  1.80500 57.69800 41.01100
H  1.77800 59.14400 43.51600
H  0.31100 58.07100 43.37700
H  0.65900 59.25700 42.18300
H  1.14300 52.93200 42.93400
H  1.75000 51.89300 44.19600
H  1.32100 51.15700 42.65300
H  6.16800 48.95000 41.92400
H  5.85200 47.02000 38.17400
H  4.48400 46.84300 39.06700
H  5.77400 45.63600 39.35300

