158

Mg 17.41300 -1.81300 27.89000
C  16.32200 0.38200 30.50800
C  19.22700 -3.54800 30.15900
C  18.77400 -3.24000 25.37600
C  15.44000 0.29400 25.69000
N  17.82700 -1.47200 30.11800
C  17.12600 -0.68300 30.94100
C  17.49500 -1.07300 32.38700
C  18.64800 -2.21600 32.24400
C  18.60500 -2.45700 30.78400
C  20.02100 -1.79700 32.74500
C  16.26800 -1.50900 33.27400
C  16.17000 -1.02300 34.77700
H  17.29000 -0.37600 35.41700
N  18.77000 -3.24800 27.80900
C  19.39000 -3.91700 28.82100
C  20.07900 -5.06800 28.27000
C  19.99500 -4.94300 26.83500
C  19.15600 -3.75400 26.59600
C  20.72500 -6.08000 29.13500
C  20.57200 -5.84600 25.77400
O  20.37000 -5.65400 24.55100
C  21.40800 -7.11700 26.16500
N  17.12600 -1.50500 25.82400
C  17.85500 -2.20600 24.98500
C  17.64200 -1.77500 23.50300
C  16.48600 -0.75400 23.62700
C  16.28800 -0.64800 25.14900
C  18.88400 -1.18700 22.76000
C  15.19000 -1.11900 22.85400
C  14.07600 -1.81700 23.60300
N  16.19500 0.04600 28.01200
C  15.48500 0.69600 27.03200
C  14.78900 1.77500 27.66900
C  15.16800 1.71600 29.05700
C  16.03500 0.65600 29.19600
C  13.67900 2.66600 27.02500
C  15.00600 2.39500 30.31400
O  14.40100 3.45600 30.62600
C  15.74300 1.55800 31.33200
C  16.73300 2.46100 31.97600
O  17.70300 3.05700 31.50800
O  16.17200 2.75100 33.21900
C  16.92000 3.61800 34.08900
H  19.66300 -4.23400 30.88800
H  19.25500 -3.64800 24.48400
H  14.79800 0.83100 24.98800
H  17.90500 -0.17200 32.84500
H  18.36300 -3.15400 32.72000
H  20.10500 -0.71500 32.84400
H  20.69600 -2.16200 31.97100
H  20.37600 -2.29100 33.64900
H  16.06300 -2.57800 33.21000
H  15.36700 -1.12800 32.79300
H  15.80100 -1.95400 35.20700
H  15.32100 -0.34500 34.86400
H  20.30900 -6.98200 28.68600
H  20.36800 -6.12800 30.16300
H  21.80600 -6.09600 28.99700
H  22.34300 -7.00700 26.71500
H  21.69000 -7.47400 25.17500
H  20.72100 -7.70300 26.77600
H  17.24200 -2.70400 23.09800
H  16.93000 0.22700 23.45800
H  19.63500 -0.86800 23.48200
H  18.71300 -0.27900 22.18200
H  19.34600 -1.97600 22.16700
H  15.43400 -1.67800 21.95000
H  14.82400 -0.19400 22.40700
H  13.29600 -1.09300 23.83800
H  14.52000 -2.26700 24.49100
H  13.59000 -2.64900 23.09300
H  12.64300 2.43000 27.26800
H  13.74700 2.81600 25.94700
H  13.77200 3.69200 27.37900
H  15.03700 1.28300 32.11500
H  17.98400 3.46500 33.91000
H  16.69900 3.44700 35.14200
H  16.76600 4.66900 33.84800
Mg 27.01700 51.32900 26.74800
C  24.92000 52.29300 29.62700
C  29.35300 50.39100 28.99900
C  28.93300 50.55700 24.15700
C  24.58500 52.73700 24.67200
N  27.10600 51.50600 29.14200
C  26.11200 51.67200 30.08400
C  26.56300 51.31200 31.51300
C  28.04200 50.68000 31.26100
C  28.21400 50.87500 29.72600
C  29.15000 51.28500 32.03600
C  25.65700 50.24100 32.09800
C  26.16500 49.39100 33.32700
H  25.33600 49.24600 34.61700
N  28.90300 50.67500 26.62000
C  29.74500 50.33500 27.66400
C  31.02600 49.74500 27.19500
C  30.96400 49.84000 25.70600
C  29.54700 50.33800 25.40400
C  32.18300 49.32900 28.06600
C  32.07900 49.59200 24.69600
O  31.89600 49.86100 23.51500
C  33.33200 48.88200 25.06000
N  26.75300 51.65700 24.68500
C  27.69500 51.18100 23.74800
C  27.22500 51.46100 22.30600
C  25.70200 51.87500 22.48700
C  25.66900 52.05700 24.07300
C  28.00400 52.42900 21.40900
C  24.68800 50.84600 22.02100
C  23.28300 51.48200 21.83500
N  25.11100 52.38400 27.05700
C  24.28800 52.89800 26.03400
C  23.14300 53.48400 26.73700
C  23.28500 53.21600 28.13000
C  24.54400 52.55000 28.26900
C  21.84100 53.96500 26.04900
C  22.71400 53.35100 29.48600
O  21.72500 54.00400 29.80900
C  23.73100 52.72100 30.49600
C  24.04300 53.66900 31.57200
O  25.03200 54.40000 31.55700
O  23.13300 53.62400 32.61700
C  23.37600 54.48500 33.75900
H  30.12100 49.96600 29.64900
H  29.54800 50.43300 23.26400
H  23.65500 52.98100 24.15500
H  26.63900 52.25100 32.06200
H  27.95300 49.60100 31.38300
H  29.70900 50.57000 32.63900
H  28.63500 51.92800 32.75100
H  29.75500 51.93300 31.40200
H  25.42900 49.46300 31.36900
H  24.75700 50.80000 32.35200
H  27.16200 49.71000 33.63000
H  26.32700 48.32900 33.14300
H  32.38100 48.28000 27.84400
H  32.06300 49.59400 29.11600
H  33.00300 49.91600 27.65300
H  33.82900 48.55800 24.14500
H  32.99900 48.02700 25.64900
H  33.88200 49.61600 25.64700
H  27.28900 50.49300 21.80800
H  25.49200 52.80200 21.95400
H  29.04900 52.39700 21.71500
H  27.52400 53.40800 21.41900
H  28.00700 51.95500 20.42700
H  24.53700 50.19000 22.87900
H  24.98200 50.38700 21.07700
H  22.97100 51.69200 20.81200
H  23.29900 52.51100 22.19500
H  22.55600 50.97100 22.46800
H  21.77100 53.54000 25.04800
H  21.82800 55.05300 25.99100
H  21.07900 53.62500 26.75000
H  23.29700 51.76200 30.77900
H  23.56400 55.51600 33.46100
H  24.22900 54.24100 34.39300
H  22.56900 54.50400 34.49100

