158

Mg 41.46700 9.16500 29.86100
C  43.48500 10.32700 32.45800
C  39.20700 8.14900 32.20000
C  39.69500 7.69200 27.39100
C  43.87200 10.22200 27.57200
N  41.43200 9.23900 32.09500
C  42.26900 9.85900 32.92300
C  41.65500 9.91800 34.36200
C  40.38700 8.97900 34.24400
C  40.34100 8.83400 32.74800
C  40.50400 7.53900 34.91800
C  41.39500 11.42600 34.69300
C  40.54900 11.71600 35.99600
H  41.18700 12.56000 37.15100
N  39.72000 8.04100 29.79800
C  38.87300 7.78100 30.84800
C  37.64900 7.25200 30.30000
C  37.80900 7.00200 28.93600
C  39.14300 7.50500 28.66100
C  36.50200 6.81300 31.19500
C  36.85100 6.43800 27.82600
O  37.14700 6.11800 26.66400
C  35.42700 6.17300 28.32100
N  41.92600 8.80000 27.79000
C  40.91200 8.24400 26.97300
C  41.29700 8.37400 25.48000
C  42.51500 9.37000 25.55700
C  42.80800 9.55800 27.05400
C  41.63900 7.00600 24.73600
C  42.15200 10.72100 24.84300
C  41.36900 11.83500 25.55400
N  43.29400 10.07100 29.98500
C  44.18800 10.36000 28.97200
C  45.37900 10.89100 29.51300
C  45.17600 10.86700 30.91200
C  43.90000 10.33200 31.13600
C  46.57500 11.34100 28.77200
C  45.77200 11.20800 32.21400
O  46.85700 11.69000 32.37700
C  44.63800 10.93300 33.28300
C  45.07300 9.91100 34.24200
O  45.36800 8.74900 33.98100
O  44.84300 10.41200 35.54300
C  44.86600 9.45500 36.64100
H  38.31800 8.14400 32.83300
H  39.18700 7.39000 26.47300
H  44.63000 10.72400 26.96800
H  42.42900 9.40000 34.92900
H  39.50400 9.47600 34.64600
H  40.62100 6.69200 34.24200
H  39.62100 7.32800 35.52300
H  41.43400 7.56100 35.48600
H  40.82500 11.88600 33.88500
H  42.33900 11.95800 34.80800
H  40.18000 10.78700 36.43000
H  39.64000 12.25300 35.72600
H  36.88200 6.68100 32.20900
H  36.18400 5.80000 30.94700
H  35.62000 7.44800 31.11800
H  34.80000 5.85000 27.49000
H  34.90400 7.04800 28.70700
H  35.36200 5.40900 29.09600
H  40.40500 8.81900 25.04000
H  43.47400 9.10400 25.11400
H  41.07500 6.72700 23.84600
H  41.47200 6.16800 25.41300
H  42.69800 7.05200 24.48400
H  41.62200 10.49200 23.91800
H  43.03500 11.15900 24.37800
H  41.27200 11.57100 26.60700
H  40.35900 12.05200 25.20500
H  41.93800 12.76500 25.55100
H  47.35600 11.47000 29.52100
H  46.45700 12.25300 28.18700
H  46.96800 10.65500 28.02000
H  44.42400 11.82100 33.87700
H  44.45000 8.48900 36.35600
H  44.24900 9.88900 37.42800
H  45.83000 9.36500 37.14300
Mg -10.34200 39.88500 39.53600
C  -9.53900 36.53200 38.69800
C  -7.29000 40.80100 38.52900
C  -11.44500 43.07400 39.50400
C  -13.60000 38.84600 40.31800
N  -8.57800 38.68900 38.82100
C  -8.45200 37.34200 38.53300
C  -7.02000 37.04800 37.96100
C  -6.26600 38.41500 38.31100
C  -7.42600 39.37200 38.57300
C  -5.27300 38.37700 39.55500
C  -7.08500 36.60300 36.43900
C  -7.52800 37.66700 35.45800
H  -8.80000 37.52500 34.67500
N  -9.47700 41.71200 39.05400
C  -8.20900 41.90300 38.63200
C  -7.93700 43.28200 38.45400
C  -9.18800 43.98800 38.69900
C  -10.13300 42.90200 39.16400
C  -6.67400 43.83800 37.90900
C  -9.46200 45.48100 38.38100
O  -8.57700 46.15500 37.80000
C  -10.69700 46.30800 38.67400
N  -12.36200 40.83700 39.76600
C  -12.49000 42.17900 39.77400
C  -13.85800 42.50900 40.24700
C  -14.34400 41.20100 40.96000
C  -13.43500 40.26300 40.25200
C  -14.13300 43.87000 41.12100
C  -15.88900 40.99000 40.89000
C  -16.45200 40.42900 39.67800
N  -11.40400 38.10700 39.53100
C  -12.72800 37.83100 39.79400
C  -13.04900 36.40600 39.62700
C  -11.84400 35.90500 39.19700
C  -10.88500 36.93100 39.14300
C  -14.33100 35.75200 39.93500
C  -11.18400 34.61700 38.78200
O  -11.65600 33.49100 38.59700
C  -9.66300 35.03100 38.57000
C  -8.87000 34.34300 39.59300
O  -9.04600 34.31700 40.79500
O  -7.96100 33.50100 38.92400
C  -6.89100 32.81700 39.70600
H  -6.32300 41.21400 38.23300
H  -11.72700 44.12800 39.55400
H  -14.61000 38.47300 40.50500
H  -6.68100 36.23500 38.60300
H  -5.64900 38.63300 37.44000
H  -5.58200 38.96700 40.41800
H  -4.32300 38.64800 39.09400
H  -5.31600 37.38200 39.99700
H  -7.68000 35.69100 36.49900
H  -6.04800 36.29700 36.30600
H  -6.82900 37.66100 34.62200
H  -7.47500 38.70300 35.79100
H  -6.77200 44.30000 36.92600
H  -5.92900 43.07000 37.70200
H  -6.34300 44.63200 38.57800
H  -10.77900 46.36600 39.76000
H  -11.59900 45.83300 38.28600
H  -10.57200 47.32100 38.29300
H  -14.38200 42.55100 39.29200
H  -14.09600 41.15100 42.02000
H  -13.18800 44.37300 41.32200
H  -14.70200 43.55000 41.99400
H  -14.87000 44.52400 40.65500
H  -16.17700 42.03800 40.96600
H  -16.18500 40.45300 41.79200
H  -17.13500 41.15400 39.23400
H  -17.03300 39.58800 40.05800
H  -15.69600 40.14800 38.94500
H  -14.82500 36.41900 40.64100
H  -14.21500 34.75800 40.36500
H  -14.84500 35.64300 38.98000
H  -9.50800 34.67200 37.55200
H  -7.32500 32.11200 40.41500
H  -6.30100 33.57600 40.22100
H  -6.36100 32.23400 38.95300

