158

Mg 53.92200 24.98600 44.55600
C  51.27700 27.02000 43.39800
C  52.21800 22.26000 42.96200
C  56.71000 23.17500 44.83500
C  55.37000 27.69800 45.88800
N  52.11000 24.72200 43.21000
C  51.21100 25.71600 42.88700
C  49.93100 25.17100 42.10600
C  50.09500 23.61200 42.43000
C  51.60600 23.52500 42.87900
C  49.10200 22.95500 43.50100
C  49.86100 25.33400 40.61000
C  51.21300 25.40900 39.80800
H  51.25000 26.37300 38.65600
N  54.44600 23.01900 43.88800
C  53.56300 22.07900 43.33900
C  54.34600 20.87800 43.13400
C  55.60800 21.06900 43.73900
C  55.66600 22.44800 44.21200
C  53.81000 19.71600 42.35400
C  56.64000 19.99000 43.83200
O  56.31300 18.90000 43.41100
C  58.02800 20.18800 44.35100
N  55.98000 25.48600 44.87600
C  56.95300 24.56800 45.09000
C  58.18400 25.18800 45.63200
C  57.73800 26.57700 46.11600
C  56.25100 26.57200 45.67600
C  58.84900 24.45800 46.86100
C  58.44600 27.86200 45.53800
C  59.91100 28.05300 46.00800
N  53.41800 26.91600 44.83300
C  54.07500 27.91600 45.43100
C  53.24200 29.08900 45.55900
C  52.13100 28.79600 44.77400
C  52.30900 27.45700 44.27000
C  53.37600 30.24900 46.50000
C  50.82100 29.27100 44.29000
O  50.20500 30.29900 44.46900
C  50.18000 28.10400 43.45900
C  49.76300 28.60500 42.14600
O  50.50100 29.29400 41.46600
O  48.39700 28.52800 42.00300
C  47.90100 29.42800 41.01300
H  51.63600 21.39300 42.63800
H  57.55800 22.49800 44.96200
H  55.67300 28.54300 46.50800
H  49.04700 25.51500 42.64100
H  49.95200 22.98800 41.54800
H  48.48600 23.78000 43.86100
H  49.57900 22.53100 44.38400
H  48.45400 22.28300 42.93800
H  49.23800 26.19200 40.35900
H  49.46300 24.48500 40.05500
H  51.46000 24.40900 39.45100
H  52.00400 25.63700 40.52300
H  53.56400 18.88200 43.01100
H  54.33700 19.47400 41.43100
H  52.82000 19.93100 41.95200
H  58.56500 19.24800 44.21800
H  58.13100 20.44000 45.40600
H  58.39300 21.01700 43.74500
H  58.86400 25.31900 44.79000
H  57.72000 26.65700 47.20300
H  58.07200 23.72600 47.07900
H  59.00100 25.04500 47.76700
H  59.68500 23.80000 46.62200
H  57.94400 28.75200 45.91700
H  58.40900 27.86700 44.44900
H  60.52400 27.58800 45.23700
H  60.10500 27.40200 46.86000
H  60.26400 29.07800 46.11700
H  53.77300 31.17700 46.08700
H  53.91900 29.90800 47.38100
H  52.34900 30.45600 46.80000
H  49.30300 27.76400 44.00900
H  48.16600 29.12100 40.00100
H  48.26600 30.44600 41.15000
H  46.81300 29.41500 40.95000
Mg 1.32500 41.41800 26.14400
C  3.52300 41.73500 29.10400
C  -1.19500 40.81800 28.23000
C  -0.27600 41.01400 23.37400
C  4.25500 42.22500 24.21900
N  1.27100 41.29900 28.40100
C  2.17000 41.55700 29.44400
C  1.46500 41.62800 30.80700
C  0.12800 40.80000 30.47600
C  -0.00400 41.00800 28.95000
C  0.18100 39.36700 31.09400
C  1.29500 43.09300 31.34100
C  1.32900 43.17300 32.88400
H  1.22000 41.84800 33.66600
N  -0.51100 40.96000 25.82500
C  -1.46700 40.75000 26.81700
C  -2.68500 40.30400 26.12900
C  -2.44600 40.36300 24.74200
C  -1.04900 40.80200 24.55900
C  -4.02300 40.21900 26.89400
C  -3.22600 39.81300 23.54500
O  -2.84400 39.76000 22.39100
C  -4.60000 39.31300 23.70400
N  1.83900 41.87700 24.15000
C  1.01000 41.58800 23.16200
C  1.63400 41.70500 21.79200
C  2.95600 42.37500 22.09800
C  3.07800 42.08300 23.51200
C  1.72100 40.43500 20.86300
C  3.01500 43.91400 21.85600
C  2.31700 44.86300 22.79800
N  3.45900 41.83800 26.48900
C  4.47100 42.13700 25.60700
C  5.72000 42.37800 26.33300
C  5.37400 42.19800 27.66100
C  4.01100 41.90100 27.79000
C  7.06000 42.73100 25.78600
C  5.94300 42.13200 28.94500
O  7.14300 42.22300 29.11600
C  4.77500 42.06500 29.94500
C  5.09600 41.06600 30.96700
O  5.20900 39.83500 30.75400
O  5.00900 41.62400 32.17300
C  5.31100 40.74100 33.26800
H  -2.02200 40.58300 28.90300
H  -0.81700 40.73600 22.46800
H  5.13400 42.24800 23.57200
H  2.03500 40.96900 31.46200
H  -0.65800 41.27700 31.06200
H  0.76300 39.40900 32.01500
H  0.70300 38.74100 30.37000
H  -0.82000 39.01900 31.34700
H  0.27100 43.25500 31.00500
H  1.96300 43.86300 30.95300
H  0.64600 43.96800 33.18400
H  2.31300 43.54900 33.16400
H  -4.35100 39.18500 26.99700
H  -4.80300 40.77000 26.36900
H  -3.84100 40.57800 27.90800
H  -4.76700 38.60400 24.51500
H  -4.87500 38.75900 22.80600
H  -5.22000 40.18000 23.93300
H  0.94900 42.39800 21.30400
H  3.71200 41.81900 21.54300
H  2.66600 40.53100 20.32900
H  0.89200 40.53700 20.16200
H  1.60500 39.43000 21.26900
H  2.52000 44.08800 20.90000
H  4.05900 44.20500 21.74000
H  2.59400 45.87500 22.50100
H  2.61800 44.75800 23.84000
H  1.27200 44.55500 22.79000
H  6.90600 43.40500 24.94400
H  7.60100 41.87600 25.37900
H  7.75400 43.25500 26.44200
H  4.55400 42.99300 30.47300
H  5.45100 41.37500 34.14400
H  6.26300 40.38800 32.87200
H  4.59300 39.93600 33.42300

