158

Mg 16.59200 -2.42800 28.86700
C  15.50000 -0.41500 31.50400
C  18.37500 -4.24500 31.01900
C  17.59500 -4.20000 26.25300
C  14.95100 -0.20200 26.64700
N  17.01600 -2.20900 31.01500
C  16.40900 -1.36800 31.95600
C  16.93500 -1.59400 33.39900
C  17.89000 -2.82500 33.09800
C  17.71800 -3.16700 31.60300
C  19.35900 -2.57900 33.63800
C  15.84600 -1.84300 34.47800
C  15.94300 -0.89700 35.70400
H  17.32800 -0.37100 36.13200
N  17.82600 -4.11200 28.63500
C  18.49000 -4.67400 29.66000
C  19.11800 -5.90300 29.19300
C  19.01800 -5.87900 27.73600
C  18.15100 -4.69900 27.46100
C  19.87800 -6.86300 30.07300
C  19.61500 -6.78800 26.71600
O  19.29500 -6.65900 25.55100
C  20.51200 -7.87600 27.03600
N  16.31400 -2.23700 26.76300
C  16.76300 -3.10000 25.89300
C  16.36700 -2.70300 24.40200
C  15.29600 -1.63100 24.65900
C  15.50200 -1.33900 26.08500
C  17.49400 -2.36400 23.48800
C  13.84600 -2.10100 24.37100
C  13.60400 -2.42900 22.89900
N  15.48500 -0.65600 28.96200
C  14.93900 0.20800 27.98600
C  14.11400 1.32400 28.61100
C  14.25800 1.05200 29.97200
C  15.15500 -0.11500 30.13300
C  13.19400 2.30400 28.02400
C  13.85900 1.48000 31.31600
O  13.00300 2.28600 31.69100
C  14.84100 0.64600 32.34400
C  15.69700 1.58900 33.02300
O  16.94800 1.65500 32.88600
O  15.01200 2.33500 33.93900
C  15.85400 3.27600 34.68700
H  18.94300 -4.87800 31.70400
H  18.08000 -4.65400 25.38600
H  14.43800 0.36300 25.86700
H  17.57100 -0.73600 33.61400
H  17.73000 -3.70500 33.72200
H  20.09900 -2.88800 32.90000
H  19.47900 -3.26800 34.47300
H  19.58700 -1.57500 33.99700
H  15.78000 -2.85800 34.87000
H  14.92200 -1.74400 33.90700
H  15.49500 -1.47100 36.51500
H  15.35100 0.01100 35.59000
H  19.34200 -6.82100 31.02100
H  20.86900 -6.43100 30.21400
H  19.99500 -7.93300 29.90500
H  21.29400 -7.40800 27.63400
H  20.91000 -8.26900 26.10100
H  20.05300 -8.66600 27.63000
H  15.79000 -3.47500 23.89200
H  15.46600 -0.66700 24.18000
H  18.36600 -2.31300 24.14100
H  17.34000 -1.40700 22.99100
H  17.64900 -3.12800 22.72700
H  13.13400 -1.31700 24.62900
H  13.44700 -2.92200 24.96700
H  12.77300 -1.87000 22.47000
H  13.30600 -3.47200 22.79300
H  14.47400 -2.27900 22.26000
H  12.21900 1.81900 27.96600
H  13.39800 2.66000 27.01500
H  13.30200 3.17100 28.67600
H  14.23500 0.16700 33.11200
H  15.83400 4.21400 34.13300
H  16.88300 3.01200 34.93000
H  15.33000 3.37600 35.63700
Mg -4.62600 25.50200 25.08100
C  -3.25200 27.00500 28.09700
C  -6.69600 23.66800 27.06600
C  -5.91700 24.18600 22.35200
C  -2.45900 27.47000 23.32300
N  -4.77200 25.30700 27.31400
C  -4.19900 25.99200 28.35500
C  -4.73500 25.60400 29.73200
C  -5.57000 24.27300 29.35300
C  -5.76700 24.40400 27.79500
C  -4.96700 22.91400 29.79300
C  -5.57500 26.77300 30.41700
C  -6.43700 26.39100 31.63400
H  -6.01800 25.32800 32.64600
N  -6.08400 24.05200 24.76000
C  -6.86000 23.39200 25.68000
C  -7.74700 22.47400 24.97600
C  -7.65600 22.75700 23.59100
C  -6.52200 23.71900 23.50600
C  -8.65400 21.52200 25.69400
C  -8.43000 22.17400 22.39500
O  -8.06900 22.45900 21.28900
C  -9.52200 21.28300 22.61000
N  -4.13300 25.70000 23.12600
C  -4.90200 25.15300 22.16600
C  -4.28800 25.50600 20.77600
C  -3.24400 26.59600 21.01100
C  -3.26400 26.60000 22.57700
C  -3.56400 24.25500 20.06200
C  -3.59000 27.98600 20.43700
C  -2.44400 28.87300 19.95900
N  -3.09100 26.91400 25.60700
C  -2.32800 27.64900 24.74100
C  -1.55800 28.60800 25.43300
C  -1.85000 28.44700 26.81200
C  -2.79200 27.35700 26.86000
C  -0.59700 29.64400 24.83500
C  -1.54400 28.74700 28.16800
O  -0.71200 29.58000 28.61600
C  -2.42400 27.74400 29.07000
C  -1.56900 26.93600 29.91200
O  -0.53400 26.41000 29.55400
O  -2.04900 27.00200 31.24500
C  -1.17100 26.25500 32.18300
H  -7.30600 23.03600 27.71500
H  -6.37900 23.89000 21.40800
H  -1.79500 28.07500 22.70300
H  -3.95700 25.55600 30.49400
H  -6.57600 24.30800 29.76900
H  -5.17000 22.15100 29.04100
H  -5.41500 22.55100 30.71800
H  -3.88100 22.96600 29.87600
H  -6.31300 27.05300 29.66500
H  -4.99200 27.68400 30.55200
H  -7.41000 26.02200 31.30900
H  -6.67200 27.31200 32.16700
H  -8.34200 20.52100 25.39800
H  -9.69000 21.64500 25.37500
H  -8.63500 21.66600 26.77400
H  -9.27300 20.42500 23.23400
H  -9.89900 21.02500 21.62100
H  -10.31700 21.80900 23.13800
H  -5.14700 25.76400 20.15600
H  -2.29600 26.24100 20.60800
H  -3.93200 23.26100 20.31700
H  -2.48700 24.32000 20.21500
H  -3.83600 24.36000 19.01200
H  -4.08100 28.60600 21.18800
H  -4.29700 27.86100 19.61600
H  -2.75900 29.22900 18.97800
H  -1.61600 28.17700 19.82000
H  -2.12000 29.62200 20.68100
H  -0.49600 29.60700 23.75000
H  0.44500 29.64500 25.15300
H  -0.96500 30.64200 25.07600
H  -3.04600 28.28000 29.78700
H  -0.64800 26.88000 32.90700
H  -0.52600 25.49100 31.74900
H  -1.95100 25.73600 32.74100

