158

Mg 35.95800 49.08500 25.32100
C  36.13500 47.37100 28.41400
C  34.70300 51.77700 26.94300
C  35.27100 50.48800 22.40000
C  37.23900 46.29300 23.77600
N  35.41400 49.45500 27.50700
C  35.70400 48.72700 28.59800
C  35.50800 49.58400 29.88900
C  34.77700 50.88000 29.33800
C  34.99300 50.70300 27.82900
C  33.22400 50.99900 29.68700
C  36.74400 49.83100 30.74300
C  36.69500 49.18600 32.20200
H  35.44600 49.22000 33.05400
N  35.15700 50.99100 24.75600
C  34.61800 51.95500 25.54600
C  34.27600 53.08500 24.70700
C  34.42700 52.62900 23.34600
C  34.98800 51.34100 23.42900
C  33.82800 54.45700 25.14600
C  34.17300 53.36900 21.99700
O  34.57800 53.10500 20.91800
C  33.47100 54.70200 22.08400
N  36.28300 48.56200 23.46700
C  35.98600 49.32700 22.33400
C  36.42600 48.62400 21.01000
C  37.39000 47.56900 21.65500
C  36.94200 47.36300 23.06700
C  35.22300 47.98100 20.27500
C  38.89900 47.77900 21.58000
C  39.70800 47.05900 20.43200
N  36.39800 47.15800 25.89800
C  36.84500 46.07700 25.14900
C  37.19300 44.91200 26.01600
C  36.94000 45.43700 27.31000
C  36.39200 46.72200 27.17400
C  37.72600 43.55200 25.61600
C  36.97000 45.01700 28.72500
O  37.18900 43.90400 29.25200
C  36.39800 46.28400 29.53000
C  35.29500 45.82400 30.40000
O  34.11400 45.90100 30.16400
O  35.80500 45.31400 31.53800
C  34.85700 45.04000 32.60300
H  34.23900 52.63300 27.43700
H  34.91300 50.77000 21.40800
H  37.74200 45.57300 23.12800
H  34.87200 48.95800 30.51400
H  35.35100 51.63400 29.87700
H  32.87600 50.39600 30.52600
H  32.61600 50.68200 28.83900
H  32.96300 52.02200 29.95600
H  36.90700 50.89200 30.93100
H  37.54800 49.35900 30.17800
H  37.52100 49.66600 32.72800
H  36.96200 48.15100 31.98800
H  32.87700 54.80100 24.73800
H  34.69200 55.10700 25.00800
H  33.68800 54.38400 26.22400
H  32.48100 54.44400 22.46200
H  33.31300 55.11500 21.08800
H  33.94400 55.55900 22.56500
H  36.96700 49.20600 20.26300
H  37.22300 46.61700 21.15100
H  34.26600 48.28400 20.69900
H  35.27100 46.89500 20.19800
H  35.32300 48.39000 19.26900
H  39.30000 47.71600 22.59200
H  39.00500 48.81500 21.26000
H  40.41400 47.76900 20.00100
H  38.99200 46.73300 19.67800
H  40.17400 46.22000 20.94900
H  38.31200 43.77300 24.72400
H  36.93900 42.86400 25.30700
H  38.28200 43.15600 26.46600
H  37.22200 46.69900 30.11100
H  34.43100 44.04400 32.47500
H  34.09300 45.80600 32.73400
H  35.42300 45.12600 33.53100
Mg 6.07600 54.17000 41.46700
C  5.28900 50.63600 41.09500
C  9.21100 53.32900 40.44200
C  6.61600 57.51500 41.12600
C  2.72300 54.72700 42.23300
N  7.05300 52.16700 40.71000
C  6.57000 50.89600 40.61000
C  7.64500 49.90100 40.22800
C  8.89200 50.75300 40.46700
C  8.33100 52.20600 40.54400
C  9.71400 50.48300 41.76500
C  7.66000 49.29100 38.75800
C  7.24800 50.24200 37.63100
H  5.76400 50.29500 37.18500
N  7.62900 55.30500 40.73500
C  8.88400 54.76500 40.47900
C  9.80300 55.80500 40.14900
C  9.10600 57.07400 40.43600
C  7.71000 56.71600 40.80600
C  11.23700 55.49000 39.83800
C  9.68700 58.50100 40.39000
O  10.90900 58.61800 40.24900
C  8.80600 59.73300 40.65200
N  4.82300 55.81400 41.66100
C  5.32100 57.08000 41.54000
C  4.23000 58.14000 41.86900
C  3.00700 57.25500 42.20000
C  3.51900 55.82000 42.03600
C  4.73300 59.11800 42.94900
C  1.71300 57.65400 41.38100
C  0.43900 57.89500 42.22200
N  4.32900 53.00800 41.87500
C  3.05800 53.36100 42.10100
C  2.17500 52.21600 42.19900
C  3.04700 51.13200 41.97400
C  4.33600 51.62900 41.64600
C  0.66900 52.16800 42.47400
C  3.11500 49.62700 41.85300
O  2.30600 48.75900 42.14200
C  4.53600 49.32900 41.34100
C  4.28000 48.68500 40.04600
O  3.74500 49.02200 39.03300
O  4.69800 47.34100 40.17400
C  4.85000 46.53400 38.94800
H  10.28300 53.15900 40.31700
H  6.59500 58.60100 41.01000
H  1.67100 54.96900 42.40100
H  7.62000 49.12800 40.99600
H  9.58200 50.66300 39.62800
H  9.68800 51.26800 42.52100
H  10.75300 50.35100 41.46500
H  9.46000 49.51500 42.19600
H  6.92500 48.48600 38.73600
H  8.64200 48.92900 38.45600
H  7.81800 49.92400 36.75800
H  7.56600 51.27900 37.73500
H  11.36000 54.46700 39.48100
H  11.91700 55.45700 40.69000
H  11.66400 56.14700 39.08100
H  8.05800 59.70200 39.85900
H  9.38200 60.65300 40.55500
H  8.28900 59.68100 41.61000
H  4.12500 58.71900 40.95100
H  2.74600 57.41700 43.24600
H  3.99700 59.30100 43.73300
H  4.83100 60.13500 42.56900
H  5.65100 58.70800 43.37000
H  1.48800 56.98500 40.55100
H  1.87000 58.62400 40.91000
H  0.39800 57.34000 43.15900
H  -0.40700 57.71400 41.55900
H  0.48800 58.93700 42.53700
H  0.07400 51.99300 41.57700
H  0.42500 53.12500 42.93500
H  0.35700 51.39900 43.18100
H  5.14000 48.70700 42.00100
H  5.77600 45.96100 38.97700
H  4.78000 47.20900 38.09500
H  4.05800 45.78800 39.01200

