158

Mg -1.18700 17.55200 25.45900
C  -1.69300 15.28300 28.15200
C  -1.63400 20.10900 27.63500
C  -0.80800 19.57400 22.79800
C  -0.83200 14.82700 23.42200
N  -1.78500 17.62200 27.67700
C  -1.65300 16.64000 28.62800
C  -1.68700 17.19500 30.07000
C  -1.75500 18.75200 29.82600
C  -1.71100 18.83300 28.24500
C  -2.96000 19.37000 30.45500
C  -0.55900 16.75100 31.00300
C  -0.45900 17.46300 32.40300
H  -0.25600 16.69900 33.68200
N  -1.19700 19.62300 25.20800
C  -1.38700 20.50900 26.23300
C  -1.24000 21.84600 25.73400
C  -0.99600 21.73600 24.27500
C  -0.93300 20.30900 24.02200
C  -1.52700 23.02600 26.64600
C  -0.87000 22.78300 23.24400
O  -0.87700 22.40100 22.07800
C  -0.66600 24.30500 23.61600
N  -1.03600 17.27800 23.38500
C  -0.85500 18.23700 22.50100
C  -0.56100 17.62500 21.08500
C  -0.18200 16.13700 21.41600
C  -0.69600 16.10000 22.82400
C  -1.83200 17.73200 20.16300
C  1.26800 15.70800 21.17400
C  2.16300 15.39600 22.39200
N  -1.40400 15.45200 25.61100
C  -1.30300 14.50200 24.68300
C  -1.49200 13.17400 25.22600
C  -1.60300 13.41600 26.57900
C  -1.59800 14.81400 26.77700
C  -1.41900 11.85000 24.50100
C  -1.58100 12.79400 27.88600
O  -1.61000 11.60000 28.21800
C  -1.64700 13.90100 28.91700
C  -0.36500 13.71700 29.69200
O  0.75800 14.01200 29.38600
O  -0.70200 13.24600 30.96700
C  0.29900 13.23100 32.02700
H  -1.96800 20.92800 28.27500
H  -0.69300 20.17800 21.89500
H  -0.77500 13.97700 22.73900
H  -2.61400 16.81000 30.49400
H  -0.84100 19.22200 30.18900
H  -3.58100 18.73000 31.08200
H  -3.56700 19.73900 29.62800
H  -2.74400 20.17200 31.16100
H  0.33100 17.02200 30.43500
H  -0.76600 15.69600 31.18000
H  -1.27500 18.13700 32.66600
H  0.41600 18.11200 32.36700
H  -0.64500 23.56800 26.98700
H  -1.98200 22.88900 27.62700
H  -2.18100 23.67200 26.06000
H  -0.01000 24.21700 24.48200
H  -1.67300 24.62900 23.87800
H  -0.19300 24.89300 22.82900
H  0.23500 18.07700 20.49300
H  -0.78500 15.42700 20.85000
H  -2.25400 16.74000 20.00000
H  -1.54900 18.19100 19.21600
H  -2.52000 18.37200 20.71500
H  1.74100 16.52700 20.63200
H  1.11600 14.79700 20.59500
H  1.76900 15.16700 23.38200
H  2.77000 16.28900 22.54400
H  2.85600 14.60300 22.10900
H  -1.78500 11.90600 23.47600
H  -1.90200 11.05100 25.06200
H  -0.38700 11.49900 24.47000
H  -2.47100 13.64200 29.58200
H  0.77200 14.21300 32.05400
H  0.98200 12.39800 31.86700
H  -0.15500 13.07800 33.00700
Mg 30.04400 58.90700 40.76400
C  27.34100 56.90200 39.67200
C  32.12100 56.36500 39.66600
C  32.81400 60.92100 40.75200
C  27.94400 61.54500 41.16100
N  29.71400 56.92900 39.75000
C  28.56400 56.32400 39.38500
C  28.79700 55.17000 38.42000
C  30.23600 54.78300 38.80200
C  30.73900 56.10600 39.47900
C  30.26000 53.56300 39.70500
C  28.56100 55.54100 36.92500
C  27.36800 55.08100 36.17100
H  26.62000 56.05200 35.30700
N  32.20100 58.56000 40.42500
C  32.83100 57.49200 39.97700
C  34.31200 57.62000 39.90000
C  34.53000 58.97500 40.28800
C  33.12600 59.57100 40.44200
C  35.30700 56.61200 39.26900
C  35.85100 59.74200 40.54600
O  36.90300 59.10600 40.51800
C  35.94400 61.12300 41.17600
N  30.33800 60.94700 40.90700
C  31.55100 61.52900 41.04500
C  31.43700 63.03700 41.34100
C  29.93000 63.18600 41.46300
C  29.33000 61.83700 41.17000
C  32.31500 63.58500 42.44800
C  29.24400 64.31700 40.55900
C  30.00900 65.60000 40.33000
N  28.06300 59.17200 40.71400
C  27.31400 60.29500 40.95100
C  25.86900 59.88800 40.91800
C  25.88000 58.57100 40.41400
C  27.20100 58.20300 40.24500
C  24.69300 60.82600 41.15100
C  25.02200 57.59100 39.93900
O  23.77900 57.63500 39.96700
C  25.93800 56.37700 39.45600
C  25.53300 55.21300 40.21000
O  25.96400 54.92800 41.28500
O  24.55700 54.52300 39.50200
C  24.06100 53.31600 40.17100
H  32.78700 55.57400 39.31600
H  33.60900 61.66900 40.78600
H  27.28400 62.38700 41.37900
H  28.24300 54.28700 38.74200
H  30.92500 54.61000 37.97500
H  29.27600 53.28700 40.08200
H  30.91700 53.74200 40.55600
H  30.54100 52.70000 39.10100
H  29.48300 55.25800 36.41600
H  28.62300 56.62500 36.83400
H  26.71700 54.56400 36.87600
H  27.71100 54.37500 35.41500
H  36.25100 56.99000 38.87700
H  34.88100 56.21100 38.35000
H  35.41100 55.71000 39.87100
H  35.28700 61.15000 42.04500
H  35.50800 61.83100 40.47100
H  37.00000 61.23600 41.42300
H  31.64300 63.50600 40.37900
H  29.63000 63.43300 42.48200
H  32.96700 62.81000 42.85100
H  31.76800 63.99900 43.29600
H  32.88000 64.41000 42.01400
H  28.21000 64.47400 40.86600
H  29.04500 63.85500 39.59200
H  29.26200 66.38600 40.44200
H  30.44100 65.70300 39.33400
H  30.70900 65.72200 41.15700
H  24.51200 61.24400 40.16100
H  25.09800 61.47400 41.92900
H  23.87800 60.22600 41.55700
H  25.61700 56.17400 38.43400
H  24.06400 53.21500 41.25600
H  24.63100 52.42200 39.91500
H  23.05600 53.13300 39.79100

