158

Mg -0.35800 43.62400 26.95000
C  1.49400 43.48800 30.00800
C  -3.20600 42.92200 28.69600
C  -1.68000 42.67500 24.13600
C  2.73700 44.25300 25.36200
N  -0.83900 43.31800 29.03700
C  0.06800 43.39800 30.12700
C  -0.69500 43.42400 31.45300
C  -2.17500 43.10300 31.01700
C  -2.10800 43.13000 29.50700
C  -2.71000 41.71400 31.64800
C  -0.56200 44.85500 32.15100
C  -0.59700 44.95200 33.69400
H  -0.72400 43.65700 34.54600
N  -2.19900 42.95100 26.37500
C  -3.23600 42.81900 27.25200
C  -4.44100 42.46500 26.43300
C  -4.04300 42.39500 25.09900
C  -2.57400 42.63900 25.12800
C  -5.82200 42.24000 27.03400
C  -4.89200 42.12500 23.91500
O  -4.28900 41.83000 22.88100
C  -6.44600 42.04500 23.90800
N  0.37600 43.56900 25.06900
C  -0.40500 43.14100 24.03700
C  0.41600 43.25000 22.71800
C  1.70800 44.05500 23.16400
C  1.58700 44.00400 24.62900
C  0.72000 41.88400 21.96700
C  1.83200 45.49400 22.52700
C  2.11100 45.47300 21.00400
N  1.76900 43.83700 27.55700
C  2.83700 44.13600 26.77300
C  4.00300 44.22100 27.60400
C  3.56700 43.93100 28.91200
C  2.14000 43.68800 28.79200
C  5.51400 44.36500 27.25400
C  3.94600 43.65400 30.23800
O  5.13400 43.55400 30.59200
C  2.60700 43.51500 31.07900
C  2.63100 42.18600 31.71400
O  2.43700 41.10600 31.09200
O  3.00900 42.26800 33.03400
C  2.65300 41.10500 33.89700
H  -4.16600 42.80300 29.20300
H  -2.02700 42.43900 23.12800
H  3.64900 44.51600 24.82300
H  -0.37300 42.58400 32.06900
H  -2.83600 43.91000 31.33200
H  -1.83800 41.20500 32.05900
H  -3.09800 41.08100 30.85000
H  -3.32200 41.89900 32.53000
H  -1.39100 45.44500 31.76200
H  0.32800 45.31600 31.72300
H  -1.41500 45.63300 33.92700
H  0.34100 45.40900 34.01100
H  -6.38200 43.06200 26.58700
H  -5.80400 42.32400 28.12100
H  -6.34200 41.32800 26.74000
H  -6.86900 42.30000 22.93600
H  -6.92200 42.83500 24.49000
H  -6.70800 41.03700 24.23000
H  -0.06100 43.88400 21.97000
H  2.63600 43.53200 22.93500
H  0.34900 41.09600 22.62200
H  1.79600 41.80900 21.81200
H  0.19200 41.95000 21.01500
H  2.58100 46.15600 22.96000
H  0.87600 46.00500 22.63800
H  2.95200 46.15500 20.88000
H  1.27500 45.89200 20.44500
H  2.25300 44.46300 20.62100
H  6.06300 43.53900 26.80100
H  6.01600 44.47500 28.21500
H  5.71100 45.27100 26.68100
H  2.65000 44.32300 31.80900
H  1.61100 40.81500 33.76900
H  2.72800 41.32400 34.96200
H  3.43000 40.34500 33.81400
Mg -5.97700 25.19400 26.01900
C  -4.63000 26.51100 29.16400
C  -7.65500 22.83800 27.97100
C  -6.48700 23.60000 23.38400
C  -3.81300 27.48700 24.50100
N  -6.10600 24.73600 28.30300
C  -5.47600 25.38400 29.34700
C  -5.92500 24.83100 30.79300
C  -6.64400 23.44300 30.29300
C  -6.88000 23.65400 28.76000
C  -5.86500 22.18000 30.64600
C  -6.74500 25.96000 31.47600
C  -6.65100 26.15500 32.99400
H  -6.07800 24.98400 33.77600
N  -7.15300 23.56300 25.64300
C  -7.80700 22.70800 26.54400
C  -8.51800 21.76600 25.85000
C  -8.23800 21.90300 24.43500
C  -7.26500 23.02800 24.43200
C  -9.44000 20.78000 26.57700
C  -8.75000 21.14100 23.27900
O  -8.30300 21.43300 22.14000
C  -9.86900 20.16300 23.42200
N  -5.33200 25.57700 24.24500
C  -5.63300 24.71100 23.25000
C  -4.91700 25.03600 21.89100
C  -4.22500 26.40200 22.33800
C  -4.51000 26.55700 23.81100
C  -3.92900 23.92700 21.47000
C  -4.74600 27.54000 21.41700
C  -3.73400 28.56000 20.93400
N  -4.66500 26.81900 26.67900
C  -3.95300 27.68700 25.88600
C  -3.24700 28.64500 26.71200
C  -3.42400 28.22300 27.99500
C  -4.30200 27.08000 27.92200
C  -2.42300 29.75900 26.09200
C  -3.09200 28.48200 29.35900
O  -2.44000 29.33400 29.89400
C  -3.93300 27.41300 30.17100
C  -2.99300 26.65500 31.07400
O  -2.19300 25.82400 30.70800
O  -3.16700 26.94100 32.37200
C  -2.34200 26.39500 33.38300
H  -8.14800 22.14200 28.65300
H  -6.56100 23.03500 22.45300
H  -3.27500 28.23300 23.91300
H  -4.99900 24.58100 31.31000
H  -7.58200 23.35000 30.84000
H  -4.88800 22.38500 31.08300
H  -5.74000 21.60400 29.72800
H  -6.47000 21.55800 31.30500
H  -7.80600 25.78100 31.30300
H  -6.45100 26.95600 31.14600
H  -7.67200 26.30200 33.34500
H  -5.98400 26.98600 33.22100
H  -10.50400 20.86600 26.35600
H  -9.38900 20.73900 27.66500
H  -9.03900 19.79800 26.32700
H  -9.59800 19.36900 24.11700
H  -9.99900 19.68300 22.45200
H  -10.77200 20.66300 23.77000
H  -5.72000 25.17500 21.16700
H  -3.15600 26.33900 22.13200
H  -4.09500 23.74500 20.40800
H  -4.10100 22.99500 22.00900
H  -2.91600 24.30300 21.61700
H  -5.41400 28.17100 22.00400
H  -5.22100 27.24400 20.48200
H  -4.15800 29.56300 20.98600
H  -3.41300 28.23300 19.94500
H  -2.95300 28.53700 21.69300
H  -2.99200 30.33200 25.36000
H  -1.56400 29.31900 25.58500
H  -2.09200 30.39000 26.91800
H  -4.59200 28.02400 30.78900
H  -1.96900 25.41700 33.07900
H  -2.78700 26.11100 34.33700
H  -1.50000 27.04900 33.60900

