158

Mg 43.87000 3.87200 46.83300
C  41.45000 6.51600 46.66000
C  41.22400 1.71900 46.42600
C  46.15500 1.56200 46.17900
C  46.39700 6.44200 46.84000
N  41.52000 4.09800 46.61500
C  40.84700 5.29600 46.56500
C  39.30200 5.03200 46.44700
C  39.22200 3.41900 46.66300
C  40.70800 3.00300 46.44700
C  38.66200 2.94100 47.99300
C  38.65200 5.57800 45.15400
C  39.36800 5.33300 43.83100
H  39.52600 6.51500 42.96000
N  43.70300 1.84100 46.46100
C  42.52200 1.18200 46.33000
C  42.84200 -0.16700 45.94600
C  44.21000 -0.23400 45.67400
C  44.75900 1.07900 46.11600
C  41.80200 -1.25100 45.69600
C  45.05300 -1.41000 44.98300
O  44.47500 -2.44100 44.61300
C  46.49000 -1.32600 44.75300
N  45.98000 4.00300 46.58600
C  46.69000 2.90000 46.41700
C  48.24200 3.16000 46.49100
C  48.26400 4.66200 46.90100
C  46.79800 5.06000 46.76300
C  49.00000 2.27100 47.43300
C  49.25700 5.43700 46.02300
C  50.16700 6.36100 46.86500
N  44.00200 6.05600 46.72300
C  45.06300 6.91800 46.76700
C  44.59100 8.27600 46.81200
C  43.15500 8.19100 46.78400
C  42.87300 6.76200 46.72300
C  45.54400 9.49800 46.89000
C  41.90300 8.92500 46.73800
O  41.63800 10.11900 46.60900
C  40.79500 7.84000 46.79000
C  39.99800 7.91000 48.04000
O  40.36100 7.73800 49.17100
O  38.79700 8.35600 47.74400
C  37.67700 8.12500 48.71400
H  40.35100 1.06900 46.34400
H  46.86900 0.75400 46.01100
H  47.25000 7.09700 47.03200
H  38.83900 5.59000 47.26100
H  38.63500 3.09300 45.80500
H  37.82900 3.62300 48.16700
H  39.42500 3.03400 48.76600
H  38.35100 1.89700 47.94700
H  38.43800 6.64300 45.23800
H  37.64600 5.17000 45.06500
H  38.76800 4.59000 43.30600
H  40.32000 4.86500 44.08100
H  41.85900 -1.69800 44.70400
H  40.75700 -0.95700 45.79300
H  42.01000 -2.11400 46.32900
H  46.99700 -1.26600 45.71600
H  46.72600 -0.45800 44.13700
H  46.76700 -2.29400 44.33500
H  48.67900 2.95600 45.51400
H  48.47100 4.69000 47.97100
H  49.96100 2.69300 47.72900
H  49.24500 1.33700 46.92700
H  48.42400 2.01500 48.32100
H  48.63600 6.07000 45.39000
H  49.83000 4.77000 45.37700
H  51.17300 5.98900 46.67300
H  50.04900 6.48300 47.94200
H  50.03600 7.29800 46.32400
H  46.05300 9.38000 47.84600
H  45.02300 10.45300 46.81700
H  46.25600 9.42300 46.06800
H  40.07900 7.93500 45.97300
H  37.75500 8.69300 49.64100
H  37.58100 7.07400 48.98300
H  36.73700 8.36000 48.21400
Mg 27.07200 49.47100 26.00100
C  25.23900 50.91600 28.79200
C  29.64500 48.89400 28.25200
C  28.89500 48.71900 23.28900
C  24.54000 50.74400 23.94300
N  27.38500 49.91000 28.32500
C  26.43000 50.33300 29.22000
C  26.90800 50.04100 30.68200
C  28.43300 49.64700 30.50800
C  28.53200 49.46000 28.92500
C  29.52800 50.61100 31.01000
C  26.00500 49.04600 31.52000
C  25.57700 49.63100 32.83400
H  26.57800 49.98200 33.91900
N  28.96400 48.83400 25.82700
C  29.85800 48.49100 26.85500
C  31.15100 48.13000 26.21100
C  31.00500 48.18700 24.78300
C  29.56800 48.59000 24.57200
C  32.37000 47.74600 26.99700
C  32.09700 48.00200 23.76000
O  31.84000 48.02400 22.57400
C  33.50000 47.72600 24.09000
N  26.72200 49.67400 23.84100
C  27.65200 49.19800 22.93500
C  27.01700 49.41600 21.51300
C  25.52000 49.89600 21.82900
C  25.53500 49.98700 23.32400
C  27.74600 50.38600 20.55600
C  24.46000 48.98800 21.16500
C  24.01700 47.64000 22.01600
N  25.25600 50.53000 26.25000
C  24.30100 50.94600 25.30900
C  23.16200 51.62900 25.95900
C  23.54300 51.60700 27.31700
C  24.81800 50.97000 27.47400
C  22.00800 52.21700 25.20400
C  23.06500 51.87400 28.69400
O  22.03000 52.42700 29.06200
C  24.12600 51.43100 29.63400
C  24.34200 52.49600 30.62100
O  25.29900 53.27100 30.60800
O  23.40300 52.45300 31.58700
C  23.65600 53.32600 32.76000
H  30.54800 48.67700 28.82500
H  29.53400 48.51300 22.42800
H  23.74100 51.04200 23.26200
H  26.90800 50.99900 31.20300
H  28.54900 48.67300 30.98500
H  30.16100 50.90300 30.17100
H  30.17100 50.32500 31.84200
H  29.06700 51.51700 31.40300
H  26.48700 48.07100 31.59500
H  25.06200 48.86800 31.00400
H  24.78300 48.97600 33.19200
H  25.10900 50.60900 32.72200
H  32.14700 47.89500 28.05300
H  33.21900 48.40200 26.80400
H  32.58800 46.74200 26.63300
H  34.05700 47.57600 23.16400
H  33.70300 46.83400 24.68200
H  33.78000 48.65000 24.59700
H  27.01100 48.44200 21.02400
H  25.38000 50.89600 21.42100
H  28.75600 50.46700 20.95700
H  27.14900 51.29700 20.54600
H  27.69900 50.06500 19.51500
H  24.84600 48.57800 20.23200
H  23.58400 49.60900 20.97700
H  24.27400 46.76800 21.41400
H  22.94700 47.64200 22.22300
H  24.51000 47.50800 22.97900
H  21.79200 51.54600 24.37300
H  22.16400 53.18400 24.72600
H  21.15900 52.29700 25.88300
H  23.86700 50.52400 30.17900
H  23.59600 54.36500 32.43900
H  24.65000 53.10000 33.14700
H  22.99200 53.13300 33.60200

