158

Mg 35.45500 2.85200 28.09600
C  33.80300 3.52400 30.98800
C  38.36000 2.61000 29.73300
C  37.00500 2.15600 25.09700
C  32.39800 2.91300 26.39800
N  35.99300 3.11500 30.17900
C  35.14500 3.24200 31.25000
C  35.87100 3.16300 32.59700
C  37.27700 2.77100 32.14100
C  37.27700 2.97500 30.62000
C  38.58100 3.30100 32.89300
C  35.15900 2.11400 33.55100
C  35.02400 2.40000 35.13900
H  35.41300 3.85500 35.59800
N  37.43700 2.50900 27.47900
C  38.45400 2.40000 28.32800
C  39.68200 2.02300 27.68100
C  39.31900 1.87400 26.27900
C  37.83700 2.13200 26.24600
C  41.04500 1.85000 28.36500
C  40.14700 1.62800 25.06000
O  39.73900 1.37400 23.90800
C  41.69100 1.49800 25.26300
N  34.75700 2.37800 26.14900
C  35.58800 2.24500 25.04000
C  34.79900 2.13400 23.76400
C  33.32000 2.03300 24.27700
C  33.49800 2.46200 25.70800
C  34.95300 3.44400 22.90900
C  32.59600 0.65100 24.09400
C  31.50100 0.55300 23.03200
N  33.45900 3.09400 28.52800
C  32.32700 3.18600 27.76700
C  31.24800 3.68300 28.50400
C  31.73900 3.80000 29.82700
C  33.10800 3.42700 29.73500
C  29.84700 3.99100 27.88600
C  31.34500 4.18700 31.14500
O  30.32300 4.58000 31.65300
C  32.71300 3.97400 31.97500
C  33.11300 5.19400 32.72900
O  34.05000 5.98800 32.52000
O  32.18300 5.36600 33.74500
C  32.33100 6.64900 34.45000
H  39.23200 2.45100 30.37000
H  37.60500 2.06600 24.19000
H  31.47400 2.87000 25.81800
H  35.97000 4.10100 33.14200
H  37.41000 1.69200 32.21400
H  39.14800 2.46000 33.29200
H  38.12800 3.86700 33.70700
H  39.21300 3.79500 32.15400
H  35.64700 1.13900 33.54300
H  34.17700 1.80200 33.19500
H  35.60000 1.64400 35.67200
H  33.95600 2.28600 35.32700
H  40.89000 1.97000 29.43700
H  41.84900 2.51400 28.04700
H  41.47500 0.85800 28.22200
H  42.24100 1.41800 24.32600
H  41.91500 0.58800 25.82000
H  41.93500 2.34800 25.90100
H  35.07700 1.19300 23.28900
H  32.71700 2.77200 23.74900
H  35.00000 4.35000 23.51300
H  34.05800 3.55200 22.29500
H  35.94200 3.38200 22.45600
H  32.08100 0.49800 25.04300
H  33.24400 -0.22300 24.03500
H  31.64100 -0.29400 22.36000
H  31.40600 1.43800 22.40300
H  30.58000 0.46600 23.60800
H  29.03300 3.45700 28.37600
H  29.83400 3.71800 26.83100
H  29.53900 5.03500 27.94500
H  32.60700 3.20000 32.73500
H  33.07700 7.36500 34.10700
H  32.57400 6.47500 35.49900
H  31.33400 7.08000 34.35600
Mg 42.14500 41.34100 27.46700
C  41.06500 43.70500 29.90600
C  43.12300 39.21300 29.89300
C  43.26300 39.37400 25.10600
C  41.50200 43.93700 25.06100
N  41.77600 41.35100 29.63300
C  41.47300 42.42500 30.41800
C  41.55100 42.00800 31.92200
C  42.27700 40.62900 31.89400
C  42.40500 40.38000 30.33600
C  43.61400 40.51200 32.67800
C  40.17200 42.01300 32.70900
C  40.16400 42.84600 34.07000
H  38.89000 42.85400 34.95900
N  42.84000 39.41800 27.48200
C  43.15900 38.67200 28.62500
C  43.67300 37.40300 28.28100
C  43.82200 37.55700 26.88000
C  43.26500 38.78800 26.38300
C  44.05600 36.34800 29.29500
C  44.41800 36.45300 25.93800
O  44.54300 36.53800 24.73000
C  44.93700 35.23600 26.65100
N  42.28200 41.62800 25.43600
C  42.72700 40.59900 24.64100
C  42.79100 40.99200 23.18500
C  42.19800 42.38300 23.12300
C  42.02800 42.68600 24.62100
C  44.25000 40.90800 22.64800
C  40.79400 42.45700 22.39900
C  39.53400 41.89700 23.09900
N  41.41800 43.41900 27.39300
C  41.15500 44.26800 26.37400
C  40.66100 45.49200 26.88800
C  40.58300 45.30000 28.26500
C  41.02900 43.99800 28.53500
C  40.23200 46.64700 26.07400
C  40.27200 45.98100 29.54700
O  39.83100 47.11100 29.77300
C  40.59400 44.98600 30.66600
C  41.75300 45.45000 31.51000
O  42.95700 45.44200 31.18000
O  41.28000 45.99500 32.69000
C  42.22300 46.72500 33.52400
H  43.49900 38.64800 30.74900
H  43.58100 38.64700 24.35600
H  41.08600 44.63000 24.32600
H  42.18000 42.68500 32.50000
H  41.62400 39.84800 32.28400
H  44.47700 40.29100 32.05000
H  43.54300 39.81600 33.51400
H  43.89500 41.43300 33.18800
H  39.89500 40.99400 32.97700
H  39.34200 42.36700 32.09700
H  40.43800 43.84600 33.73500
H  40.94200 42.44200 34.71700
H  45.13200 36.17300 29.30400
H  43.44100 35.45300 29.19800
H  43.77300 36.62300 30.31100
H  45.88300 35.60700 27.04500
H  45.10100 34.56700 25.80600
H  44.20800 34.82300 27.34800
H  42.22000 40.30200 22.56400
H  42.97200 43.05400 22.75100
H  44.98700 40.84100 23.44900
H  44.50300 41.81600 22.10200
H  44.38300 40.10800 21.92000
H  40.89600 41.93600 21.44700
H  40.53200 43.50000 22.22200
H  39.10300 41.11300 22.47700
H  38.72500 42.62800 23.11200
H  39.83000 41.50700 24.07300
H  39.72900 47.37600 26.71000
H  39.56600 46.38300 25.25300
H  41.12000 47.16000 25.70400
H  39.69800 44.80200 31.25800
H  41.82800 47.74000 33.58300
H  43.27900 46.80800 33.26400
H  42.23400 46.26600 34.51200

