158

Mg 42.63100 41.17100 26.09100
C  41.63900 43.41300 28.72100
C  43.56600 39.00900 28.53900
C  43.65000 39.15800 23.66600
C  41.93500 43.65600 23.83600
N  42.65500 41.26500 28.50700
C  42.07200 42.17200 29.28000
C  42.10500 41.61800 30.77800
C  42.92000 40.27000 30.68600
C  43.07500 40.18700 29.18100
C  44.22700 40.18000 31.58200
C  40.71800 41.66100 31.53800
C  40.77400 41.24300 33.02000
H  40.64200 42.32700 34.00900
N  43.50300 39.32500 26.08100
C  43.81800 38.59000 27.20000
C  44.46800 37.38000 26.76500
C  44.42100 37.31900 25.33300
C  43.80300 38.60300 24.97000
C  45.13800 36.50600 27.77200
C  44.92100 36.20500 24.37300
O  44.88600 36.27000 23.19000
C  45.60300 34.94600 24.93100
N  42.97300 41.45000 23.99700
C  43.24300 40.41000 23.23500
C  43.15200 40.84800 21.73300
C  42.43900 42.27100 21.83400
C  42.45600 42.50000 23.31700
C  44.55500 40.65700 21.12600
C  41.11400 42.37800 21.15000
C  40.00900 41.50100 21.61200
N  41.96000 43.11500 26.22700
C  41.84100 43.98900 25.21200
C  41.40400 45.29800 25.76100
C  41.25100 45.08700 27.11000
C  41.64900 43.72300 27.33200
C  41.19800 46.57700 24.95000
C  40.75700 45.67800 28.43000
O  40.22700 46.75700 28.66300
C  40.93800 44.54800 29.46900
C  41.85600 44.97800 30.53600
O  43.11900 44.86800 30.52700
O  41.10700 45.69900 31.50100
C  41.92600 46.26300 32.56800
H  43.60800 38.23300 29.30700
H  43.97700 38.66300 22.74900
H  41.65200 44.40900 23.09700
H  42.74600 42.31900 31.31100
H  42.17100 39.52200 30.94500
H  44.42900 41.11800 32.10000
H  45.06100 40.05500 30.89200
H  44.14800 39.39100 32.32900
H  40.10200 40.88200 31.08900
H  40.17600 42.58600 31.34200
H  41.67800 40.66600 33.21600
H  39.94800 40.54900 33.17600
H  44.57500 35.58700 27.93300
H  45.21900 37.02700 28.72700
H  46.14900 36.18400 27.52600
H  45.65700 34.11700 24.22500
H  44.91500 34.57800 25.69100
H  46.50800 35.24800 25.45900
H  42.43400 40.18900 21.24500
H  43.17400 42.99100 21.47200
H  44.68000 39.84100 20.41400
H  45.17300 40.38100 21.98000
H  44.89200 41.60600 20.71000
H  41.24700 42.14100 20.09500
H  40.73400 43.39500 21.25100
H  39.30500 42.12500 22.16200
H  40.46300 40.72900 22.23400
H  39.40200 41.12200 20.78900
H  41.40700 46.47300 23.88500
H  41.95400 47.20600 25.42000
H  40.21500 46.91500 25.27600
H  39.98500 44.22300 29.88800
H  42.37300 45.44400 33.13100
H  41.39300 47.04100 33.11500
H  42.80200 46.77500 32.17000
Mg 6.59800 53.96900 41.79200
C  5.71200 50.72300 41.16600
C  9.71700 53.43600 40.42100
C  7.13300 57.35200 41.81100
C  3.20900 54.67200 42.74400
N  7.53100 52.31800 40.81900
C  7.02800 51.05900 40.60600
C  8.11200 50.09000 40.10100
C  9.44800 50.90500 40.35500
C  8.89600 52.29300 40.51800
C  10.32400 50.49900 41.58100
C  7.92500 49.60900 38.65600
C  6.95800 50.46800 37.77000
H  7.51900 51.39400 36.71400
N  8.13900 55.18000 41.31000
C  9.38800 54.72900 40.82400
C  10.28200 55.88800 40.60100
C  9.54700 57.00900 41.04000
C  8.22600 56.56900 41.40300
C  11.59600 55.87100 39.93100
C  10.18200 58.38200 41.23800
O  11.27100 58.73900 40.88400
C  9.43900 59.50900 41.92500
N  5.28700 55.75500 42.07500
C  5.81600 56.97400 42.10700
C  4.77900 58.08700 42.43400
C  3.42300 57.26400 42.44700
C  3.95600 55.79200 42.36800
C  5.05700 58.80000 43.79200
C  2.49100 57.65000 41.27200
C  0.96600 57.73400 41.53500
N  4.81300 52.98000 41.81700
C  3.51700 53.32200 42.39200
C  2.76200 52.12100 42.59000
C  3.53400 51.12500 41.99800
C  4.77700 51.74100 41.62100
C  1.42100 51.97800 43.21800
C  3.57200 49.70300 41.74400
O  2.75200 48.80900 41.99900
C  5.02700 49.37200 41.30300
C  4.97000 48.55400 40.04800
O  4.63200 48.87800 38.94400
O  5.28800 47.30400 40.38200
C  5.32500 46.25100 39.38000
H  10.72700 53.21000 40.07400
H  7.25900 58.43400 41.73600
H  2.22500 54.93300 43.14100
H  8.10200 49.25600 40.80300
H  10.14600 50.85400 39.51800
H  11.32700 50.27900 41.21600
H  9.95600 49.60000 42.07600
H  10.43800 51.30500 42.30700
H  7.67500 48.56000 38.81300
H  8.90700 49.54900 38.18700
H  6.25100 50.99800 38.40800
H  6.44500 49.66700 37.23800
H  11.48900 54.99300 39.29400
H  12.49700 55.70400 40.52000
H  11.64300 56.73600 39.26900
H  8.72200 59.97900 41.25200
H  10.23500 60.22800 42.11900
H  8.97300 59.19400 42.85800
H  4.80500 58.76500 41.58100
H  2.81400 57.35500 43.34700
H  4.24300 58.57800 44.48300
H  5.26300 59.85100 43.59100
H  5.94400 58.29900 44.18000
H  2.54200 56.84000 40.54500
H  2.79900 58.54900 40.73900
H  0.42900 57.53000 40.60900
H  0.72400 58.74500 41.86400
H  0.70200 56.99300 42.28900
H  1.40300 50.95700 43.60000
H  0.53200 52.00600 42.58800
H  1.30900 52.78600 43.94000
H  5.48700 48.85900 42.14700
H  4.42600 45.64400 39.48500
H  6.24100 45.66700 39.47200
H  5.42800 46.65700 38.37300

