158

Mg 55.51900 23.82100 44.67400
C  53.33900 26.51000 44.21200
C  53.09800 21.78300 43.46000
C  57.87200 21.45500 44.63100
C  57.93200 26.23500 45.88200
N  53.51000 24.26200 43.64100
C  52.80900 25.33800 43.59200
C  51.50500 25.06600 42.83200
C  51.29100 23.52700 43.06600
C  52.70100 23.16500 43.42900
C  50.31800 23.23100 44.22000
C  51.59000 25.51800 41.33200
C  50.23600 25.86200 40.64600
H  49.88100 25.06200 39.36900
N  55.50000 21.86300 43.99600
C  54.36200 21.18100 43.60100
C  54.79200 19.84200 43.32900
C  56.19400 19.72000 43.64900
C  56.59500 20.99900 44.12700
C  53.79800 18.81500 42.83400
C  57.03500 18.38200 43.61900
O  56.53500 17.32600 43.24900
C  58.42400 18.33700 44.01000
N  57.60200 23.87900 45.07700
C  58.29000 22.65500 45.17700
C  59.77500 22.89800 45.61100
C  59.74400 24.42700 45.89800
C  58.30800 24.88700 45.59300
C  60.32200 21.98900 46.75000
C  60.79300 25.24300 45.13300
C  61.84300 25.88900 46.09300
N  55.62100 26.03700 45.05900
C  56.67200 26.80300 45.58600
C  56.13400 28.19400 45.78000
C  54.81900 28.08100 45.30100
C  54.63100 26.74800 44.75400
C  56.83700 29.33600 46.27300
C  53.53200 28.77200 45.16600
O  53.16700 29.90300 45.57700
C  52.55600 27.84200 44.37500
C  52.24900 28.59100 43.12300
O  53.09300 28.92200 42.30700
O  50.87800 28.75000 43.03800
C  50.46000 29.60600 41.89000
H  52.23900 21.17800 43.16200
H  58.67600 20.71800 44.68400
H  58.64600 26.86200 46.41900
H  50.81700 25.74200 43.33900
H  50.95200 23.01700 42.16400
H  49.41100 22.77500 43.82200
H  50.01800 24.15800 44.70700
H  50.70600 22.62700 45.04100
H  52.08500 24.75900 40.72600
H  52.20000 26.41600 41.23600
H  50.31700 26.92500 40.42000
H  49.43100 25.77500 41.37500
H  53.03400 19.41900 42.34400
H  53.39000 18.25600 43.67600
H  54.42500 18.21300 42.17700
H  58.44300 18.71300 45.03300
H  58.93300 18.96400 43.27900
H  58.71400 17.28700 43.96300
H  60.33300 22.77600 44.68300
H  59.87200 24.55900 46.97200
H  61.01700 21.36100 46.19200
H  59.52000 21.37000 47.15100
H  60.86600 22.49400 47.54800
H  60.32100 26.11800 44.68700
H  61.26200 24.65100 44.34700
H  62.68100 25.20300 45.96500
H  61.50100 25.92800 47.12700
H  62.24000 26.80800 45.66200
H  57.02400 29.14000 47.32900
H  56.28400 30.26800 46.15900
H  57.79500 29.39100 45.75500
H  51.66500 27.66600 44.97900
H  50.41800 30.68700 42.02700
H  49.46000 29.33400 41.55100
H  51.12100 29.52500 41.02700
Mg -1.62200 34.95100 26.90600
C  -3.65000 33.06700 29.04400
C  -0.71500 36.99300 29.50200
C  -0.16300 37.05100 24.63000
C  -3.05100 33.29200 24.16200
N  -2.20300 35.10700 28.97700
C  -2.97800 34.12800 29.67600
C  -2.85300 34.42200 31.19800
C  -2.13700 35.86100 31.20000
C  -1.74600 36.06400 29.78500
C  -2.90700 37.06300 31.86000
C  -2.22400 33.30100 32.07600
C  -3.03300 32.48800 33.10000
H  -2.45400 32.42600 34.56000
N  -0.45500 36.75100 27.08900
C  -0.15800 37.32300 28.27300
C  0.71700 38.42600 27.99800
C  0.87000 38.49800 26.56100
C  0.07300 37.41600 25.99100
C  1.35500 39.27000 29.03900
C  1.73500 39.46800 25.74100
O  1.82500 39.45800 24.53400
C  2.39900 40.58800 26.48200
N  -1.49800 35.05500 24.66000
C  -0.89300 36.10800 23.96400
C  -1.20900 36.09800 22.49400
C  -2.01500 34.78100 22.35100
C  -2.18000 34.32300 23.82600
C  -1.94900 37.39400 22.08200
C  -1.41900 33.69000 21.42100
C  -0.48800 32.64200 21.97000
N  -2.91200 33.45400 26.60000
C  -3.50000 32.90800 25.43200
C  -4.43600 31.82400 25.77100
C  -4.53000 31.87000 27.21900
C  -3.58900 32.86800 27.66100
C  -5.09900 30.86100 24.82900
C  -5.20700 31.31800 28.36200
O  -6.16100 30.51600 28.36800
C  -4.51100 31.89800 29.55800
C  -5.67700 32.32200 30.44700
O  -6.20800 33.44500 30.50500
O  -5.97100 31.18700 31.19100
C  -6.97700 31.36200 32.21500
H  -0.31200 37.52800 30.36500
H  0.24300 37.77800 23.92400
H  -3.59800 32.66800 23.45200
H  -3.84500 34.59600 31.61300
H  -1.14600 35.74200 31.63800
H  -2.22300 37.66700 32.45700
H  -3.76700 36.74300 32.44900
H  -3.29600 37.70900 31.07200
H  -1.29300 33.60900 32.55100
H  -1.85200 32.58900 31.33900
H  -3.19400 31.45000 32.80900
H  -3.98200 33.02400 33.07800
H  1.36500 38.68300 29.95700
H  1.00200 40.30000 29.09200
H  2.41400 39.37000 28.80300
H  1.78900 41.16100 27.18100
H  2.74400 41.27000 25.70500
H  3.31700 40.19100 26.91500
H  -0.32000 36.19800 21.87100
H  -3.03100 34.84900 21.96000
H  -1.69400 38.21600 22.75100
H  -3.02700 37.41700 22.24000
H  -1.77500 37.71600 21.05500
H  -1.10100 34.13200 20.47700
H  -2.28200 33.14500 21.03900
H  -1.00800 31.70000 22.14300
H  -0.15200 32.96500 22.95600
H  0.40500 32.42300 21.38500
H  -5.40800 29.97500 25.38500
H  -4.37500 30.61400 24.05300
H  -5.95700 31.32100 24.33900
H  -4.03600 31.06900 30.08300
H  -6.66800 31.89000 33.11600
H  -7.42400 30.45500 32.62400
H  -7.77800 32.01700 31.87300

