158

Mg 30.45600 57.54200 40.28600
C  27.82200 55.44700 39.04100
C  32.57900 55.16600 39.54600
C  32.89900 59.73600 40.76300
C  28.13200 60.11400 40.63500
N  30.21800 55.58500 39.26000
C  29.13100 54.89400 38.96200
C  29.43100 53.48100 38.46300
C  30.92700 53.29100 38.96300
C  31.29500 54.75400 39.30100
C  31.06700 52.26100 40.18000
C  29.23800 53.18300 36.86400
C  29.63200 54.19900 35.78600
H  28.48300 54.58000 34.79400
N  32.49900 57.48300 40.13500
C  33.13200 56.37500 39.81500
C  34.57700 56.71100 39.81500
C  34.68800 57.99500 40.14400
C  33.29300 58.51200 40.32500
C  35.63400 55.63800 39.34500
C  36.02000 58.74800 40.19100
O  37.08200 58.12200 40.03300
C  36.18900 60.13400 40.27800
N  30.47600 59.62800 40.64100
C  31.64100 60.23300 41.04400
C  31.52800 61.70600 41.41200
C  29.94400 61.77000 41.48500
C  29.40700 60.45500 40.92800
C  32.27800 62.21800 42.63000
C  29.29100 63.03300 40.86900
C  28.04000 63.56900 41.55500
N  28.35400 57.78100 39.93200
C  27.60800 58.89300 40.06300
C  26.21500 58.55100 39.85600
C  26.29800 57.21800 39.37300
C  27.61300 56.79600 39.44100
C  24.96800 59.39200 39.82100
C  25.53900 56.13900 38.78000
O  24.37900 56.16600 38.43900
C  26.52000 54.86300 38.58000
C  25.93300 53.79400 39.36800
O  26.15000 53.62000 40.54700
O  24.99400 53.13900 38.70600
C  24.44600 52.01900 39.45400
H  33.35200 54.39500 39.56700
H  33.69200 60.48000 40.86100
H  27.37500 60.84100 40.93600
H  28.70500 52.85500 38.98100
H  31.54800 53.01900 38.11000
H  30.07700 51.91000 40.47100
H  31.59500 52.75900 40.99400
H  31.71300 51.45300 39.83400
H  28.18200 52.99100 36.67500
H  29.75400 52.25800 36.60600
H  30.41600 53.71500 35.20300
H  29.99000 55.09400 36.29500
H  36.36400 56.10500 38.68400
H  35.21900 54.76400 38.84300
H  36.15800 55.23200 40.21000
H  37.21000 60.43100 40.03900
H  35.92500 60.48500 41.27600
H  35.51200 60.65000 39.59800
H  31.88100 62.19300 40.50300
H  29.61300 61.74000 42.52300
H  32.71600 61.34100 43.10700
H  31.54700 62.75500 43.23500
H  33.11600 62.86700 42.37400
H  29.08900 62.89400 39.80700
H  29.95800 63.89500 40.83900
H  27.20700 63.41200 40.86900
H  28.20800 64.58800 41.90400
H  27.67100 62.98200 42.39600
H  24.17900 58.72500 40.16900
H  24.75600 59.70000 38.79800
H  25.03800 60.23600 40.50700
H  26.59600 54.44600 37.57600
H  24.17200 51.30800 38.67500
H  23.61500 52.39100 40.05300
H  25.13300 51.41300 40.04500
Mg 16.78900 52.09100 26.34600
C  18.81100 51.17800 29.03400
C  14.34600 52.90500 28.59400
C  14.95200 53.04900 23.64500
C  19.44800 51.15000 24.13300
N  16.73400 52.27200 28.55600
C  17.63100 51.78900 29.45500
C  17.13100 51.82200 30.89500
C  15.66300 52.12100 30.64000
C  15.58000 52.50300 29.14300
C  14.62100 51.08900 31.15400
C  17.95800 52.98700 31.65100
C  18.18800 52.70600 33.10000
H  17.22300 51.73800 33.76200
N  14.91800 52.86400 26.15600
C  14.02700 53.07200 27.16600
C  12.69600 53.51600 26.64700
C  12.90400 53.51900 25.19800
C  14.32600 53.17100 24.92900
C  11.53400 53.89200 27.51400
C  11.92900 53.83400 24.11500
O  12.28000 53.86100 22.95900
C  10.49100 54.32700 24.40200
N  17.12500 52.05400 24.20700
C  16.21300 52.63500 23.31100
C  16.77500 52.52900 21.84400
C  18.29600 52.09900 22.12200
C  18.33400 51.78900 23.59600
C  15.96800 51.69000 20.86600
C  19.29900 53.16200 21.61600
C  19.94900 54.10800 22.62000
N  18.61600 51.22300 26.44800
C  19.58000 50.89400 25.51900
C  20.72700 50.34200 26.12800
C  20.39800 50.31000 27.53100
C  19.19000 50.99400 27.63800
C  21.99500 49.91600 25.44100
C  20.97900 50.02200 28.87200
O  22.06000 49.65300 29.31800
C  19.90600 50.52400 29.89000
C  19.55200 49.22000 30.62000
O  19.17300 48.16700 30.13000
O  19.79700 49.47400 31.97900
C  19.58300 48.29500 32.82000
H  13.58800 53.09200 29.35700
H  14.36900 53.39000 22.78700
H  20.24100 51.01900 23.39300
H  17.17000 50.85100 31.38900
H  15.43900 53.05200 31.16000
H  14.12700 50.74200 30.24600
H  13.94500 51.33600 31.97300
H  15.10800 50.21400 31.58300
H  17.31200 53.85000 31.48500
H  18.85000 53.18300 31.05600
H  18.10600 53.68400 33.57300
H  19.23700 52.40900 33.10500
H  11.65100 54.92800 27.82900
H  11.23700 53.24500 28.34000
H  10.60200 53.93400 26.95000
H  10.54900 55.27700 24.93400
H  10.00300 53.46900 24.86400
H  9.97200 54.36200 23.44400
H  16.70300 53.56200 21.50400
H  18.54700 51.18400 21.58600
H  16.61300 51.33600 20.06100
H  15.22300 52.35900 20.43400
H  15.49000 50.82000 21.31500
H  18.70500 53.79900 20.96000
H  20.12600 52.77700 21.02000
H  21.03400 54.01400 22.65700
H  19.58200 53.90900 23.62700
H  19.73000 55.14900 22.38200
H  22.43200 50.64000 24.75300
H  21.74600 48.98100 24.94000
H  22.80700 49.81200 26.16100
H  20.41800 51.15100 30.62000
H  20.40900 47.59000 32.72500
H  18.65900 47.73800 32.66700
H  19.55600 48.55200 33.87900

