158

Mg 35.93000 0.94400 29.77000
C  33.85600 2.34700 32.24700
C  38.48600 0.71900 32.05600
C  37.94000 0.33800 27.24400
C  33.32200 1.62000 27.32700
N  36.11600 1.47800 31.93600
C  35.13600 1.90300 32.81500
C  35.64300 1.98800 34.25900
C  37.23500 1.76000 34.07400
C  37.35100 1.28500 32.60400
C  38.19000 2.79900 34.59100
C  34.86400 0.90800 35.09300
C  34.12100 1.38800 36.30800
H  34.62800 2.65300 36.96900
N  37.89300 0.40600 29.68600
C  38.77600 0.35300 30.72200
C  40.00900 -0.15700 30.23200
C  39.88100 -0.22200 28.80900
C  38.51400 0.25900 28.46800
C  41.27000 -0.33300 31.10000
C  40.96300 -0.69900 27.79800
O  40.66400 -0.66100 26.62000
C  42.40300 -1.01200 28.22300
N  35.59100 0.85900 27.57600
C  36.65600 0.57100 26.78000
C  36.32600 0.77200 25.29800
C  34.72900 0.86100 25.33000
C  34.52700 1.14000 26.80000
C  36.97300 2.06100 24.77300
C  33.92700 -0.41200 24.78600
C  33.28100 -0.23300 23.44700
N  34.06300 1.86600 29.73800
C  33.07100 2.08000 28.64400
C  31.87300 2.51500 29.23800
C  32.10500 2.72100 30.60300
C  33.45300 2.30200 30.88000
C  30.62400 2.91600 28.53900
C  31.40700 3.02200 31.82900
O  30.24600 3.38400 31.94500
C  32.53200 2.85800 32.93300
C  32.66900 4.23100 33.66800
O  33.31700 5.16400 33.24100
O  31.83700 4.25400 34.77100
C  31.74100 5.51900 35.46100
H  39.24700 0.73500 32.83900
H  38.65400 0.16000 26.43700
H  32.44300 1.62600 26.67900
H  35.56500 3.01300 34.62000
H  37.48900 0.81100 34.54700
H  37.61400 3.60900 35.03800
H  38.87500 3.17400 33.83000
H  38.81200 2.36000 35.37200
H  35.62500 0.21300 35.44700
H  34.16900 0.51600 34.35000
H  33.86200 0.60500 37.02100
H  33.15700 1.70800 35.91300
H  41.05200 0.00800 32.11200
H  42.12300 0.24500 30.74600
H  41.59800 -1.37200 31.14300
H  42.88500 -1.08700 27.24800
H  42.44900 -1.90300 28.84800
H  42.86600 -0.16500 28.73000
H  36.77000 -0.04400 24.72900
H  34.39800 1.74500 24.78500
H  37.67300 2.41800 25.52900
H  36.33000 2.89400 24.48900
H  37.50000 1.77000 23.86500
H  33.29800 -0.70500 25.62600
H  34.63800 -1.22300 24.62800
H  33.08600 -1.13800 22.87200
H  33.75000 0.59000 22.90700
H  32.24200 0.02800 23.65100
H  30.57000 2.62900 27.48900
H  30.43200 3.98900 28.57200
H  29.74500 2.41100 28.93800
H  32.12800 2.05200 33.54600
H  32.74200 5.85000 35.73700
H  31.11900 5.31400 36.33300
H  31.33400 6.25000 34.76300
Mg 9.03200 48.64100 26.16100
C  7.06300 48.72500 29.11200
C  11.58300 49.65500 28.15800
C  10.93900 48.74300 23.42600
C  6.17300 48.32200 24.27000
N  9.21500 49.24300 28.38200
C  8.35100 49.13800 29.45600
C  8.98900 49.39500 30.82100
C  10.41500 49.93300 30.34800
C  10.35500 49.66700 28.83200
C  10.76900 51.41000 30.74500
C  9.12700 48.15800 31.75800
C  8.40100 48.30300 33.07800
H  8.45100 47.02500 34.01600
N  11.07400 48.98500 25.90200
C  12.00400 49.38700 26.80000
C  13.33400 49.39100 26.18200
C  13.10800 49.02700 24.81800
C  11.64100 48.92100 24.66600
C  14.61200 49.63700 26.98100
C  14.13900 48.68700 23.67400
O  13.89100 48.19700 22.55800
C  15.58200 48.96500 23.92100
N  8.60100 48.76700 24.16900
C  9.57300 48.60600 23.17500
C  8.99800 48.22200 21.74200
C  7.46600 48.14300 22.07800
C  7.41500 48.37000 23.57700
C  9.39600 49.09300 20.52900
C  6.78800 46.78500 21.74600
C  7.01900 46.31600 20.37200
N  7.00500 48.61500 26.49000
C  5.96200 48.43100 25.64900
C  4.73900 48.49700 26.38000
C  5.10100 48.47300 27.73100
C  6.54000 48.55800 27.75800
C  3.41600 48.47900 25.79000
C  4.64100 48.43400 29.07000
O  3.45200 48.45900 29.46300
C  5.92100 48.37600 30.05100
C  5.93100 46.96500 30.58100
O  6.21500 45.95400 29.91500
O  5.39000 46.90000 31.80700
C  5.50100 45.62300 32.54100
H  12.45200 49.89600 28.77500
H  11.50900 48.55900 22.51300
H  5.28200 48.43300 23.64800
H  8.45900 50.20200 31.32600
H  11.24400 49.32600 30.71100
H  11.73200 51.42900 31.25400
H  9.95500 51.81200 31.34800
H  10.76100 51.98700 29.82000
H  10.18900 47.99300 31.94100
H  8.68600 47.31200 31.23100
H  7.32300 48.45600 33.01900
H  8.78100 49.10900 33.70500
H  14.35500 49.48500 28.03000
H  14.99700 50.60800 26.67100
H  15.34700 48.86200 26.76600
H  15.67500 49.84600 24.55600
H  16.12500 49.11300 22.98700
H  15.88800 48.02300 24.37400
H  9.45200 47.25300 21.53400
H  6.82700 48.86800 21.57500
H  9.53700 48.31900 19.77400
H  10.33400 49.61200 20.73000
H  8.57200 49.79000 20.37700
H  5.72100 46.86900 21.95200
H  7.22900 46.03100 22.39600
H  6.22800 45.78800 19.83900
H  7.82200 45.58000 20.32700
H  7.24400 47.20400 19.78200
H  3.00000 47.52200 25.47800
H  3.28900 49.24900 25.02900
H  2.79500 48.73500 26.64800
H  5.71300 48.94200 30.96000
H  5.56400 45.90900 33.59100
H  6.35200 45.00000 32.26800
H  4.55800 45.08700 32.43100

