158

Mg 42.87300 3.91500 47.18700
C  40.55700 6.35100 47.40200
C  40.48100 1.58900 47.41800
C  45.28200 1.44700 46.84000
C  45.34900 6.24300 46.15900
N  40.79100 3.98500 47.26400
C  40.01700 5.07400 47.47300
C  38.55500 4.65800 47.49100
C  38.65900 3.18500 47.83600
C  40.07800 2.88200 47.52300
C  38.40600 2.83200 49.37200
C  37.74800 5.02100 46.17300
C  38.23700 4.62800 44.85100
H  38.39800 5.76200 43.77400
N  42.85800 1.81100 46.98000
C  41.75700 1.06600 47.11500
C  42.10400 -0.35900 47.10800
C  43.47000 -0.47900 46.85000
C  43.96700 0.97800 46.83700
C  41.04400 -1.47300 47.17300
C  44.29400 -1.83200 46.71000
O  43.81900 -2.92400 46.82700
C  45.71900 -1.72700 46.40300
N  44.98400 3.83700 46.43400
C  45.80000 2.73100 46.68100
C  47.27300 3.07800 46.65800
C  47.25800 4.53900 46.02400
C  45.76200 4.93500 46.18800
C  48.03600 2.98900 48.11200
C  47.82000 4.62800 44.54800
C  49.14400 5.30500 44.32700
N  43.02500 5.89800 46.95500
C  44.07300 6.79900 46.53000
C  43.60900 8.18300 46.59900
C  42.29700 8.04800 47.04600
C  41.96400 6.66000 47.14400
C  44.48500 9.43000 46.35900
C  41.07700 8.83000 47.34500
O  40.84700 10.04500 47.33800
C  39.91800 7.73300 47.56300
C  39.20000 7.91800 48.79000
O  39.53600 7.37600 49.83200
O  38.14600 8.73000 48.63700
C  37.11800 8.94300 49.69000
H  39.68500 0.84800 47.51800
H  46.07200 0.69900 46.93400
H  46.20100 6.81500 45.78600
H  38.04000 5.21100 48.27600
H  37.99500 2.58600 47.21300
H  38.12100 3.77100 49.84700
H  39.34500 2.55400 49.85200
H  37.67600 2.02600 49.44000
H  37.73300 6.11100 46.20500
H  36.76000 4.59800 46.35800
H  37.43700 4.04200 44.40000
H  39.13400 4.01100 44.91200
H  40.30300 -1.64200 46.39200
H  40.49100 -1.31400 48.09900
H  41.48900 -2.45900 47.30900
H  46.28000 -1.55800 47.32200
H  45.85200 -1.03100 45.57500
H  46.11800 -2.63700 45.95700
H  47.72900 2.34300 45.99500
H  47.86600 5.19900 46.64200
H  47.41900 2.35600 48.75000
H  48.26900 3.92900 48.61200
H  49.03100 2.54600 48.05000
H  47.06300 5.05900 43.89400
H  47.97200 3.61300 44.18200
H  49.77300 4.68700 43.68600
H  49.66000 5.44900 45.27600
H  49.01500 6.22900 43.76300
H  45.53800 9.15700 46.42000
H  44.23500 10.28200 46.99100
H  44.33200 9.74000 45.32500
H  39.19200 7.92600 46.77300
H  37.53900 8.93000 50.69500
H  36.42400 8.10300 49.66900
H  36.56100 9.86700 49.53400
Mg 26.14500 51.42500 26.35300
C  23.79800 52.40000 28.88500
C  28.40500 50.98200 28.85200
C  28.47800 51.13200 23.88000
C  23.73100 52.29000 24.00400
N  26.11900 51.72200 28.66900
C  24.94200 51.90800 29.47700
C  25.17600 51.54200 30.92300
C  26.75600 51.09200 30.90000
C  27.12500 51.25200 29.42700
C  27.77900 51.88500 31.88900
C  24.24700 50.46300 31.43900
C  23.76800 50.70300 32.90900
H  24.64300 50.17700 34.11200
N  28.16300 51.10500 26.37200
C  28.95000 50.88100 27.52100
C  30.21600 50.47500 27.11800
C  30.31800 50.62700 25.73600
C  28.91800 50.85900 25.25500
C  31.37900 50.10300 28.01000
C  31.56600 50.52300 24.79000
O  31.56600 50.89500 23.62900
C  32.83000 49.96700 25.26500
N  26.13900 51.78100 24.19900
C  27.18900 51.43500 23.36400
C  26.75600 51.63300 21.89800
C  25.19500 51.63100 21.99600
C  24.98100 51.94300 23.49500
C  27.34100 52.77200 21.13700
C  24.48700 50.31400 21.57600
C  24.76500 48.97200 22.31500
N  24.14200 52.13500 26.40200
C  23.26300 52.39400 25.33400
C  22.02100 52.83100 25.80900
C  22.15700 52.91300 27.18700
C  23.49000 52.44900 27.48900
C  20.84300 53.24900 25.04600
C  21.48800 53.23500 28.42900
O  20.31000 53.61700 28.66400
C  22.48500 52.89300 29.58000
C  22.75300 54.13600 30.38500
O  23.22600 55.16500 29.96600
O  22.34400 53.88800 31.64800
C  22.54900 54.91800 32.67000
H  29.22200 50.77900 29.54700
H  29.21600 51.05300 23.07900
H  22.95800 52.27900 23.23300
H  25.06900 52.47200 31.48200
H  26.90000 50.03200 31.11200
H  28.69000 52.25700 31.42000
H  27.98500 51.23200 32.73700
H  27.30300 52.68500 32.45600
H  24.82400 49.53800 31.42400
H  23.39700 50.31500 30.77300
H  22.82900 50.15600 32.99400
H  23.55300 51.75400 33.10100
H  31.51800 49.02300 27.98200
H  31.23800 50.25800 29.08000
H  32.19000 50.78500 27.75400
H  32.58700 49.13600 25.92700
H  33.45000 50.68100 25.80600
H  33.46800 49.52400 24.50000
H  26.99000 50.70100 21.38400
H  24.86600 52.51800 21.45600
H  27.66600 53.50200 21.87800
H  26.67700 53.29400 20.44800
H  28.25700 52.50200 20.61000
H  24.93900 50.03900 20.62300
H  23.47300 50.56600 21.26500
H  25.05700 48.19100 21.61300
H  23.86200 48.58900 22.79000
H  25.50900 49.03300 23.10900
H  19.84900 52.93400 25.36100
H  21.00600 53.15100 23.97300
H  20.66500 54.29800 25.28400
H  22.01900 52.17800 30.25800
H  23.11400 54.47900 33.49100
H  21.58400 55.17800 33.10400
H  23.07800 55.83700 32.41400

