158

Mg 47.65600 15.14100 28.33400
C  45.34000 15.14700 31.07000
C  49.67400 17.02200 30.33600
C  49.47200 15.34900 25.77000
C  45.07300 13.58700 26.36300
N  47.46100 15.96100 30.51200
C  46.53000 15.77200 31.42100
C  46.84400 16.45200 32.78500
C  48.12700 17.20300 32.36200
C  48.44300 16.70800 30.99800
C  48.13400 18.74400 32.53200
C  47.05900 15.40200 34.01100
C  46.31500 15.59200 35.27100
H  46.24200 17.08200 35.68000
N  49.31800 16.11500 28.13300
C  50.07700 16.72000 29.02000
C  51.40000 16.97500 28.44400
C  51.32400 16.50000 27.08300
C  49.97900 15.93900 26.94700
C  52.54600 17.69800 29.15000
C  52.40800 16.54900 25.99800
O  52.24900 16.18700 24.86600
C  53.87500 17.10600 26.33400
N  47.21600 14.71000 26.29400
C  48.29200 14.77600 25.44900
C  47.97100 14.20400 24.05300
C  46.66300 13.46700 24.35500
C  46.20900 13.99500 25.67500
C  47.89600 15.45600 23.02300
C  46.76500 11.90600 24.42600
C  47.73500 11.20600 25.41700
N  45.64300 14.54300 28.62900
C  44.76400 13.86600 27.76000
C  43.59600 13.45300 28.47600
C  43.73100 14.03800 29.74500
C  45.00900 14.65300 29.82600
C  42.44400 12.63800 27.94400
C  43.13800 14.02500 31.06600
O  42.09000 13.59500 31.58600
C  44.14600 14.84300 31.95200
C  43.55800 16.00500 32.53700
O  43.76800 17.18200 32.24800
O  42.85000 15.69300 33.67900
C  42.23200 16.70200 34.53300
H  50.49200 17.44200 30.92500
H  50.12200 15.20500 24.90400
H  44.40100 12.99800 25.73500
H  46.08200 17.18900 33.03900
H  49.02700 16.85700 32.87000
H  47.12000 19.09100 32.73100
H  48.40900 19.26500 31.61400
H  48.79500 18.94500 33.37500
H  48.12800 15.32900 34.21300
H  46.58100 14.50100 33.62700
H  46.83100 14.98600 36.01600
H  45.26500 15.30300 35.32400
H  52.34500 18.07100 30.15400
H  52.84300 18.55500 28.54500
H  53.44600 17.08800 29.22500
H  53.77200 18.19100 26.35100
H  54.37000 16.81900 25.40600
H  54.28500 16.62600 27.22200
H  48.77300 13.51600 23.78500
H  45.95700 13.64200 23.54200
H  48.36700 15.23900 22.06500
H  48.27100 16.41200 23.38900
H  46.82400 15.48500 22.82800
H  47.14800 11.74000 23.41900
H  45.79900 11.40100 24.43000
H  47.02600 10.85700 26.16800
H  48.47000 11.92800 25.77400
H  48.25300 10.39500 24.90500
H  41.87200 12.28700 28.80300
H  42.80900 11.75100 27.42400
H  41.84600 13.23500 27.25600
H  44.47700 14.11500 32.69200
H  41.35600 17.08600 34.01000
H  42.96600 17.38900 34.95700
H  41.86900 16.22900 35.44500
Mg 47.21700 24.54500 28.58600
C  47.81000 26.76400 31.33300
C  46.53400 22.11500 30.76500
C  46.68800 22.56500 25.92800
C  48.50800 27.02700 26.43600
N  47.33700 24.42500 30.82200
C  47.51800 25.43700 31.74200
C  47.29000 24.95800 33.18600
C  46.66900 23.53300 32.92700
C  46.85400 23.33100 31.42600
C  47.24100 22.39800 33.80600
C  46.40000 25.92700 34.01000
C  45.41800 25.51300 35.11900
H  45.51800 26.36500 36.46300
N  46.66500 22.60600 28.38300
C  46.36600 21.69300 29.41300
C  45.88900 20.41800 28.90600
C  46.03900 20.52700 27.46600
C  46.47400 21.98400 27.20200
C  45.39200 19.31400 29.85400
C  45.85500 19.50700 26.41700
O  45.68800 19.74500 25.21700
C  45.58000 18.09800 26.84600
N  47.65100 24.73300 26.47900
C  47.27500 23.78000 25.54100
C  47.63700 24.14500 24.14100
C  47.88600 25.64400 24.34400
C  48.13100 25.83000 25.84200
C  48.80900 23.39400 23.56400
C  46.76400 26.60600 23.90600
C  45.29700 26.23600 24.36400
N  47.95200 26.48100 28.76300
C  48.41800 27.36900 27.82100
C  48.98200 28.55700 28.47900
C  48.64900 28.39400 29.83100
C  48.07200 27.11200 29.95300
C  49.62000 29.80300 27.83300
C  48.59700 29.01400 31.05100
O  48.95600 30.13500 31.41100
C  48.08000 28.04800 32.08100
C  48.87600 27.96900 33.28500
O  49.86600 27.28500 33.50500
O  48.34700 28.90300 34.18100
C  48.90400 28.88400 35.48500
H  46.30100 21.25700 31.40000
H  46.60300 21.82900 25.12600
H  48.94600 27.79000 25.78900
H  48.21300 24.85400 33.75600
H  45.59900 23.69600 33.05200
H  46.47900 21.75700 34.25000
H  47.84300 22.87200 34.58200
H  47.80500 21.70100 33.18500
H  45.82200 26.54000 33.31800
H  47.09600 26.51800 34.60500
H  45.35300 24.44800 35.34300
H  44.45400 25.75500 34.67200
H  44.42200 18.99500 29.47200
H  45.38400 19.57500 30.91200
H  46.08700 18.47500 29.83100
H  46.23600 17.82300 27.67200
H  45.71600 17.26800 26.15300
H  44.52400 18.09900 27.11600
H  46.75500 23.92600 23.53900
H  48.69800 26.01200 23.71800
H  49.74700 23.94800 23.56400
H  48.67800 23.02300 22.54800
H  48.91500 22.49300 24.16800
H  46.70300 26.59800 22.81800
H  46.92200 27.64700 24.19100
H  44.83800 25.78300 23.48500
H  44.81600 27.17500 24.63500
H  45.33900 25.61000 25.25500
H  48.96900 30.62300 27.53000
H  50.20600 29.52300 26.95700
H  50.32500 30.26600 28.52400
H  47.10200 28.38800 32.42100
H  48.59300 28.11400 36.19100
H  48.67200 29.84000 35.95300
H  49.99300 28.83900 35.49800

