158

Mg 54.64500 23.64100 44.52200
C  52.33800 26.17200 43.40800
C  52.54000 21.33100 43.39900
C  57.03700 21.58800 45.02800
C  56.93600 26.39000 45.00300
N  52.79100 23.75500 43.30400
C  51.99700 24.85700 43.15100
C  50.67300 24.41300 42.58800
C  50.58700 22.94700 42.90800
C  52.05300 22.65600 43.17400
C  49.73800 22.56400 44.14300
C  50.44700 24.78400 41.04900
C  51.69900 24.67100 40.17300
H  51.50100 25.04100 38.64400
N  54.73400 21.68700 44.39600
C  53.78400 20.82100 43.86400
C  54.24100 19.44300 43.96000
C  55.57100 19.53000 44.48100
C  55.83200 20.97000 44.69500
C  53.40500 18.17100 43.58400
C  56.38900 18.30800 44.82000
O  56.15800 17.14800 44.30900
C  57.57600 18.36600 45.72900
N  56.72500 24.01400 44.84600
C  57.46000 22.92200 45.09900
C  58.97300 23.35300 45.30100
C  58.91900 24.88300 45.20200
C  57.45100 25.10200 45.04900
C  59.67000 22.86900 46.61800
C  59.72100 25.52000 44.04400
C  60.78200 26.64900 44.48600
N  54.62500 25.88500 44.32200
C  55.61100 26.84100 44.57200
C  55.15900 28.16300 44.19700
C  53.82300 27.98800 43.88800
C  53.55800 26.58300 43.89400
C  55.98800 29.34100 44.19400
C  52.58900 28.70100 43.56400
O  52.34600 29.88500 43.46300
C  51.53500 27.47200 43.26200
C  50.92600 27.81100 41.94200
O  51.49100 27.77400 40.86700
O  49.60100 28.20700 42.07900
C  48.84800 28.29700 40.88400
H  51.72700 20.63500 43.18400
H  57.77900 20.78900 45.09300
H  57.60600 27.25100 45.05500
H  49.99400 24.98600 43.22000
H  50.30100 22.38300 42.02000
H  49.38300 23.49100 44.59300
H  50.25100 21.97800 44.90500
H  48.90500 21.95800 43.78600
H  49.89400 25.71500 40.92800
H  49.80800 24.07200 40.52600
H  52.05300 23.64200 40.23600
H  52.50800 25.29900 40.54600
H  52.34300 18.41600 43.61400
H  53.56000 17.32900 44.25800
H  53.53900 17.84100 42.55400
H  57.41000 19.05800 46.55400
H  58.44500 18.65800 45.14000
H  57.76800 17.40500 46.20700
H  59.47200 22.92100 44.43300
H  59.12900 25.48900 46.08400
H  60.73400 22.85600 46.38300
H  59.34000 21.87000 46.90200
H  59.50100 23.54300 47.45800
H  59.09000 26.07100 43.34700
H  60.37300 24.76900 43.59700
H  61.23000 26.29000 45.41200
H  60.35000 27.63900 44.63300
H  61.48300 26.78400 43.66200
H  55.45300 30.09600 43.61900
H  56.93100 29.13200 43.68900
H  56.18600 29.77600 45.17400
H  50.91700 27.60900 44.14900
H  48.99600 27.46000 40.20200
H  49.15900 29.12400 40.24500
H  47.80000 28.09400 41.10400
Mg -11.86000 38.48500 42.02400
C  -9.62300 36.04800 40.74900
C  -9.70700 40.95800 40.70100
C  -14.35700 40.77500 42.28700
C  -13.98800 35.90700 42.97300
N  -9.93900 38.43200 40.88300
C  -9.23600 37.33700 40.48900
C  -8.03900 37.78000 39.64000
C  -8.05600 39.28900 39.76900
C  -9.35400 39.61800 40.45100
C  -6.83900 39.89700 40.57300
C  -8.04100 37.27900 38.16900
C  -6.94900 36.33300 37.66800
H  -5.88100 36.91400 36.73900
N  -11.96300 40.55400 41.59100
C  -10.90200 41.40300 41.23100
C  -11.39600 42.84200 41.13900
C  -12.77800 42.78100 41.58300
C  -13.11400 41.35200 41.82900
C  -10.50200 44.09600 40.85200
C  -13.72500 44.03100 41.70400
O  -13.39000 45.13600 41.29300
C  -15.08600 43.92600 42.26700
N  -13.86400 38.38800 42.44800
C  -14.64500 39.47600 42.68900
C  -16.13100 39.02900 43.26600
C  -15.95600 37.50100 43.24100
C  -14.51100 37.24300 42.77900
C  -16.40300 39.60300 44.70800
C  -17.01100 36.83200 42.28400
C  -17.03000 37.13500 40.76500
N  -11.86100 36.37700 41.91400
C  -12.69100 35.46700 42.44000
C  -12.14300 34.10700 42.40200
C  -10.93100 34.26700 41.67000
C  -10.81700 35.67700 41.39000
C  -12.79900 32.85000 42.92000
C  -9.74600 33.62100 41.04600
O  -9.38800 32.45700 40.95700
C  -8.90300 34.79600 40.46700
C  -7.58900 34.68400 41.17700
O  -7.33200 35.19100 42.23400
O  -6.76300 33.98200 40.34100
C  -5.34900 34.00100 40.66100
H  -9.16900 41.70900 40.11900
H  -15.21600 41.42200 42.48000
H  -14.63100 35.16600 43.45200
H  -7.18100 37.33700 40.14500
H  -8.30900 39.75100 38.81500
H  -6.88200 40.97300 40.74200
H  -5.87000 39.71400 40.10800
H  -6.84200 39.27300 41.46700
H  -8.13100 38.03000 37.38400
H  -8.97900 36.72800 38.11200
H  -7.43300 35.43800 37.27700
H  -6.25000 35.98900 38.43000
H  -9.53800 43.91900 41.32900
H  -10.94400 44.93200 41.39600
H  -10.44800 44.24200 39.77300
H  -15.70100 43.32200 41.60200
H  -15.51800 44.92600 42.22100
H  -15.08400 43.51900 43.27900
H  -16.87200 39.41200 42.56400
H  -16.00500 37.19800 44.28700
H  -16.01100 40.61200 44.83600
H  -16.01500 38.94200 45.48200
H  -17.44500 39.63300 45.02900
H  -17.98200 37.11200 42.69000
H  -17.00200 35.74300 42.33200
H  -15.99500 37.34600 40.49600
H  -17.73200 37.93100 40.51800
H  -17.39700 36.24000 40.26200
H  -12.15500 32.05400 42.54600
H  -13.82000 32.80700 42.54200
H  -12.61800 32.86000 43.99500
H  -8.89600 34.63900 39.38800
H  -4.67100 33.65600 39.88000
H  -5.17700 33.25100 41.43200
H  -5.10300 34.98400 41.06200

