158

Mg -2.15500 16.90900 25.68800
C  -2.60600 14.84300 28.15900
C  -2.68500 19.63200 27.71400
C  -1.63300 18.98500 23.00400
C  -2.00000 14.21100 23.32900
N  -2.58100 17.23500 27.71300
C  -2.64100 16.16500 28.57700
C  -2.95400 16.67300 30.01800
C  -3.07100 18.24700 29.80200
C  -2.72900 18.38600 28.32500
C  -4.34900 18.87500 30.33300
C  -1.82600 16.39000 31.06900
C  -1.82800 17.27200 32.34800
H  -1.48400 16.45900 33.65800
N  -2.11500 18.98200 25.39100
C  -2.35800 19.97800 26.38300
C  -2.35200 21.25500 25.77900
C  -1.80600 21.08300 24.42000
C  -1.88700 19.65100 24.16200
C  -2.78900 22.47400 26.48700
C  -1.49000 22.14900 23.46400
O  -1.36100 21.97700 22.23300
C  -1.16400 23.54900 24.02100
N  -1.98100 16.62000 23.49300
C  -1.74500 17.65600 22.67100
C  -1.72300 17.16700 21.22400
C  -1.99700 15.67100 21.31100
C  -1.84500 15.47700 22.82100
C  -2.73400 17.87600 20.22900
C  -1.06300 14.78300 20.43400
C  -1.72400 13.74500 19.45900
N  -2.20600 14.86800 25.64600
C  -2.09000 13.86600 24.68100
C  -2.14000 12.60000 25.39400
C  -2.45900 12.95900 26.74000
C  -2.39900 14.31500 26.84900
C  -1.90900 11.28800 24.67900
C  -2.79300 12.35800 28.08200
O  -2.97400 11.24300 28.46600
C  -2.71300 13.59600 29.06500
C  -1.51100 13.37800 29.89400
O  -0.34700 13.72300 29.69700
O  -1.94300 12.74800 31.05100
C  -0.97600 12.08600 31.91300
H  -2.76400 20.46000 28.42100
H  -1.33600 19.67600 22.21300
H  -2.08200 13.33600 22.68000
H  -3.87600 16.19900 30.35400
H  -2.27100 18.77400 30.32200
H  -4.90300 19.25300 29.47300
H  -4.11200 19.69700 31.00800
H  -4.91600 18.07900 30.81600
H  -0.85400 16.46700 30.58200
H  -2.00100 15.39500 31.47800
H  -2.69600 17.86300 32.64300
H  -0.93800 17.87200 32.15600
H  -3.20000 23.25500 25.84700
H  -2.17600 22.97200 27.23800
H  -3.64900 22.17800 27.08800
H  -0.48100 24.09700 23.37100
H  -0.57000 23.24300 24.88100
H  -2.04200 24.16800 24.20500
H  -0.67700 17.25800 20.93200
H  -3.00200 15.42300 20.97000
H  -3.14300 18.78700 20.66700
H  -3.60500 17.25600 20.02000
H  -2.25100 18.05200 19.26800
H  -0.40700 14.16800 21.04900
H  -0.51500 15.42300 19.74300
H  -2.78700 13.98700 19.46800
H  -1.65200 12.72800 19.84400
H  -1.34000 13.75900 18.43900
H  -1.84700 10.45000 25.37300
H  -1.00300 11.36100 24.07600
H  -2.72000 11.09100 23.97800
H  -3.63400 13.54500 29.64600
H  -1.54100 11.75000 32.78300
H  -0.14500 12.73500 32.18600
H  -0.53800 11.22300 31.41100
Mg -1.30600 33.88900 25.99000
C  -3.18700 32.15900 28.61300
C  0.01400 35.99500 28.24900
C  -0.08600 35.48300 23.50600
C  -3.12600 31.86600 23.74300
N  -1.69800 34.06500 28.10200
C  -2.40600 33.27100 29.00700
C  -2.06800 33.71300 30.43600
C  -1.16900 35.01000 30.24000
C  -0.86800 34.99700 28.79700
C  -1.92900 36.30700 30.79700
C  -1.36700 32.54100 31.26300
C  -2.01400 32.29800 32.70700
H  -1.10900 32.25300 33.99800
N  -0.16600 35.54300 25.83500
C  0.29300 36.33400 26.85100
C  1.21800 37.28300 26.39400
C  1.21300 37.12500 25.02100
C  0.29400 36.07000 24.72600
C  2.07400 38.16300 27.32000
C  2.14100 37.89200 24.03200
O  2.11900 37.76600 22.78400
C  3.13000 38.88900 24.51400
N  -1.81300 33.91800 23.80600
C  -1.00800 34.57100 22.99900
C  -1.05600 34.08300 21.57400
C  -1.67100 32.67700 21.73600
C  -2.27400 32.79500 23.17000
C  -1.66100 34.87000 20.48000
C  -0.60500 31.52100 21.62500
C  -1.15800 30.35000 20.80100
N  -2.82300 32.32900 26.09500
C  -3.47100 31.62300 25.07600
C  -4.42100 30.67000 25.60600
C  -4.21100 30.79500 26.99700
C  -3.35800 31.85100 27.23100
C  -5.32300 29.76400 24.84300
C  -4.67000 30.25300 28.25600
O  -5.39300 29.28300 28.44400
C  -4.03600 31.13500 29.32200
C  -5.20600 31.73800 30.02400
O  -5.74600 32.78100 29.75200
O  -5.38700 31.08200 31.21200
C  -6.20300 31.80600 32.19300
H  0.54600 36.59700 28.98900
H  0.28900 36.04800 22.65000
H  -3.68700 31.23100 23.05400
H  -3.07100 33.75600 30.86000
H  -0.25700 34.91300 30.83000
H  -1.40700 36.84400 31.58900
H  -2.87000 35.87300 31.13500
H  -2.14700 36.93900 29.93700
H  -0.35000 32.78700 31.56700
H  -1.45900 31.70300 30.57200
H  -2.64900 31.41300 32.76000
H  -2.74600 33.10200 32.78400
H  1.86300 38.09100 28.38700
H  2.04300 39.22200 27.06800
H  3.12200 37.90000 27.17800
H  2.57200 39.63600 25.07800
H  3.80200 39.38300 23.81100
H  3.84400 38.47100 25.22400
H  0.00900 34.04800 21.34500
H  -2.49900 32.43800 21.06900
H  -2.63100 34.52400 20.12300
H  -0.96000 34.97000 19.65100
H  -1.83900 35.83000 20.96400
H  -0.31500 31.17000 22.61500
H  0.26400 32.00800 21.18100
H  -0.47700 30.36200 19.95000
H  -2.13900 30.39200 20.32700
H  -1.12700 29.36500 21.26800
H  -6.20600 29.51200 25.43100
H  -4.78200 28.89000 24.48000
H  -5.62400 30.40000 24.01000
H  -3.52400 30.49300 30.03800
H  -5.55500 32.41000 32.83000
H  -6.75100 31.15600 32.87500
H  -6.78800 32.58200 31.70000

