158

Mg 35.54800 1.08000 30.00100
C  33.28600 1.68000 32.58700
C  38.02200 1.21000 32.35900
C  37.64500 0.91500 27.42500
C  32.83200 1.60000 27.74500
N  35.61000 1.41200 32.23600
C  34.53600 1.53300 33.09100
C  34.99500 1.69500 34.54100
C  36.57800 1.54700 34.41000
C  36.80000 1.45700 32.89900
C  37.28300 2.67100 35.08200
C  34.14300 0.73900 35.51300
C  33.45700 1.41600 36.69700
H  34.13600 2.56200 37.31900
N  37.51200 0.99200 29.87800
C  38.37800 0.90100 31.01400
C  39.64300 0.61300 30.46700
C  39.56800 0.58700 29.02900
C  38.19600 0.88500 28.69500
C  40.83600 0.39300 31.39000
C  40.66500 0.17500 28.05000
O  40.51800 0.04300 26.84300
C  42.00800 -0.24600 28.63500
N  35.28900 1.08200 27.91900
C  36.31800 1.07100 27.04100
C  35.82600 1.13300 25.57200
C  34.28500 1.28000 25.73400
C  34.06400 1.27000 27.23600
C  36.51600 2.11000 24.63600
C  33.41500 0.16500 25.06700
C  32.90400 -1.05200 25.87900
N  33.52600 1.48500 30.12900
C  32.52200 1.67700 29.08000
C  31.29300 1.97200 29.65400
C  31.51700 2.04600 31.03200
C  32.91700 1.66200 31.23700
C  30.05000 2.32300 28.93000
C  30.91000 2.32300 32.38700
O  29.76900 2.57400 32.74900
C  32.03000 2.16900 33.38400
C  32.26000 3.61000 33.78300
O  33.14600 4.33100 33.26400
O  31.60700 3.95100 34.99200
C  31.74700 5.30100 35.37500
H  38.83200 1.32800 33.08300
H  38.34800 0.89900 26.59000
H  32.14100 1.75200 26.91400
H  34.74500 2.73400 34.75500
H  36.85000 0.64900 34.96400
H  37.96200 3.19000 34.40400
H  37.97200 2.32800 35.85300
H  36.57800 3.39700 35.48800
H  34.87300 -0.00100 35.84000
H  33.46300 0.12200 34.92500
H  33.35500 0.72900 37.53700
H  32.49700 1.80800 36.36300
H  41.49000 1.25500 31.25800
H  41.48100 -0.47300 31.24500
H  40.52600 0.43600 32.43500
H  42.45600 0.50500 29.28500
H  42.67700 -0.30500 27.77600
H  41.80200 -1.17700 29.16300
H  36.01000 0.13900 25.16600
H  34.03300 2.25000 25.30600
H  35.82200 2.79300 24.14800
H  37.04600 1.55100 23.86500
H  37.26400 2.69200 25.17500
H  34.04900 -0.24400 24.28000
H  32.52400 0.65500 24.67400
H  33.58200 -1.22400 26.71500
H  32.82600 -2.00100 25.34800
H  31.86100 -0.91000 26.16200
H  30.29900 3.10500 28.21300
H  29.35000 2.64000 29.70400
H  29.75600 1.37800 28.47300
H  31.66600 1.56600 34.21700
H  31.55700 5.99000 34.55200
H  32.73500 5.45000 35.81000
H  31.00300 5.29300 36.17100
Mg -5.18700 25.15500 25.92300
C  -3.38300 26.31900 28.63500
C  -6.21200 22.51200 28.11900
C  -6.87300 23.64300 23.41400
C  -3.65500 27.31500 23.88400
N  -4.87000 24.51900 28.18500
C  -4.16500 25.30800 29.04300
C  -4.55000 24.95900 30.45500
C  -4.95600 23.51900 30.25300
C  -5.34900 23.45100 28.78800
C  -3.81200 22.55100 30.56100
C  -5.79700 25.82700 30.90900
C  -6.15700 25.91900 32.43500
H  -5.69400 24.83500 33.35300
N  -6.44100 23.44100 25.74700
C  -6.73000 22.45800 26.76100
C  -7.64900 21.54400 26.27900
C  -7.89200 21.84300 24.88200
C  -7.10700 23.07500 24.65300
C  -8.13000 20.38000 27.18800
C  -8.78900 21.09300 23.92400
O  -9.01900 21.51400 22.81500
C  -9.43000 19.77300 24.26100
N  -5.12700 25.28000 23.87400
C  -5.88200 24.57100 22.98100
C  -5.64900 25.11400 21.54300
C  -4.82100 26.48100 21.83700
C  -4.55500 26.33100 23.32800
C  -4.88600 24.15600 20.60200
C  -5.59600 27.80700 21.61000
C  -6.32900 28.00100 20.29700
N  -3.69400 26.46200 26.08200
C  -3.07300 27.34200 25.12300
C  -2.17000 28.19000 25.85000
C  -2.19000 27.83800 27.20000
C  -3.15000 26.75300 27.27800
C  -1.39400 29.42800 25.28600
C  -1.76800 28.19600 28.51100
O  -0.86800 28.94800 28.86500
C  -2.57000 27.30100 29.47200
C  -1.60000 26.63000 30.32200
O  -0.95600 25.65800 29.97200
O  -1.65100 27.23100 31.60900
C  -0.70200 26.74500 32.57800
H  -6.51900 21.64200 28.70300
H  -7.42200 23.27400 22.54500
H  -3.42300 28.18500 23.26700
H  -3.76000 25.15300 31.18000
H  -5.79900 23.27800 30.89900
H  -2.91600 22.88200 30.03500
H  -3.96800 21.54100 30.18300
H  -3.51100 22.45700 31.60400
H  -6.65200 25.47600 30.33100
H  -5.62700 26.82000 30.49300
H  -7.21900 26.11100 32.58300
H  -5.75500 26.91000 32.64500
H  -7.61700 19.43900 26.99000
H  -9.10300 19.95200 26.94500
H  -8.13000 20.65000 28.24400
H  -8.64300 19.11600 24.63100
H  -9.87400 19.38100 23.34600
H  -10.08800 19.99600 25.10100
H  -6.62000 25.35200 21.10700
H  -3.92200 26.56100 21.22600
H  -5.29100 23.15800 20.76900
H  -3.81900 24.17200 20.82500
H  -4.98700 24.58000 19.60300
H  -4.93400 28.65800 21.77100
H  -6.41700 27.67600 22.31500
H  -6.10400 29.04000 20.05300
H  -7.40500 28.00400 20.46900
H  -6.02000 27.27300 19.54700
H  -0.57000 29.59700 25.97800
H  -1.91000 30.36800 25.09300
H  -0.78800 29.22500 24.40300
H  -3.11900 27.79600 30.27400
H  -0.55400 27.50700 33.34300
H  0.29700 26.62500 32.15700
H  -0.96200 25.83700 33.12200

