158

Mg 15.89200 -1.73400 28.25200
C  15.03400 0.23000 31.04800
C  17.95300 -3.54800 30.39100
C  17.20900 -3.26800 25.66200
C  14.19100 0.47100 26.24600
N  16.40000 -1.66500 30.46900
C  15.80500 -0.82300 31.39400
C  16.35100 -1.09100 32.81400
C  17.42300 -2.23800 32.49900
C  17.22900 -2.52200 31.03000
C  18.88300 -2.08500 33.03100
C  15.21300 -1.50800 33.71100
C  15.10500 -1.03800 35.15900
H  16.46200 -0.72700 35.77400
N  17.29600 -3.27700 28.03900
C  17.99200 -3.93200 29.03000
C  18.76300 -4.99500 28.41000
C  18.65500 -4.88000 27.00600
C  17.71600 -3.75500 26.82300
C  19.60700 -6.03700 29.22100
C  19.25500 -5.66400 25.87300
O  19.04600 -5.47600 24.66900
C  20.28100 -6.81300 26.13500
N  15.73600 -1.39300 26.20600
C  16.31300 -2.20400 25.29700
C  15.98400 -1.82800 23.81000
C  14.77800 -0.86300 24.05100
C  14.89100 -0.56300 25.58400
C  17.12000 -1.34900 22.84500
C  13.38900 -1.53600 23.74300
C  12.55900 -0.92400 22.54700
N  14.94800 0.02800 28.52300
C  14.20000 0.76300 27.62200
C  13.64800 1.90300 28.27000
C  13.90500 1.70800 29.61800
C  14.74200 0.54400 29.75900
C  12.85400 2.98700 27.65000
C  13.76400 2.31500 30.96600
O  13.15500 3.34100 31.29700
C  14.52800 1.40500 31.95400
C  15.51300 2.19600 32.61100
O  16.64600 2.31700 32.34400
O  14.87400 2.85100 33.68500
C  15.68000 3.88500 34.38700
H  18.48500 -4.20000 31.08700
H  17.51400 -3.75600 24.73400
H  13.76200 1.17900 25.53400
H  16.82200 -0.21000 33.25000
H  17.17600 -3.14900 33.04400
H  19.59900 -1.96400 32.21900
H  19.03400 -2.90600 33.73400
H  18.84900 -1.24100 33.72000
H  15.24000 -2.59700 33.72200
H  14.24200 -1.29600 33.26200
H  14.63800 -1.73100 35.85800
H  14.55900 -0.09600 35.12200
H  19.50800 -5.89800 30.29700
H  20.60800 -5.80800 28.85500
H  19.45000 -7.10800 29.09500
H  21.11800 -6.33000 26.63900
H  20.59800 -7.19500 25.16500
H  19.81700 -7.63900 26.67500
H  15.55600 -2.71500 23.34300
H  14.79600 0.00000 23.38700
H  17.11800 -0.28600 22.60200
H  17.06100 -1.94900 21.93700
H  18.07800 -1.54400 23.32700
H  12.73500 -1.48000 24.61300
H  13.55600 -2.59300 23.53600
H  11.78900 -0.23800 22.90000
H  12.17400 -1.68000 21.86400
H  13.25500 -0.39300 21.89800
H  13.31500 3.49900 26.80600
H  12.75200 3.82300 28.34200
H  11.90500 2.56900 27.31700
H  13.89400 0.94200 32.71100
H  15.11000 4.74100 34.74900
H  16.59400 4.24800 33.91700
H  16.01200 3.32100 35.25800
Mg -10.33000 16.82500 40.98700
C  -6.77900 16.64100 41.09300
C  -9.95300 20.36100 40.58800
C  -13.50800 17.11000 40.11200
C  -10.33200 13.23300 40.79900
N  -8.61300 18.27500 40.98000
C  -7.29300 17.91700 40.88700
C  -6.41300 19.15200 40.55900
C  -7.39300 20.32300 40.96300
C  -8.74700 19.59200 40.77800
C  -7.10100 20.94700 42.33900
C  -6.02100 19.11100 39.02400
C  -4.63900 18.69300 38.57200
H  -4.40700 17.47000 37.74700
N  -11.61800 18.56200 40.43900
C  -11.25500 19.89200 40.40700
C  -12.42100 20.65100 40.07400
C  -13.53100 19.78600 39.95300
C  -12.92600 18.42700 40.17300
C  -12.36400 22.12300 39.93500
C  -14.98100 20.13000 39.59200
O  -15.36100 21.31400 39.57900
C  -15.97200 19.06500 39.21400
N  -11.75700 15.38200 40.48700
C  -13.02600 15.77600 40.28700
C  -13.99300 14.53700 40.27700
C  -12.91900 13.32200 40.26200
C  -11.58400 13.94600 40.53000
C  -15.03500 14.53000 41.36500
C  -12.79900 12.70500 38.80800
C  -13.90200 11.74000 38.41900
N  -8.93300 15.26300 41.16200
C  -9.06000 13.90100 41.12000
C  -7.74700 13.25100 41.24300
C  -6.87200 14.30300 41.21600
C  -7.58800 15.50800 41.17200
C  -7.43400 11.77400 41.28300
C  -5.46900 14.61400 41.11600
O  -4.51400 13.88400 40.98300
C  -5.34000 16.15400 41.17500
C  -4.82000 16.54100 42.53000
O  -5.33900 16.33200 43.62400
O  -3.54400 17.06600 42.29600
C  -2.62500 17.29100 43.41600
H  -9.87800 21.42600 40.35800
H  -14.57000 17.19000 39.87100
H  -10.43600 12.15300 40.92900
H  -5.46300 19.13500 41.09400
H  -7.29600 21.14000 40.24800
H  -7.73200 20.39800 43.03700
H  -7.36400 21.99600 42.47200
H  -6.03600 20.80900 42.52700
H  -6.18000 20.11300 38.62500
H  -6.69000 18.41200 38.52200
H  -3.95700 18.65400 39.42100
H  -4.24400 19.49500 37.94900
H  -13.31900 22.64700 39.93700
H  -11.96300 22.40300 38.96100
H  -11.76000 22.60300 40.70500
H  -15.41000 18.35600 38.60700
H  -16.93300 19.39100 38.81700
H  -16.22900 18.66300 40.19400
H  -14.46500 14.63100 39.29900
H  -13.28700 12.54800 40.93500
H  -15.06100 15.42400 41.98700
H  -14.89200 13.72900 42.09000
H  -16.07400 14.31100 41.11800
H  -11.86600 12.19000 38.57600
H  -12.95700 13.45300 38.03100
H  -13.41700 10.92500 37.88200
H  -14.65200 12.17700 37.75900
H  -14.35700 11.33500 39.32200
H  -6.65600 11.64200 42.03500
H  -6.97200 11.58400 40.31400
H  -8.45500 11.41800 41.41700
H  -4.72000 16.59200 40.39300
H  -1.97100 16.45300 43.65700
H  -3.10700 17.75300 44.27800
H  -2.07100 18.17900 43.11300

