158

Mg 8.24400 3.97600 27.83200
C  9.46300 2.61000 30.76100
C  6.40300 6.18100 29.66300
C  6.85500 4.94800 24.95500
C  9.66700 1.16800 26.12800
N  7.84700 4.17700 30.06600
C  8.63200 3.70000 31.06800
C  8.44700 4.44200 32.39400
C  7.29800 5.48200 32.00200
C  7.19800 5.32500 30.45700
C  5.95300 5.39400 32.75200
C  9.73200 5.09600 33.06900
C  10.22300 4.51000 34.43200
H  10.49100 5.52500 35.62800
N  6.77800 5.37300 27.40900
C  6.18900 6.24300 28.33100
C  5.23400 7.14700 27.51200
C  5.43700 6.81500 26.14700
C  6.39500 5.65600 26.07700
C  4.25100 8.12600 28.08400
C  4.78500 7.48400 24.91500
O  4.92200 7.04700 23.77600
C  4.07500 8.82100 24.96100
N  8.09800 3.08900 25.95500
C  7.60900 3.79900 24.86900
C  8.01100 3.13000 23.55700
C  8.63300 1.81600 23.97000
C  8.77000 1.97200 25.46200
C  6.80500 2.95900 22.60900
C  9.88800 1.52100 23.11100
C  9.74400 0.84000 21.73800
N  9.48700 2.30600 28.25700
C  10.03800 1.30500 27.49300
C  10.86100 0.43500 28.23700
C  10.67600 0.83200 29.58400
C  9.78900 1.99200 29.52100
C  11.37000 -0.89800 27.70400
C  10.89700 0.61300 31.01100
O  11.62300 -0.22600 31.51800
C  10.19200 1.83700 31.80500
C  9.38400 1.31400 32.90500
O  8.20400 1.01300 32.90800
O  10.13500 1.32600 34.04300
C  9.46600 0.89300 35.25400
H  5.88800 6.94200 30.25200
H  6.51600 5.34600 23.99600
H  10.05900 0.39900 25.46000
H  8.06900 3.70600 33.10400
H  7.60700 6.49900 32.24700
H  5.89200 6.12900 33.55400
H  5.65600 4.41000 33.11500
H  5.14600 5.69400 32.08400
H  9.42000 6.11300 33.30500
H  10.53700 4.91000 32.35800
H  11.20200 4.05800 34.27100
H  9.53500 3.80800 34.90300
H  4.32200 8.11900 29.17200
H  3.31300 7.78700 27.64400
H  4.40800 9.14100 27.71900
H  4.61300 9.62200 25.46700
H  3.16800 8.60000 25.52400
H  3.94500 9.25300 23.96900
H  8.64500 3.89900 23.11400
H  7.90000 1.02400 23.81900
H  5.88700 3.15100 23.16400
H  6.71200 1.94300 22.22600
H  6.98900 3.56600 21.72200
H  10.55100 0.83000 23.63200
H  10.50300 2.40300 22.93400
H  10.28600 -0.10200 21.65800
H  10.14200 1.49900 20.96600
H  8.69200 0.59800 21.58900
H  12.45600 -0.86300 27.61400
H  11.00500 -1.02500 26.68400
H  11.03000 -1.60700 28.45900
H  11.06300 2.36400 32.19400
H  8.94400 -0.05500 35.12700
H  8.77800 1.69200 35.53200
H  10.17200 0.80800 36.08000
Mg 26.85500 49.70600 25.79500
C  24.96800 50.61600 28.52400
C  29.27400 48.43200 28.13900
C  29.00200 48.85500 23.20900
C  24.68400 50.98700 23.56900
N  27.22000 49.70600 28.16500
C  26.14200 49.90900 29.01100
C  26.42900 49.40100 30.45100
C  27.92600 49.06800 30.30400
C  28.11000 48.90700 28.72300
C  28.87500 50.13000 30.83200
C  25.51700 48.28800 31.02000
C  25.01700 48.32900 32.45900
H  25.67600 49.26700 33.62500
N  28.85800 48.80400 25.68500
C  29.62600 48.41800 26.76800
C  30.88600 47.93700 26.22000
C  30.89300 48.24900 24.83400
C  29.48200 48.57500 24.54400
C  31.88800 47.27700 27.13300
C  32.05600 48.10500 23.84300
O  31.96200 48.41300 22.66300
C  33.37800 47.62000 24.40200
N  26.87600 50.02900 23.69600
C  27.80400 49.45500 22.85300
C  27.46100 49.67900 21.38700
C  25.94800 50.27500 21.51600
C  25.78900 50.43200 23.01100
C  28.52400 50.49200 20.66800
C  24.76400 49.31000 21.00700
C  23.74200 49.88200 19.95100
N  25.24800 50.71000 26.00800
C  24.43300 51.23100 24.94900
C  23.35300 51.99500 25.59600
C  23.48900 51.62000 26.95300
C  24.68300 50.90900 27.16200
C  22.25000 52.80300 24.93800
C  22.82600 51.75100 28.20300
O  21.74100 52.24400 28.54800
C  23.68400 51.00700 29.29500
C  23.94500 51.92000 30.51700
O  24.04800 53.12000 30.54300
O  23.78900 51.11100 31.67100
C  23.32400 51.80400 32.89200
H  29.98400 47.91100 28.78600
H  29.56100 48.30700 22.44800
H  23.93200 51.31700 22.84900
H  26.10400 50.25100 31.05100
H  28.42400 48.19000 30.71500
H  29.29300 49.74800 31.76400
H  28.41500 51.06700 31.14400
H  29.66900 50.28200 30.10100
H  26.04600 47.34000 30.92500
H  24.71800 48.28000 30.27900
H  25.16200 47.34400 32.90200
H  23.93800 48.47900 32.51700
H  32.66400 47.95800 27.48200
H  32.38000 46.37800 26.76100
H  31.49500 46.88700 28.07300
H  34.08700 47.60300 23.57400
H  33.24600 46.58400 24.71300
H  33.74700 48.20700 25.24300
H  27.39800 48.67700 20.96400
H  25.91200 51.19200 20.92600
H  29.43100 50.42900 21.26800
H  28.21100 51.53600 20.66400
H  28.58900 50.09900 19.65300
H  24.18700 48.95300 21.86100
H  25.25600 48.45300 20.54700
H  23.85500 50.96300 19.87300
H  22.75200 49.54700 20.26100
H  23.87000 49.68700 18.88600
H  22.60400 53.16700 23.97300
H  22.10200 53.66700 25.58600
H  21.36300 52.19100 24.77500
H  23.17200 50.14900 29.73000
H  23.96400 52.67400 33.03900
H  23.31600 51.15700 33.77000
H  22.27000 52.04900 32.76200

