158

Mg 53.19300 24.58200 45.13300
C  50.68600 26.87100 44.13500
C  51.50300 22.07100 43.50100
C  55.86600 22.62500 45.59500
C  55.11600 27.36000 46.01700
N  51.30300 24.57000 43.82700
C  50.38200 25.56500 43.67000
C  49.14900 25.03200 42.87000
C  49.28800 23.48200 43.03000
C  50.81100 23.35400 43.49700
C  48.45100 22.60500 44.04200
C  49.12700 25.55500 41.37000
C  50.48200 25.81000 40.70400
H  50.40600 26.23000 39.28500
N  53.51800 22.66200 44.78200
C  52.73000 21.73900 44.13100
C  53.27900 20.43000 44.29200
C  54.48600 20.51800 45.02800
C  54.64800 21.98100 45.21100
C  52.55100 19.21400 43.85200
C  55.39500 19.37200 45.50200
O  55.15800 18.17100 45.31000
C  56.68300 19.51200 46.33700
N  55.24800 24.98300 45.49700
C  56.15700 24.00800 45.64100
C  57.52900 24.59900 45.85800
C  57.34200 26.13300 45.77700
C  55.84300 26.21000 45.70400
C  58.23200 24.07100 47.17100
C  58.15400 26.71900 44.58000
C  57.38600 27.09300 43.27700
N  52.91900 26.64900 45.22700
C  53.73500 27.62400 45.73800
C  53.00300 28.90300 45.78700
C  51.79100 28.61300 45.21400
C  51.79300 27.25400 44.85100
C  53.48600 30.13300 46.46700
C  50.56100 29.17900 44.78400
O  50.17700 30.32100 44.86400
C  49.72700 28.04500 44.05800
C  49.50600 28.56400 42.68700
O  50.39600 28.91100 41.91700
O  48.14500 28.76700 42.46700
C  47.80300 29.10300 41.09200
H  50.97900 21.18900 43.12500
H  56.75700 22.03700 45.82700
H  55.75500 28.23500 46.15000
H  48.30300 25.43100 43.43100
H  49.10400 22.91400 42.11800
H  48.22100 21.71800 43.45200
H  47.55200 23.19100 44.23200
H  48.86100 22.32500 45.01200
H  48.55700 26.48100 41.44000
H  48.61100 24.84900 40.71900
H  51.12200 24.92900 40.76100
H  51.10200 26.44000 41.34100
H  51.59400 19.11300 44.36200
H  53.07200 18.26100 43.93800
H  52.29100 19.43900 42.81700
H  56.98300 18.58500 46.82500
H  56.52200 20.26800 47.10600
H  57.55300 19.79800 45.74600
H  58.17800 24.24000 45.05900
H  57.58300 26.66200 46.69900
H  58.68800 24.80700 47.83400
H  59.14700 23.52000 46.95400
H  57.59300 23.40400 47.75000
H  58.93100 26.07800 44.16400
H  58.40500 27.73400 44.88900
H  56.69000 26.36600 42.86000
H  58.08600 27.18500 42.44600
H  56.94600 28.08800 43.35200
H  53.60200 30.98100 45.79200
H  54.47100 30.08700 46.93300
H  52.75800 30.37300 47.24100
H  48.85000 27.86700 44.68000
H  47.88100 30.19000 41.11300
H  46.78600 28.85700 40.78700
H  48.39600 28.58900 40.33500
Mg 46.90900 16.46200 28.69600
C  44.89100 16.02000 31.51700
C  48.99700 18.36700 30.55100
C  48.42800 17.32900 25.88600
C  44.21900 15.02100 26.82300
N  46.87500 17.11800 30.74800
C  46.01900 16.79700 31.77700
C  46.49200 17.48600 33.09500
C  47.69300 18.43000 32.69300
C  47.87400 17.96900 31.15800
C  47.42800 20.00000 32.84400
C  46.86600 16.43200 34.22000
C  46.24900 16.74000 35.60300
H  45.94100 18.17900 36.05900
N  48.55800 17.60200 28.25700
C  49.33700 18.21100 29.20100
C  50.52400 18.79600 28.57500
C  50.43800 18.45800 27.17200
C  49.11600 17.75400 27.05900
C  51.53200 19.63000 29.43900
C  51.32500 18.69300 26.01600
O  51.07000 18.30200 24.91300
C  52.63100 19.42900 26.30000
N  46.28800 16.42400 26.67900
C  47.11000 16.82300 25.69300
C  46.48900 16.69900 24.28600
C  45.44800 15.63300 24.58100
C  45.25100 15.73900 26.11400
C  46.09300 17.99400 23.52300
C  45.78700 14.20400 24.06800
C  46.87700 13.56200 24.88900
N  45.11800 15.46100 29.01300
C  44.14300 14.96200 28.19400
C  43.13200 14.29800 28.92600
C  43.43000 14.62400 30.27400
C  44.59100 15.42100 30.26000
C  41.97100 13.43800 28.40100
C  42.92900 14.49700 31.67300
O  41.97600 13.93600 32.15500
C  43.86400 15.46500 32.52700
C  43.05100 16.53300 33.10700
O  42.79600 17.62000 32.61400
O  42.53500 16.04200 34.28700
C  41.58400 17.05900 34.86800
H  49.59000 19.02100 31.19300
H  48.99800 17.53200 24.97700
H  43.42700 14.60400 26.19800
H  45.67700 18.03600 33.56600
H  48.58400 18.17000 33.26400
H  48.25600 20.29900 33.48700
H  46.47100 20.13800 33.34700
H  47.42100 20.61500 31.94400
H  47.95300 16.40200 34.29100
H  46.52600 15.48200 33.80900
H  46.91600 16.33300 36.36300
H  45.29400 16.21500 35.58300
H  51.20100 19.89400 30.44300
H  51.42200 20.58300 28.92200
H  52.53800 19.21600 29.38000
H  53.41200 18.68600 26.46200
H  52.61000 20.11900 27.14300
H  52.87700 20.03200 25.42500
H  47.23200 16.29100 23.60200
H  44.48800 15.96000 24.18200
H  46.87500 18.17200 22.78500
H  46.03400 18.82300 24.22800
H  45.14600 17.87700 22.99600
H  46.19500 14.40600 23.07800
H  44.82400 13.69600 24.11600
H  46.41400 12.89000 25.61100
H  47.57900 14.25700 25.35100
H  47.43400 13.02200 24.12200
H  41.09000 14.00600 28.10300
H  41.71800 12.75100 29.20900
H  42.26600 12.87000 27.51900
H  44.41800 14.82200 33.21200
H  41.10900 17.75400 34.17600
H  42.07400 17.48600 35.74300
H  40.73400 16.42500 35.12100

