158

Mg -9.37000 39.98300 43.33900
C  -8.24000 36.91300 42.20000
C  -6.71600 41.52900 41.90800
C  -10.94900 42.90800 43.85400
C  -12.57600 38.32400 43.98900
N  -7.71300 39.27100 42.23200
C  -7.45900 37.97300 41.78600
C  -6.22600 37.95200 40.93200
C  -5.71100 39.45900 40.82700
C  -6.69400 40.14200 41.81700
C  -4.21600 39.73500 41.09600
C  -6.33300 37.29400 39.51700
C  -5.28300 36.12100 39.28200
H  -4.30700 36.40900 38.07900
N  -8.84700 41.97000 42.93000
C  -7.65500 42.38500 42.45600
C  -7.61300 43.89900 42.46700
C  -8.84800 44.32400 43.08800
C  -9.60600 43.04500 43.32200
C  -6.42500 44.73500 41.92700
C  -9.14200 45.69200 43.37000
O  -8.28200 46.53000 43.23100
C  -10.41300 46.11000 43.96700
N  -11.46900 40.52300 43.87400
C  -11.84300 41.81400 44.00500
C  -13.18200 41.97100 44.66600
C  -13.73300 40.52600 44.55400
C  -12.51700 39.73200 44.08200
C  -13.08800 42.39200 46.16100
C  -14.90000 40.30600 43.55100
C  -16.12000 39.71600 44.27400
N  -10.16900 38.02600 43.33100
C  -11.45800 37.52900 43.65800
C  -11.45800 36.06200 43.65000
C  -10.23100 35.75000 42.97500
C  -9.49900 36.99100 42.88800
C  -12.58600 35.16600 43.90100
C  -9.33600 34.73600 42.49600
O  -9.50200 33.52000 42.55800
C  -8.02100 35.38900 41.93000
C  -6.90300 34.88800 42.75300
O  -6.51200 35.23500 43.88300
O  -6.26200 33.98800 41.93300
C  -5.17900 33.13800 42.57400
H  -5.99100 42.03400 41.26600
H  -11.40300 43.88500 44.03700
H  -13.51600 37.88600 44.32900
H  -5.60200 37.42700 41.65600
H  -6.03800 39.80100 39.84500
H  -3.64700 38.83200 41.32100
H  -4.15500 40.29500 42.02900
H  -3.76800 40.19400 40.21400
H  -6.18400 37.99800 38.69900
H  -7.31400 36.85500 39.33200
H  -5.84100 35.22700 39.00400
H  -4.74100 35.88000 40.19700
H  -6.71300 45.28800 41.03400
H  -5.65000 44.02200 41.64500
H  -6.15500 45.39000 42.75600
H  -10.44600 47.19800 43.90900
H  -10.67400 45.76500 44.96700
H  -11.23500 45.77100 43.33700
H  -13.71300 42.74000 44.10500
H  -14.12500 40.19300 45.51500
H  -12.11100 42.82100 46.38600
H  -13.20200 41.56200 46.85800
H  -13.87900 43.08000 46.45600
H  -14.53800 39.66500 42.74700
H  -15.18500 41.19600 42.98900
H  -16.92300 40.22200 43.73700
H  -16.24400 39.94000 45.33400
H  -16.27400 38.65400 44.08500
H  -13.25300 34.91100 43.07700
H  -13.25100 35.61700 44.63700
H  -12.12500 34.26300 44.30000
H  -7.75100 35.17300 40.89700
H  -4.80000 32.25500 42.06000
H  -5.58800 32.78600 43.52100
H  -4.29500 33.72000 42.83700
Mg 0.10400 42.77300 26.53800
C  2.56800 42.41500 28.90200
C  -2.16800 41.36500 28.59100
C  -2.23800 42.93600 23.98200
C  2.55300 43.69600 24.13500
N  0.17900 42.01000 28.45500
C  1.23400 42.09900 29.34700
C  0.84800 41.71800 30.79000
C  -0.58600 41.07800 30.51200
C  -0.88700 41.47300 29.07200
C  -0.62800 39.49700 30.72700
C  0.70000 42.98800 31.68500
C  1.26100 42.88800 33.08000
H  0.69400 41.55100 33.78800
N  -1.92000 42.37800 26.35900
C  -2.69100 41.81600 27.35200
C  -4.06200 41.64400 26.85000
C  -4.17500 42.23400 25.56900
C  -2.71200 42.55700 25.21200
C  -4.99200 40.90400 27.73100
C  -5.44100 42.41600 24.65600
O  -5.39100 42.85000 23.50300
C  -6.77900 42.19800 25.22900
N  0.18100 43.29900 24.39300
C  -0.97000 43.37700 23.61900
C  -0.80400 43.98000 22.25000
C  0.81500 44.18000 22.30200
C  1.25800 43.69100 23.64000
C  -1.32600 43.19900 21.03100
C  1.40000 45.63500 22.06100
C  0.75100 46.80300 22.77100
N  2.13400 42.99100 26.43500
C  3.02000 43.26100 25.45800
C  4.41300 43.18400 25.89400
C  4.26700 42.97900 27.33800
C  2.90600 42.80100 27.56900
C  5.70200 43.43600 25.12300
C  4.96000 42.76900 28.56900
O  6.16200 42.80500 28.83500
C  3.87200 42.53400 29.65100
C  4.23200 41.31100 30.34800
O  4.02100 40.18400 29.94100
O  4.68900 41.59400 31.63500
C  4.78800 40.45900 32.52400
H  -2.89100 41.19900 29.39300
H  -2.98000 42.96700 23.18100
H  3.32700 44.19400 23.54500
H  1.45900 40.95600 31.27300
H  -1.33700 41.50600 31.17700
H  0.39200 39.14000 30.86600
H  -1.09200 38.99500 29.87800
H  -1.30000 39.25700 31.55100
H  -0.37400 43.15300 31.77300
H  1.12100 43.86100 31.18500
H  1.07800 43.85400 33.55000
H  2.34200 42.95000 32.95700
H  -4.51500 40.17500 28.38600
H  -5.59400 40.33400 27.02300
H  -5.62900 41.62300 28.24700
H  -6.89300 41.11600 25.16300
H  -7.46300 42.76500 24.59900
H  -6.69900 42.58500 26.24500
H  -1.38600 44.88400 22.42900
H  1.35700 43.57600 21.57400
H  -0.95000 42.17600 21.01300
H  -1.00300 43.72500 20.13300
H  -2.39100 43.02300 20.87600
H  1.34000 45.67400 20.97400
H  2.47900 45.61900 22.21900
H  0.37800 47.53700 22.05700
H  1.50200 47.27600 23.40500
H  -0.08000 46.43000 23.36900
H  6.29200 42.52700 25.00600
H  6.27200 44.21200 25.63400
H  5.57100 43.78600 24.09900
H  3.78800 43.28900 30.43200
H  3.97000 40.56400 33.23700
H  5.74100 40.49100 33.05100
H  4.73000 39.47900 32.05100

