158

Mg 3.52100 0.63200 44.16300
C  6.39900 2.69200 43.79000
C  1.65900 3.11900 42.75000
C  1.14100 -1.67700 43.60300
C  5.79300 -2.05400 44.82600
N  4.02700 2.52100 43.12800
C  5.27000 3.22000 43.11500
C  5.18900 4.56600 42.52300
C  3.57800 4.81500 42.60700
C  3.00300 3.36500 42.77800
C  3.22500 5.74600 43.78700
C  5.70100 4.66000 41.09800
C  6.34500 3.49100 40.38900
H  6.80900 3.82400 38.98700
N  1.66400 0.69600 43.40200
C  1.05400 1.84500 42.88100
C  -0.27400 1.51000 42.55800
C  -0.50600 0.18500 43.02300
C  0.75300 -0.36400 43.36200
C  -1.29600 2.41600 41.95100
C  -1.86900 -0.51100 42.83800
O  -2.90200 0.07200 42.48800
C  -1.92600 -1.99400 43.04400
N  3.41500 -1.63900 44.40600
C  2.33000 -2.30200 43.98700
C  2.53200 -3.83300 44.02700
C  4.09100 -3.92900 44.51900
C  4.51200 -2.46900 44.57200
C  1.54500 -4.74100 44.70800
C  4.99000 -4.81600 43.61300
C  6.15100 -5.72100 44.21500
N  5.63200 0.29600 44.38000
C  6.40700 -0.81600 44.72300
C  7.77000 -0.42000 44.95000
C  7.79700 0.94500 44.72700
C  6.48100 1.37100 44.35500
C  8.93100 -1.30000 45.41400
C  8.66700 2.10800 44.72600
O  9.85100 2.27600 45.06600
C  7.76700 3.32300 44.16500
C  7.57000 4.31300 45.31800
O  8.55800 4.84900 45.77800
O  6.27800 4.65100 45.65700
C  6.26600 5.66500 46.76700
H  1.02600 3.92300 42.36900
H  0.44500 -2.48400 43.36600
H  6.46500 -2.87400 45.08700
H  5.75500 5.31800 43.07400
H  3.20900 5.19700 41.65500
H  4.02500 5.87500 44.51600
H  2.30300 5.43500 44.27900
H  2.85000 6.66800 43.34400
H  6.60200 5.27200 41.07500
H  5.02300 5.04400 40.33500
H  5.87200 2.51400 40.48800
H  7.25200 3.34100 40.97400
H  -1.62700 2.08000 40.96900
H  -0.90000 3.42000 41.79800
H  -2.23300 2.43100 42.50700
H  -1.47000 -2.32400 43.97800
H  -1.48100 -2.46800 42.16900
H  -2.96700 -2.30600 43.12700
H  2.44700 -4.09000 42.97100
H  4.07300 -4.14300 45.58700
H  0.88100 -4.21800 45.39600
H  2.04500 -5.52700 45.27400
H  0.89200 -5.13500 43.92900
H  5.25200 -4.08200 42.85100
H  4.40000 -5.56600 43.08700
H  6.27300 -6.57700 43.55100
H  5.70200 -6.05400 45.15100
H  7.04200 -5.10400 44.32700
H  8.59800 -2.18100 45.96300
H  9.64500 -0.78600 46.05900
H  9.49500 -1.71800 44.58000
H  8.25000 3.81800 43.32300
H  6.65500 6.52800 46.22600
H  6.92300 5.28300 47.54800
H  5.32000 5.77800 47.29700
Mg 46.62400 45.68800 44.15000
C  43.29500 44.46900 43.77800
C  47.68700 42.37300 43.83400
C  49.71000 46.87100 43.90300
C  45.35700 48.87400 44.00900
N  45.60500 43.68400 43.69200
C  44.25600 43.43300 43.68100
C  43.97000 41.88800 43.61600
C  45.28800 41.31400 44.04800
C  46.27200 42.50500 43.83700
C  45.37500 40.76400 45.51600
C  43.32000 41.36600 42.24000
C  43.39100 42.32900 40.99500
H  43.04000 41.82900 39.55200
N  48.43800 44.74600 43.79500
C  48.63000 43.41100 43.75700
C  50.04600 43.19500 43.55700
C  50.72200 44.47800 43.66300
C  49.60600 45.43400 43.79300
C  50.55700 41.78700 43.27400
C  52.24300 44.71700 43.53200
O  53.02600 43.74000 43.58900
C  52.82400 46.06700 43.29200
N  47.38800 47.63100 43.65800
C  48.69500 47.80800 43.99700
C  49.04700 49.29500 44.35500
C  47.65500 49.97600 44.10500
C  46.74700 48.72500 43.92900
C  49.54800 49.49400 45.82600
C  47.59500 50.79300 42.74300
C  48.63200 51.90200 42.53800
N  44.71300 46.56600 43.96500
C  44.35600 47.85000 43.98500
C  42.89000 47.97800 43.83400
C  42.47800 46.67600 43.79800
C  43.59200 45.82000 43.90700
C  41.99300 49.27600 43.57200
C  41.29800 45.89100 43.75400
O  40.10200 46.11700 43.71000
C  41.79500 44.40200 43.71900
C  41.27700 43.66300 44.88400
O  40.89200 42.48300 44.86200
O  41.21900 44.46600 46.00900
C  40.48300 43.85000 47.21400
H  48.02200 41.34800 44.00400
H  50.69600 47.33700 43.95900
H  44.96300 49.88800 44.10600
H  43.23300 41.64700 44.38100
H  45.59700 40.46800 43.43300
H  45.50800 39.68300 45.47900
H  44.50000 41.14400 46.04400
H  46.31200 41.08600 45.97100
H  42.30100 41.02100 42.41400
H  43.99700 40.55400 41.97500
H  44.37300 42.80300 40.98900
H  42.82800 43.24300 41.18400
H  51.27800 41.54800 44.05600
H  51.10900 41.62800 42.34700
H  49.84100 40.96600 43.30500
H  52.91900 46.54400 44.26800
H  52.13000 46.57100 42.61900
H  53.76100 45.97600 42.74300
H  49.74900 49.71700 43.63600
H  47.31100 50.57200 44.95000
H  48.70200 49.37400 46.50200
H  50.19300 50.36500 45.94600
H  50.16200 48.64700 46.13300
H  46.64200 51.22700 42.43800
H  47.87000 50.07600 41.97000
H  49.35600 51.72100 41.74300
H  49.26300 52.14600 43.39200
H  48.04500 52.80600 42.38000
H  41.51100 49.31600 42.59500
H  42.62500 50.16300 43.62000
H  41.20700 49.33100 44.32500
H  41.43000 43.81200 42.87800
H  39.48300 44.27300 47.12200
H  40.79300 44.33000 48.14200
H  40.38200 42.77100 47.33100

