158

Mg 2.81400 -0.35500 43.74900
C  6.27100 -0.17400 43.13000
C  2.43400 2.71200 42.09700
C  -0.45000 -1.08200 43.32600
C  3.31100 -3.58800 44.83900
N  4.23000 0.98700 42.73300
C  5.54900 0.90100 42.66000
C  6.13300 2.27000 42.13100
C  4.93900 3.18700 42.07000
C  3.76800 2.17400 42.23700
C  4.86100 4.26800 43.20300
C  6.85000 2.07700 40.74000
C  6.03800 1.32500 39.63800
H  5.97000 1.99700 38.26400
N  1.17100 0.83400 42.96300
C  1.21700 2.05800 42.39400
C  -0.17800 2.42700 42.05300
C  -0.99100 1.26500 42.35100
C  -0.07200 0.24100 42.87600
C  -0.59300 3.73900 41.42600
C  -2.44700 1.13100 42.00600
O  -2.99300 2.19000 41.72800
C  -3.26300 -0.15000 42.11200
N  1.66500 -2.02400 43.93200
C  0.32800 -2.13600 43.85000
C  -0.25500 -3.53400 44.09400
C  0.99100 -4.29800 44.61900
C  2.07100 -3.22800 44.45500
C  -1.53500 -3.51500 44.99100
C  1.33100 -5.74900 44.11800
C  1.46100 -6.88300 45.24100
N  4.43000 -1.64000 44.08500
C  4.44200 -2.86900 44.62700
C  5.84500 -3.31700 44.80700
C  6.62000 -2.29200 44.28600
C  5.71700 -1.28800 43.82700
C  6.35100 -4.60900 45.23100
C  7.99800 -1.76700 43.92100
O  9.09200 -2.24900 44.19200
C  7.82800 -0.44300 43.10800
C  8.66500 0.73900 43.69000
O  9.77800 1.07200 43.26800
O  8.05900 1.26200 44.70100
C  8.74800 2.34800 45.41800
H  2.15300 3.68200 41.68100
H  -1.49400 -1.36800 43.18200
H  3.48700 -4.53500 45.35300
H  6.88200 2.56800 42.86500
H  4.84500 3.59900 41.06500
H  4.49100 3.92500 44.16900
H  4.44900 5.14300 42.70100
H  5.89800 4.53400 43.40900
H  7.81700 1.63000 40.97200
H  7.06300 3.06700 40.33600
H  5.00900 1.16500 39.95800
H  6.40000 0.31600 39.44100
H  -0.66100 3.65700 40.34100
H  0.09900 4.53900 41.68900
H  -1.49900 4.05200 41.94500
H  -3.32000 -0.34700 43.18200
H  -2.67200 -0.86800 41.54300
H  -4.27600 -0.12500 41.70900
H  -0.58300 -3.98700 43.15800
H  1.11400 -4.28300 45.70200
H  -1.58600 -2.65100 45.65400
H  -1.51600 -4.41200 45.61000
H  -2.43600 -3.51000 44.37600
H  2.28300 -5.70000 43.59000
H  0.59800 -6.02900 43.36100
H  0.49800 -7.38700 45.32700
H  1.57000 -6.30200 46.15700
H  2.29800 -7.55900 45.07200
H  5.70600 -5.12700 45.94000
H  7.36300 -4.55200 45.63100
H  6.39200 -5.30100 44.39000
H  8.20000 -0.42200 42.08300
H  8.89900 3.18800 44.74000
H  9.76500 2.11100 45.73100
H  8.04100 2.80100 46.11300
Mg -5.30100 24.38500 26.24900
C  -3.84200 26.60600 28.65400
C  -6.33100 22.41200 28.90600
C  -6.72800 22.48200 23.99300
C  -4.16600 26.64100 23.67100
N  -5.31200 24.62200 28.50700
C  -4.55100 25.53200 29.20100
C  -4.55700 25.20900 30.74500
C  -4.97200 23.66500 30.73500
C  -5.59400 23.58100 29.28900
C  -3.90800 22.53300 30.84700
C  -5.53200 26.12600 31.54300
C  -5.16600 26.20500 33.01400
H  -6.32700 26.21300 33.95300
N  -6.42100 22.68700 26.41500
C  -6.81700 22.00000 27.60800
C  -7.56900 20.87000 27.20500
C  -7.62000 20.85300 25.77600
C  -6.84300 21.99800 25.33200
C  -8.13600 19.86700 28.29100
C  -8.39400 19.89400 24.86000
O  -8.38000 19.96800 23.62700
C  -9.31100 18.80300 25.40900
N  -5.21200 24.52900 24.14300
C  -6.04600 23.62200 23.50500
C  -6.21800 24.06800 22.01300
C  -5.22300 25.26100 21.83600
C  -4.82100 25.50900 23.27300
C  -6.11800 22.96600 20.92500
C  -5.68800 26.57900 21.08000
C  -6.18100 26.51400 19.60300
N  -4.21700 26.21200 26.08400
C  -3.72400 26.93300 25.00400
C  -2.94200 28.08300 25.49200
C  -2.93400 27.94300 26.84000
C  -3.76200 26.82800 27.22600
C  -2.25400 29.13700 24.66300
C  -2.47700 28.60800 28.11400
O  -1.83100 29.61000 28.28500
C  -2.99300 27.69700 29.26400
C  -1.84500 27.20700 30.03200
O  -0.86900 26.51900 29.61000
O  -2.04800 27.53600 31.35400
C  -1.00400 27.02900 32.32800
H  -6.61200 21.70900 29.69300
H  -7.07800 21.76100 23.25000
H  -3.71000 27.28700 22.91800
H  -3.57400 25.34300 31.19700
H  -5.76000 23.51600 31.47300
H  -3.84000 22.04600 31.82000
H  -2.91600 22.96600 30.71600
H  -3.97700 21.81200 30.03200
H  -6.55100 25.74000 31.52100
H  -5.60400 27.15500 31.19100
H  -4.68300 27.14800 33.27300
H  -4.38500 25.48300 33.25000
H  -9.21400 19.73300 28.19600
H  -8.03900 20.17500 29.33200
H  -7.42300 19.04200 28.28700
H  -9.11000 17.92000 24.80100
H  -10.28200 19.29400 25.35200
H  -9.09500 18.55600 26.44800
H  -7.23300 24.46200 21.95200
H  -4.31700 25.02100 21.28000
H  -5.62500 22.12200 21.40700
H  -5.57100 23.31600 20.04900
H  -7.10700 22.68100 20.56700
H  -4.80800 27.21900 21.01600
H  -6.39600 27.14100 21.68800
H  -6.26700 25.48200 19.26400
H  -5.44400 26.89400 18.89500
H  -7.05800 27.14000 19.43800
H  -1.45500 29.52300 25.29500
H  -2.91100 29.98200 24.45900
H  -1.74200 28.75200 23.78000
H  -3.59700 28.33500 29.90900
H  -1.22100 26.01200 32.65600
H  -0.95700 27.77000 33.12600
H  -0.00200 26.98400 31.90000

