158

Mg 47.00200 17.52400 28.50800
C  45.33800 16.81600 31.55100
C  49.59800 18.83900 30.31600
C  48.29400 18.32500 25.64800
C  44.25800 16.06600 26.82900
N  47.37900 17.91100 30.74200
C  46.56100 17.60000 31.76400
C  47.22300 17.96600 33.05700
C  48.42700 18.86000 32.56300
C  48.44800 18.54600 31.12000
C  48.35400 20.42200 32.78100
C  47.58100 16.77900 34.01400
C  47.27600 16.85000 35.52700
H  46.96700 18.13900 36.18300
N  48.82900 18.43800 28.06300
C  49.84200 18.75700 28.92100
C  50.99600 18.95300 28.14700
C  50.58700 19.02800 26.78700
C  49.17400 18.60200 26.75500
C  52.32600 19.24300 28.77300
C  51.44000 19.37300 25.54900
O  51.02700 19.28300 24.36100
C  52.83200 19.86400 25.73100
N  46.40500 17.20600 26.48000
C  47.10800 17.69500 25.45100
C  46.44600 17.38000 24.09000
C  45.18500 16.54700 24.46600
C  45.28100 16.53700 25.98800
C  46.17200 18.47300 23.06300
C  45.16400 15.09200 23.83100
C  44.69600 14.98400 22.37200
N  45.14600 16.72200 29.01500
C  44.18200 16.02900 28.21700
C  43.12600 15.48000 29.00400
C  43.54700 15.81700 30.31100
C  44.81300 16.48600 30.27200
C  42.02800 14.58100 28.60900
C  43.25800 15.59200 31.77000
O  42.29800 14.95300 32.32300
C  44.37100 16.35400 32.57200
C  43.66900 17.45400 33.33800
O  43.68100 18.64700 33.06600
O  43.16300 16.94600 34.50000
C  42.66400 17.99600 35.45300
H  50.43300 19.25100 30.88600
H  48.76400 18.63600 24.71300
H  43.45800 15.74400 26.15900
H  46.48900 18.58900 33.56800
H  49.29800 18.42000 33.04800
H  47.92300 20.87300 31.88700
H  49.33400 20.75100 33.12700
H  47.63900 20.49900 33.60000
H  48.64500 16.58400 33.87800
H  47.01200 15.93600 33.62200
H  48.14900 16.37100 35.97000
H  46.45100 16.20200 35.82100
H  52.20700 19.11300 29.84900
H  52.58600 20.29200 28.62900
H  53.07400 18.52400 28.43900
H  52.86000 20.77500 26.32800
H  53.13800 20.28700 24.77400
H  53.57200 19.10100 25.97500
H  47.12800 16.71800 23.55900
H  44.24100 16.97000 24.12300
H  46.40100 17.95600 22.13100
H  46.74900 19.38000 23.24400
H  45.09800 18.65700 23.07500
H  44.63100 14.37500 24.45600
H  46.13400 14.64100 24.03800
H  45.45900 14.43400 21.82000
H  44.59900 15.98900 21.96200
H  43.70900 14.55700 22.19500
H  41.92300 13.82200 29.38400
H  42.32300 14.22700 27.62100
H  41.11700 15.17500 28.54100
H  44.83100 15.78700 33.38100
H  42.54200 17.48500 36.40800
H  41.80100 18.58900 35.15200
H  43.45100 18.73200 35.61900
Mg 0.77400 42.44400 25.60500
C  2.73200 42.65000 28.43000
C  -2.00600 41.58600 27.44200
C  -1.02500 42.14600 22.66700
C  3.65500 42.99000 23.67100
N  0.45800 42.23600 27.62800
C  1.37500 42.37600 28.67400
C  0.70700 42.11000 30.04700
C  -0.77300 41.69700 29.67900
C  -0.76800 41.87100 28.13600
C  -1.16900 40.30300 30.10300
C  0.79700 43.43200 30.91000
C  1.46800 43.23200 32.28500
H  0.67500 43.38400 33.58600
N  -1.28900 41.93900 25.11700
C  -2.27300 41.75200 26.05100
C  -3.53800 41.57600 25.35300
C  -3.25400 41.81300 23.94100
C  -1.79300 41.92000 23.85600
C  -4.76400 41.14600 26.07200
C  -4.22500 41.85400 22.83400
O  -3.97500 42.21100 21.64700
C  -5.71500 41.62100 23.16700
N  1.24700 42.64400 23.52400
C  0.37700 42.25000 22.57500
C  1.02000 42.20800 21.18300
C  2.53700 42.43200 21.50400
C  2.49400 42.79500 22.98200
C  0.74200 40.94800 20.36500
C  3.31300 43.43600 20.64100
C  2.70700 44.82900 20.23600
N  2.86600 42.98600 25.96900
C  3.86500 43.06800 25.07400
C  5.13400 43.29600 25.79900
C  4.69800 43.20100 27.12200
C  3.32300 42.96700 27.16400
C  6.51300 43.46500 25.19600
C  5.12700 43.02800 28.53200
O  6.23700 43.05500 29.05500
C  3.83100 42.83400 29.39200
C  4.02900 41.64700 30.26400
O  3.97000 40.50200 29.91200
O  4.21500 42.10000 31.54600
C  4.27400 41.05400 32.56200
H  -2.68000 41.17600 28.19700
H  -1.64500 42.02100 21.77700
H  4.56700 43.17800 23.10100
H  1.16900 41.24700 30.52500
H  -1.48100 42.37200 30.15900
H  -0.89400 39.52800 29.38700
H  -2.24400 40.30300 30.28400
H  -0.75300 40.18800 31.10300
H  -0.22600 43.69500 31.18100
H  1.26600 44.19200 30.28500
H  2.31200 43.91300 32.39000
H  1.80100 42.19500 32.32900
H  -5.57200 41.87800 26.08900
H  -4.55600 41.01200 27.13300
H  -4.99200 40.14100 25.71500
H  -5.84500 40.59100 23.49900
H  -6.32700 41.80900 22.28400
H  -6.06400 42.21800 24.01000
H  0.70100 43.03300 20.54600
H  3.05600 41.47400 21.49000
H  1.67600 40.68600 19.86800
H  0.14600 41.12500 19.47000
H  0.46600 39.98000 20.78200
H  3.40800 42.84500 19.73000
H  4.33500 43.62400 20.97100
H  1.73300 44.88900 20.72100
H  2.60700 44.79200 19.15100
H  3.26800 45.63900 20.70200
H  6.95100 42.47500 25.06700
H  7.04500 44.09100 25.91300
H  6.45900 43.98700 24.24000
H  3.62500 43.74400 29.95500
H  3.29800 40.57900 32.66200
H  4.47100 41.52100 33.52700
H  5.02800 40.28700 32.38900

