158

Mg 8.30000 4.37800 27.41500
C  9.62200 2.57300 30.21700
C  6.44200 6.15100 29.54300
C  7.23900 5.84400 24.74700
C  9.84500 1.72500 25.40600
N  7.82100 4.08100 29.64400
C  8.64100 3.54000 30.56400
C  8.22100 3.91800 32.00100
C  7.04800 4.96100 31.72900
C  7.05200 5.06200 30.16700
C  5.66900 4.69000 32.29400
C  9.38200 4.53100 32.80500
C  8.94300 5.29200 34.12900
H  9.87100 5.20100 35.37500
N  7.08500 5.89800 27.20000
C  6.38100 6.60200 28.21500
C  5.70700 7.74000 27.59700
C  5.91000 7.58500 26.19100
C  6.74800 6.38800 25.97900
C  4.77400 8.64500 28.41600
C  5.25600 8.44900 25.11600
O  5.34100 8.16700 23.91600
C  4.55200 9.71000 25.42200
N  8.50200 3.78900 25.38000
C  7.86000 4.59600 24.52500
C  8.05800 4.04900 23.05900
C  9.10600 2.84900 23.26100
C  9.16200 2.75200 24.79500
C  6.62800 3.72100 22.47400
C  10.54300 2.95300 22.60100
C  11.10700 1.63100 21.98800
N  9.50300 2.56700 27.71700
C  9.94700 1.60700 26.81800
C  10.74800 0.59800 27.53400
C  10.66700 0.99700 28.80600
C  9.84000 2.12100 28.91300
C  11.70500 -0.43500 26.94700
C  11.16500 0.66900 30.17100
O  11.84000 -0.21200 30.62500
C  10.56600 1.80600 31.09800
C  9.70600 1.02000 32.10500
O  8.52000 0.66500 32.00400
O  10.54100 0.65500 33.17400
C  9.83400 0.21300 34.39800
H  5.90200 6.69100 30.32400
H  6.75000 6.23700 23.85300
H  10.42600 0.99200 24.84200
H  7.74500 3.04800 32.45500
H  7.40700 5.93000 32.07700
H  5.63500 3.68200 32.70700
H  5.03500 4.56100 31.41600
H  5.21100 5.46300 32.91100
H  10.13000 5.05600 32.21300
H  9.92000 3.64500 33.14100
H  7.95000 5.06100 34.51300
H  8.95100 6.32900 33.79300
H  3.74500 8.71600 28.06200
H  5.17400 9.65800 28.37500
H  4.69800 8.34600 29.46100
H  4.37600 10.43600 24.62900
H  5.25600 10.16300 26.12000
H  3.62100 9.49400 25.94500
H  8.56000 4.79900 22.44800
H  8.76000 1.88600 22.88600
H  5.86000 3.95400 23.21200
H  6.46000 2.67300 22.22700
H  6.29100 4.29400 21.61000
H  11.13700 3.26700 23.45900
H  10.60500 3.63500 21.75300
H  11.51000 1.89300 21.01000
H  10.33700 0.86100 22.03400
H  11.98600 1.34500 22.56600
H  11.75800 -1.31200 27.59200
H  12.66000 0.07200 26.81000
H  11.37600 -0.88400 26.00900
H  11.27800 2.43800 31.63000
H  9.13200 -0.60200 34.22300
H  9.34100 1.05100 34.89000
H  10.58200 -0.24700 35.04400
Mg 45.99100 3.74100 46.80500
C  43.95600 6.58200 46.71500
C  43.00000 1.78500 46.42900
C  47.84500 1.05900 46.61500
C  48.75400 5.84300 46.66500
N  43.69200 4.18100 46.44500
C  43.17600 5.45200 46.46600
C  41.69000 5.28700 46.25300
C  41.35400 3.78500 46.70200
C  42.75300 3.16200 46.51500
C  40.72700 3.62600 48.18000
C  41.16600 5.87600 44.90800
C  42.15300 5.99300 43.79000
H  41.57900 6.50200 42.49700
N  45.47500 1.71400 46.43700
C  44.24500 1.11800 46.36300
C  44.47800 -0.32900 46.34700
C  45.86400 -0.62000 46.37200
C  46.43300 0.77200 46.52800
C  43.36600 -1.44500 46.37500
C  46.49900 -1.99400 46.28300
O  45.84100 -3.03500 46.23200
C  47.89300 -2.23100 46.31900
N  47.98600 3.54400 46.29200
C  48.53800 2.29100 46.60700
C  50.09500 2.42000 46.76100
C  50.39200 3.91200 46.49400
C  48.99700 4.47200 46.45600
C  50.65900 1.82400 48.02800
C  51.19900 4.24600 45.23600
C  52.37000 5.19700 45.46500
N  46.32400 5.78300 46.80600
C  47.51500 6.46500 46.88600
C  47.21100 7.87000 47.09600
C  45.88200 7.97100 47.11700
C  45.36700 6.66400 46.90400
C  48.15200 9.00900 47.03700
C  44.75300 8.88500 47.10600
O  44.68500 10.11900 47.22800
C  43.46200 8.05500 46.80000
C  42.48000 8.36300 47.90500
O  42.46700 7.81900 49.00400
O  41.63400 9.34900 47.53100
C  40.46700 9.52400 48.42800
H  42.10000 1.16700 46.46400
H  48.43600 0.15100 46.75500
H  49.62800 6.48500 46.78500
H  41.25000 5.87700 47.05700
H  40.67700 3.28000 46.01300
H  41.47400 3.18600 48.84100
H  39.83200 3.00400 48.19600
H  40.45700 4.56000 48.67300
H  40.68400 6.83600 45.09400
H  40.28700 5.25400 44.73900
H  42.41400 4.94700 43.62500
H  43.08500 6.46200 44.10600
H  42.39900 -0.96300 46.23100
H  43.41700 -2.04800 47.28100
H  43.47200 -2.15100 45.55100
H  48.32500 -2.09100 47.31000
H  48.34200 -1.53500 45.61100
H  48.16000 -3.21700 45.94000
H  50.52700 1.84900 45.93900
H  50.89400 4.37500 47.34300
H  51.38800 1.02400 47.89400
H  49.79200 1.54000 48.62400
H  51.10100 2.56200 48.69700
H  50.63500 4.48300 44.33400
H  51.77700 3.37000 44.94000
H  53.30100 4.64700 45.33100
H  52.35100 5.52100 46.50600
H  52.22200 6.08300 44.84800
H  48.95800 8.93100 47.76600
H  47.65800 9.98000 47.07600
H  48.62400 9.22100 46.07700
H  43.14400 8.37300 45.80700
H  39.89900 8.62000 48.20600
H  39.96000 10.41500 48.05900
H  40.65600 9.61200 49.49800

