158

Mg -0.06900 43.36600 26.94300
C  2.03100 43.50400 29.78400
C  -2.73500 43.07600 29.06300
C  -1.91800 42.37700 24.33100
C  2.75800 43.58000 24.94100
N  -0.27400 43.41700 29.18000
C  0.72100 43.49400 30.15800
C  0.09200 43.47800 31.52900
C  -1.45600 43.25300 31.28200
C  -1.53000 43.30000 29.78300
C  -1.96900 42.01100 31.89800
C  0.39300 44.89000 32.20700
C  0.66200 44.92800 33.71100
H  0.08400 43.73200 34.46000
N  -2.08700 42.93900 26.67300
C  -3.01100 42.89700 27.72200
C  -4.28600 42.50600 27.18200
C  -4.05000 42.33900 25.75900
C  -2.63100 42.51300 25.51800
C  -5.49400 42.32900 28.06800
C  -5.05100 41.91900 24.62000
O  -4.82200 41.73100 23.41700
C  -6.47700 41.88500 25.06000
N  0.37900 43.08700 24.96600
C  -0.53600 42.62700 24.08600
C  0.06000 42.34500 22.67100
C  1.45500 43.18900 22.82600
C  1.54900 43.25400 24.34100
C  0.10900 40.76200 22.54700
C  1.46800 44.53200 22.05300
C  2.38400 44.63500 20.83000
N  1.96500 43.50400 27.24500
C  2.98500 43.65700 26.34600
C  4.24400 43.80000 27.01000
C  3.89400 43.79400 28.36100
C  2.49900 43.58000 28.48100
C  5.57800 44.02200 26.18800
C  4.37000 43.97200 29.66000
O  5.55200 44.15600 29.99400
C  3.23200 43.72400 30.64900
C  3.42700 42.50300 31.44800
O  2.95000 41.40400 31.23400
O  4.28200 42.77900 32.47800
C  4.62800 41.85500 33.53500
H  -3.52000 42.94500 29.81100
H  -2.56600 42.03000 23.52300
H  3.64700 43.62800 24.31000
H  0.48500 42.65700 32.12900
H  -2.07900 44.06200 31.66300
H  -2.79600 41.68500 31.26600
H  -2.43100 42.28100 32.84800
H  -1.26200 41.19800 32.06100
H  -0.47900 45.53100 32.08200
H  1.20600 45.38800 31.67900
H  0.27900 45.87600 34.09100
H  1.74700 44.90500 33.81600
H  -5.91200 43.33000 28.16900
H  -5.29300 41.90300 29.05100
H  -6.23700 41.72300 27.54800
H  -6.72600 41.00900 25.66000
H  -6.98100 41.87600 24.09300
H  -6.88100 42.74300 25.59700
H  -0.56200 42.70700 21.85200
H  2.26700 42.62000 22.37400
H  -0.80100 40.50400 22.00600
H  0.08300 40.39900 23.57500
H  1.02800 40.52800 22.01100
H  1.68800 45.38800 22.69100
H  0.45400 44.70100 21.69000
H  2.90800 45.59000 20.85400
H  1.73600 44.69000 19.95500
H  3.08800 43.81200 20.95000
H  5.50400 44.85800 25.49300
H  5.69200 43.10100 25.61700
H  6.46600 44.23100 26.78500
H  3.16200 44.59500 31.30200
H  5.20100 41.04800 33.07600
H  3.73300 41.56700 34.08600
H  5.29600 42.40200 34.19900
Mg -0.82100 34.53900 27.01000
C  -2.97600 32.80300 29.15200
C  -0.26300 36.79800 29.47200
C  0.96400 36.42600 24.81900
C  -2.24200 32.80700 24.27600
N  -1.35300 34.58100 29.11900
C  -2.14100 33.75600 29.82300
C  -2.30200 34.16500 31.27000
C  -1.59900 35.58300 31.35000
C  -1.07100 35.73300 29.86500
C  -2.57100 36.75700 31.63700
C  -1.76200 33.17400 32.36200
C  -2.32700 33.30400 33.78100
H  -1.64100 32.59300 35.01200
N  0.27700 36.35600 27.14100
C  0.35000 37.15300 28.24600
C  1.16200 38.38000 27.92800
C  1.51800 38.25800 26.61400
C  0.93600 36.96100 26.14800
C  1.43800 39.48200 28.84300
C  2.42000 39.19600 25.74200
O  2.74800 38.95600 24.61900
C  3.04600 40.40500 26.49400
N  -0.71900 34.56100 24.83200
C  0.21400 35.41700 24.23200
C  0.30800 35.05500 22.74300
C  -0.54800 33.71800 22.56200
C  -1.13700 33.62000 24.00000
C  -0.06800 36.18000 21.73000
C  0.22800 32.55100 22.06300
C  1.32200 31.99000 22.96800
N  -2.19600 33.02900 26.68800
C  -2.76400 32.57900 25.55900
C  -3.80000 31.58500 25.90500
C  -3.82400 31.62700 27.29200
C  -2.95200 32.56500 27.75600
C  -4.63900 30.75400 25.05000
C  -4.51600 31.02800 28.50300
O  -5.34800 30.19900 28.49400
C  -4.00300 31.79200 29.73900
C  -5.19400 32.44100 30.44400
O  -5.68600 33.54100 30.15500
O  -5.78800 31.49700 31.37000
C  -6.81700 32.12900 32.18900
H  -0.03200 37.45700 30.31100
H  1.42900 37.05100 24.05500
H  -2.76100 32.34500 23.43300
H  -3.38400 34.29100 31.30700
H  -0.76600 35.61700 32.05300
H  -2.19500 37.30000 32.50300
H  -3.55200 36.47000 32.01500
H  -2.75800 37.49600 30.85700
H  -0.72700 33.46100 32.54800
H  -1.75200 32.10900 32.13400
H  -3.29200 32.80600 33.68500
H  -2.49000 34.36500 33.96500
H  2.43900 39.56400 29.26700
H  0.78500 39.43500 29.71400
H  1.02100 40.41600 28.46700
H  2.15000 40.98000 26.72900
H  3.77900 40.89700 25.85300
H  3.64900 39.97500 27.29400
H  1.37600 34.94300 22.55600
H  -1.40500 33.77200 21.89200
H  -0.41400 37.14400 22.10200
H  -0.83400 35.86800 21.02000
H  0.85000 36.39800 21.18500
H  0.59800 32.72900 21.05300
H  -0.36200 31.65400 21.87600
H  1.32400 32.49600 23.93300
H  2.25200 32.32000 22.50500
H  1.14200 30.92100 23.08100
H  -4.21300 29.75400 24.97200
H  -4.90300 31.26000 24.12100
H  -5.57700 30.65600 25.59800
H  -3.54400 31.01800 30.35400
H  -7.51900 32.75900 31.64300
H  -6.31000 32.84600 32.83600
H  -7.45200 31.51500 32.82800

