158

Mg 46.98100 24.86100 28.44500
C  47.68500 27.17000 30.98900
C  45.59500 22.87400 30.75100
C  46.79800 22.57000 25.94900
C  48.91400 26.85400 26.23800
N  46.72400 25.07600 30.67800
C  46.95400 26.13100 31.46300
C  46.47700 25.93100 32.88200
C  45.92400 24.44300 32.79800
C  46.07800 24.09200 31.31400
C  46.56200 23.48100 33.72300
C  45.44600 27.08500 33.30400
C  45.67800 27.74000 34.69700
H  46.32700 26.86200 35.86800
N  46.24500 23.04800 28.35400
C  45.66200 22.39600 29.39500
C  45.20900 21.09300 28.89400
C  45.46900 20.99400 27.45000
C  46.21900 22.29000 27.20400
C  44.64500 20.19400 29.82200
C  45.22000 19.86400 26.54300
O  45.65300 19.83800 25.33000
C  44.19400 18.87000 26.95300
N  47.87000 24.66800 26.44900
C  47.54900 23.63400 25.57700
C  47.97100 23.93800 24.15100
C  48.54200 25.42500 24.17400
C  48.52800 25.63000 25.70800
C  49.07000 22.95900 23.73300
C  47.78000 26.48100 23.26600
C  48.67100 27.33300 22.35700
N  47.91700 26.68800 28.50500
C  48.71000 27.33400 27.50500
C  49.14300 28.58100 28.09600
C  48.79800 28.47800 29.43600
C  48.07200 27.34800 29.67700
C  49.89500 29.73700 27.33100
C  48.90800 29.25200 30.65500
O  49.29800 30.37600 30.90000
C  48.25000 28.36900 31.69600
C  49.26900 28.13600 32.76800
O  50.16800 27.30900 32.73500
O  49.05400 28.99500 33.79100
C  49.96300 28.91600 34.92500
H  44.97900 22.28900 31.43700
H  46.78200 21.84400 25.13400
H  49.58500 27.36800 25.54700
H  47.35800 25.95500 33.52300
H  44.84600 24.47600 32.95500
H  47.43000 23.78600 34.30800
H  46.79300 22.55500 33.19700
H  45.76100 23.23000 34.41800
H  44.43400 26.68000 33.29900
H  45.36600 27.76000 32.45200
H  44.74300 28.08400 35.14000
H  46.37000 28.58100 34.64200
H  45.31100 19.98300 30.65800
H  44.47800 19.20200 29.40200
H  43.67800 20.44000 30.26000
H  43.93900 18.26400 26.08400
H  43.39000 19.38000 27.48400
H  44.87300 18.30000 27.58700
H  47.23900 23.82600 23.35100
H  49.55900 25.32100 23.79600
H  48.68800 21.94800 23.59200
H  50.03600 22.88900 24.23300
H  49.30800 23.38600 22.75900
H  47.26900 27.22600 23.87600
H  47.03100 25.91000 22.71800
H  48.42700 27.29900 21.29500
H  49.73100 27.15800 22.54000
H  48.37700 28.34100 22.65200
H  49.42400 29.98600 26.38100
H  50.91300 29.38900 27.15300
H  49.76100 30.61800 27.95800
H  47.44200 28.98800 32.08500
H  50.52100 27.98200 34.99200
H  49.35100 29.05500 35.81600
H  50.61400 29.78300 34.81300
Mg -11.91100 16.79500 41.91100
C  -8.71000 15.44700 41.73300
C  -10.60500 19.84800 40.79800
C  -14.92900 18.04900 41.96700
C  -13.16000 13.59600 42.78100
N  -9.88400 17.52300 41.26300
C  -8.71100 16.77500 41.27100
C  -7.58900 17.54000 40.65900
C  -8.11400 19.07600 40.73600
C  -9.64400 18.83600 41.02300
C  -7.44300 19.99200 41.80100
C  -7.33400 17.19300 39.09100
C  -5.86300 17.39800 38.66600
H  -5.58500 18.25000 37.35200
N  -12.59600 18.66600 41.43200
C  -11.93200 19.79500 41.05200
C  -12.87100 20.87600 40.93600
C  -14.20400 20.39700 41.33400
C  -13.93000 19.00800 41.61500
C  -12.51000 22.26500 40.48100
C  -15.43300 21.20100 41.52700
O  -15.42900 22.34100 41.08400
C  -16.61700 20.78200 42.39200
N  -13.74400 16.00500 42.36300
C  -14.90300 16.68800 42.21800
C  -16.14000 15.82400 42.40400
C  -15.53200 14.53400 42.95800
C  -14.03900 14.69700 42.68500
C  -17.18400 16.54800 43.27100
C  -16.12200 13.24800 42.22300
C  -15.96700 11.85100 42.91900
N  -11.11800 14.89000 42.18000
C  -11.77700 13.70000 42.48100
C  -10.71200 12.61400 42.49800
C  -9.50900 13.29300 42.21200
C  -9.81300 14.62000 42.05800
C  -10.90100 11.15900 42.63100
C  -8.07400 13.07600 42.13000
O  -7.46900 11.98900 42.23100
C  -7.50900 14.55700 41.74300
C  -6.47100 14.98700 42.73600
O  -6.55000 15.24700 43.96800
O  -5.25200 15.02500 42.05200
C  -4.07000 15.13300 42.81900
H  -10.11800 20.82000 40.69300
H  -15.91700 18.51500 42.00100
H  -13.58600 12.60300 42.93900
H  -6.75100 17.40500 41.34200
H  -8.04400 19.58800 39.77700
H  -8.07500 20.19000 42.66700
H  -7.30200 20.98800 41.38100
H  -6.43300 19.67100 42.05600
H  -7.94100 17.88600 38.50800
H  -7.74500 16.19600 38.92900
H  -5.47700 16.40700 38.42800
H  -5.32500 17.73800 39.55100
H  -11.43600 22.44600 40.45300
H  -12.80900 22.97500 41.25200
H  -12.98700 22.43700 39.51600
H  -17.04500 21.76500 42.59100
H  -16.24700 20.27600 43.28300
H  -17.22300 20.19000 41.70700
H  -16.41600 15.63900 41.36600
H  -15.51300 14.43100 44.04300
H  -17.46300 15.97500 44.15500
H  -18.04400 16.63700 42.60700
H  -16.87100 17.54500 43.58200
H  -15.75300 13.24400 41.19700
H  -17.20000 13.39500 42.29300
H  -16.94800 11.53600 43.27200
H  -15.26800 11.91800 43.75300
H  -15.56300 11.15000 42.18700
H  -11.43800 10.85300 43.52900
H  -9.93500 10.65600 42.65300
H  -11.47000 10.76200 41.79100
H  -6.99800 14.46800 40.78500
H  -3.32500 14.84200 42.07800
H  -3.94800 14.39000 43.60700
H  -3.81700 16.10100 43.25000

