158

Mg 47.87000 14.51500 28.84400
C  45.73400 14.52300 31.42500
C  49.98500 16.66400 30.64800
C  49.86300 14.80200 26.17500
C  45.44600 13.06400 26.66800
N  47.87100 15.56200 30.81700
C  46.91700 15.24100 31.80600
C  47.41200 15.82000 33.18400
C  48.72000 16.66300 32.82800
C  48.79900 16.35000 31.31400
C  48.64900 18.16400 33.06400
C  47.55600 14.71400 34.29500
C  46.84700 15.18600 35.64600
H  47.02700 16.68100 36.06000
N  49.74500 15.47000 28.51400
C  50.41200 16.25100 29.39500
C  51.65900 16.60000 28.80800
C  51.72200 16.03500 27.46800
C  50.41500 15.38200 27.30800
C  52.69800 17.45100 29.51800
C  52.77200 16.07000 26.47600
O  52.77000 15.37700 25.48200
C  54.02000 16.86800 26.60900
N  47.66600 14.02500 26.68300
C  48.65000 14.17500 25.83600
C  48.27300 13.88200 24.37400
C  47.04300 13.04800 24.65800
C  46.64000 13.39300 26.10300
C  47.89900 15.12400 23.49600
C  47.14300 11.48700 24.46800
C  48.38000 10.91100 25.24600
N  45.97100 13.91000 28.94700
C  45.10000 13.33700 28.05900
C  43.85300 12.97600 28.76200
C  43.99500 13.48200 30.02900
C  45.34400 13.97800 30.12600
C  42.73300 12.17300 28.21000
C  43.40800 13.59300 31.33700
O  42.27700 13.26300 31.66700
C  44.43600 14.28400 32.24500
C  43.81600 15.56400 32.83000
O  43.53200 16.55200 32.16100
O  43.77800 15.41900 34.19900
C  43.33500 16.67900 34.85500
H  50.70000 17.21100 31.26700
H  50.38700 14.91000 25.22300
H  44.82000 12.44700 26.02000
H  46.56900 16.41200 33.53900
H  49.56800 16.19100 33.32400
H  48.88800 18.64500 32.11500
H  49.42100 18.49600 33.75800
H  47.70800 18.62400 33.36700
H  48.55600 14.49000 34.66500
H  47.09000 13.90800 33.72700
H  47.16600 14.58600 36.49900
H  45.76900 15.03500 35.60000
H  52.38900 17.88800 30.46700
H  53.02400 18.31300 28.93600
H  53.50000 16.74700 29.73600
H  53.75300 17.91300 26.76900
H  54.50600 16.81400 25.63500
H  54.66500 16.52700 27.41900
H  49.05200 13.26700 23.92100
H  46.34400 13.36700 23.88500
H  46.86700 15.47300 23.51500
H  48.08900 14.73600 22.49500
H  48.54500 15.94000 23.82100
H  47.16600 11.25600 23.40300
H  46.31900 10.96400 24.95300
H  49.07700 10.63200 24.45500
H  48.09500 10.16900 25.99200
H  48.93400 11.67000 25.79800
H  42.98200 11.91400 27.18100
H  41.80000 12.73700 28.18700
H  42.50300 11.32500 28.85500
H  44.61300 13.58900 33.06600
H  43.53300 16.53200 35.91700
H  42.24600 16.72000 34.83600
H  43.74400 17.63100 34.51700
Mg -0.18500 44.04000 25.93700
C  2.04200 43.83400 28.72400
C  -2.57200 42.72800 27.96200
C  -2.18000 44.24600 23.30000
C  2.52800 45.04200 23.97700
N  -0.23100 43.41600 28.15400
C  0.76100 43.46900 29.13300
C  0.34000 42.85600 30.49700
C  -1.17700 42.47200 30.17600
C  -1.36700 42.83500 28.71100
C  -1.68600 41.00400 30.62300
C  0.41800 43.79300 31.66600
C  0.95200 43.20700 33.00100
H  0.23500 41.93700 33.34200
N  -2.11700 43.54600 25.67700
C  -2.96900 43.08300 26.64900
C  -4.28000 42.96600 26.00500
C  -4.14300 43.24700 24.63300
C  -2.75500 43.73800 24.50500
C  -5.49000 42.38700 26.78000
C  -5.18600 43.04800 23.51000
O  -4.92900 43.32700 22.33400
C  -6.55200 42.43600 23.79500
N  0.04800 44.85200 24.04100
C  -0.90400 44.71700 23.07900
C  -0.43700 45.14800 21.71000
C  1.09000 45.50000 21.95800
C  1.24600 45.06100 23.39500
C  -0.57300 44.03900 20.63500
C  1.34200 47.04500 21.84600
C  0.95900 47.79400 20.57000
N  1.87900 44.30600 26.16700
C  2.85500 44.71100 25.28900
C  4.11800 44.63400 25.91000
C  3.87800 44.36400 27.21900
C  2.45600 44.21500 27.36900
C  5.38400 44.93500 25.29400
C  4.51300 44.08000 28.46800
O  5.69300 43.99700 28.76600
C  3.32600 43.85900 29.55400
C  3.64500 42.42900 29.93600
O  3.56900 41.41800 29.25500
O  3.95700 42.32600 31.24800
C  3.96500 40.93300 31.86200
H  -3.31300 42.23500 28.59600
H  -2.74500 44.46200 22.39100
H  3.38600 45.10500 23.30400
H  0.86800 41.92000 30.68100
H  -1.89200 43.14000 30.65600
H  -2.06900 40.53200 29.71900
H  -2.59700 41.11700 31.21000
H  -0.96300 40.33600 31.09200
H  -0.51600 44.30200 31.90600
H  1.06000 44.60500 31.32500
H  0.75400 43.87100 33.84300
H  2.03900 43.12100 33.01300
H  -5.54700 41.32600 26.53900
H  -6.41100 42.84600 26.42100
H  -5.53000 42.56900 27.85400
H  -7.07000 42.45700 22.83600
H  -6.99300 43.22900 24.40000
H  -6.56000 41.48800 24.33200
H  -1.02800 46.01400 21.41200
H  1.86500 45.07900 21.31700
H  0.29400 43.84700 20.00200
H  -1.45500 44.27500 20.04000
H  -0.72200 43.11100 21.18700
H  2.42900 47.09700 21.90800
H  0.86300 47.59000 22.66000
H  0.25500 48.59100 20.80500
H  0.46700 47.13400 19.85600
H  1.92300 48.23900 20.32200
H  6.04000 45.43900 26.00300
H  5.39600 45.54200 24.38900
H  5.84200 43.98600 25.01400
H  3.40200 44.55200 30.39200
H  4.41900 40.19000 31.20700
H  2.96700 40.53900 32.05000
H  4.75100 40.73900 32.59200

