158

Mg 49.26500 45.46400 42.97500
C  45.81300 44.94200 42.88700
C  49.63400 42.01400 43.12800
C  52.70500 45.86500 42.40300
C  48.79500 48.92100 42.31000
N  47.88000 43.67100 42.95300
C  46.49500 43.71400 42.96700
C  45.92800 42.29300 43.01200
C  47.17700 41.43600 43.28800
C  48.29800 42.45200 43.21000
C  47.21300 40.56800 44.63300
C  44.97600 41.86800 41.82400
C  45.36800 42.23300 40.41500
H  46.01400 41.11900 39.51100
N  50.89500 44.16800 42.80500
C  50.83600 42.82700 42.98500
C  52.14100 42.30600 42.95600
C  53.06900 43.39300 42.68400
C  52.24000 44.58100 42.62000
C  52.31100 40.77500 42.98700
C  54.56700 43.27300 42.45800
O  55.12700 42.17000 42.56500
C  55.40200 44.38800 41.93800
N  50.51500 47.12200 42.34100
C  51.89600 47.04200 42.30600
C  52.46400 48.43400 42.66100
C  51.34900 49.33600 42.04000
C  50.10800 48.40300 42.23100
C  52.58000 48.59200 44.17100
C  51.55200 49.54500 40.47900
C  51.01600 50.86500 39.93600
N  47.64300 46.80200 42.69800
C  47.57500 48.17000 42.46300
C  46.12800 48.46900 42.54300
C  45.42500 47.25800 42.72400
C  46.37300 46.26400 42.77900
C  45.42700 49.86300 42.38900
C  44.10400 46.70200 42.74800
O  42.94400 47.20000 42.55900
C  44.33300 45.17800 42.95300
C  43.57700 44.70500 44.12800
O  42.73400 43.88400 44.12400
O  44.04700 45.37600 45.22900
C  43.79000 44.79200 46.55500
H  49.72700 40.93800 43.29400
H  53.77300 46.07600 42.31500
H  48.69200 49.99800 42.16200
H  45.38900 42.37500 43.95600
H  47.24400 40.70100 42.48600
H  47.86600 39.74000 44.36000
H  46.21600 40.29700 44.97800
H  47.76000 41.00500 45.46900
H  43.96200 42.20800 42.03400
H  44.99000 40.77800 41.82400
H  46.21300 42.92000 40.46800
H  44.42200 42.66200 40.08500
H  52.57400 40.49400 41.96700
H  51.46700 40.17700 43.33200
H  53.16200 40.41500 43.56500
H  54.99000 44.87200 41.05300
H  56.37600 44.04200 41.59200
H  55.59500 45.07000 42.76600
H  53.43100 48.49700 42.16100
H  51.14000 50.18400 42.69300
H  52.40000 47.58600 44.55000
H  51.72500 49.16900 44.52300
H  53.49000 49.02800 44.58300
H  50.88100 48.81800 40.02100
H  52.60800 49.34900 40.29500
H  50.62600 50.60500 38.95200
H  51.83200 51.56500 39.75400
H  50.30900 51.21800 40.68700
H  44.45300 49.78100 42.87200
H  45.24800 50.02700 41.32600
H  45.96400 50.66800 42.89100
H  43.89800 44.77700 42.03700
H  44.67700 44.81400 47.18700
H  43.53500 43.74800 46.37500
H  42.88900 45.22400 46.98900
Mg 31.06900 58.30700 39.96200
C  28.18900 56.49500 38.95400
C  32.94200 55.60900 39.23100
C  33.77400 60.31300 40.04500
C  29.06700 61.21000 40.25600
N  30.58200 56.38900 39.08500
C  29.40200 55.82500 38.68600
C  29.54700 54.34800 38.24000
C  30.97100 54.01100 38.91000
C  31.55800 55.44900 39.05300
C  30.93300 53.07200 40.12900
C  29.54600 54.37600 36.72500
C  28.36400 53.66500 35.98400
H  27.35200 54.57500 35.24600
N  33.04300 58.01100 39.69200
C  33.65100 56.81900 39.45100
C  35.07900 57.01400 39.36700
C  35.36800 58.35900 39.70500
C  34.03700 59.01900 39.75300
C  35.99600 55.83400 39.08800
C  36.77800 58.93800 39.93800
O  37.76600 58.28500 39.63300
C  36.94700 60.33000 40.30900
N  31.41600 60.57100 39.79600
C  32.65000 61.06500 40.05500
C  32.62000 62.45900 40.58700
C  31.11600 62.70100 40.88100
C  30.44600 61.41000 40.28500
C  33.52300 62.69900 41.84700
C  30.40700 63.93000 40.23300
C  29.33600 64.73000 41.12600
N  29.00500 58.78300 39.70200
C  28.38700 60.00400 39.93600
C  26.96000 59.78700 39.84600
C  26.84000 58.39300 39.51900
C  28.12200 57.83200 39.36000
C  25.78100 60.78600 40.11100
C  25.87000 57.34600 39.37600
O  24.66100 57.38700 39.48400
C  26.73400 56.06700 38.85500
C  26.35100 54.85100 39.68000
O  27.00100 54.34300 40.53400
O  25.25200 54.23600 39.08400
C  24.79400 52.97100 39.60800
H  33.51700 54.69300 39.08500
H  34.60800 61.00700 40.16700
H  28.51200 62.07800 40.61800
H  28.73100 53.74500 38.63700
H  31.59400 53.64200 38.09400
H  29.93300 52.68000 40.31400
H  31.27000 53.69800 40.95500
H  31.63400 52.26000 39.93800
H  30.44500 53.92000 36.31000
H  29.72100 55.41300 36.43900
H  27.84100 52.99600 36.66700
H  28.83400 53.02100 35.24100
H  36.10000 55.83400 38.00300
H  35.71200 54.86100 39.48800
H  37.01800 55.82100 39.46500
H  36.47100 60.55900 41.26300
H  36.52500 60.92900 39.50200
H  38.01700 60.43000 40.49000
H  33.00900 63.10000 39.79500
H  30.96000 62.60800 41.95600
H  33.98100 61.78100 42.21400
H  32.89600 63.21600 42.57300
H  34.28300 63.38300 41.46800
H  30.08800 63.53400 39.27000
H  31.23600 64.60300 40.01200
H  28.44000 64.92200 40.53500
H  29.76400 65.66900 41.47600
H  28.99400 64.24100 42.03800
H  25.88000 61.40700 39.22100
H  25.93100 61.42200 40.98300
H  24.81300 60.28400 40.12000
H  26.45500 55.84200 37.82600
H  25.62400 52.26500 39.62500
H  23.95300 52.51900 39.08400
H  24.56300 53.09300 40.66600

