158

Mg -1.84200 18.23100 27.02100
C  -2.34200 16.08900 29.66100
C  -2.83900 20.88900 28.82300
C  -1.62600 20.07000 24.17600
C  -1.71200 15.30900 25.01700
N  -2.35400 18.45900 29.01100
C  -2.37900 17.46500 29.97700
C  -2.69400 18.03300 31.36600
C  -3.16300 19.49600 31.07800
C  -2.80100 19.65900 29.56600
C  -4.65000 19.95300 31.49400
C  -1.51400 17.85400 32.34300
C  -1.87800 17.37400 33.74400
H  -0.78400 17.39400 34.81900
N  -2.09000 20.22500 26.56300
C  -2.43000 21.20700 27.44600
C  -2.32000 22.52500 26.79700
C  -1.83300 22.24900 25.46800
C  -1.82500 20.81400 25.38200
C  -2.40900 23.85800 27.48700
C  -1.36400 23.22800 24.37300
O  -1.00000 22.89400 23.29900
C  -1.30900 24.67000 24.73700
N  -1.69400 17.76200 24.95200
C  -1.58900 18.73200 23.97400
C  -1.36300 18.06300 22.53800
C  -1.06600 16.56200 22.95900
C  -1.58500 16.49900 24.37300
C  -2.46300 18.34700 21.44300
C  0.46400 16.03200 22.83400
C  1.59900 16.95700 23.50600
N  -1.97100 16.12200 27.24200
C  -1.84500 15.09500 26.35200
C  -1.80700 13.79700 27.06800
C  -2.04500 14.15300 28.39800
C  -2.15400 15.54300 28.40600
C  -1.58000 12.40900 26.43000
C  -2.17200 13.67300 29.71600
O  -2.17100 12.50400 30.12200
C  -2.33600 14.86100 30.63800
C  -1.24300 14.69200 31.60400
O  -0.15400 15.07500 31.33000
O  -1.66600 14.04000 32.73800
C  -0.46700 13.59500 33.52700
H  -3.03000 21.77300 29.43600
H  -1.48000 20.57800 23.22100
H  -1.51700 14.43200 24.39600
H  -3.49900 17.41100 31.75600
H  -2.58500 20.25200 31.60800
H  -5.11400 19.12700 32.03300
H  -5.22300 20.40400 30.68400
H  -4.56900 20.66100 32.31900
H  -1.01500 18.80300 32.53600
H  -0.74000 17.24400 31.87700
H  -2.19000 16.33100 33.69000
H  -2.77300 17.83600 34.16000
H  -2.58700 23.75500 28.55800
H  -3.19800 24.46000 27.03900
H  -1.54200 24.50900 27.37500
H  -0.55600 24.67700 25.52500
H  -2.33400 24.83800 25.06600
H  -1.09700 25.29800 23.87100
H  -0.47900 18.49200 22.06700
H  -1.67500 15.99600 22.25500
H  -3.30800 17.66200 21.50300
H  -2.09900 18.39800 20.41700
H  -2.83100 19.32300 21.76100
H  0.64700 15.95200 21.76300
H  0.50200 15.15400 23.47900
H  1.19500 17.94400 23.73200
H  2.55200 16.95900 22.97800
H  1.77900 16.55000 24.50100
H  -2.52000 12.04400 26.01700
H  -1.25900 11.62800 27.12000
H  -0.82900 12.52900 25.64900
H  -3.30900 14.71400 31.10600
H  -0.45900 14.14100 34.47000
H  0.51700 13.73100 33.07700
H  -0.61500 12.52900 33.70300
Mg 54.94400 23.68300 44.96700
C  52.61100 26.13600 43.85400
C  52.88400 21.28800 43.67400
C  57.45900 21.54200 45.41300
C  57.06300 26.31500 46.01500
N  53.10800 23.70600 43.68000
C  52.32400 24.83900 43.31200
C  51.14600 24.34600 42.36400
C  51.07800 22.83400 42.83100
C  52.45100 22.56800 43.44200
C  49.96700 22.47200 43.84200
C  51.37300 24.61000 40.79700
C  50.38100 25.61300 40.09800
H  49.57800 25.08400 38.94500
N  55.16200 21.60900 44.56700
C  54.12600 20.73600 44.14300
C  54.58400 19.40700 44.19000
C  55.94600 19.47900 44.58300
C  56.23300 20.93900 44.85300
C  53.72200 18.14100 43.82100
C  56.88100 18.34700 44.75400
O  56.51500 17.20300 44.41700
C  58.26900 18.43500 45.21200
N  57.14900 23.97500 45.49700
C  57.90900 22.90400 45.70000
C  59.24800 23.32500 46.23400
C  59.11600 24.86500 46.58700
C  57.70600 25.08700 45.99700
C  59.72600 22.45600 47.52500
C  60.17500 25.84200 46.01000
C  61.55100 25.88400 46.80500
N  54.82400 25.74000 45.11000
C  55.75300 26.70400 45.51100
C  55.20500 27.96000 45.47600
C  53.91200 27.80700 44.89500
C  53.79700 26.42500 44.55800
C  55.89200 29.18900 46.12800
C  52.71100 28.53000 44.46500
O  52.50500 29.72700 44.60400
C  51.83900 27.46700 43.84000
C  51.39400 27.80700 42.50900
O  52.04000 27.78700 41.47300
O  50.04700 28.18400 42.43300
C  49.62000 28.91600 41.16600
H  52.15600 20.51900 43.40500
H  58.31600 20.90400 45.64100
H  57.71200 27.15400 46.27700
H  50.23700 24.77800 42.78300
H  50.86800 22.17200 41.99100
H  49.81100 21.39900 43.73300
H  49.02100 22.93800 43.56700
H  50.19000 22.87100 44.83100
H  51.29200 23.61400 40.36200
H  52.37800 24.99300 40.62200
H  50.89900 26.54000 39.85100
H  49.62500 25.89000 40.83200
H  54.30300 17.23000 43.67600
H  53.06900 18.25300 42.95600
H  53.16400 17.97000 44.74200
H  58.97100 18.99500 44.59400
H  58.61600 17.40200 45.17000
H  58.44600 18.73000 46.24700
H  59.92200 23.16600 45.39300
H  59.05700 24.93400 47.67400
H  59.74500 23.09900 48.40400
H  60.66200 21.95300 47.27900
H  59.01500 21.63700 47.63600
H  59.88100 26.89200 46.00100
H  60.41800 25.54000 44.99100
H  61.76800 24.99500 47.39800
H  61.47800 26.72400 47.49700
H  62.40700 25.97600 46.13700
H  56.98000 29.23400 46.17900
H  55.43800 29.25000 47.11700
H  55.49100 30.06300 45.61300
H  51.02600 27.23700 44.53000
H  48.91500 29.69800 41.44800
H  49.17900 28.21700 40.45700
H  50.54600 29.25300 40.69900

