158

Mg 35.83100 49.16900 25.98500
C  36.30200 47.27900 28.98600
C  34.54800 51.66300 27.88900
C  35.36700 50.83300 23.11100
C  36.63200 46.25200 24.10200
N  35.52400 49.36200 28.20300
C  35.80300 48.52700 29.26300
C  35.57100 49.14000 30.65400
C  34.86600 50.49500 30.24100
C  34.91700 50.51400 28.65200
C  33.39700 50.71700 30.85900
C  36.90200 49.40100 31.43100
C  36.72400 49.49300 32.95800
H  35.32900 49.30000 33.61800
N  35.01300 50.99100 25.51300
C  34.54000 51.90300 26.42300
C  34.18100 53.14300 25.76200
C  34.35000 52.86600 24.36100
C  34.92600 51.50900 24.28000
C  33.71100 54.35900 26.45300
C  34.24100 53.79500 23.21700
O  34.48500 53.48400 22.02200
C  33.73800 55.17700 23.43700
N  35.76900 48.53000 23.85300
C  35.72800 49.50700 22.87000
C  35.89500 48.86000 21.44200
C  36.54800 47.47300 21.74400
C  36.43100 47.39600 23.34300
C  34.49100 48.84000 20.69600
C  37.95500 47.31100 21.13600
C  39.20100 47.63000 22.05400
N  36.48700 47.23100 26.41200
C  36.68200 46.14600 25.57200
C  37.14600 45.01400 26.41400
C  36.96800 45.37400 27.74600
C  36.51500 46.73200 27.66900
C  37.89300 43.81200 25.87000
C  37.13300 44.91200 29.08600
O  37.61500 43.83600 29.46000
C  36.61400 46.14100 29.97000
C  35.51600 45.67400 30.82400
O  34.32500 45.77700 30.59200
O  36.10000 45.18300 32.00100
C  35.19800 44.61800 33.01200
H  34.21100 52.51500 28.48400
H  35.11400 51.39700 22.21100
H  37.19000 45.51900 23.51600
H  34.96800 48.51400 31.31300
H  35.39900 51.41800 30.46900
H  33.23900 50.00400 31.66900
H  32.59400 50.31100 30.24400
H  33.14100 51.75300 31.08100
H  37.26900 50.36700 31.08400
H  37.62500 48.60300 31.26200
H  37.31400 50.35900 33.25800
H  37.14600 48.64900 33.50400
H  33.51300 54.21800 27.51600
H  32.73700 54.71300 26.11500
H  34.41200 55.19200 26.41200
H  32.87700 55.27800 24.09800
H  33.48000 55.66900 22.49900
H  34.59200 55.69300 23.87400
H  36.56800 49.50300 20.87400
H  36.07000 46.62700 21.25000
H  34.15100 47.81500 20.54700
H  34.59900 49.28700 19.70800
H  33.75100 49.29500 21.35400
H  37.96600 47.86200 20.19500
H  38.03400 46.25100 20.89300
H  38.97800 48.13100 22.99500
H  40.04700 48.11500 21.56800
H  39.62000 46.64500 22.25800
H  38.69100 43.64500 26.59300
H  38.26300 43.95200 24.85400
H  37.26900 42.92300 25.77900
H  37.47600 46.38600 30.59000
H  35.69900 43.72900 33.39400
H  34.23400 44.41200 32.54700
H  35.17400 45.45500 33.70900
Mg 6.61300 53.22600 40.94100
C  5.72300 49.79400 40.46800
C  9.55300 52.71100 39.60900
C  6.89800 56.54000 41.06300
C  3.05800 53.67400 41.82600
N  7.39700 51.41200 39.98500
C  6.93000 50.14700 39.87100
C  8.03100 49.29900 39.24400
C  9.35000 50.09400 39.62500
C  8.75800 51.52000 39.73100
C  10.08600 49.74000 40.92900
C  8.01100 48.87900 37.78600
C  7.49300 49.90300 36.73000
H  6.69700 49.31800 35.55600
N  8.08500 54.49500 40.46000
C  9.30200 54.10200 39.87400
C  10.15600 55.24400 39.90200
C  9.37200 56.36200 40.23200
C  8.05000 55.84200 40.62000
C  11.57500 55.12900 39.42400
C  9.86400 57.77700 40.18700
O  11.06400 57.99100 39.95400
C  9.00900 58.95800 40.41600
N  5.07000 54.88800 41.29300
C  5.54900 56.13300 41.41700
C  4.38800 57.12000 41.75100
C  3.18200 56.17200 42.08900
C  3.77500 54.81500 41.61800
C  4.58100 58.06800 42.98500
C  1.75100 56.51800 41.49800
C  1.32600 55.97200 40.10100
N  4.77100 52.01900 41.30000
C  3.47000 52.35100 41.69400
C  2.70000 51.16700 42.05400
C  3.54300 50.18500 41.47600
C  4.77600 50.73600 41.03000
C  1.31600 50.99600 42.61700
C  3.60900 48.77700 41.12600
O  2.80500 47.87900 41.32500
C  5.07900 48.45100 40.51700
C  4.89000 47.84200 39.18900
O  4.42600 48.40000 38.19900
O  5.19300 46.52100 39.22000
C  5.03000 45.74900 37.99100
H  10.58900 52.58000 39.29000
H  6.98500 57.61100 41.25900
H  2.03200 53.83200 42.16600
H  8.22600 48.36500 39.77000
H  10.14000 49.96600 38.88400
H  11.17100 49.72400 40.82600
H  9.71800 48.77800 41.28600
H  9.78600 50.52000 41.62900
H  7.33100 48.03200 37.69300
H  9.02600 48.63300 37.47200
H  8.31900 50.43200 36.25400
H  6.89700 50.69800 37.17700
H  11.64600 55.89100 38.64800
H  11.85100 54.13600 39.07000
H  12.35200 55.38400 40.14500
H  9.54200 59.77700 39.93300
H  8.93400 59.20800 41.47400
H  8.06500 58.82400 39.88800
H  4.13900 57.58500 40.79700
H  3.11600 55.93300 43.15000
H  3.81800 58.02100 43.76200
H  4.45500 59.03400 42.49500
H  5.56900 57.99700 43.43900
H  1.76500 57.59900 41.35600
H  0.90800 56.23600 42.12900
H  1.10000 56.82600 39.46300
H  0.44400 55.33100 40.12700
H  2.16700 55.52000 39.57700
H  1.40200 50.21700 43.37400
H  0.60600 50.66100 41.86100
H  0.78800 51.87000 42.99900
H  5.51600 47.68500 41.15700
H  4.49100 44.81500 38.15400
H  6.00500 45.48500 37.58300
H  4.51900 46.24600 37.16600

