158

Mg 8.76800 2.64400 26.71000
C  10.11500 1.27400 29.65400
C  6.90400 4.70300 28.57400
C  7.35500 3.57100 23.87600
C  10.44400 -0.14100 25.03600
N  8.67600 2.98700 28.92900
C  9.32300 2.37500 29.91900
C  9.02600 3.04000 31.24400
C  7.89600 4.05600 30.89700
C  7.80300 3.97500 29.41200
C  6.47700 3.87800 31.64000
C  10.29000 3.63800 31.89400
C  10.20000 4.56700 33.11400
H  10.67500 3.96100 34.49800
N  7.36700 4.01400 26.30300
C  6.72500 4.80400 27.21700
C  5.78100 5.70400 26.47700
C  5.91000 5.40500 25.06200
C  6.85900 4.25400 25.02400
C  4.93200 6.66700 27.10900
C  5.13600 5.98300 23.87500
O  5.02400 5.41400 22.76300
C  4.37700 7.26900 24.07000
N  8.85900 1.68900 24.78100
C  8.17400 2.37900 23.74600
C  8.53600 1.81800 22.38900
C  9.47400 0.55400 22.69600
C  9.58900 0.68100 24.24100
C  7.25100 1.44500 21.47500
C  10.91800 0.76800 21.91000
C  11.31900 -0.36900 21.03400
N  10.11900 0.98000 27.15600
C  10.62000 -0.01900 26.39800
C  11.59800 -0.73800 27.17000
C  11.41700 -0.32600 28.45600
C  10.42900 0.71400 28.42900
C  12.41000 -1.85000 26.66500
C  11.65600 -0.67100 29.78900
O  12.30900 -1.56600 30.27100
C  10.91900 0.44400 30.71700
C  10.07100 -0.11800 31.79600
O  8.96500 -0.67300 31.61700
O  10.64700 0.05500 33.04000
C  10.04700 -0.55700 34.20700
H  6.40700 5.35500 29.29500
H  6.83800 3.62700 22.91600
H  10.86100 -0.98500 24.48200
H  8.64400 2.31200 31.96000
H  8.19800 5.09500 31.03700
H  6.60400 3.48700 32.64900
H  5.83200 3.36700 30.92400
H  6.07500 4.85500 31.90800
H  10.87000 4.06300 31.07500
H  10.80000 2.79100 32.35300
H  9.16700 4.87600 33.27500
H  10.69800 5.51000 32.88900
H  4.92000 6.73700 28.19700
H  3.88800 6.56200 26.81500
H  5.25200 7.62200 26.69200
H  3.97600 7.47900 23.07900
H  5.18600 7.97000 24.27600
H  3.58100 7.23500 24.81400
H  9.00600 2.63500 21.84000
H  8.98100 -0.39900 22.50600
H  6.32500 1.71000 21.98600
H  7.26000 0.35600 21.45000
H  7.40000 1.81900 20.46200
H  11.69600 1.02100 22.63000
H  10.88000 1.62800 21.24200
H  10.73600 -1.28500 21.13000
H  12.35900 -0.60900 21.25500
H  11.23900 -0.09900 19.98100
H  12.61600 -1.74700 25.60000
H  11.84300 -2.74200 26.93300
H  13.33700 -1.83200 27.23800
H  11.78200 0.95700 31.14200
H  8.96000 -0.53600 34.12800
H  10.23800 -0.05500 35.15600
H  10.46800 -1.53400 34.44700
Mg 41.90000 41.33000 26.56200
C  41.24400 43.63600 28.93000
C  43.25500 39.20400 29.17500
C  43.04800 39.02400 24.28600
C  41.27400 43.56700 24.09800
N  42.27700 41.45500 28.81200
C  41.64000 42.43100 29.54600
C  41.71800 42.09300 31.06000
C  42.54100 40.75200 31.04200
C  42.66500 40.41800 29.56500
C  43.95900 40.80400 31.68300
C  40.40300 42.12100 31.88600
C  40.23100 43.23900 32.91000
H  39.33000 42.97900 34.10200
N  42.94600 39.30800 26.67200
C  43.37700 38.65900 27.85500
C  43.91700 37.35200 27.42800
C  43.72800 37.18800 26.00300
C  43.13700 38.51600 25.58700
C  44.39800 36.32100 28.42400
C  44.11200 35.99400 25.04300
O  43.98000 35.97600 23.83600
C  44.71500 34.82100 25.60800
N  42.01200 41.30000 24.58900
C  42.59100 40.23600 23.82500
C  42.70700 40.69500 22.39300
C  41.76200 41.88700 22.25200
C  41.70800 42.32200 23.70800
C  44.17300 41.11200 22.02300
C  40.37500 41.72500 21.60000
C  39.42300 40.80600 22.41900
N  41.31400 43.32500 26.40700
C  41.14200 44.11600 25.35200
C  40.83200 45.42200 25.80500
C  40.85200 45.32200 27.25600
C  41.16000 44.00400 27.54300
C  40.63900 46.60900 24.95000
C  40.70200 46.04000 28.53600
O  40.43100 47.20600 28.76300
C  40.87200 44.91400 29.70400
C  41.92900 45.40300 30.65700
O  43.14100 45.35500 30.52300
O  41.28600 45.90500 31.75500
C  42.23500 46.32000 32.85400
H  43.44200 38.50500 29.99300
H  43.38800 38.27300 23.57000
H  41.26400 44.31800 23.30500
H  42.50500 42.78400 31.36200
H  42.00000 39.94900 31.54300
H  43.83700 40.08400 32.49300
H  44.24900 41.77100 32.09400
H  44.76600 40.50500 31.01400
H  40.23900 41.23300 32.49600
H  39.55500 42.23500 31.21100
H  39.70800 44.06900 32.43400
H  41.18800 43.67000 33.20500
H  45.36400 35.96100 28.06900
H  43.77400 35.42700 28.39400
H  44.43000 36.79500 29.40500
H  45.65900 35.18700 26.01100
H  44.95200 34.13100 24.79800
H  44.05900 34.28900 26.29700
H  42.31900 39.98100 21.66700
H  42.22400 42.77700 21.82500
H  44.54900 42.00200 22.52700
H  44.03300 41.32600 20.96300
H  44.90900 40.32000 22.15800
H  40.51400 41.33300 20.59200
H  39.97100 42.72400 21.43700
H  38.40700 41.19900 22.38300
H  39.59800 40.79700 23.49500
H  39.32500 39.81200 21.98200
H  39.61000 46.87000 25.19700
H  40.84300 46.52100 23.88200
H  41.21200 47.43600 25.36900
H  39.94100 44.84800 30.26700
H  43.09500 46.90000 32.52000
H  42.48900 45.48200 33.50300
H  41.55800 46.97500 33.40200

