158

Mg 2.10500 -1.28000 44.05100
C  5.37200 -0.08600 43.63400
C  0.96300 1.49900 42.25300
C  -0.91800 -2.72200 43.52900
C  3.27200 -4.23700 45.14100
N  3.07200 0.40400 42.90200
C  4.40300 0.81900 43.03700
C  4.66100 2.14400 42.29600
C  3.24800 2.64500 42.01600
C  2.33400 1.43400 42.33100
C  2.90900 3.95900 42.84800
C  5.55100 2.00700 41.09000
C  5.31100 0.81000 40.10100
H  5.77900 0.88500 38.68200
N  0.20100 -0.63600 43.23800
C  -0.04400 0.54200 42.56500
C  -1.47300 0.69100 42.36700
C  -2.05300 -0.56000 42.66300
C  -0.90700 -1.37700 43.14900
C  -2.06000 2.00100 41.82700
C  -3.47000 -0.91200 42.40200
O  -4.21500 -0.00400 42.02500
C  -4.03500 -2.26600 42.56700
N  1.31000 -3.24000 44.25200
C  0.01900 -3.57100 44.09500
C  -0.38800 -4.92900 44.66100
C  0.92900 -5.34100 45.32100
C  1.94600 -4.22800 44.88800
C  -1.64800 -4.84900 45.61200
C  1.33500 -6.73000 44.93100
C  1.67000 -7.67100 46.11400
N  3.87400 -2.01500 44.51800
C  4.29100 -3.23100 45.02500
C  5.66800 -3.28700 45.29100
C  6.13400 -2.12000 44.69600
C  5.05500 -1.32000 44.30300
C  6.47500 -4.38300 45.98200
C  7.36100 -1.35500 44.35300
O  8.49600 -1.65000 44.49800
C  6.82900 0.03100 43.72200
C  7.23400 0.99300 44.67800
O  7.23800 0.88300 45.90600
O  7.36300 2.15900 43.95800
C  7.39800 3.46800 44.70700
H  0.62900 2.47800 41.90200
H  -1.86900 -3.21600 43.31800
H  3.61500 -5.17000 45.59300
H  5.10100 2.77100 43.07100
H  3.11800 2.95200 40.97800
H  3.79200 4.51600 43.16300
H  2.39000 3.74500 43.78200
H  2.21700 4.56200 42.26000
H  6.58500 2.01000 41.43500
H  5.27600 2.91500 40.55400
H  4.24500 0.61600 40.22000
H  5.92100 -0.03500 40.41700
H  -2.19400 1.98500 40.74500
H  -1.37000 2.84400 41.81000
H  -3.06200 2.23100 42.19100
H  -5.12000 -2.18800 42.50400
H  -3.77600 -2.51300 43.59600
H  -3.58400 -2.92800 41.82800
H  -0.48300 -5.62500 43.82800
H  0.97000 -5.35400 46.41000
H  -2.36600 -4.12200 45.23300
H  -1.33300 -4.49600 46.59400
H  -2.19800 -5.78600 45.71000
H  2.26200 -6.61500 44.36800
H  0.57500 -7.19300 44.30200
H  2.74900 -7.79100 46.22100
H  1.14000 -8.59300 45.87800
H  1.29100 -7.31100 47.07000
H  7.28800 -3.90400 46.52700
H  6.93000 -5.08000 45.27800
H  5.82000 -4.94600 46.64800
H  7.38700 0.16400 42.79500
H  7.97600 3.39200 45.62700
H  6.41600 3.91400 44.86900
H  7.90500 4.08200 43.96200
Mg 16.63400 52.92500 26.24100
C  18.86600 51.00800 28.31400
C  14.76100 53.48500 29.20200
C  14.59800 54.72500 24.38300
C  18.65000 52.17700 23.61700
N  16.84500 52.32000 28.46100
C  17.82100 51.61800 29.06000
C  17.58000 51.45200 30.56200
C  16.01500 51.72300 30.65500
C  15.76000 52.51500 29.35600
C  15.04700 50.55000 30.95900
C  18.41100 52.52100 31.28600
C  18.61900 52.37700 32.81800
H  17.64000 51.56400 33.76000
N  14.95300 53.91700 26.67100
C  14.42200 54.15300 27.96600
C  13.30800 55.07600 27.75900
C  13.25500 55.49900 26.41100
C  14.28600 54.72300 25.77900
C  12.43800 55.44100 28.97500
C  12.37000 56.60800 25.78000
O  12.48900 56.95700 24.59600
C  11.34700 57.22600 26.64400
N  16.57200 53.26600 24.28100
C  15.60200 54.04600 23.68200
C  15.80100 54.08600 22.12500
C  17.23000 53.47200 21.96900
C  17.47900 52.93000 23.36100
C  14.68600 53.31600 21.33500
C  18.39000 54.42800 21.58700
C  19.37100 54.00400 20.45600
N  18.36600 51.80100 25.92400
C  19.00900 51.55000 24.78200
C  20.21700 50.73600 25.08600
C  20.23400 50.54300 26.43800
C  19.05000 51.13700 26.94200
C  21.32500 50.33100 24.11100
C  20.90500 49.81900 27.57100
O  21.99600 49.17600 27.65400
C  20.11200 50.30900 28.85700
C  19.92100 49.20700 29.85500
O  19.08000 48.31400 29.73100
O  20.67100 49.43200 30.91200
C  20.25900 48.60000 32.06200
H  14.19700 53.54400 30.13500
H  13.89400 55.27500 23.75400
H  19.24000 51.87900 22.74800
H  17.83200 50.46100 30.94000
H  15.85500 52.40700 31.48900
H  14.35100 50.77200 31.76800
H  15.56700 49.59300 30.99500
H  14.42200 50.43700 30.07400
H  18.05700 53.54400 31.16500
H  19.40100 52.49900 30.83000
H  18.65300 53.39200 33.21500
H  19.64900 52.04100 32.94100
H  12.64600 56.48700 29.20100
H  12.71400 54.98900 29.92800
H  11.39300 55.34400 28.68000
H  10.76400 57.71400 25.86300
H  11.82600 57.97100 27.27900
H  10.75000 56.55900 27.26700
H  15.77500 55.15100 21.89700
H  17.28500 52.59100 21.32900
H  13.84200 53.30500 22.02500
H  14.95900 52.32500 20.97200
H  14.46200 53.88600 20.43300
H  18.94900 54.84000 22.42700
H  17.87500 55.29800 21.18000
H  19.21200 54.60100 19.55800
H  19.41500 52.94100 20.21900
H  20.41100 54.17900 20.73100
H  20.86600 49.64100 23.40300
H  21.98100 49.70400 24.71600
H  21.77900 51.11500 23.50600
H  20.65200 51.01300 29.49100
H  20.41200 49.29600 32.88700
H  20.86500 47.69500 32.11000
H  19.19500 48.42800 32.22200

