158

Mg 8.38700 3.83000 27.45000
C  9.86600 2.36500 30.27000
C  6.50700 5.70700 29.55100
C  6.81000 5.05000 24.70300
C  9.88600 1.34800 25.50200
N  8.08400 3.89700 29.65400
C  8.96100 3.35800 30.60300
C  8.72400 3.93300 32.04400
C  7.49400 4.87200 31.81000
C  7.29500 4.78600 30.29300
C  6.20700 4.40900 32.62000
C  9.96900 4.80400 32.52100
C  9.76100 5.54700 33.89100
H  10.66300 5.13100 35.12800
N  6.94100 5.24800 27.14500
C  6.37100 5.96000 28.17200
C  5.48800 7.01200 27.56200
C  5.60400 6.80600 26.17500
C  6.48800 5.65100 25.95200
C  4.59600 7.94600 28.40700
C  4.96000 7.63800 24.98900
O  5.24300 7.58800 23.79800
C  4.12600 8.77800 25.48400
N  8.19100 3.08900 25.40600
C  7.68100 3.99900 24.45700
C  7.95400 3.48500 23.00200
C  9.09400 2.37300 23.20800
C  9.07000 2.25200 24.79000
C  6.66600 2.93800 22.37200
C  10.46400 2.57600 22.55000
C  11.41000 3.53600 23.31500
N  9.55100 2.11700 27.82200
C  10.10300 1.24700 26.92000
C  11.02100 0.37500 27.62000
C  11.00300 0.80200 28.92700
C  10.04000 1.81800 29.00400
C  11.98900 -0.68700 27.05000
C  11.60100 0.62200 30.25100
O  12.46800 -0.11800 30.64900
C  10.92600 1.69400 31.11700
C  10.50300 1.18500 32.44400
O  9.43000 0.66100 32.64000
O  11.41600 1.51900 33.39600
C  10.94600 1.34600 34.80700
H  5.97400 6.42100 30.18200
H  6.38900 5.46100 23.78400
H  10.64500 0.71600 25.03700
H  8.49300 3.13000 32.74400
H  7.63600 5.85200 32.26600
H  5.62800 5.29800 32.87000
H  6.49700 3.70700 33.40100
H  5.70700 3.72100 31.93800
H  10.02100 5.52500 31.70500
H  10.83900 4.16200 32.66200
H  8.70800 5.52600 34.17200
H  9.80500 6.62900 33.77200
H  3.52900 7.78900 28.24400
H  4.84600 8.97800 28.16200
H  4.84000 7.80000 29.45900
H  3.82700 9.27800 24.56200
H  4.89000 9.28400 26.07400
H  3.29100 8.51300 26.13100
H  8.36000 4.26800 22.36200
H  8.72200 1.41200 22.85400
H  5.91600 2.75900 23.14200
H  7.02200 2.00800 21.92900
H  6.27900 3.54400 21.55300
H  10.28900 3.07600 21.59700
H  10.91300 1.62100 22.27600
H  11.81100 4.34700 22.70700
H  12.26000 2.95300 23.67000
H  10.81500 3.85900 24.16900
H  12.95300 -0.33800 27.42200
H  12.08300 -0.78800 25.96900
H  11.73300 -1.65600 27.47800
H  11.67900 2.45700 31.31500
H  10.13300 0.62000 34.81400
H  10.61900 2.22700 35.36000
H  11.74600 0.82400 35.33100
Mg 49.44900 46.11800 42.88900
C  46.01600 46.21500 41.87600
C  49.59100 42.76300 41.95900
C  52.76400 46.48900 42.70300
C  49.06400 49.52900 43.65800
N  48.02900 44.72300 41.87400
C  46.68700 44.99400 41.69200
C  46.04900 43.69800 41.17100
C  47.05900 42.56400 41.60200
C  48.33800 43.34100 41.79100
C  46.77400 41.56700 42.77100
C  45.76100 43.62700 39.64900
C  44.53100 42.82000 39.24000
H  44.01900 43.12800 37.85200
N  51.03400 44.76900 42.47400
C  50.84300 43.42200 42.15300
C  52.19900 42.89500 41.96500
C  53.16400 43.92800 42.26800
C  52.38700 45.12900 42.47400
C  52.48500 41.42900 41.78700
C  54.63100 43.76700 42.41400
O  55.19000 42.70500 42.16600
C  55.58500 44.87700 42.98600
N  50.79800 47.69800 43.28400
C  52.09000 47.64800 43.08400
C  52.80000 48.93200 43.45400
C  51.65200 49.89200 43.85800
C  50.35300 49.03900 43.53800
C  53.92000 48.91600 44.53500
C  51.67500 51.30100 43.11000
C  51.20600 52.51300 43.90600
N  47.91800 47.61300 42.82900
C  47.91400 48.86900 43.27500
C  46.52700 49.32600 43.27900
C  45.85100 48.37000 42.67300
C  46.67400 47.34600 42.41500
C  46.09900 50.64400 43.86700
C  44.50600 48.06700 42.30000
O  43.58200 48.87300 42.30400
C  44.54600 46.65100 41.76000
C  43.69700 45.84400 42.61100
O  43.86600 45.59800 43.76900
O  42.70600 45.26000 41.83200
C  41.77900 44.32700 42.40200
H  49.49000 41.69100 41.77600
H  53.82300 46.75600 42.67400
H  48.91700 50.58500 43.89600
H  45.12400 43.55400 41.73000
H  47.12500 41.79300 40.83400
H  45.82500 41.90500 43.18900
H  47.60200 41.59000 43.47800
H  46.57500 40.55000 42.43300
H  46.70500 43.30000 39.21100
H  45.55000 44.59800 39.20200
H  43.69800 42.97500 39.92600
H  44.78700 41.76700 39.35900
H  51.55200 40.98800 41.43700
H  52.59600 40.89800 42.73300
H  53.26300 41.12000 41.08900
H  55.67500 45.71000 42.29000
H  56.56400 44.47600 43.24800
H  55.16100 45.18400 43.94300
H  53.24400 49.41800 42.58500
H  51.49400 50.02100 44.92900
H  54.90500 49.03200 44.08400
H  54.08700 48.02500 45.14000
H  53.81000 49.73500 45.24600
H  51.00300 51.29300 42.25200
H  52.69200 51.42000 42.73600
H  50.90100 52.28800 44.92800
H  50.34200 52.98900 43.44200
H  51.98400 53.27600 43.86900
H  46.59800 51.52500 43.46300
H  46.42200 50.72600 44.90400
H  45.02000 50.79200 43.83100
H  44.02000 46.74800 40.81100
H  41.17400 43.71000 41.73700
H  41.15400 44.98200 43.00900
H  42.33500 43.65700 43.05700

