158

Mg 36.00100 2.65800 30.65800
C  33.51200 3.56100 32.98200
C  38.29600 2.60800 33.33200
C  38.40300 2.04200 28.46800
C  33.63700 2.76300 28.07400
N  35.88600 3.17700 32.90700
C  34.77200 3.43700 33.67800
C  35.10600 3.46400 35.19400
C  36.65400 3.34600 35.23500
C  37.01700 3.00400 33.77500
C  37.38700 4.64300 35.63200
C  34.39400 2.26800 35.85400
C  34.33200 2.24800 37.38000
H  34.87100 3.39200 38.19300
N  38.09800 2.55600 30.86000
C  38.80900 2.47300 32.00100
C  40.24000 2.21400 31.70200
C  40.29100 1.95400 30.28100
C  38.91200 2.17300 29.81500
C  41.39300 2.13200 32.72700
C  41.44100 1.58800 29.42300
O  41.30900 1.36200 28.24300
C  42.85400 1.55500 30.02900
N  36.08000 2.53000 28.61200
C  37.21800 2.30400 27.93000
C  36.91900 2.04800 26.45300
C  35.40800 2.25900 26.28200
C  35.01200 2.51000 27.74900
C  37.80500 2.89600 25.48300
C  34.56800 1.13500 25.74300
C  33.52400 1.48000 24.67500
N  34.03600 3.17100 30.46400
C  33.20500 3.16800 29.33600
C  31.84400 3.52900 29.82600
C  31.91500 3.73000 31.21100
C  33.26300 3.44900 31.57600
C  30.50600 3.66000 28.99900
C  31.19500 4.01400 32.40600
O  29.99600 4.18500 32.54700
C  32.18200 3.88200 33.53900
C  32.18500 5.25000 34.11800
O  32.54400 6.24700 33.55000
O  31.80400 5.11900 35.44800
C  31.83100 6.35400 36.18900
H  39.04300 2.70100 34.12300
H  39.12500 1.78400 27.69100
H  32.98700 2.75800 27.19600
H  34.70700 4.33300 35.71900
H  36.91900 2.45600 35.80700
H  38.14700 4.39600 36.37400
H  36.80500 5.47500 36.02700
H  37.86700 5.06000 34.74600
H  34.92400 1.37100 35.53400
H  33.36800 2.18000 35.49700
H  34.82700 1.30300 37.60400
H  33.33300 2.03300 37.75800
H  41.80900 1.12700 32.80400
H  41.14400 2.55600 33.70000
H  42.14900 2.77400 32.27400
H  42.89500 0.84000 30.85100
H  43.32900 2.47700 30.36500
H  43.55600 1.21600 29.26800
H  37.11900 0.99300 26.27000
H  35.27200 3.14100 25.65600
H  38.28800 3.71500 26.01600
H  37.16700 3.30700 24.70000
H  38.56700 2.24400 25.05700
H  33.96200 0.69400 26.53400
H  35.26500 0.38000 25.37900
H  33.25400 2.51800 24.48500
H  32.62500 0.91300 24.92000
H  33.98600 1.08800 23.76900
H  30.67300 3.32000 27.97700
H  30.42800 4.74700 29.02800
H  29.67600 3.08700 29.41200
H  31.91000 3.16800 34.31600
H  31.11000 7.05300 35.76700
H  32.79900 6.85500 36.17900
H  31.56100 6.16900 37.22900
Mg 35.67800 48.28300 26.76100
C  36.23900 46.25200 29.60200
C  34.65200 50.80100 28.86000
C  35.03100 50.13100 24.09000
C  36.89700 45.71600 24.72600
N  35.29900 48.36800 28.97900
C  35.75500 47.49100 29.91000
C  35.63700 48.05700 31.33100
C  34.86200 49.42900 31.03900
C  34.96100 49.58900 29.56200
C  33.51200 49.48600 31.75800
C  37.03000 48.34100 32.02600
C  37.13800 48.04600 33.51900
H  35.94400 48.43300 34.45700
N  35.01300 50.22600 26.52800
C  34.69400 51.14900 27.50000
C  34.34100 52.42400 26.95900
C  34.26400 52.20900 25.53200
C  34.80900 50.83600 25.30600
C  34.01900 53.60500 27.75000
C  33.79400 53.14600 24.36800
O  33.81900 52.77200 23.20700
C  33.18700 54.50300 24.66900
N  36.03000 48.02900 24.69700
C  35.65300 48.90900 23.81800
C  35.72300 48.30500 22.42800
C  36.58400 47.07300 22.67000
C  36.50000 46.92100 24.13400
C  34.38400 47.97700 21.71100
C  38.06900 47.16300 22.29400
C  38.85600 45.96100 21.80500
N  36.22700 46.32300 27.02300
C  36.69100 45.38000 26.06000
C  37.08400 44.11000 26.68400
C  36.88500 44.46000 28.12200
C  36.42600 45.76700 28.21700
C  37.50700 42.84300 26.05400
C  37.02700 43.93200 29.44500
O  37.36600 42.83700 29.86500
C  36.72200 45.08300 30.41300
C  35.54800 44.55500 31.34600
O  34.42700 44.15700 31.03500
O  35.95600 44.63400 32.68400
C  34.98300 44.32100 33.77200
H  34.37600 51.56000 29.59500
H  34.84900 50.53100 23.09000
H  37.25900 45.08400 23.91300
H  35.03500 47.36900 31.92400
H  35.43300 50.21200 31.53800
H  32.87900 50.07000 31.09000
H  33.63300 50.02600 32.69700
H  33.22600 48.45900 31.98700
H  37.28400 49.39900 31.95900
H  37.75200 47.81500 31.40100
H  37.97100 48.57500 33.98200
H  37.31500 46.97800 33.64400
H  34.96600 54.13900 27.82700
H  33.70100 53.24800 28.73000
H  33.18100 54.24200 27.46800
H  33.49800 55.01800 25.57800
H  32.10700 54.36000 24.64600
H  33.43400 55.13700 23.81800
H  36.12500 49.05400 21.74500
H  36.24500 46.13300 22.23500
H  34.00400 47.00300 22.02000
H  34.58700 47.96300 20.64000
H  33.66400 48.76600 21.93000
H  38.55700 47.55000 23.18800
H  38.14900 47.99100 21.59100
H  39.27800 46.15200 20.81800
H  38.25400 45.05700 21.88900
H  39.65300 45.83600 22.53900
H  38.25200 42.39200 26.71000
H  38.04100 43.05000 25.12700
H  36.68000 42.16400 25.84700
H  37.58200 45.28100 31.05300
H  35.17200 44.98900 34.61200
H  35.19900 43.30900 34.11300
H  33.94400 44.48900 33.48800

