158

Mg 43.09000 42.67000 26.57800
C  41.97000 44.92000 29.08500
C  44.06600 40.54000 28.85700
C  44.61600 41.00300 24.06500
C  42.13600 45.05900 24.10900
N  42.88600 42.77400 28.81400
C  42.50000 43.72000 29.61000
C  42.45600 43.24800 31.04300
C  43.16100 41.96600 30.91600
C  43.33900 41.65800 29.42800
C  44.48300 41.99600 31.75500
C  41.02800 43.12300 31.74000
C  40.72100 44.04700 32.93500
H  40.19800 43.45800 34.26200
N  44.16000 40.95100 26.46700
C  44.46000 40.15400 27.56300
C  45.26400 39.03200 27.09600
C  45.49300 39.20000 25.70900
C  44.76600 40.45100 25.29300
C  45.85600 38.00300 28.08700
C  46.37400 38.36700 24.84900
O  46.51800 38.61900 23.63600
C  47.29000 37.22000 25.45900
N  43.39800 43.02300 24.44500
C  44.01700 42.11900 23.62300
C  43.86800 42.49100 22.13700
C  42.93700 43.69200 22.14500
C  42.85700 43.99000 23.63100
C  45.27000 42.73100 21.49700
C  41.53400 43.44700 21.53600
C  40.54100 42.60700 22.35500
N  42.34900 44.64300 26.56100
C  42.05100 45.53500 25.44600
C  41.31700 46.67400 25.96200
C  41.22800 46.52700 27.36700
C  41.89700 45.26400 27.70900
C  40.80400 47.77100 25.15300
C  40.78700 47.09800 28.63800
O  40.18800 48.14100 28.87200
C  41.27600 46.02500 29.76900
C  42.21400 46.81200 30.69100
O  43.36200 47.16400 30.40600
O  41.56200 47.13300 31.87800
C  42.35200 47.58500 32.96200
H  44.48500 39.92800 29.65800
H  44.89300 40.31100 23.26600
H  41.68800 45.72300 23.36700
H  43.01900 44.05800 31.50700
H  42.55000 41.15400 31.30800
H  44.48200 42.74300 32.55000
H  45.25400 42.26200 31.03200
H  44.68800 41.04300 32.24100
H  40.74900 42.10200 31.99600
H  40.34100 43.35000 30.92500
H  39.94600 44.64500 32.45500
H  41.48700 44.82000 32.99500
H  45.34700 37.88500 29.04300
H  46.89400 38.22500 28.33200
H  45.92000 37.00100 27.66300
H  48.04400 36.82900 24.77500
H  46.83700 36.29800 25.82400
H  47.79400 37.74600 26.26900
H  43.49300 41.56300 21.70500
H  43.35300 44.57200 21.65500
H  45.29900 41.93800 20.75000
H  46.04200 42.66100 22.26300
H  45.25400 43.75500 21.12400
H  41.79700 42.87000 20.64900
H  41.09500 44.40000 21.23900
H  40.91700 42.56000 23.37700
H  40.54700 41.58200 21.98500
H  39.50400 42.93200 22.26900
H  39.92700 47.51100 24.56000
H  41.66800 47.99600 24.52800
H  40.51300 48.59200 25.80700
H  40.41900 45.71900 30.37000
H  42.58900 46.69400 33.54400
H  41.78900 48.27600 33.58900
H  43.24600 48.10700 32.62100
Mg 26.93600 51.32300 26.51900
C  24.68300 51.91100 29.20300
C  29.07600 50.02500 28.81000
C  29.05700 50.69600 23.97100
C  24.81100 52.93300 24.41200
N  26.82600 50.99900 28.76200
C  25.87600 51.32800 29.62000
C  26.26600 50.91300 31.06100
C  27.74400 50.57300 30.93400
C  27.91800 50.46900 29.43000
C  28.73300 51.54600 31.55600
C  25.43700 49.79100 31.62800
C  25.05100 49.97100 33.13700
H  26.05500 50.40000 34.21100
N  28.72600 50.43100 26.38700
C  29.50200 49.99500 27.46600
C  30.72700 49.37400 26.96000
C  30.81100 49.62000 25.56000
C  29.45500 50.24400 25.25800
C  31.63800 48.77900 27.93200
C  31.96700 49.43900 24.60500
O  32.05600 49.82700 23.41900
C  33.06500 48.59200 25.07200
N  27.08500 52.03300 24.50200
C  28.02300 51.58200 23.62600
C  27.67600 52.05500 22.19500
C  26.17100 52.54000 22.27700
C  25.98800 52.51300 23.84100
C  28.64000 53.12500 21.57900
C  25.08600 51.57300 21.58400
C  24.19700 52.32200 20.58500
N  25.08600 52.19100 26.67900
C  24.36200 52.82700 25.75600
C  23.17800 53.37600 26.28100
C  23.28700 53.05600 27.60700
C  24.44200 52.28800 27.83400
C  22.07000 54.16200 25.59000
C  22.60400 53.18300 28.89700
O  21.54500 53.72900 29.23700
C  23.53800 52.48200 29.93600
C  23.88100 53.54400 30.92900
O  24.93100 54.13500 30.87500
O  22.95300 53.50100 31.99600
C  23.37300 54.11000 33.24300
H  29.68000 49.65700 29.64300
H  29.80000 50.50400 23.19400
H  24.09100 53.51800 23.83600
H  26.14100 51.80900 31.67000
H  27.89200 49.61800 31.43900
H  29.37200 50.96900 32.22400
H  28.16400 52.34400 32.03300
H  29.51600 51.87800 30.87500
H  25.89000 48.80900 31.49300
H  24.51200 49.62400 31.07600
H  24.74800 48.98700 33.49500
H  24.22200 50.67800 33.14600
H  31.76300 47.73200 27.65700
H  31.28100 48.70300 28.95900
H  32.61300 49.26400 27.98100
H  32.67500 47.67900 25.52200
H  33.66600 49.15200 25.78800
H  33.66200 48.24900 24.22700
H  27.71200 51.15700 21.57700
H  26.00900 53.60600 22.11900
H  29.43100 53.25000 22.31800
H  28.29600 54.14500 21.41100
H  29.07300 52.71800 20.66500
H  24.44000 51.21000 22.38300
H  25.58300 50.71000 21.14200
H  23.34900 52.68800 21.16500
H  23.85300 51.67000 19.78200
H  24.72400 53.11900 20.06100
H  21.54800 54.71300 26.37100
H  21.44900 53.48600 25.00200
H  22.60700 54.92300 25.02400
H  22.95200 51.69800 30.41500
H  24.07500 53.51100 33.82300
H  22.52900 54.03400 33.92800
H  23.58400 55.17700 33.18300

