158

Mg 9.26000 47.85800 26.44700
C  7.37200 47.52100 29.45100
C  11.97200 48.70500 28.29100
C  10.91500 47.88300 23.61000
C  6.18000 47.21300 24.65900
N  9.56700 48.16800 28.58300
C  8.67900 48.01700 29.66200
C  9.34900 48.40000 30.99600
C  10.77700 48.83500 30.57800
C  10.80700 48.58900 29.04700
C  11.14900 50.30900 30.94800
C  9.36300 47.25300 32.10900
C  10.40200 47.14000 33.18200
H  9.93500 47.11400 34.58600
N  11.10800 48.31000 25.99300
C  12.10300 48.62100 26.86800
C  13.34800 48.71200 26.15900
C  13.12900 48.23800 24.81300
C  11.67800 48.13200 24.68200
C  14.68800 48.91500 26.87500
C  14.16300 48.00000 23.74500
O  13.92500 47.57200 22.65200
C  15.64100 48.30900 23.95000
N  8.57400 47.74700 24.33800
C  9.51500 47.69000 23.38400
C  8.95800 47.53800 21.91400
C  7.51900 46.92500 22.30900
C  7.41100 47.28700 23.84700
C  8.61700 48.92000 21.25000
C  7.39900 45.37400 22.02700
C  7.97400 44.34800 23.01900
N  7.22800 47.42900 26.92200
C  6.10800 47.26600 26.04900
C  4.92800 46.94900 26.83600
C  5.41600 47.03300 28.14700
C  6.77800 47.34600 28.19800
C  3.56000 46.61300 26.36200
C  5.12500 46.89100 29.59400
O  4.07300 46.42200 30.09200
C  6.34400 47.19500 30.46300
C  6.64600 45.89500 31.19800
O  7.16800 44.95700 30.63500
O  6.13900 46.00900 32.45600
C  6.77000 45.14100 33.48900
H  12.71900 49.07700 28.99500
H  11.37000 47.85600 22.61800
H  5.32900 46.79000 24.12200
H  8.87800 49.26700 31.46000
H  11.55500 48.19100 30.98900
H  11.92500 50.16000 31.69900
H  10.32500 50.91300 31.32900
H  11.51100 50.80200 30.04600
H  9.54000 46.30800 31.59500
H  8.35700 47.31500 32.52500
H  11.21600 47.86300 33.15800
H  10.93600 46.23900 32.88000
H  15.30800 49.45000 26.15500
H  15.16500 47.97900 27.16600
H  14.53700 49.51700 27.77200
H  16.31100 48.15600 23.10400
H  16.08800 47.73400 24.76100
H  15.78000 49.37100 24.15400
H  9.46200 46.85200 21.23300
H  6.70000 47.30500 21.69900
H  7.79100 48.74300 20.56200
H  9.44900 49.29800 20.65700
H  8.30000 49.64900 21.99500
H  7.77500 45.17300 21.02300
H  6.31800 45.24500 21.97800
H  8.27800 44.75500 23.98400
H  8.85200 43.92500 22.53100
H  7.10200 43.69800 23.09900
H  3.33100 45.54900 26.41800
H  3.31400 46.93000 25.34900
H  2.98200 47.23300 27.04800
H  6.08200 47.99300 31.15800
H  7.58900 45.73600 33.89400
H  7.20000 44.24700 33.03800
H  6.11900 44.83300 34.30700
Mg -10.51800 37.97700 40.98200
C  -9.30100 34.94200 40.28600
C  -7.57400 39.43700 39.72000
C  -12.09000 40.97800 40.84000
C  -13.44300 36.56300 41.96100
N  -8.77400 37.32300 39.96000
C  -8.45100 35.97100 39.87600
C  -7.05100 35.80700 39.17000
C  -6.45900 37.20600 39.30500
C  -7.68100 38.05100 39.62300
C  -5.31200 37.41600 40.41700
C  -7.16200 35.39500 37.65900
C  -6.08700 34.48900 37.17300
H  -5.83300 34.42400 35.65800
N  -9.92900 39.90500 40.32600
C  -8.68700 40.35700 39.90700
C  -8.73500 41.77700 39.85800
C  -10.08900 42.21200 40.04800
C  -10.75300 41.00500 40.48200
C  -7.48200 42.58600 39.56500
C  -10.57200 43.71400 39.79600
O  -9.76400 44.52500 39.35700
C  -12.01200 43.99200 39.66700
N  -12.48800 38.63800 41.11900
C  -12.86700 39.92700 41.10400
C  -14.24700 40.13600 41.75100
C  -14.76500 38.69900 41.77400
C  -13.47000 37.94000 41.69100
C  -14.12900 40.93000 43.12000
C  -15.74200 38.34500 40.65600
C  -17.17100 38.55400 40.87100
N  -11.19600 36.11200 41.37900
C  -12.37600 35.67700 41.84500
C  -12.33100 34.22100 41.99900
C  -11.16300 33.87400 41.29100
C  -10.49300 35.09200 40.97300
C  -13.40700 33.35200 42.61000
C  -10.33800 32.76200 40.79400
O  -10.48900 31.53200 40.89200
C  -9.11200 33.41500 40.04900
C  -7.83500 32.83200 40.60400
O  -7.22900 32.02200 39.97800
O  -7.49900 33.32600 41.84600
C  -6.23600 32.86100 42.46900
H  -6.58300 39.83100 39.48300
H  -12.52700 41.95600 41.05000
H  -14.42400 36.09500 42.06600
H  -6.38900 35.09400 39.66100
H  -6.02800 37.35800 38.31600
H  -5.08000 36.41800 40.78700
H  -5.63700 38.05600 41.23700
H  -4.45900 37.83400 39.88200
H  -7.23000 36.33700 37.11400
H  -8.05900 34.87900 37.31700
H  -6.41500 33.54000 37.59800
H  -5.10700 34.67800 37.61200
H  -7.54200 43.13200 38.62400
H  -6.53100 42.05500 39.61300
H  -7.43400 43.49100 40.17000
H  -12.45600 43.08100 39.26600
H  -12.21200 44.81200 38.97600
H  -12.26800 44.18800 40.70800
H  -14.70200 40.79700 41.01300
H  -15.20300 38.45700 42.74200
H  -13.17900 41.45900 43.04600
H  -13.99900 40.25000 43.96100
H  -14.93700 41.59900 43.41800
H  -15.49300 37.39500 40.18300
H  -15.59000 39.04500 39.83400
H  -17.61100 37.60800 41.18800
H  -17.76200 38.75700 39.97800
H  -17.30500 39.45700 41.46600
H  -13.58800 33.79900 43.58800
H  -12.99800 32.34400 42.66900
H  -14.35500 33.40700 42.07500
H  -9.27000 33.11900 39.01200
H  -5.61300 32.37800 41.71600
H  -6.33900 32.15700 43.29500
H  -5.56300 33.68000 42.72000

