158

Mg 35.79200 2.66300 30.66300
C  33.20700 3.70300 32.67100
C  37.91100 2.65000 33.46600
C  38.39200 1.68200 28.66800
C  33.68000 2.55900 28.04400
N  35.51900 3.10700 32.79300
C  34.41800 3.59600 33.37100
C  34.74100 3.61700 34.95600
C  36.26400 3.74600 35.03200
C  36.62700 3.07300 33.66300
C  36.74200 5.20700 35.16300
C  34.00100 2.36800 35.53100
C  33.95100 2.27600 37.09400
H  34.07400 3.55400 37.86000
N  37.89200 2.21400 31.03400
C  38.53600 2.24800 32.22300
C  39.92500 1.80700 32.06300
C  40.08500 1.62800 30.64800
C  38.78600 1.79800 30.04300
C  40.89800 1.64400 33.20000
C  41.32400 1.24800 29.87600
O  41.33100 1.16100 28.64200
C  42.68800 1.03700 30.50500
N  36.10000 2.41200 28.63100
C  37.20100 1.91400 28.01400
C  36.92100 1.69800 26.46800
C  35.38900 1.67300 26.39000
C  35.00000 2.24500 27.79200
C  37.56400 2.86900 25.66300
C  34.62900 0.31700 26.03700
C  33.53900 0.54200 24.94000
N  33.80900 3.22200 30.32100
C  33.10700 3.13100 29.18900
C  31.68600 3.51600 29.39800
C  31.64300 3.72100 30.79300
C  32.97000 3.50200 31.27900
C  30.66100 3.62700 28.29400
C  30.83400 4.03400 31.94400
O  29.68000 4.27100 32.08200
C  31.85700 3.96800 33.20500
C  31.76600 5.22200 33.98100
O  31.90800 6.35400 33.54000
O  31.53000 4.93700 35.35700
C  31.33400 6.19200 36.13200
H  38.43500 2.67600 34.42400
H  39.05600 1.22500 27.93200
H  33.03400 2.70600 27.17600
H  34.24500 4.48400 35.39300
H  36.65400 3.20100 35.89200
H  37.32000 5.41800 34.26300
H  37.37100 5.27400 36.05000
H  35.96600 5.96900 35.24600
H  34.64300 1.52200 35.28700
H  33.00900 2.26600 35.09200
H  34.58300 1.55900 37.61800
H  32.96100 1.88200 37.32400
H  41.49600 0.73300 33.15800
H  40.40800 1.64800 34.17400
H  41.58500 2.48800 33.13000
H  43.47200 1.15300 29.75600
H  42.62100 0.00800 30.85800
H  42.81400 1.73700 31.33100
H  37.41400 0.78400 26.13600
H  35.06700 2.48800 25.74200
H  36.92000 3.22100 24.85700
H  38.50900 2.47700 25.28600
H  37.92200 3.61800 26.36900
H  34.16300 -0.14800 26.90500
H  35.34400 -0.41400 25.65800
H  33.76500 0.03400 24.00200
H  33.37100 1.59600 24.71800
H  32.61900 0.08100 25.29900
H  29.88400 2.89100 28.49900
H  31.12100 3.66200 27.30600
H  30.07600 4.54700 28.30200
H  31.60500 3.14500 33.87400
H  32.23200 6.79100 36.28200
H  30.93600 5.85900 37.09100
H  30.53700 6.83100 35.75300
Mg 42.05700 40.91400 26.51400
C  41.25200 43.08100 28.99300
C  42.74400 38.36900 28.85900
C  42.86600 38.78700 24.02300
C  41.56500 43.51500 24.12000
N  42.18200 40.82000 28.66300
C  41.75800 41.83700 29.50100
C  41.73300 41.35700 30.97100
C  42.50400 39.92000 30.87400
C  42.50400 39.67800 29.34600
C  43.93500 39.96000 31.42100
C  40.44300 41.35700 31.66600
C  40.36400 42.07400 33.09600
H  39.89300 41.13800 34.24700
N  42.67900 38.90500 26.47600
C  42.88400 37.99500 27.53800
C  43.32000 36.72900 27.09000
C  43.30500 36.83200 25.63900
C  42.93400 38.22300 25.30900
C  43.59700 35.51300 27.89900
C  43.38800 35.79100 24.60600
O  43.29000 36.03800 23.40300
C  43.67100 34.38100 24.92400
N  42.30800 41.21600 24.36500
C  42.57400 40.03600 23.56400
C  42.55000 40.51400 22.07700
C  41.84000 41.94400 22.12700
C  41.95600 42.27000 23.61200
C  43.94500 40.58400 21.48400
C  40.29900 41.86400 21.59100
C  39.30600 40.77600 22.10100
N  41.60400 42.92600 26.50500
C  41.40100 43.91700 25.48800
C  41.02200 45.16600 26.04500
C  40.85800 44.82100 27.38400
C  41.22800 43.48200 27.65800
C  40.78900 46.42200 25.41000
C  40.51500 45.39300 28.65800
O  39.91900 46.45200 28.94500
C  40.72300 44.33900 29.76800
C  41.51500 44.95800 30.86300
O  42.66500 45.29700 30.79100
O  40.68500 45.24400 31.89300
C  41.37600 45.91000 32.95000
H  42.88100 37.65600 29.67500
H  43.06400 38.20200 23.12200
H  41.39100 44.26400 23.34400
H  42.45200 41.97900 31.50400
H  41.96200 39.07400 31.29600
H  44.55800 40.70100 30.92000
H  44.23900 38.91300 31.41100
H  43.95400 40.18500 32.48700
H  40.21000 40.30100 31.80500
H  39.73000 41.82000 30.98400
H  39.57000 42.80100 32.92800
H  41.27900 42.58500 33.39900
H  42.88800 34.77000 27.53400
H  43.46600 35.61400 28.97600
H  44.60100 35.17900 27.63600
H  42.85200 33.83600 25.39400
H  44.57200 34.22700 25.51800
H  43.79100 33.71500 24.06900
H  41.90600 39.90100 21.44600
H  42.50100 42.67200 21.65500
H  43.78900 40.24500 20.46000
H  44.62900 39.86600 21.93800
H  44.45600 41.54700 21.49600
H  40.39100 41.70200 20.51700
H  39.87900 42.86200 21.71700
H  38.98700 40.17500 21.25000
H  38.41600 41.15500 22.60400
H  39.78100 40.18400 22.88300
H  41.28700 46.43000 24.44100
H  41.34700 47.14500 26.00400
H  39.75700 46.74600 25.27600
H  39.76900 44.06500 30.21700
H  42.19000 45.31600 33.36600
H  40.69500 46.04900 33.78900
H  41.72500 46.87100 32.57200

