158

Mg 47.50400 14.71700 27.90300
C  45.37900 15.12500 30.57800
C  49.58900 17.07900 29.23800
C  49.18000 14.75100 25.06000
C  44.90500 12.90200 26.31500
N  47.36100 16.09300 29.67500
C  46.51900 15.92700 30.74800
C  47.09200 16.51300 32.03100
C  48.17100 17.43100 31.43400
C  48.42600 16.92100 29.98500
C  47.85600 18.93100 31.49100
C  47.54100 15.55700 33.09300
C  47.20500 15.98200 34.53500
H  48.40000 16.47000 35.34300
N  49.21600 15.65500 27.30900
C  49.93000 16.54300 28.01200
C  51.33200 16.67500 27.44000
C  51.20100 16.05600 26.10800
C  49.80200 15.45800 26.11000
C  52.54200 17.31200 28.17900
C  52.20600 16.03300 24.94500
O  51.97000 15.52900 23.87700
C  53.46200 16.85000 25.05200
N  47.07900 14.03200 26.05400
C  47.91700 14.18500 25.03500
C  47.45600 13.51100 23.74100
C  46.18900 12.72900 24.20100
C  46.00700 13.28000 25.58800
C  47.10100 14.42100 22.50500
C  46.47100 11.22300 24.14900
C  47.38900 10.53000 25.17400
N  45.50900 14.07200 28.34200
C  44.59200 13.26300 27.67500
C  43.48700 12.96700 28.53600
C  43.82600 13.61300 29.74300
C  45.00700 14.33300 29.53500
C  42.30500 12.11100 28.20700
C  43.29100 13.82600 31.07500
O  42.25000 13.45300 31.61800
C  44.35600 14.86500 31.68400
C  43.59700 16.10300 32.08700
O  43.31100 17.05800 31.38200
O  43.10000 15.93300 33.31000
C  42.47300 17.01300 33.99800
H  50.42900 17.59500 29.70800
H  49.67900 14.76100 24.08900
H  44.17300 12.26400 25.81600
H  46.27500 17.08500 32.47100
H  49.09700 17.29100 31.99000
H  47.68000 19.27500 30.47100
H  48.74800 19.45300 31.83700
H  46.98500 19.14600 32.11100
H  48.62200 15.41400 33.07400
H  47.12600 14.58200 32.83600
H  46.62400 15.23700 35.07800
H  46.63300 16.91000 34.54800
H  53.43800 16.77000 27.87800
H  52.25700 17.02100 29.18900
H  52.56300 18.40200 28.18600
H  54.07400 16.42700 25.84900
H  53.22700 17.89500 25.25500
H  53.93700 16.83900 24.07100
H  48.33300 12.94000 23.43700
H  45.27900 12.92600 23.63400
H  46.22600 13.97100 22.03500
H  47.96800 14.57800 21.86400
H  46.85000 15.32000 23.06800
H  46.82500 10.99700 23.14400
H  45.49300 10.75200 24.24700
H  47.66100 11.03000 26.10400
H  48.31800 10.17200 24.73000
H  46.85900 9.66200 25.56500
H  41.40100 12.65900 27.94100
H  42.03600 11.49200 29.06300
H  42.56100 11.57600 27.29300
H  44.72700 14.30600 32.54300
H  42.84000 17.98700 33.67500
H  42.76000 16.80000 35.02800
H  41.38700 16.92000 34.03000
Mg 41.62600 41.20000 27.34800
C  41.06900 43.52700 29.80300
C  42.41100 38.82100 29.74900
C  42.40600 39.14300 24.88500
C  41.03300 43.69300 24.87700
N  41.85800 41.30500 29.47400
C  41.31100 42.24400 30.29000
C  41.06300 41.82900 31.77400
C  41.54600 40.30000 31.62900
C  41.98300 40.11200 30.18000
C  42.71200 39.90300 32.54400
C  39.62600 42.05400 32.37100
C  39.43400 42.88600 33.67600
H  38.76500 42.13700 34.77300
N  42.30900 39.22700 27.31900
C  42.57300 38.40700 28.40700
C  42.94100 37.09900 27.93000
C  42.94000 37.12100 26.54200
C  42.57400 38.53100 26.15400
C  43.06300 35.91400 28.92700
C  43.16000 35.98100 25.56400
O  43.29700 36.19800 24.34600
C  43.52200 34.65400 26.03400
N  41.83200 41.49700 25.17400
C  42.03800 40.39000 24.38200
C  41.78400 40.71400 22.84400
C  41.15300 42.09100 22.97200
C  41.28200 42.44100 24.45500
C  43.16800 40.68400 22.06000
C  39.68700 42.08000 22.48500
C  38.54800 41.56600 23.43100
N  41.24600 43.26400 27.29500
C  41.00800 44.16600 26.24300
C  40.51100 45.37600 26.82700
C  40.48500 45.16500 28.19800
C  41.00700 43.90900 28.45500
C  40.00200 46.67300 26.17400
C  40.07900 45.72300 29.49700
O  39.54600 46.80600 29.74800
C  40.60100 44.74500 30.54900
C  41.69100 45.41400 31.23000
O  42.81100 45.70900 30.77700
O  41.27200 45.53400 32.51700
C  42.19000 46.22900 33.42400
H  42.48300 38.06100 30.53000
H  42.61900 38.46500 24.05600
H  40.63800 44.24700 24.02300
H  41.83900 42.47900 32.17800
H  40.69100 39.63700 31.76100
H  43.68200 40.03700 32.06500
H  42.52300 38.90700 32.94200
H  42.75400 40.44800 33.48700
H  39.17700 41.06600 32.47400
H  39.05700 42.63200 31.64200
H  38.77600 43.71400 33.41200
H  40.35400 43.33800 34.04800
H  42.11900 35.38000 29.03100
H  43.42200 36.35600 29.85600
H  43.91900 35.30600 28.63200
H  44.43100 34.80900 26.61500
H  43.76400 33.91400 25.27100
H  42.83800 34.23800 26.77300
H  41.20700 39.87000 22.46600
H  41.79900 42.81600 22.47700
H  43.39400 41.57500 21.47400
H  43.13200 39.88700 21.31700
H  44.01300 40.49800 22.72300
H  39.63200 41.55000 21.53400
H  39.40100 43.07300 22.13800
H  38.94400 41.12200 24.34400
H  38.08900 40.74900 22.87500
H  37.76600 42.31100 23.57700
H  40.77300 47.43800 26.27000
H  39.09300 46.82900 26.75500
H  39.81700 46.49200 25.11500
H  39.78500 44.60800 31.26000
H  42.45500 47.20700 33.02200
H  43.11700 45.65800 33.46000
H  41.57300 46.17000 34.32100

