158

Mg 16.86000 -2.49500 28.22500
C  16.04900 -0.29800 30.96200
C  18.71700 -4.21100 30.44500
C  18.04600 -4.05900 25.62600
C  15.17100 -0.30800 26.22100
N  17.16400 -2.34000 30.47900
C  16.84600 -1.34500 31.34100
C  17.21200 -1.66000 32.76300
C  18.11700 -2.92300 32.64500
C  17.99500 -3.21200 31.13800
C  19.54300 -2.87900 33.28500
C  15.91900 -1.83600 33.65100
C  15.95800 -1.22800 35.09300
H  17.35700 -0.77500 35.61500
N  18.15900 -4.05100 28.06200
C  18.80900 -4.64300 29.10100
C  19.56200 -5.70700 28.52400
C  19.31100 -5.70600 27.14900
C  18.47200 -4.58400 26.88900
C  20.33000 -6.79100 29.36400
C  19.78400 -6.67900 26.05000
O  19.43200 -6.59300 24.86800
C  20.83700 -7.73800 26.49200
N  16.61000 -2.30500 26.23700
C  17.28600 -2.99400 25.32700
C  17.13500 -2.47500 23.90600
C  16.04900 -1.30300 24.07100
C  15.84100 -1.34300 25.63200
C  18.42800 -2.10800 23.11100
C  14.66800 -1.51300 23.28800
C  13.57000 -2.33700 24.03100
N  15.73800 -0.80800 28.49300
C  15.05300 -0.03200 27.57100
C  14.35500 1.07100 28.18500
C  14.76900 1.03200 29.49600
C  15.58100 -0.12800 29.62800
C  13.47200 2.03100 27.47800
C  14.59300 1.69400 30.70200
O  13.97200 2.71300 30.99000
C  15.39900 0.87100 31.70700
C  16.50300 1.73300 32.30500
O  17.55100 2.01100 31.77800
O  16.02700 2.39200 33.45000
C  16.75600 3.41800 34.15500
H  19.40400 -4.74300 31.10700
H  18.47100 -4.60900 24.78400
H  14.72000 0.41500 25.53900
H  17.78300 -0.80500 33.12600
H  17.66200 -3.77400 33.15100
H  20.28100 -3.34100 32.62900
H  19.49400 -3.56500 34.13000
H  19.84600 -1.88400 33.61100
H  15.77000 -2.90800 33.77900
H  15.03300 -1.48300 33.12300
H  15.73200 -2.01900 35.80800
H  15.23500 -0.41400 35.15700
H  21.38200 -6.52300 29.45700
H  19.97200 -7.74800 28.98600
H  19.87800 -6.84700 30.35500
H  20.37000 -8.56400 27.02800
H  21.57000 -7.27700 27.15300
H  21.25800 -8.14400 25.57200
H  16.70300 -3.23500 23.25500
H  16.47100 -0.31100 23.91100
H  18.36200 -1.09800 22.70700
H  18.79200 -2.83800 22.38700
H  19.21200 -1.99600 23.86000
H  14.77400 -2.11200 22.38400
H  14.28500 -0.52400 23.04000
H  12.95500 -1.61600 24.57000
H  14.09500 -2.99600 24.72200
H  12.97400 -2.81400 23.25300
H  13.03000 1.45800 26.66300
H  14.02000 2.78300 26.91100
H  12.75000 2.55300 28.10600
H  14.71400 0.69900 32.53700
H  17.00300 4.24500 33.49000
H  17.51700 2.95300 34.78200
H  16.12100 3.90600 34.89400
Mg -11.44700 16.87800 42.41300
C  -8.21800 15.54800 41.83100
C  -10.19100 19.87400 41.37600
C  -14.63500 18.00600 42.50600
C  -12.59100 13.53400 43.00900
N  -9.48600 17.50700 41.48000
C  -8.32900 16.87400 41.52900
C  -7.10100 17.76500 41.15300
C  -7.73800 19.19300 41.27800
C  -9.26300 18.86200 41.40600
C  -7.08800 20.04000 42.36400
C  -6.68900 17.50100 39.69500
C  -5.18300 17.58900 39.41000
H  -4.75000 18.21500 38.00100
N  -12.26600 18.60800 41.93600
C  -11.60200 19.72000 41.50600
C  -12.55200 20.77100 41.28300
C  -13.87600 20.23000 41.54100
C  -13.63900 18.90400 42.06800
C  -12.20100 22.12000 40.69300
C  -15.21600 21.01800 41.46100
O  -15.22800 22.09100 40.89500
C  -16.50800 20.66000 42.10000
N  -13.33800 15.86900 42.69400
C  -14.46700 16.62500 42.83800
C  -15.66000 15.65600 43.20600
C  -15.05200 14.20900 43.01000
C  -13.56000 14.54600 42.96300
C  -16.34000 15.90600 44.66700
C  -15.44600 13.47500 41.69000
C  -15.47000 11.96600 41.74800
N  -10.60300 14.88500 42.47300
C  -11.20800 13.66900 42.72000
C  -10.18500 12.62400 42.85600
C  -8.99500 13.36000 42.49500
C  -9.30500 14.69500 42.17700
C  -10.40600 11.15100 43.14700
C  -7.54400 13.17000 42.33500
O  -6.90600 12.17400 42.56700
C  -6.97500 14.67500 41.89200
C  -5.87400 14.93400 42.88700
O  -5.93600 14.63100 44.02400
O  -4.76300 15.63400 42.28100
C  -3.68100 15.93300 43.19500
H  -9.76100 20.85400 41.16100
H  -15.64100 18.39800 42.67200
H  -12.90400 12.51600 43.25000
H  -6.25800 17.61200 41.82800
H  -7.66000 19.74100 40.34000
H  -6.08400 19.72400 42.64700
H  -7.67800 20.11500 43.27800
H  -7.12600 21.03100 41.91000
H  -7.11000 18.17100 38.94600
H  -6.99200 16.48000 39.46200
H  -4.73500 16.59700 39.46600
H  -4.73700 18.12100 40.25100
H  -11.20600 22.11400 40.24600
H  -12.17400 22.91400 41.43900
H  -12.96400 22.34500 39.94800
H  -17.27000 21.43900 42.10500
H  -16.28600 20.34700 43.12000
H  -16.89600 19.87200 41.45400
H  -16.44000 15.70200 42.44600
H  -15.06800 13.52400 43.85800
H  -15.75200 16.53600 45.33400
H  -16.51200 14.98700 45.22800
H  -17.36100 16.28300 44.60400
H  -14.85600 13.77700 40.82400
H  -16.41000 13.90800 41.42500
H  -14.72300 11.68100 42.48900
H  -15.11000 11.43900 40.86400
H  -16.41400 11.48000 41.99000
H  -9.62700 10.55600 43.62400
H  -10.60600 10.65800 42.19600
H  -11.34400 10.97800 43.67400
H  -6.46600 14.53000 40.93900
H  -3.93200 16.90300 43.62400
H  -2.77800 16.18000 42.63500
H  -3.38300 15.12000 43.85600

