158

Mg 46.38300 25.37400 28.89900
C  47.20200 27.68200 31.34500
C  45.02900 23.31900 31.33400
C  46.06500 22.96200 26.55100
C  47.65200 27.47400 26.33500
N  46.14200 25.53700 31.00700
C  46.36800 26.64600 31.78100
C  45.99700 26.37800 33.26700
C  45.48100 24.89000 33.18100
C  45.59200 24.50900 31.74100
C  46.31100 23.85600 34.04600
C  44.93200 27.38400 33.88400
C  45.41300 28.12400 35.15500
H  45.75600 27.33800 36.42000
N  45.79100 23.36600 29.00400
C  45.20100 22.69300 30.07900
C  44.80600 21.37000 29.67200
C  45.13500 21.27200 28.31200
C  45.75300 22.53800 27.90500
C  44.15600 20.35100 30.63800
C  44.89700 20.06400 27.41200
O  45.16800 20.05200 26.25500
C  44.22900 18.86600 28.01900
N  46.71000 25.27400 26.75200
C  46.47300 24.15600 26.00300
C  46.47900 24.37900 24.48300
C  47.11700 25.80200 24.46700
C  47.16500 26.21700 25.93000
C  47.44800 23.41200 23.65100
C  46.51500 26.88100 23.54600
C  47.47200 27.45600 22.55600
N  47.22900 27.22500 28.83100
C  47.70600 27.93800 27.70700
C  48.41700 29.13700 28.28400
C  48.23300 29.08900 29.66700
C  47.48000 27.95700 29.97700
C  49.33700 29.99700 27.48000
C  48.47500 29.80800 31.01100
O  49.04200 30.82300 31.32100
C  47.87700 28.79200 32.11500
C  49.00500 28.44500 33.00200
O  50.11500 27.97100 32.66600
O  48.71300 28.78700 34.27800
C  49.62100 28.18600 35.32600
H  44.64200 22.70600 32.15000
H  46.01200 22.17700 25.79300
H  48.11000 28.02600 25.51100
H  46.94100 26.53300 33.79000
H  44.48300 24.78900 33.60700
H  45.68400 23.46300 34.84600
H  47.12800 24.44400 34.46400
H  46.68700 22.99900 33.48600
H  44.00600 26.85700 34.11200
H  44.72900 28.06300 33.05500
H  44.61400 28.81900 35.41600
H  46.26000 28.76800 34.92000
H  43.10100 20.28300 30.37400
H  44.20400 20.54100 31.71000
H  44.59700 19.35500 30.60000
H  43.23900 19.20200 28.32900
H  44.87600 18.45800 28.79500
H  44.20200 18.03700 27.31200
H  45.42700 24.35000 24.19900
H  48.16200 25.63600 24.20400
H  48.25200 23.06100 24.29800
H  47.88100 23.87100 22.76300
H  46.83300 22.60700 23.25100
H  46.03200 27.59600 24.21300
H  45.63500 26.49600 23.03100
H  47.56500 28.48600 22.90100
H  47.02800 27.43300 21.56100
H  48.43600 26.94700 22.54600
H  50.15000 29.33900 27.17400
H  49.81900 30.68700 28.17300
H  48.94300 30.48500 26.58900
H  47.10500 29.28400 32.70600
H  49.18300 27.21800 35.56800
H  49.65500 28.87200 36.17200
H  50.64000 27.97700 35.00100
Mg -11.72900 38.74900 42.87600
C  -9.50100 36.42500 41.56100
C  -9.79400 41.27800 41.15200
C  -14.01400 41.10600 43.82700
C  -13.75400 36.19000 43.94700
N  -10.03200 38.84400 41.37100
C  -9.19700 37.73200 41.10100
C  -8.01700 38.10400 40.18200
C  -8.04700 39.66100 40.26600
C  -9.35400 39.95300 40.89900
C  -6.77900 40.23500 40.87300
C  -8.23600 37.35500 38.78900
C  -7.09300 36.51600 38.38000
H  -6.15500 37.23900 37.40000
N  -11.89300 40.94200 42.54100
C  -11.00000 41.75600 41.86500
C  -11.45000 43.08800 41.96700
C  -12.62000 43.08900 42.79100
C  -12.91300 41.67500 43.11600
C  -10.78300 44.24300 41.23400
C  -13.48700 44.32200 43.21500
O  -13.24500 45.41900 42.71500
C  -14.61400 44.27800 44.13600
N  -13.80300 38.63300 43.46600
C  -14.34000 39.74900 44.02700
C  -15.58900 39.19400 44.66400
C  -15.50000 37.69200 44.91900
C  -14.29600 37.48000 44.00800
C  -16.25700 39.96500 45.84900
C  -16.78000 36.90500 44.51900
C  -17.14600 35.67300 45.25000
N  -11.63400 36.68700 42.91800
C  -12.46700 35.79100 43.47400
C  -11.92300 34.41900 43.31000
C  -10.70400 34.61400 42.69300
C  -10.60500 36.01000 42.36000
C  -12.47200 33.08800 43.73700
C  -9.50900 34.01700 42.17100
O  -9.09300 32.86800 42.25800
C  -8.74300 35.13400 41.36900
C  -7.36700 35.05400 42.02100
O  -7.06900 35.50200 43.10800
O  -6.63100 34.25300 41.21700
C  -5.27700 34.07500 41.74200
H  -9.24600 42.06200 40.62400
H  -14.76800 41.80400 44.19800
H  -14.18100 35.35700 44.50900
H  -7.08700 37.77000 40.64300
H  -8.05700 40.10900 39.27200
H  -6.99700 40.96900 41.64900
H  -6.30100 40.79600 40.07000
H  -6.00900 39.54800 41.22300
H  -8.43900 38.06400 37.98600
H  -9.17900 36.80800 38.81100
H  -7.56000 35.66400 37.88600
H  -6.50000 36.14300 39.21500
H  -10.51800 43.82000 40.26500
H  -9.87600 44.52800 41.76700
H  -11.37300 45.14800 41.08700
H  -15.52100 44.00000 43.60000
H  -14.70300 45.25800 44.60600
H  -14.40700 43.66000 45.00900
H  -16.25200 39.20900 43.80000
H  -15.24600 37.51900 45.96500
H  -15.73100 40.79100 46.32700
H  -16.38700 39.29100 46.69500
H  -17.21900 40.31000 45.47100
H  -16.65700 36.53600 43.50100
H  -17.69000 37.50000 44.58700
H  -18.00400 35.92700 45.87200
H  -16.39100 35.33100 45.95800
H  -17.40400 34.91100 44.51400
H  -12.49000 32.36100 42.92500
H  -13.44000 33.18600 44.22900
H  -11.81500 32.55400 44.42300
H  -8.71600 34.79900 40.33200
H  -4.92200 35.08000 41.97100
H  -4.78400 33.70200 40.84400
H  -5.21400 33.29000 42.49600

