158

Mg 9.91400 47.36500 26.13500
C  7.85700 47.60000 29.02000
C  12.49100 48.87300 27.83400
C  11.77900 47.20000 23.35700
C  7.08000 46.52500 24.31200
N  10.15700 48.08600 28.26700
C  9.16400 48.09100 29.25400
C  9.86600 48.61000 30.60800
C  11.09800 49.43400 30.07100
C  11.29800 48.81200 28.61300
C  10.93200 50.98500 30.05300
C  10.32800 47.33900 31.43900
C  10.69400 47.52200 32.95000
H  10.39700 46.43800 34.01400
N  11.93700 47.75900 25.74500
C  12.81000 48.37500 26.60100
C  14.07200 48.56700 25.88200
C  13.83000 48.01000 24.58800
C  12.48400 47.61800 24.49900
C  15.31000 49.18400 26.53300
C  14.84700 47.81300 23.40500
O  14.60900 47.18600 22.32000
C  16.21500 48.30600 23.56000
N  9.52600 46.91700 24.08200
C  10.42200 46.95800 23.14000
C  9.82200 46.57500 21.70700
C  8.31200 46.40100 22.09900
C  8.31100 46.62100 23.58000
C  9.96000 47.69600 20.71900
C  7.58800 45.12300 21.56400
C  6.05700 45.22600 21.25100
N  7.81500 47.12200 26.51100
C  6.79500 46.71700 25.66300
C  5.62500 46.50100 26.45100
C  5.97600 46.82000 27.78800
C  7.28700 47.24100 27.73900
C  4.25100 46.16700 25.80500
C  5.45900 46.96800 29.15200
O  4.35600 46.73800 29.61600
C  6.69300 47.38200 30.05500
C  6.98100 46.21500 30.91500
O  7.36200 45.14600 30.48300
O  6.75000 46.52600 32.23700
C  6.97300 45.44800 33.20000
H  13.25600 49.42500 28.38400
H  12.18400 47.29100 22.34600
H  6.21100 46.20000 23.73500
H  9.21400 49.27100 31.17900
H  12.00700 49.25700 30.64500
H  11.16900 51.48700 29.11500
H  11.59900 51.44400 30.78200
H  10.00100 51.33100 30.50100
H  11.21500 46.99100 30.91000
H  9.65100 46.49400 31.31100
H  10.26900 48.47600 33.26300
H  11.77600 47.62900 33.03100
H  15.12500 49.69200 27.48000
H  15.91200 49.87400 25.94300
H  15.91100 48.32800 26.83900
H  16.28200 49.35000 23.87000
H  16.76100 48.29000 22.61700
H  16.64200 47.63500 24.30600
H  10.16200 45.57600 21.43500
H  7.74900 47.26900 21.75600
H  10.12300 48.62300 21.26900
H  9.07300 47.88100 20.11200
H  10.86100 47.50300 20.13700
H  7.64800 44.38100 22.36000
H  8.13800 44.66500 20.74100
H  5.50300 46.12800 21.51000
H  5.52600 44.44100 21.79000
H  5.91300 44.94800 20.20600
H  4.22300 45.41700 25.01500
H  3.88100 47.14300 25.48900
H  3.72000 45.81100 26.68700
H  6.47100 48.24900 30.67800
H  6.80500 44.42700 32.85800
H  6.28500 45.68600 34.01100
H  7.99100 45.45600 33.58900
Mg -11.91100 16.79500 41.91100
C  -8.71000 15.44700 41.73300
C  -10.60500 19.84800 40.79800
C  -14.92900 18.04900 41.96700
C  -13.16000 13.59600 42.78100
N  -9.88400 17.52300 41.26300
C  -8.71100 16.77500 41.27100
C  -7.58900 17.54000 40.65900
C  -8.11400 19.07600 40.73600
C  -9.64400 18.83600 41.02300
C  -7.44300 19.99200 41.80100
C  -7.33400 17.19300 39.09100
C  -5.86300 17.39800 38.66600
H  -5.58500 18.25000 37.35200
N  -12.59600 18.66600 41.43200
C  -11.93200 19.79500 41.05200
C  -12.87100 20.87600 40.93600
C  -14.20400 20.39700 41.33400
C  -13.93000 19.00800 41.61500
C  -12.51000 22.26500 40.48100
C  -15.43300 21.20100 41.52700
O  -15.42900 22.34100 41.08400
C  -16.61700 20.78200 42.39200
N  -13.74400 16.00500 42.36300
C  -14.90300 16.68800 42.21800
C  -16.14000 15.82400 42.40400
C  -15.53200 14.53400 42.95800
C  -14.03900 14.69700 42.68500
C  -17.18400 16.54800 43.27100
C  -16.12200 13.24800 42.22300
C  -15.96700 11.85100 42.91900
N  -11.11800 14.89000 42.18000
C  -11.77700 13.70000 42.48100
C  -10.71200 12.61400 42.49800
C  -9.50900 13.29300 42.21200
C  -9.81300 14.62000 42.05800
C  -10.90100 11.15900 42.63100
C  -8.07400 13.07600 42.13000
O  -7.46900 11.98900 42.23100
C  -7.50900 14.55700 41.74300
C  -6.47100 14.98700 42.73600
O  -6.55000 15.24700 43.96800
O  -5.25200 15.02500 42.05200
C  -4.07000 15.13300 42.81900
H  -10.11800 20.82000 40.69300
H  -15.91700 18.51500 42.00100
H  -13.58600 12.60300 42.93900
H  -6.75100 17.40500 41.34200
H  -8.04400 19.58800 39.77700
H  -8.07500 20.19000 42.66700
H  -7.30200 20.98800 41.38100
H  -6.43300 19.67100 42.05600
H  -7.94100 17.88600 38.50800
H  -7.74500 16.19600 38.92900
H  -5.47700 16.40700 38.42800
H  -5.32500 17.73800 39.55100
H  -11.43600 22.44600 40.45300
H  -12.80900 22.97500 41.25200
H  -12.98700 22.43700 39.51600
H  -17.04500 21.76500 42.59100
H  -16.24700 20.27600 43.28300
H  -17.22300 20.19000 41.70700
H  -16.41600 15.63900 41.36600
H  -15.51300 14.43100 44.04300
H  -17.46300 15.97500 44.15500
H  -18.04400 16.63700 42.60700
H  -16.87100 17.54500 43.58200
H  -15.75300 13.24400 41.19700
H  -17.20000 13.39500 42.29300
H  -16.94800 11.53600 43.27200
H  -15.26800 11.91800 43.75300
H  -15.56300 11.15000 42.18700
H  -11.43800 10.85300 43.52900
H  -9.93500 10.65600 42.65300
H  -11.47000 10.76200 41.79100
H  -6.99800 14.46800 40.78500
H  -3.32500 14.84200 42.07800
H  -3.94800 14.39000 43.60700
H  -3.81700 16.10100 43.25000

