158

Mg -0.01500 7.30300 24.96700
C  0.66300 9.44400 27.82300
C  0.57400 4.63100 27.01400
C  -0.46100 5.48400 22.30600
C  -0.08600 10.28400 23.06000
N  0.44300 7.08500 27.16300
C  0.70700 8.05000 28.11900
C  0.91500 7.47200 29.53300
C  0.87000 5.94500 29.13600
C  0.60600 5.82500 27.69800
C  2.08200 5.06700 29.57600
C  -0.10400 7.93300 30.63700
C  0.36400 7.93600 32.16200
H  1.63100 7.12800 32.58000
N  -0.05500 5.29600 24.73600
C  0.31900 4.36700 25.67000
C  0.34000 3.05700 25.00400
C  -0.03300 3.30700 23.64600
C  -0.21900 4.72100 23.50300
C  0.77200 1.75600 25.74400
C  0.06000 2.32400 22.50600
O  -0.07300 2.68000 21.31900
C  0.24800 0.85500 22.73700
N  0.28000 7.77800 22.83800
C  -0.17700 6.84600 22.01600
C  -0.59200 7.45900 20.69500
C  -0.75700 8.99300 21.02300
C  -0.21300 8.99200 22.42900
C  0.45700 7.14400 19.56000
C  -2.27300 9.45600 21.00900
C  -2.57100 10.69200 20.07900
N  0.35500 9.45800 25.30900
C  0.23000 10.54000 24.42200
C  0.36900 11.80000 25.12000
C  0.65800 11.41700 26.47600
C  0.53600 9.98700 26.48900
C  0.34100 13.16200 24.49400
C  0.99300 11.93400 27.79700
O  1.16600 13.09900 28.21800
C  0.86500 10.73700 28.73400
C  2.18900 10.68100 29.41900
O  3.23800 10.38800 28.91200
O  1.94000 11.15800 30.65900
C  3.14300 11.51400 31.47300
H  0.61000 3.74700 27.65400
H  -0.82300 4.83000 21.51000
H  -0.45000 11.11300 22.44900
H  1.89700 7.79200 29.88000
H  -0.05600 5.55500 29.55800
H  1.67500 4.24300 30.16100
H  2.84400 5.59000 30.15500
H  2.57000 4.75100 28.65400
H  -0.92000 7.21400 30.56700
H  -0.44500 8.90200 30.27200
H  -0.55300 7.65200 32.67800
H  0.50200 9.00300 32.34100
H  1.83400 1.55400 25.60300
H  0.24900 0.83600 25.48100
H  0.55500 1.79400 26.81100
H  -0.55000 0.47000 23.37300
H  1.26600 0.61100 23.03900
H  0.23800 0.33900 21.77700
H  -1.49900 6.90900 20.44400
H  -0.08300 9.61500 20.43500
H  1.17100 6.36100 19.81500
H  1.00800 8.05700 19.33500
H  0.00400 6.71900 18.66400
H  -2.47200 9.73800 22.04300
H  -3.06800 8.75000 20.76600
H  -2.10500 10.47300 19.11900
H  -2.05700 11.54400 20.52400
H  -3.62800 10.93400 19.97200
H  -0.55000 13.60700 24.93500
H  0.24900 13.15900 23.40800
H  1.19700 13.73300 24.85600
H  0.08900 11.01900 29.44600
H  4.00900 11.68700 30.83400
H  3.28700 10.73400 32.22000
H  2.84600 12.45600 31.93500
Mg 1.30700 42.65000 26.80800
C  2.63600 42.44400 30.07800
C  -1.73100 41.88300 28.14700
C  0.26300 42.36600 23.78200
C  4.64000 43.24800 25.66100
N  0.50200 42.42400 28.86300
C  1.22500 42.45300 30.00900
C  0.25000 42.26400 31.21200
C  -0.96700 41.66600 30.57100
C  -0.75100 42.06900 29.13200
C  -1.21900 40.16900 30.79600
C  0.06000 43.59300 31.92500
C  0.36200 43.72100 33.47200
H  0.14500 42.60000 34.44100
N  -0.52000 42.37000 26.02400
C  -1.68300 42.04300 26.73700
C  -2.77600 41.82100 25.80700
C  -2.20200 41.95300 24.51100
C  -0.77900 42.21400 24.74300
C  -4.19700 41.63900 26.20900
C  -2.78300 41.63600 23.12800
O  -2.11100 41.63200 22.09800
C  -4.20700 41.07800 23.02700
N  2.37000 42.65300 25.03800
C  1.66100 42.57300 23.85800
C  2.58300 42.53600 22.63700
C  3.88900 43.07000 23.22900
C  3.62600 43.05900 24.76700
C  2.60600 41.13200 22.00100
C  4.55800 44.44600 22.71100
C  3.65900 45.72200 22.54600
N  3.25700 42.91100 27.65900
C  4.55800 43.13400 27.04100
C  5.55900 43.17300 28.04800
C  4.87500 42.82100 29.28200
C  3.49900 42.66000 28.94900
C  6.98800 43.60500 27.97500
C  5.03300 42.62200 30.73300
O  6.07400 42.57000 31.41000
C  3.50400 42.50700 31.31300
C  3.53600 41.25000 32.20000
O  3.45100 40.08400 31.83500
O  3.62600 41.66000 33.48700
C  3.89000 40.63400 34.52100
H  -2.64300 41.49700 28.60600
H  -0.02000 42.33200 22.72800
H  5.58800 43.50700 25.18500
H  0.69200 41.57400 31.93000
H  -1.92600 42.12600 30.81100
H  -0.45500 39.69500 31.41300
H  -1.33000 39.62900 29.85600
H  -2.10500 40.12900 31.43000
H  -0.99100 43.88100 31.89600
H  0.45400 44.40100 31.30900
H  -0.24100 44.51500 33.91200
H  1.41800 43.98600 33.42200
H  -4.44400 40.57900 26.16200
H  -4.96500 42.18300 25.65800
H  -4.18400 41.95600 27.25200
H  -4.45700 40.67900 22.04400
H  -4.85400 41.92500 23.25700
H  -4.28000 40.38800 23.86700
H  2.15000 43.25800 21.94400
H  4.52900 42.18900 23.18000
H  1.84400 40.51800 22.48100
H  3.56700 40.61900 22.04200
H  2.39100 41.32200 20.95000
H  5.27700 44.28000 21.90800
H  5.19700 44.68500 23.56100
H  3.93600 46.36300 23.38400
H  2.60000 45.50300 22.68700
H  3.84000 46.22800 21.59800
H  7.16800 44.01300 26.98100
H  7.69800 42.84400 28.29800
H  7.05600 44.55400 28.50700
H  3.35000 43.47900 31.78100
H  4.67000 39.94600 34.19600
H  2.94600 40.09200 34.57200
H  4.09000 41.06200 35.50300

