158

Mg 9.25500 4.12100 27.94400
C  10.28400 2.45100 30.89400
C  7.46300 6.29700 29.91600
C  8.06500 5.34800 25.20300
C  11.16100 1.75600 26.09900
N  8.75400 4.19300 30.09700
C  9.41100 3.51400 31.15700
C  9.00700 4.08000 32.58800
C  8.06000 5.26800 32.17100
C  8.06500 5.27000 30.61300
C  6.60000 5.35200 32.76700
C  10.29700 4.38300 33.38500
C  10.12800 5.26500 34.63400
H  10.70600 4.78600 35.93700
N  8.04100 5.70700 27.57400
C  7.34800 6.49700 28.47800
C  6.42600 7.38900 27.83700
C  6.66200 7.16000 26.43100
C  7.62200 6.02100 26.32400
C  5.37300 8.29000 28.56400
C  6.13200 7.89600 25.28100
O  6.23800 7.62700 24.08900
C  5.39900 9.19700 25.63100
N  9.56500 3.54700 25.97600
C  8.94400 4.32400 25.08600
C  9.29600 3.82300 23.66000
C  10.53300 2.84500 23.90400
C  10.43700 2.71100 25.39300
C  8.05600 3.09800 23.03500
C  11.86400 3.54000 23.51000
C  12.84200 2.60600 22.79100
N  10.41100 2.36500 28.35700
C  11.08900 1.51200 27.45700
C  11.61600 0.47000 28.23300
C  11.42100 0.83100 29.55000
C  10.67400 1.98400 29.63100
C  12.34800 -0.68700 27.59200
C  11.80800 0.47400 30.88700
O  12.47000 -0.47200 31.29000
C  11.07500 1.55100 31.81500
C  10.22100 0.90100 32.81000
O  9.08600 0.46400 32.62500
O  10.91700 0.77800 33.99200
C  10.31000 -0.05300 34.98300
H  6.97200 7.11200 30.45200
H  7.66500 5.77000 24.27900
H  11.71500 0.97700 25.57300
H  8.44400 3.23400 32.98500
H  8.43900 6.23800 32.49300
H  6.21500 4.34100 32.63400
H  5.97400 6.16600 32.40300
H  6.59200 5.37700 33.85600
H  10.82900 4.98300 32.64600
H  10.76400 3.43900 33.66500
H  9.08300 5.53700 34.77900
H  10.65700 6.19800 34.44000
H  5.40500 7.93500 29.59400
H  4.39700 8.08600 28.12200
H  5.54100 9.36500 28.51300
H  4.37200 8.96200 25.91100
H  5.45600 9.78300 24.71400
H  5.88500 9.62000 26.51000
H  9.61700 4.62700 22.99900
H  10.41600 1.86800 23.43500
H  7.16200 3.15300 23.65600
H  8.38300 2.08200 22.81300
H  7.79000 3.56900 22.08900
H  12.47700 4.00100 24.28500
H  11.59300 4.35700 22.84100
H  13.54600 2.45100 23.60900
H  13.40500 2.99200 21.94100
H  12.37700 1.69500 22.41500
H  12.22100 -1.50600 28.29900
H  13.43300 -0.61600 27.66300
H  11.87100 -0.87100 26.62900
H  11.87100 2.10600 32.31200
H  9.74300 0.64000 35.60600
H  11.09100 -0.49600 35.60000
H  9.68200 -0.87800 34.64700
Mg 47.84400 45.23600 42.73400
C  44.40300 45.90000 41.74300
C  47.69200 42.57500 40.77500
C  51.19000 45.26200 42.70300
C  47.82500 48.58300 43.97200
N  46.17200 44.30200 41.55600
C  44.91800 44.76400 41.25200
C  44.26100 43.85500 40.25700
C  45.27000 42.66700 40.17400
C  46.43800 43.17000 40.95600
C  44.77500 41.31400 40.80000
C  44.02700 44.55400 38.86900
C  42.68100 44.20700 38.21600
H  42.62100 43.09300 37.17200
N  49.26300 43.94000 42.01200
C  48.95900 42.87700 41.26200
C  50.12800 42.16600 40.98700
C  51.20000 42.99100 41.46800
C  50.58500 44.13500 42.09800
C  50.23900 40.83500 40.26700
C  52.72800 42.66500 41.23600
O  53.04200 41.56100 40.78700
C  53.87100 43.60100 41.52100
N  49.29100 46.65000 43.33700
C  50.58800 46.38100 43.37300
C  51.35800 47.56100 43.98100
C  50.26900 48.63400 44.12900
C  49.00500 47.87300 43.93300
C  52.16100 47.34600 45.27800
C  50.42400 49.87300 43.11100
C  51.57000 50.79100 43.36500
N  46.38500 46.77900 43.15600
C  46.55800 48.07900 43.58500
C  45.28300 48.69400 43.81800
C  44.40000 47.87000 43.07400
C  45.17500 46.79200 42.57000
C  45.01800 49.95500 44.45600
C  43.06400 47.85600 42.48100
O  42.15700 48.67000 42.52800
C  43.00400 46.51900 41.57800
C  41.91600 45.69100 42.08900
O  41.25100 45.00800 41.32900
O  41.89900 45.54100 43.44800
C  40.83900 44.65400 44.03000
H  47.53500 41.72600 40.10600
H  52.24900 45.12600 42.93400
H  47.88900 49.62900 44.27900
H  43.33700 43.44400 40.66400
H  45.55200 42.43800 39.14600
H  45.06700 40.50000 40.13700
H  43.68900 41.22300 40.75900
H  45.14300 41.17400 41.81700
H  44.82500 44.30400 38.17000
H  44.17300 45.62600 39.00600
H  42.29600 45.12300 37.76800
H  42.07900 43.82100 39.03900
H  49.28400 40.32200 40.38200
H  50.92800 40.12800 40.72800
H  50.53400 40.92400 39.22200
H  54.10600 43.49600 42.58000
H  53.63600 44.63800 41.28000
H  54.71800 43.36000 40.87900
H  52.06900 47.83200 43.20100
H  50.29200 49.13000 45.09900
H  51.82400 48.08000 46.01000
H  53.20200 47.51800 45.00600
H  52.01200 46.34200 45.67500
H  49.46100 50.38000 43.18400
H  50.43300 49.39100 42.13400
H  51.16900 51.79600 43.49700
H  52.20600 50.86900 42.48400
H  52.34600 50.60500 44.10800
H  45.88300 50.40000 44.94900
H  44.13700 49.85100 45.09000
H  44.78000 50.59200 43.60400
H  42.75400 46.87700 40.57900
H  40.56800 45.01000 45.02400
H  41.08300 43.59900 44.15800
H  39.90700 44.75800 43.47600

