158

Mg -11.54600 38.69400 42.39400
C  -9.59900 35.91600 41.20800
C  -9.12300 40.74900 40.72900
C  -13.59900 41.08000 42.74900
C  -13.88200 36.38600 43.60600
N  -9.58300 38.36900 40.98700
C  -8.97400 37.13200 40.72400
C  -7.63800 37.28000 40.06400
C  -7.42800 38.88700 40.11700
C  -8.78300 39.37700 40.62900
C  -6.22100 39.53500 40.76900
C  -7.67900 36.73600 38.55900
C  -6.53600 35.61900 38.23200
H  -5.78600 35.69800 36.82300
N  -11.38100 40.66900 41.86900
C  -10.29700 41.33100 41.28300
C  -10.58100 42.76800 41.36300
C  -11.96900 42.95400 41.84900
C  -12.38000 41.49000 42.19500
C  -9.58800 43.85000 40.85600
C  -12.76800 44.25100 42.00000
O  -12.20800 45.28800 41.68600
C  -14.22300 44.39200 42.46200
N  -13.61100 38.71100 42.89300
C  -14.20500 39.90000 43.07900
C  -15.70700 39.68200 43.36000
C  -15.85200 38.10200 43.69300
C  -14.36100 37.69500 43.39100
C  -16.24500 40.50400 44.51600
C  -16.82600 37.33300 42.76300
C  -18.20100 36.90100 43.39500
N  -11.74600 36.64500 42.46500
C  -12.71800 35.89200 43.14100
C  -12.35800 34.48400 42.99600
C  -11.13900 34.47500 42.26700
C  -10.88000 35.83700 41.88900
C  -13.04900 33.36100 43.52600
C  -10.15500 33.58900 41.73200
O  -10.16600 32.39800 41.82500
C  -9.16200 34.46200 40.88800
C  -7.84800 34.04700 41.33300
O  -7.11800 33.19700 40.75600
O  -7.61200 34.67100 42.52100
C  -6.41100 34.24500 43.25800
H  -8.25600 41.37300 40.50600
H  -14.19600 41.95800 43.00400
H  -14.62000 35.74500 44.09400
H  -6.82500 36.83000 40.63300
H  -7.39100 39.28700 39.10400
H  -5.53500 38.71000 40.96400
H  -6.54200 40.09800 41.64500
H  -5.67700 40.15900 40.06000
H  -7.68900 37.50200 37.78300
H  -8.65100 36.24500 38.50800
H  -7.02400 34.65800 38.39700
H  -5.77100 35.68800 39.00600
H  -9.96700 44.42900 40.01400
H  -8.59500 43.46800 40.61700
H  -9.55400 44.57100 41.67200
H  -14.81900 43.67100 41.90300
H  -14.52300 45.37400 42.09600
H  -14.31700 44.40500 43.54800
H  -16.17000 39.97500 42.41700
H  -16.10100 37.98800 44.74800
H  -16.90900 41.32300 44.24300
H  -15.48200 40.95500 45.15200
H  -16.81100 39.86800 45.19700
H  -16.32600 36.46700 42.33000
H  -16.98800 38.01100 41.92500
H  -18.97100 37.58800 43.04200
H  -18.14300 36.92700 44.48300
H  -18.48700 35.88500 43.12400
H  -12.90800 33.18200 44.59200
H  -12.64000 32.55200 42.92000
H  -14.13400 33.40000 43.43300
H  -9.26100 34.09900 39.86500
H  -6.37200 33.15600 43.25000
H  -6.65900 34.52700 44.28100
H  -5.49500 34.78000 43.00600
Mg -1.92900 34.22800 27.42600
C  -3.72400 32.41000 29.76200
C  -1.03600 36.34900 30.01800
C  -0.63000 36.32600 25.15600
C  -3.57700 32.37600 24.94300
N  -2.64800 34.53500 29.58500
C  -3.21900 33.55800 30.31300
C  -2.96600 33.80700 31.77500
C  -2.38100 35.30800 31.80100
C  -1.97400 35.43800 30.38700
C  -3.29500 36.39800 32.34200
C  -1.99000 32.74200 32.39500
C  -2.46700 31.74100 33.55900
H  -1.66700 31.92000 34.90100
N  -0.91100 35.98500 27.59500
C  -0.50900 36.56000 28.76400
C  0.51400 37.50800 28.37700
C  0.63900 37.61000 26.95900
C  -0.28500 36.59100 26.47200
C  1.26800 38.21200 29.49400
C  1.46800 38.51200 26.05700
O  1.43300 38.50000 24.80500
C  2.49900 39.33100 26.65500
N  -1.97200 34.23000 25.35000
C  -1.49800 35.31100 24.63500
C  -2.17000 35.39900 23.24700
C  -2.91800 33.98100 23.12400
C  -2.77100 33.49300 24.55600
C  -3.17000 36.63000 23.06300
C  -2.42300 32.89200 22.14300
C  -1.39700 31.86200 22.47700
N  -3.21700 32.51800 27.35900
C  -3.80000 31.90900 26.26800
C  -4.67300 30.80900 26.66700
C  -4.71200 30.90100 28.08200
C  -3.79700 31.98200 28.38800
C  -5.45000 29.99600 25.66000
C  -5.19300 30.38800 29.31400
O  -5.94500 29.40400 29.56900
C  -4.50500 31.27700 30.46500
C  -5.64100 31.66200 31.21400
O  -6.34800 32.60400 30.93200
O  -5.79700 30.95700 32.33600
C  -7.08800 31.21200 33.09400
H  -0.69700 36.99100 30.83300
H  -0.22500 37.03100 24.42800
H  -4.14100 31.88100 24.14900
H  -3.94400 33.80100 32.25700
H  -1.47600 35.35900 32.40700
H  -2.90500 36.71400 33.31000
H  -4.32300 36.03900 32.40400
H  -3.30500 37.17300 31.57600
H  -1.11700 33.23000 32.83100
H  -1.62800 32.00100 31.68300
H  -2.25400 30.74900 33.16200
H  -3.53400 31.84600 33.75600
H  1.41300 37.60200 30.38600
H  0.72600 39.13800 29.68100
H  2.30000 38.34300 29.16700
H  1.88000 39.95000 27.30500
H  3.02700 39.99100 25.96700
H  3.23600 38.85400 27.30100
H  -1.38300 35.49900 22.50000
H  -3.97800 34.07100 22.88800
H  -2.95000 37.36600 23.83700
H  -4.20600 36.37400 23.28300
H  -3.19700 37.19200 22.12900
H  -2.00100 33.38500 21.26600
H  -3.31200 32.34700 21.82500
H  -1.04200 32.09100 23.48200
H  -0.55000 31.86300 21.79100
H  -1.83500 30.86400 22.47600
H  -5.98500 29.25800 26.25800
H  -4.74700 29.44200 25.03900
H  -6.24500 30.45000 25.06800
H  -3.98300 30.60800 31.14900
H  -7.96200 31.24600 32.44300
H  -6.97900 32.05400 33.77800
H  -7.18300 30.30100 33.68500

