158

Mg 47.13800 24.76300 28.03700
C  48.08400 27.00600 30.48400
C  45.84700 22.68800 30.61200
C  46.69400 22.37300 25.68300
C  49.00000 26.66200 25.69500
N  47.06100 24.82000 30.26400
C  47.41100 25.92300 31.03400
C  46.90800 25.81500 32.49000
C  46.33400 24.31800 32.50800
C  46.34200 23.93500 31.03400
C  47.09400 23.39300 33.47400
C  45.91500 26.91800 33.01200
C  46.17800 27.36900 34.43200
H  46.69400 26.42400 35.52900
N  46.34300 22.83700 28.13000
C  45.84100 22.18600 29.26900
C  45.29000 20.92900 28.83000
C  45.53200 20.79400 27.40600
C  46.21900 22.05000 27.04400
C  44.74900 19.79900 29.74300
C  45.11700 19.66200 26.43900
O  45.50400 19.69500 25.26300
C  44.14800 18.60300 26.86900
N  47.80900 24.59300 25.89800
C  47.35000 23.50900 25.15500
C  47.97900 23.62900 23.82000
C  48.59700 25.06000 23.81800
C  48.38300 25.49600 25.17800
C  49.08500 22.48400 23.54300
C  47.91600 26.07200 22.86000
C  46.54200 26.79200 23.28900
N  48.24000 26.47500 28.00300
C  48.91800 27.19600 27.06300
C  49.44200 28.46300 27.62900
C  49.06400 28.41500 28.94800
C  48.38500 27.18700 29.12800
C  50.07400 29.62700 26.91700
C  49.27200 29.18300 30.13000
O  49.79400 30.21700 30.46500
C  48.61200 28.31400 31.21700
C  49.52300 28.06600 32.36600
O  50.20800 27.09100 32.51800
O  49.30200 29.08000 33.31600
C  49.98300 28.90100 34.57900
H  45.39800 22.09100 31.40800
H  46.61500 21.68500 24.83900
H  49.52800 27.30800 24.99000
H  47.85500 25.79500 33.03000
H  45.26600 24.42200 32.70300
H  47.71300 22.67200 32.94000
H  46.50400 22.75000 34.12800
H  47.75600 23.97300 34.11600
H  44.86400 26.63300 32.95100
H  46.07600 27.75400 32.33200
H  45.26300 27.73500 34.89700
H  46.83900 28.23500 34.41600
H  45.08500 20.06000 30.74700
H  45.27000 18.93300 29.33500
H  43.67400 19.77800 29.56300
H  44.24600 18.07300 27.81600
H  44.08600 17.84100 26.09300
H  43.19500 19.13200 26.87900
H  47.11100 23.55600 23.16400
H  49.65500 25.01600 23.56100
H  49.09100 21.75400 24.35200
H  50.03600 23.01600 23.57100
H  48.82100 21.97400 22.61600
H  47.64400 25.47200 21.99100
H  48.65900 26.80200 22.53800
H  45.80300 26.76100 22.48800
H  46.82800 27.83600 23.41300
H  46.12800 26.38500 24.21200
H  49.32400 30.41700 26.86000
H  50.44900 29.33900 25.93500
H  51.02600 29.83800 27.40200
H  47.75100 28.87900 31.57400
H  51.03500 28.62600 34.50700
H  49.48500 28.13400 35.17200
H  49.94100 29.81300 35.17400
Mg 26.93600 50.64800 26.76100
C  24.94300 51.72600 29.36900
C  29.40700 49.73300 29.18100
C  29.06500 49.83000 24.23700
C  24.67000 51.86800 24.46100
N  27.17600 50.83600 28.98000
C  26.16600 51.21800 29.82200
C  26.56600 50.88300 31.30200
C  28.06600 50.31800 31.24700
C  28.23800 50.31000 29.69000
C  29.11200 51.21600 31.92000
C  25.64200 49.84800 31.78800
C  25.04400 50.10500 33.15700
H  25.87300 50.57900 34.40900
N  28.93900 49.84700 26.69100
C  29.72700 49.54900 27.76100
C  31.04300 48.95700 27.29600
C  31.05100 49.18500 25.84800
C  29.65500 49.64300 25.51800
C  32.10900 48.36000 28.24300
C  32.13700 48.88600 24.87500
O  32.08700 49.21900 23.73000
C  33.35800 48.21600 25.40500
N  26.86400 50.63200 24.67300
C  27.81400 50.25800 23.84000
C  27.43100 50.41000 22.32500
C  26.04400 51.02900 22.44300
C  25.86300 51.23700 23.95800
C  28.46200 51.22100 21.48100
C  24.90700 50.16900 21.76000
C  24.08900 49.11900 22.64400
N  25.15800 51.52500 26.86200
C  24.33600 51.98000 25.81900
C  23.19000 52.56900 26.38200
C  23.32200 52.42600 27.79600
C  24.59100 51.82000 28.03900
C  21.93600 53.14100 25.64300
C  22.73600 52.76500 29.08300
O  21.69900 53.37700 29.30000
C  23.71300 52.22800 30.11500
C  24.03000 53.36700 31.11800
O  24.91400 54.20000 30.92400
O  23.25300 53.18200 32.20900
C  23.41900 54.18200 33.23900
H  30.03200 49.21200 29.90900
H  29.70300 49.45600 23.43400
H  23.96300 52.23100 23.71200
H  26.46200 51.81300 31.86100
H  28.17700 49.30200 31.62800
H  28.62600 52.12300 32.28000
H  29.67100 51.55900 31.05000
H  29.76400 50.84200 32.71100
H  26.05600 48.86500 32.01400
H  24.85800 49.71200 31.04200
H  24.57200 49.18000 33.48500
H  24.24900 50.82400 32.95600
H  32.18700 47.27600 28.16200
H  31.90100 48.55500 29.29600
H  33.14500 48.68900 28.16100
H  33.06900 47.36600 26.02200
H  33.97300 48.96700 25.90000
H  33.90400 47.98000 24.49200
H  27.36600 49.37300 21.99500
H  25.99400 52.01800 21.98700
H  28.75100 50.65800 20.59400
H  29.26800 51.69700 22.04100
H  27.97400 52.04800 20.96500
H  25.29700 49.57400 20.93500
H  24.26100 50.94500 21.34900
H  23.03800 49.40900 22.64300
H  24.42900 49.03900 23.67700
H  24.25200 48.14200 22.19100
H  21.69500 52.57700 24.74200
H  22.20500 54.16100 25.36900
H  21.16200 53.03200 26.40300
H  23.20300 51.43200 30.65700
H  23.72700 53.70500 34.17000
H  22.43300 54.58900 33.46000
H  24.23700 54.88700 33.08800

