158

Mg 40.83000 41.53100 26.75800
C  40.25000 43.90500 29.28100
C  41.79700 39.32800 29.14800
C  41.84900 39.41500 24.26400
C  39.93300 44.00000 24.34500
N  40.86100 41.56500 29.00800
C  40.60600 42.66700 29.76300
C  40.70900 42.25000 31.22500
C  41.26800 40.77100 31.21600
C  41.32600 40.54700 29.73000
C  42.64300 40.39100 31.90800
C  39.32800 42.43000 31.95400
C  39.18000 41.66800 33.22300
H  38.73500 42.53500 34.44000
N  41.57500 39.59700 26.67600
C  42.00500 38.84400 27.81800
C  42.55900 37.63700 27.30100
C  42.61000 37.70300 25.90900
C  42.02900 38.97300 25.58800
C  42.87400 36.45900 28.19500
C  43.13200 36.66600 24.85600
O  42.98400 36.82500 23.67500
C  43.75500 35.46600 25.40900
N  40.83800 41.73000 24.60100
C  41.13400 40.59600 23.80900
C  40.89300 40.93600 22.33600
C  40.05700 42.28300 22.43700
C  40.15100 42.70100 23.87300
C  42.25800 41.21000 21.60000
C  38.58300 42.17700 21.93800
C  37.42900 41.73600 22.88300
N  40.25100 43.60400 26.74200
C  39.97700 44.46500 25.75000
C  39.66900 45.77200 26.28100
C  39.71000 45.57900 27.68000
C  40.15200 44.29500 27.92600
C  39.34700 47.06800 25.48000
C  39.70900 46.28100 28.95900
O  39.42300 47.38500 29.31500
C  39.95200 45.14800 30.04600
C  41.11500 45.61700 30.76600
O  42.23900 45.61200 30.29400
O  40.77200 46.28600 31.89300
C  41.85200 46.94300 32.56100
H  41.95100 38.53200 29.88000
H  42.06800 38.82000 23.37500
H  39.56700 44.72300 23.61400
H  41.54100 42.86500 31.56900
H  40.47200 40.11300 31.56300
H  42.52600 39.57300 32.61900
H  43.00100 41.23700 32.49500
H  43.40900 40.10000 31.19000
H  38.59600 42.13200 31.20200
H  39.26400 43.48600 32.21400
H  40.07400 41.11200 33.50700
H  38.45100 40.88800 33.00500
H  42.14200 35.72200 27.86600
H  42.69300 36.70900 29.24100
H  43.93500 36.39900 27.95400
H  42.89400 34.91900 25.79300
H  44.56500 35.73800 26.08600
H  44.06100 34.81000 24.59400
H  40.20800 40.26600 21.81800
H  40.52900 43.03200 21.80000
H  43.10100 41.01000 22.26100
H  42.27200 42.12500 21.00700
H  42.31200 40.46100 20.81000
H  38.54200 41.41300 21.16100
H  38.37300 43.14100 21.47300
H  36.78900 42.60100 23.05700
H  37.86200 41.39800 23.82400
H  36.91100 40.86700 22.47600
H  39.06300 46.83500 24.45400
H  40.26400 47.65100 25.40000
H  38.51900 47.58700 25.96300
H  39.10600 45.17600 30.73300
H  42.21800 47.77000 31.95200
H  42.70000 46.32900 32.86500
H  41.38100 47.39300 33.43500
Mg -10.43300 38.89400 42.31800
C  -8.86900 35.92000 41.58300
C  -7.68900 40.58300 41.22600
C  -12.22400 41.75200 42.43600
C  -13.40100 37.01400 42.74500
N  -8.57800 38.22000 41.35400
C  -8.01900 36.97700 41.27400
C  -6.59500 37.01600 40.73600
C  -6.17500 38.51900 41.09500
C  -7.54800 39.15200 41.22600
C  -5.18400 38.75400 42.29600
C  -6.44300 36.64200 39.15300
C  -5.24000 35.75500 38.87700
H  -5.37600 34.69600 37.75400
N  -10.09100 40.89000 41.74400
C  -8.86400 41.35700 41.38900
C  -8.97900 42.77800 41.06100
C  -10.25400 43.15300 41.46700
C  -10.90800 41.94900 41.96400
C  -7.82300 43.62100 40.37700
C  -10.80400 44.64600 41.44700
O  -10.05600 45.54100 41.00200
C  -12.23900 45.01400 41.94500
N  -12.54500 39.33900 42.69100
C  -12.94600 40.59300 42.78100
C  -14.48600 40.62600 43.20100
C  -14.94500 39.11900 43.03700
C  -13.58800 38.41500 42.79500
C  -14.82400 41.36400 44.53400
C  -16.15200 38.86100 42.04300
C  -17.55700 38.41700 42.52600
N  -10.99800 36.87100 42.31300
C  -12.21400 36.24800 42.52700
C  -12.09800 34.78300 42.40300
C  -10.76300 34.62300 42.07100
C  -10.14900 35.90400 41.96900
C  -13.12100 33.79100 42.85000
C  -9.68400 33.64900 41.79300
O  -9.79900 32.46100 41.89900
C  -8.46800 34.49200 41.30500
C  -7.42500 34.03800 42.21400
O  -7.15600 34.52800 43.35300
O  -6.85200 32.93800 41.66400
C  -5.90200 32.19600 42.60700
H  -6.80500 41.13100 40.89500
H  -12.86200 42.61600 42.63200
H  -14.34900 36.48200 42.85100
H  -5.99200 36.37200 41.37600
H  -5.75200 39.02900 40.22900
H  -5.76300 39.23400 43.08500
H  -4.37500 39.43700 42.03900
H  -4.70700 37.86200 42.70100
H  -6.21500 37.54800 38.59100
H  -7.41700 36.28700 38.81900
H  -5.10000 35.24300 39.82900
H  -4.38100 36.30100 38.48800
H  -7.02600 42.95500 40.04500
H  -7.43300 44.44300 40.97800
H  -8.26300 44.06500 39.48400
H  -12.42700 44.67200 42.96300
H  -12.95000 44.83600 41.13800
H  -12.12400 46.09700 42.00400
H  -14.96900 41.15800 42.38100
H  -15.41500 38.69200 43.92300
H  -15.53500 42.18400 44.43100
H  -13.89300 41.87500 44.78100
H  -15.07200 40.78400 45.42200
H  -15.82200 38.19000 41.25100
H  -16.39400 39.76100 41.47700
H  -17.94500 37.50000 42.08200
H  -18.23900 39.26100 42.42300
H  -17.56100 38.32100 43.61100
H  -13.68800 33.29400 42.06200
H  -13.85900 34.20600 43.53600
H  -12.63600 33.07900 43.51800
H  -8.17600 34.26100 40.28100
H  -6.27600 32.28400 43.62700
H  -4.92400 32.67500 42.56600
H  -5.82800 31.14400 42.33200

