158

Mg -1.96100 17.63100 27.65700
C  -2.69600 15.32200 30.23600
C  -2.35600 20.18800 29.75800
C  -1.51600 19.82300 24.94400
C  -1.72200 14.89900 25.34500
N  -2.51100 17.61300 29.72900
C  -2.71200 16.63800 30.66600
C  -2.99700 17.18900 32.13700
C  -2.78900 18.71600 31.87500
C  -2.62800 18.86000 30.36000
C  -3.80000 19.70700 32.49300
C  -1.99000 16.72400 33.24500
C  -1.76900 17.52000 34.47900
H  -1.87900 16.87900 35.86700
N  -1.91100 19.69700 27.34500
C  -2.02800 20.54300 28.40800
C  -1.77700 21.86500 28.01100
C  -1.54000 21.81200 26.57900
C  -1.68400 20.39000 26.17600
C  -1.82400 23.03600 28.93500
C  -1.27700 22.96600 25.54700
O  -1.34100 22.79400 24.35300
C  -0.94400 24.37200 25.97000
N  -1.97900 17.41200 25.36400
C  -1.65400 18.46700 24.59200
C  -1.37000 17.96000 23.12300
C  -1.26300 16.43600 23.30200
C  -1.76300 16.17600 24.78000
C  -2.32300 18.45300 22.00500
C  0.20100 16.00900 23.02200
C  1.23800 16.19000 24.18500
N  -2.24200 15.56200 27.67600
C  -2.02700 14.52000 26.70200
C  -2.17600 13.19900 27.29500
C  -2.50500 13.53300 28.62600
C  -2.45500 14.91100 28.81700
C  -1.91300 11.80000 26.73900
C  -2.74000 12.91800 29.89500
O  -2.77000 11.76200 30.22400
C  -2.82800 14.02200 30.99600
C  -1.69400 13.82600 31.96300
O  -0.52500 14.27600 31.85100
O  -2.16200 13.04600 32.98300
C  -1.19800 12.76600 34.03400
H  -2.50700 20.92000 30.55400
H  -1.24000 20.40400 24.06100
H  -1.28400 14.11800 24.72000
H  -3.99900 16.89400 32.44700
H  -1.75600 18.98800 32.08900
H  -4.34900 19.17400 33.26900
H  -4.41900 20.07000 31.67200
H  -3.30100 20.57000 32.93300
H  -0.95500 16.74200 32.90400
H  -2.28800 15.73300 33.58500
H  -2.43800 18.38100 34.46300
H  -0.75700 17.91300 34.38400
H  -2.89200 23.22800 29.03400
H  -1.26700 23.87700 28.52400
H  -1.37300 22.64300 29.84700
H  -0.89700 25.03700 25.10700
H  0.02900 24.13600 26.40000
H  -1.60300 24.79600 26.72700
H  -0.37600 18.36200 22.92600
H  -1.78400 15.87000 22.52900
H  -2.84000 19.38200 22.24700
H  -3.11000 17.71100 21.87300
H  -1.76800 18.60000 21.07900
H  0.54100 16.48700 22.10400
H  0.11900 14.99200 22.63800
H  0.80100 16.63800 25.07700
H  2.06600 16.83800 23.89800
H  1.75300 15.29100 24.52200
H  -1.53000 11.23200 27.58700
H  -1.18400 11.85000 25.93000
H  -2.82200 11.38800 26.30300
H  -3.73100 13.90400 31.59400
H  -0.66700 11.82600 33.88300
H  -1.86200 12.57100 34.87600
H  -0.56700 13.62100 34.27800
Mg 29.24500 57.89200 42.02700
C  26.45500 56.16600 40.60300
C  31.31800 55.99900 40.11700
C  31.76900 59.92200 42.95100
C  26.93400 60.11900 43.31500
N  28.92600 56.36900 40.46300
C  27.69800 55.80300 40.08200
C  27.95200 54.88200 38.86500
C  29.51100 54.55000 38.95800
C  29.95500 55.72900 39.88500
C  29.87800 53.24400 39.78000
C  27.52200 55.67500 37.55200
C  26.53100 54.85800 36.67100
H  27.01500 54.67300 35.21000
N  31.36300 57.87200 41.65800
C  31.99400 56.94600 40.90300
C  33.41100 57.18400 40.91500
C  33.59800 58.40000 41.68800
C  32.24400 58.82300 42.17900
C  34.45600 56.29400 40.27000
C  34.92700 59.05600 41.98600
O  35.92000 58.67800 41.41800
C  35.02700 60.19000 42.88800
N  29.28800 59.81600 42.89700
C  30.48800 60.34500 43.28700
C  30.19100 61.70600 44.08500
C  28.67400 61.56800 44.45100
C  28.26200 60.41300 43.46800
C  31.03400 61.98900 45.38300
C  27.84200 62.93600 44.38800
C  27.33300 63.48200 45.73400
N  27.08700 58.11000 42.09500
C  26.31000 59.04600 42.68800
C  24.89100 58.76000 42.44900
C  24.87800 57.64000 41.62300
C  26.26000 57.24000 41.51200
C  23.62600 59.37800 42.94300
C  24.10900 56.71500 40.76500
O  22.93600 56.71800 40.38800
C  25.09000 55.62900 40.25800
C  24.70800 54.32700 40.85500
O  24.42100 54.25100 42.05700
O  24.90300 53.28200 39.99800
C  24.71300 51.96300 40.57800
H  31.91100 55.27100 39.55900
H  32.54700 60.60000 43.31200
H  26.21800 60.76100 43.83200
H  27.33300 54.00300 39.04500
H  29.96100 54.65100 37.97000
H  29.79400 52.42400 39.06600
H  29.12900 52.98500 40.52900
H  30.89800 53.39300 40.13200
H  28.39500 55.95100 36.96000
H  26.95600 56.58800 37.73700
H  25.57900 55.38300 36.59200
H  26.17100 53.98200 37.21000
H  35.21400 56.18000 41.04500
H  34.92200 56.88100 39.47900
H  34.06800 55.29400 40.07600
H  34.39000 60.92900 42.40100
H  36.06400 60.52500 42.87600
H  34.64300 59.98900 43.88800
H  30.40800 62.53800 43.41500
H  28.47000 61.02500 45.37400
H  31.71300 61.16800 45.61300
H  30.27700 61.99800 46.16700
H  31.44500 62.99600 45.31500
H  26.99100 62.83400 43.71400
H  28.44300 63.77000 44.02700
H  26.45000 64.11300 45.63400
H  28.16900 63.95100 46.25300
H  27.12100 62.67100 46.43000
H  22.68000 59.23500 42.42100
H  23.91900 60.42800 42.94500
H  23.45600 58.99100 43.94800
H  24.97800 55.52500 39.17900
H  25.08600 51.82200 41.59200
H  25.03300 51.18700 39.88300
H  23.63500 51.81900 40.65200

