158

Mg 0.00100 8.05500 26.51900
C  0.62500 9.55800 29.63200
C  0.00500 4.97800 27.85900
C  0.39100 6.67200 23.36600
C  0.53500 11.16600 24.97400
N  0.19400 7.45500 28.56900
C  0.41000 8.15000 29.72500
C  0.02900 7.35300 30.96500
C  0.10500 5.91000 30.39300
C  0.06500 6.09400 28.78400
C  1.46300 5.19200 30.79600
C  -1.28100 7.79800 31.58100
C  -1.32300 7.79400 33.13400
H  -0.26700 6.96700 33.88400
N  -0.13100 6.15000 25.75100
C  -0.11500 5.01100 26.45000
C  -0.32200 3.84100 25.62200
C  -0.23900 4.39300 24.26900
C  0.02900 5.79900 24.40000
C  -0.44700 2.48700 26.11200
C  -0.38700 3.66700 22.91400
O  -0.47600 4.29800 21.82500
C  -0.54700 2.20100 22.90300
N  0.24900 8.82300 24.43100
C  0.55400 8.04600 23.38100
C  0.93700 8.81200 22.18400
C  0.52800 10.25300 22.59300
C  0.43200 10.12600 24.08400
C  2.48400 8.82500 21.75600
C  -0.69600 10.87700 21.84700
C  -2.05300 10.63100 22.53600
N  0.46700 9.96000 27.09300
C  0.58100 11.12200 26.36300
C  0.77700 12.23100 27.27800
C  0.85800 11.63000 28.55800
C  0.64900 10.29100 28.39400
C  1.10400 13.64100 26.81900
C  0.96600 11.95500 29.97200
O  1.21300 13.01100 30.55700
C  0.66800 10.61500 30.72700
C  1.63600 10.41300 31.78800
O  2.75800 10.00200 31.60000
O  1.23400 11.05000 32.89700
C  2.26600 11.33700 33.99000
H  -0.11500 4.02100 28.37100
H  0.71300 6.25600 22.40900
H  0.56500 12.21100 24.65700
H  0.84200 7.45700 31.68400
H  -0.67700 5.21800 30.70700
H  1.16000 4.43200 31.51700
H  2.16800 5.76400 31.40000
H  2.04800 4.70200 30.01800
H  -2.13700 7.26700 31.16300
H  -1.49800 8.78000 31.16100
H  -2.29800 7.37400 33.37900
H  -1.21700 8.79700 33.54700
H  0.04500 1.70700 25.53100
H  -1.50700 2.26400 26.23300
H  0.01900 2.47900 27.09700
H  0.25200 1.71900 23.46600
H  -0.44300 1.93300 21.85200
H  -1.52400 1.97000 23.32700
H  0.33500 8.48500 21.33700
H  1.32800 10.98700 22.49800
H  3.17700 9.10600 22.54900
H  2.59800 9.58300 20.98100
H  2.62900 7.80700 21.39300
H  -0.60400 10.43000 20.85800
H  -0.54400 11.95700 21.83700
H  -2.02000 9.77500 23.21000
H  -2.89600 10.49300 21.85900
H  -2.28100 11.52000 23.12500
H  1.86200 13.64400 26.03600
H  1.45700 14.27800 27.63000
H  0.24100 14.19400 26.44900
H  -0.27100 10.61600 31.28200
H  2.32400 12.41700 34.12900
H  3.30300 11.06900 33.78500
H  1.85700 10.99200 34.93900
Mg 36.06900 49.22200 26.24400
C  36.40000 47.02600 29.07800
C  35.02700 51.59100 28.48200
C  35.43800 51.05100 23.67300
C  36.91600 46.61600 24.16500
N  35.64900 49.19300 28.47400
C  35.96800 48.28400 29.44500
C  35.99100 48.84300 30.91900
C  35.26100 50.14700 30.67100
C  35.33300 50.37300 29.10800
C  33.78000 50.19400 31.09500
C  37.43900 49.12500 31.49600
C  37.65200 48.88000 33.00400
H  36.49500 49.19900 33.96600
N  35.38700 51.11200 26.07900
C  35.03100 51.93000 27.10600
C  34.60000 53.14900 26.54000
C  34.82500 53.11300 25.13800
C  35.28400 51.72900 24.93200
C  34.15700 54.21100 27.45700
C  34.55300 54.08400 24.00500
O  34.76900 53.86800 22.82300
C  33.99800 55.34900 24.45400
N  36.22600 48.87700 24.13200
C  35.79500 49.72500 23.28100
C  35.67100 49.23600 21.83600
C  36.18300 47.77400 22.05900
C  36.44300 47.71400 23.52800
C  34.31600 49.38200 21.12700
C  37.45400 47.44500 21.16200
C  38.83500 47.37300 21.79500
N  36.60700 47.23000 26.48400
C  37.01400 46.30100 25.52400
C  37.34400 45.14000 26.17500
C  37.06900 45.33500 27.58200
C  36.67700 46.65400 27.72900
C  37.70600 43.87700 25.50600
C  37.08700 44.67700 28.86500
O  37.44700 43.54300 29.11200
C  36.68100 45.76500 29.95100
C  35.52700 45.27500 30.65600
O  34.41800 45.13000 30.20500
O  35.90600 45.17700 31.97200
C  34.79200 44.70300 32.75900
H  34.62400 52.28200 29.22400
H  34.99600 51.70200 22.91600
H  37.23000 45.76000 23.56500
H  35.51700 48.13600 31.60000
H  35.64800 51.01100 31.21200
H  33.56100 49.50000 31.90600
H  33.13300 49.87500 30.27800
H  33.63100 51.22900 31.40300
H  37.77600 50.10700 31.16300
H  38.11200 48.38300 31.06700
H  38.36600 49.60900 33.38800
H  37.99400 47.86200 33.19000
H  33.53400 53.91000 28.30000
H  33.65200 54.97600 26.86700
H  34.99400 54.76200 27.88700
H  34.00800 56.03700 23.60800
H  34.66800 55.80000 25.18600
H  32.99900 55.14500 24.84000
H  36.34300 49.85300 21.23900
H  35.37300 47.06500 21.88900
H  33.69900 49.99600 21.78200
H  33.67600 48.51200 20.98100
H  34.55600 49.90100 20.19900
H  37.49300 48.16800 20.34700
H  37.17500 46.50900 20.67900
H  38.83700 47.47100 22.88100
H  39.39600 48.19300 21.34700
H  39.35100 46.41600 21.72200
H  36.78900 43.35900 25.22600
H  38.32200 43.32300 26.21400
H  38.40600 44.10000 24.70100
H  37.49800 45.89700 30.66000
H  33.82900 45.19100 32.61400
H  35.10000 44.99900 33.76200
H  34.71900 43.61900 32.66800

