158

Mg 35.47700 1.68200 28.75100
C  33.51900 3.12700 31.22800
C  38.06200 1.35700 31.03300
C  37.35600 0.71200 26.20800
C  32.93900 2.36900 26.35200
N  35.84600 2.41800 30.91500
C  34.78200 2.82600 31.76900
C  35.27200 2.91600 33.22900
C  36.87700 2.62200 33.04500
C  36.94200 2.05900 31.62000
C  37.69800 3.91300 33.28700
C  34.49700 1.90600 34.08800
C  33.74200 2.38400 35.35800
H  34.35500 3.54300 36.21900
N  37.46700 1.11200 28.66300
C  38.35900 1.05400 29.66300
C  39.63100 0.63000 29.13800
C  39.47200 0.36600 27.74100
C  38.08400 0.82700 27.46000
C  40.81000 0.37300 30.09600
C  40.43900 -0.29300 26.72700
O  40.18100 -0.45100 25.54800
C  41.81600 -0.63300 27.21300
N  35.19400 1.50500 26.53300
C  36.11500 0.95200 25.76900
C  35.70900 0.86000 24.24400
C  34.19700 1.26400 24.34300
C  34.08300 1.74200 25.78300
C  36.47000 1.82600 23.25300
C  33.27400 0.08000 23.99600
C  32.24500 0.36000 22.85300
N  33.58100 2.40500 28.77400
C  32.66200 2.67100 27.73800
C  31.50700 3.48300 28.26400
C  31.82100 3.55200 29.64200
C  33.08700 2.93000 29.86600
C  30.28900 3.87400 27.46500
C  31.21800 4.00000 30.87700
O  30.09600 4.51000 31.08500
C  32.30000 3.61700 31.92800
C  32.57700 4.82100 32.78000
O  33.27600 5.75700 32.43700
O  31.72300 4.83100 33.82600
C  31.62700 6.02000 34.67200
H  38.85400 1.24500 31.77600
H  37.98400 0.14700 25.51600
H  32.23600 2.79200 25.63100
H  35.07700 3.94600 33.52700
H  37.13800 1.78000 33.68600
H  38.30100 3.74400 34.17900
H  37.05200 4.78700 33.37000
H  38.30100 4.15700 32.41200
H  35.26700 1.22000 34.44000
H  33.83500 1.31700 33.45400
H  33.75000 1.52200 36.02600
H  32.73900 2.74000 35.12700
H  40.83100 1.27900 30.70400
H  41.84800 0.32900 29.76700
H  40.55000 -0.49800 30.69700
H  42.44900 -0.90900 26.37000
H  41.77700 -1.39900 27.98900
H  42.10200 0.28200 27.73100
H  35.88500 -0.15000 23.87400
H  33.96800 2.11200 23.69800
H  35.67900 2.09200 22.55200
H  37.14100 1.18200 22.68500
H  36.92600 2.64400 23.81200
H  32.76800 -0.22500 24.91100
H  33.89700 -0.76000 23.68700
H  31.28600 0.16100 23.33000
H  32.33400 -0.41600 22.09200
H  32.22700 1.40200 22.53500
H  30.58500 4.20700 26.47000
H  29.78300 4.64100 28.05000
H  29.62500 3.00900 27.45100
H  31.97700 2.79500 32.56700
H  32.33400 6.81000 34.41900
H  31.65800 5.83500 35.74600
H  30.60600 6.35800 34.49400
Mg 16.64600 52.16000 26.39200
C  18.52300 50.78100 28.91600
C  14.23000 53.07400 28.88100
C  14.65300 53.47500 23.94900
C  18.76400 50.66300 24.05300
N  16.40100 51.92700 28.61300
C  17.35700 51.29500 29.39100
C  17.10200 51.57800 30.87400
C  15.55700 52.07100 30.87800
C  15.44300 52.49500 29.37600
C  14.52400 51.09700 31.44800
C  17.96400 52.68300 31.44700
C  18.10400 52.68900 33.00500
H  17.25800 51.75600 33.86800
N  14.62000 53.19100 26.41600
C  13.88200 53.48000 27.53200
C  12.77700 54.30900 27.11600
C  12.93900 54.45500 25.65800
C  14.12000 53.72600 25.26000
C  11.64500 54.71400 28.09900
C  11.99800 55.15800 24.58100
O  12.34800 55.35900 23.41500
C  10.58700 55.57900 25.02100
N  16.68600 52.02900 24.28300
C  15.81600 52.72200 23.54100
C  16.13700 52.52700 22.04800
C  17.46500 51.71700 22.10400
C  17.71400 51.47100 23.56200
C  15.00200 52.04900 21.11500
C  18.71400 52.43300 21.40600
C  19.35900 51.65800 20.22400
N  18.29300 51.06700 26.42500
C  19.10300 50.46100 25.42700
C  20.15100 49.61500 26.03100
C  20.00900 49.79900 27.42300
C  18.89100 50.73900 27.58300
C  21.15500 48.82000 25.33300
C  20.55600 49.51500 28.74200
O  21.50600 48.87100 29.01600
C  19.57000 50.01000 29.71300
C  18.97600 48.89700 30.48000
O  18.06800 48.25500 30.02600
O  19.53500 48.80900 31.70100
C  18.90500 47.79800 32.58100
H  13.56900 53.42400 29.67600
H  14.18900 53.88600 23.05100
H  19.38300 50.15400 23.31100
H  17.19000 50.69400 31.50500
H  15.39100 52.98400 31.44900
H  15.06400 50.25400 31.88000
H  13.84400 50.79500 30.65100
H  13.96500 51.59100 32.24200
H  17.63200 53.66300 31.10400
H  18.99900 52.48300 31.17000
H  18.08200 53.73400 33.31300
H  19.07900 52.22500 33.15600
H  11.40900 55.77400 28.00300
H  11.91300 54.58400 29.14700
H  10.72600 54.17900 27.86100
H  9.87600 55.26100 24.25900
H  10.54100 56.65000 25.22000
H  10.38500 54.99200 25.91600
H  16.29900 53.56200 21.74900
H  17.31100 50.70900 21.72000
H  15.22800 51.13800 20.56100
H  14.67800 52.83300 20.43100
H  14.16500 51.72200 21.73200
H  19.38100 52.59400 22.25300
H  18.52300 53.46600 21.11500
H  19.18600 52.16600 19.27600
H  18.96900 50.64500 20.12800
H  20.43400 51.59500 20.39200
H  21.84900 49.43100 24.75600
H  20.54700 48.26000 24.62300
H  21.81200 48.17900 25.92100
H  20.07200 50.60700 30.47400
H  18.92500 46.86600 32.01600
H  17.90000 48.01700 32.93900
H  19.55700 47.53600 33.41400

