158

Mg 15.82500 51.09700 26.20400
C  18.04000 50.21500 28.89400
C  13.42900 51.63200 28.49000
C  13.76000 51.41500 23.71100
C  18.56100 50.15300 24.02900
N  15.81200 50.92800 28.32300
C  16.80200 50.64100 29.20900
C  16.36100 51.10700 30.60400
C  14.79700 51.27600 30.57400
C  14.69100 51.43100 29.03100
C  14.13300 49.95000 31.04100
C  17.10300 52.50000 31.02300
C  17.59700 52.86500 32.46800
H  16.96100 52.11400 33.64400
N  13.89700 51.49800 26.14700
C  13.01300 51.71500 27.17000
C  11.68500 51.79600 26.68600
C  11.75000 51.56000 25.25100
C  13.16500 51.50200 24.99100
C  10.40100 51.88100 27.58500
C  10.68900 51.48200 24.18500
O  10.99100 51.09300 23.04600
C  9.22500 51.80400 24.58800
N  16.16800 50.90200 24.19000
C  15.07900 51.15000 23.35300
C  15.57200 51.05700 21.81900
C  17.07100 50.62000 21.96300
C  17.32400 50.58400 23.49700
C  14.69000 50.19300 20.81200
C  18.08100 51.42600 21.13600
C  19.03000 50.70900 20.19100
N  17.85300 50.32700 26.39300
C  18.79500 50.06500 25.40200
C  20.00200 49.63500 26.02700
C  19.83000 49.72900 27.42600
C  18.48200 50.09600 27.56000
C  21.33300 49.21000 25.39100
C  20.41900 49.55400 28.70100
O  21.52100 49.16000 29.06000
C  19.28800 49.83100 29.75200
C  19.11300 48.69400 30.68100
O  18.57600 47.64700 30.45700
O  19.64300 49.03200 31.89200
C  19.30200 48.11000 32.95500
H  12.63200 51.81800 29.21300
H  13.15500 51.64500 22.83200
H  19.40700 49.95000 23.36900
H  16.71100 50.28300 31.22500
H  14.25700 52.03900 31.13500
H  14.92600 49.20300 31.08800
H  13.29800 49.66000 30.40400
H  13.78800 50.20800 32.04200
H  16.52600 53.30300 30.56300
H  18.08400 52.63700 30.56800
H  17.35000 53.89100 32.74000
H  18.68400 52.83200 32.54600
H  9.90100 50.91500 27.64900
H  9.80500 52.63200 27.06700
H  10.66400 52.31800 28.54900
H  8.56900 51.74200 23.72000
H  9.17700 52.83800 24.92900
H  8.95600 51.05500 25.33300
H  15.48300 52.09100 21.48500
H  17.16100 49.57700 21.65800
H  13.73200 49.88900 21.23400
H  15.29600 49.55600 20.16700
H  14.31600 50.85300 20.03000
H  18.68300 52.01700 21.82700
H  17.50400 52.09200 20.49500
H  19.12200 51.45100 19.39700
H  18.48200 49.89900 19.71000
H  19.91900 50.37400 20.72600
H  22.15600 49.61100 25.98200
H  21.27600 49.68800 24.41200
H  21.38200 48.12100 25.36900
H  19.53600 50.71500 30.34000
H  20.00900 47.28900 33.08200
H  18.26900 47.76600 32.91400
H  19.31400 48.73300 33.84900
Mg -2.43000 33.93900 26.74700
C  -3.83100 32.22200 29.59700
C  -0.60100 35.72100 29.01000
C  -1.38100 35.73800 24.26800
C  -4.24500 31.99500 24.67300
N  -2.41200 34.12100 29.11000
C  -2.94300 33.26000 30.02500
C  -2.33500 33.46100 31.45400
C  -1.32700 34.59100 31.18900
C  -1.42200 34.75000 29.63500
C  -1.66800 35.85700 31.94400
C  -1.57800 32.22100 32.05000
C  -2.14600 31.66600 33.32600
H  -1.19600 31.67200 34.56800
N  -1.18000 35.51400 26.67400
C  -0.47600 36.08100 27.72100
C  0.34500 37.11600 27.16900
C  0.15300 37.17400 25.74400
C  -0.86200 36.15200 25.48800
C  1.20500 38.08000 28.06500
C  0.76000 38.04100 24.71700
O  0.36600 38.04600 23.58500
C  1.95500 38.95900 25.07300
N  -2.95900 34.01200 24.74600
C  -2.26200 34.75900 23.90700
C  -2.64100 34.42500 22.40900
C  -3.34000 33.00900 22.55900
C  -3.42100 32.95200 24.05800
C  -3.57300 35.48800 21.68400
C  -2.52200 31.78400 21.93900
C  -1.05100 31.62500 22.31600
N  -3.91500 32.57800 26.99500
C  -4.57100 31.79600 26.07200
C  -5.38300 30.73000 26.70500
C  -5.13600 30.87200 28.10400
C  -4.23200 32.00100 28.18700
C  -6.14400 29.64000 26.06300
C  -5.41800 30.34300 29.40400
O  -6.14300 29.40400 29.76400
C  -4.60300 31.19200 30.35400
C  -5.51000 31.76600 31.40800
O  -6.18300 32.72900 31.22200
O  -5.31000 31.15600 32.65400
C  -6.01100 31.65000 33.83700
H  0.13400 36.15500 29.69200
H  -0.86300 36.27200 23.46800
H  -4.64900 31.21900 24.01800
H  -3.16700 33.70200 32.11600
H  -0.28700 34.31500 31.35800
H  -2.16500 36.52100 31.23700
H  -0.81300 36.46400 32.24200
H  -2.34300 35.77100 32.79600
H  -0.53700 32.48100 32.24100
H  -1.55900 31.38800 31.34700
H  -2.46200 30.65400 33.07300
H  -3.03200 32.23200 33.61400
H  0.76700 39.01900 28.40100
H  2.17200 38.14400 27.56400
H  1.50300 37.51900 28.95100
H  2.79400 38.33000 25.36900
H  1.73500 39.59500 25.93100
H  2.35200 39.53500 24.23700
H  -1.74200 34.35600 21.79700
H  -4.36700 33.00700 22.19300
H  -3.98500 35.03300 20.78300
H  -2.98400 36.31400 21.28400
H  -4.34400 35.87800 22.34800
H  -2.53300 31.97400 20.86600
H  -3.08000 30.85700 22.06900
H  -0.51100 31.60800 21.36900
H  -0.73900 30.76200 22.90400
H  -0.73200 32.51700 22.85400
H  -5.97300 28.76800 26.69500
H  -5.69200 29.52200 25.07800
H  -7.18500 29.96200 26.04200
H  -3.82000 30.54900 30.75800
H  -6.58000 32.56100 33.65100
H  -5.22900 31.87400 34.56200
H  -6.61900 30.82700 34.21400

