158

Mg 1.23800 8.25300 26.30200
C  1.46800 10.21000 29.06000
C  0.88700 5.43300 28.16700
C  1.09900 6.47100 23.39600
C  1.99900 11.09200 24.26900
N  1.29400 7.80300 28.50600
C  1.18400 8.85400 29.39900
C  1.05200 8.24400 30.84100
C  1.12500 6.66200 30.53400
C  1.12000 6.60000 29.02600
C  2.29000 6.00600 31.14200
C  -0.25700 8.59500 31.56900
C  -0.15800 8.44500 33.14000
H  1.01700 7.69600 33.83600
N  1.09900 6.21300 25.87700
C  0.95600 5.19300 26.76500
C  0.73800 3.94800 26.08900
C  0.81400 4.19500 24.74800
C  1.04900 5.66500 24.58100
C  0.62100 2.63300 26.86000
C  0.74800 3.19200 23.55000
O  0.96700 3.56900 22.41900
C  0.36400 1.77800 23.78600
N  1.67600 8.71200 24.12900
C  1.39500 7.77700 23.18000
C  1.34300 8.36100 21.78700
C  1.51200 9.91900 22.00700
C  1.81700 9.95400 23.55200
C  2.52800 7.69800 20.88400
C  0.39900 10.82900 21.49100
C  -0.79300 11.07900 22.38000
N  1.65600 10.25600 26.54300
C  1.93900 11.28000 25.68700
C  2.10000 12.51800 26.41400
C  2.07200 12.15300 27.77600
C  1.71300 10.77500 27.77900
C  2.34200 13.91100 25.94300
C  2.08700 12.57200 29.09800
O  2.40500 13.67800 29.57100
C  1.59300 11.39300 29.97100
C  2.66800 11.17100 31.02900
O  3.68900 10.58900 30.97200
O  2.13100 11.64600 32.26100
C  2.96000 11.41700 33.46500
H  0.61500 4.57200 28.78000
H  0.87500 6.04500 22.41600
H  2.07600 12.02700 23.70900
H  1.86400 8.66200 31.43700
H  0.23300 6.11600 30.84100
H  1.89400 5.36500 31.93000
H  2.99900 6.76300 31.47700
H  2.83900 5.36800 30.44900
H  -1.10300 7.97800 31.26400
H  -0.38800 9.65400 31.34400
H  -1.08700 8.01300 33.51200
H  -0.09500 9.48500 33.45900
H  0.91200 2.85400 27.88700
H  1.30200 1.88400 26.45600
H  -0.41600 2.30400 26.80000
H  0.27500 1.27000 22.82600
H  -0.62000 1.66200 24.24000
H  1.13100 1.25700 24.35900
H  0.35400 8.12300 21.39300
H  2.40500 10.35200 21.55600
H  2.07100 6.97500 20.20800
H  3.27000 7.21000 21.51700
H  3.08700 8.41500 20.28300
H  -0.15500 10.39000 20.66100
H  0.66300 11.84700 21.20600
H  -0.72700 10.35000 23.18800
H  -1.74900 10.85600 21.90700
H  -0.81200 12.07400 22.82500
H  1.44600 14.34100 25.49600
H  3.21400 14.03300 25.30100
H  2.48200 14.48500 26.85900
H  0.68500 11.59900 30.53800
H  2.26200 11.12200 34.24900
H  3.55200 12.32100 33.60400
H  3.72600 10.64600 33.38400
Mg 16.85100 52.74000 26.97100
C  18.98200 51.25000 29.32400
C  14.61300 53.38000 29.65500
C  14.83600 54.24200 24.89200
C  18.98300 51.85200 24.50400
N  16.79300 52.32900 29.22800
C  17.82200 51.76700 29.94500
C  17.57600 51.91800 31.46700
C  16.01700 52.12100 31.43000
C  15.73200 52.63900 30.03800
C  15.11200 50.87900 31.74100
C  18.30100 53.07800 32.08800
C  18.78700 52.81600 33.51200
H  17.74300 52.24900 34.48300
N  15.01900 53.74400 27.23700
C  14.30900 53.93100 28.44300
C  13.19900 54.81400 28.16200
C  13.30200 55.23100 26.79300
C  14.39500 54.37000 26.24000
C  12.22300 55.20600 29.24000
C  12.60400 56.40900 26.00500
O  12.69900 56.66800 24.79400
C  11.59500 57.20000 26.67900
N  16.81600 52.81700 24.90700
C  15.88500 53.52800 24.27500
C  16.03600 53.27500 22.68200
C  17.46900 52.70400 22.58800
C  17.76300 52.34600 24.06900
C  14.86000 52.39900 22.05700
C  18.45500 53.80300 22.04000
C  18.78800 54.99600 22.91500
N  18.68100 51.61800 26.87400
C  19.42600 51.34000 25.78800
C  20.61700 50.66100 26.16600
C  20.52400 50.61500 27.60500
C  19.31700 51.21200 27.95500
C  21.73900 50.07400 25.25700
C  21.12000 50.15100 28.83500
O  22.16700 49.56000 29.09600
C  20.18200 50.64700 29.98300
C  19.84100 49.50400 30.85300
O  19.09900 48.60000 30.62200
O  20.56200 49.63500 32.02700
C  20.48700 48.48800 33.01800
H  13.95600 53.48600 30.52000
H  14.08900 54.69100 24.23400
H  19.56700 51.59200 23.61900
H  17.72700 50.96300 31.97000
H  15.68600 52.91800 32.09600
H  14.55200 50.87200 32.67700
H  15.61000 49.91100 31.79600
H  14.40100 50.69400 30.93600
H  17.59700 53.91000 32.10200
H  19.09700 53.30900 31.38000
H  19.17900 53.67800 34.05100
H  19.57800 52.08400 33.34400
H  11.31100 54.98100 28.68700
H  12.23600 56.25300 29.54300
H  12.30800 54.47900 30.04700
H  10.92400 57.77000 26.03600
H  12.17900 57.84700 27.33400
H  10.99700 56.54800 27.31500
H  16.12200 54.26200 22.22600
H  17.47200 51.78800 21.99800
H  14.42500 52.83500 21.15800
H  14.15700 52.21800 22.87000
H  15.22500 51.43100 21.71400
H  17.97800 54.25200 21.16800
H  19.35900 53.38700 21.59500
H  19.34400 55.69400 22.28900
H  19.47000 54.64700 23.69000
H  17.95600 55.49600 23.41200
H  22.63700 49.82400 25.82300
H  22.03000 50.92200 24.63700
H  21.45200 49.29700 24.54900
H  20.78100 51.29100 30.62600
H  21.34500 48.59300 33.68100
H  20.46000 47.53400 32.49200
H  19.57800 48.49200 33.62000

