158

Mg 47.20900 16.00400 28.35700
C  45.09000 15.94800 31.26000
C  49.44900 17.89800 30.38000
C  49.19700 16.15400 25.77000
C  44.71100 14.49900 26.57300
N  47.19400 16.94400 30.50700
C  46.38000 16.52400 31.52000
C  46.81100 17.01900 32.84100
C  48.06400 17.89500 32.57200
C  48.27000 17.59100 31.06700
C  48.03500 19.37400 32.96800
C  47.07300 15.84300 33.82300
C  46.64200 16.00000 35.29000
H  46.10300 17.38300 35.80800
N  49.07900 16.84400 28.10100
C  49.83700 17.63900 29.02400
C  51.04500 18.02600 28.37500
C  51.00900 17.58100 27.03400
C  49.71600 16.85200 26.87400
C  52.23700 18.72900 29.05900
C  52.02200 17.78300 25.91600
O  51.91600 17.18900 24.86800
C  53.10400 18.80300 25.94400
N  46.95000 15.37900 26.48200
C  47.89000 15.61400 25.53300
C  47.47100 15.16400 24.14100
C  46.08100 14.59800 24.42600
C  45.88800 14.78900 25.94600
C  47.46600 16.28900 23.03700
C  45.90100 13.08200 24.05200
C  46.36300 12.03700 25.07700
N  45.26300 15.26600 28.80600
C  44.36600 14.64500 27.90600
C  43.29600 14.24800 28.73100
C  43.47300 14.76500 30.03700
C  44.74400 15.39400 30.01200
C  42.11800 13.49700 28.12600
C  42.83100 14.99100 31.28800
O  41.72100 14.73800 31.66000
C  43.89300 15.69300 32.18400
C  43.32200 16.99000 32.66500
O  43.42600 18.05600 32.06700
O  42.60400 16.69800 33.81300
C  41.87200 17.81300 34.36600
H  50.31700 18.31400 30.89500
H  49.79500 16.26800 24.86400
H  43.92200 13.98700 26.01900
H  46.09300 17.73100 33.24800
H  48.88200 17.41300 33.10700
H  47.18200 19.67400 33.57600
H  48.07400 20.11000 32.16500
H  48.90100 19.56200 33.60300
H  48.12800 15.56900 33.83300
H  46.50600 15.01500 33.39700
H  47.50300 15.79500 35.92700
H  45.91100 15.23400 35.54700
H  52.96700 17.92100 29.10100
H  52.11300 18.81300 30.13900
H  52.73600 19.61200 28.65900
H  53.91800 18.32500 26.49000
H  52.77200 19.75400 26.36000
H  53.53500 19.03600 24.97100
H  48.08900 14.32800 23.81300
H  45.36100 15.21900 23.89200
H  47.01400 15.88600 22.13100
H  48.49700 16.53700 22.78400
H  47.09000 17.25800 23.36500
H  46.11400 12.91200 22.99700
H  44.83500 12.87400 24.14700
H  45.55600 11.48900 25.56300
H  46.95700 12.45900 25.88900
H  47.10000 11.35000 24.66100
H  41.88400 12.71000 28.84300
H  42.39200 13.05600 27.16800
H  41.27300 14.16500 27.96000
H  44.11600 15.02600 33.01700
H  41.41500 18.48700 33.64100
H  42.35000 18.46300 35.09800
H  41.09300 17.35200 34.97400
Mg 6.89200 53.46400 40.92500
C  6.61500 49.93300 40.94500
C  10.28000 53.00700 40.13600
C  6.96100 56.65300 39.86400
C  3.37300 53.59000 40.80300
N  8.16900 51.63600 40.43000
C  7.90500 50.35600 40.67400
C  9.18700 49.48600 40.69300
C  10.36600 50.56500 40.72100
C  9.56100 51.83100 40.39900
C  11.18200 50.62600 42.04600
C  9.30900 48.47800 39.51200
C  9.11700 49.03000 38.08500
H  7.81400 48.76300 37.31100
N  8.47300 54.69700 40.20400
C  9.80100 54.35400 39.94400
C  10.54400 55.54800 39.65400
C  9.58300 56.62100 39.55300
C  8.26700 56.05600 39.87900
C  12.03500 55.57100 39.53800
C  9.90700 58.12700 39.36300
O  11.07400 58.41400 39.13600
C  8.93300 59.21400 39.58400
N  5.37800 54.93000 40.39600
C  5.69500 56.15000 40.08200
C  4.52100 57.10100 40.07900
C  3.33700 56.07000 40.30900
C  4.07400 54.79600 40.56600
C  4.63900 58.22800 41.16800
C  2.21800 55.92400 39.17400
C  0.75500 56.08600 39.64300
N  5.21800 52.11900 41.09200
C  3.89400 52.29200 41.09300
C  3.18200 51.14600 41.54700
C  4.21800 50.19900 41.45500
C  5.42400 50.82600 41.09900
C  1.71900 50.95500 41.97900
C  4.52400 48.76500 41.59700
O  3.83200 47.79200 41.92900
C  6.04800 48.63200 41.37100
C  6.09700 47.60800 40.31800
O  5.72300 47.78800 39.13600
O  6.57100 46.45300 40.88400
C  6.51100 45.29300 40.01200
H  11.33800 52.79200 40.29700
H  6.86900 57.67000 39.47800
H  2.28900 53.72400 40.79000
H  9.16600 49.00600 41.67200
H  11.16600 50.31000 40.02600
H  11.70600 49.68500 42.21700
H  10.58000 50.80100 42.93800
H  11.76300 51.54800 42.02900
H  8.71700 47.57000 39.62500
H  10.30500 48.03800 39.45700
H  9.90600 48.64200 37.44100
H  9.28400 50.08700 38.29600
H  12.44400 56.18800 40.33900
H  12.35000 56.04800 38.61000
H  12.41100 54.55600 39.66500
H  8.60600 59.04300 40.60900
H  8.06700 59.21200 38.92200
H  9.43000 60.18100 39.66000
H  4.43300 57.49000 39.06400
H  2.80200 56.43500 41.18600
H  4.04600 58.14000 42.07800
H  4.57600 59.19800 40.67600
H  5.67900 58.25100 41.49600
H  2.30900 54.96900 38.65700
H  2.36800 56.69700 38.42000
H  0.23600 55.14300 39.47100
H  0.26000 56.86700 39.06600
H  0.67300 56.31500 40.70600
H  1.30700 50.17100 41.34300
H  1.10900 51.84800 41.84600
H  1.75000 50.67800 43.03300
H  6.41300 48.31600 42.34800
H  7.20300 45.51600 39.20000
H  5.50800 45.15600 39.60900
H  6.77800 44.42100 40.60900

