158

Mg 49.44900 46.11800 42.88900
C  46.01600 46.21500 41.87600
C  49.59100 42.76300 41.95900
C  52.76400 46.48900 42.70300
C  49.06400 49.52900 43.65800
N  48.02900 44.72300 41.87400
C  46.68700 44.99400 41.69200
C  46.04900 43.69800 41.17100
C  47.05900 42.56400 41.60200
C  48.33800 43.34100 41.79100
C  46.77400 41.56700 42.77100
C  45.76100 43.62700 39.64900
C  44.53100 42.82000 39.24000
H  44.01900 43.12800 37.85200
N  51.03400 44.76900 42.47400
C  50.84300 43.42200 42.15300
C  52.19900 42.89500 41.96500
C  53.16400 43.92800 42.26800
C  52.38700 45.12900 42.47400
C  52.48500 41.42900 41.78700
C  54.63100 43.76700 42.41400
O  55.19000 42.70500 42.16600
C  55.58500 44.87700 42.98600
N  50.79800 47.69800 43.28400
C  52.09000 47.64800 43.08400
C  52.80000 48.93200 43.45400
C  51.65200 49.89200 43.85800
C  50.35300 49.03900 43.53800
C  53.92000 48.91600 44.53500
C  51.67500 51.30100 43.11000
C  51.20600 52.51300 43.90600
N  47.91800 47.61300 42.82900
C  47.91400 48.86900 43.27500
C  46.52700 49.32600 43.27900
C  45.85100 48.37000 42.67300
C  46.67400 47.34600 42.41500
C  46.09900 50.64400 43.86700
C  44.50600 48.06700 42.30000
O  43.58200 48.87300 42.30400
C  44.54600 46.65100 41.76000
C  43.69700 45.84400 42.61100
O  43.86600 45.59800 43.76900
O  42.70600 45.26000 41.83200
C  41.77900 44.32700 42.40200
H  49.49000 41.69100 41.77600
H  53.82300 46.75600 42.67400
H  48.91700 50.58500 43.89600
H  45.12400 43.55400 41.73000
H  47.12500 41.79300 40.83400
H  45.82500 41.90500 43.18900
H  47.60200 41.59000 43.47800
H  46.57500 40.55000 42.43300
H  46.70500 43.30000 39.21100
H  45.55000 44.59800 39.20200
H  43.69800 42.97500 39.92600
H  44.78700 41.76700 39.35900
H  51.55200 40.98800 41.43700
H  52.59600 40.89800 42.73300
H  53.26300 41.12000 41.08900
H  55.67500 45.71000 42.29000
H  56.56400 44.47600 43.24800
H  55.16100 45.18400 43.94300
H  53.24400 49.41800 42.58500
H  51.49400 50.02100 44.92900
H  54.90500 49.03200 44.08400
H  54.08700 48.02500 45.14000
H  53.81000 49.73500 45.24600
H  51.00300 51.29300 42.25200
H  52.69200 51.42000 42.73600
H  50.90100 52.28800 44.92800
H  50.34200 52.98900 43.44200
H  51.98400 53.27600 43.86900
H  46.59800 51.52500 43.46300
H  46.42200 50.72600 44.90400
H  45.02000 50.79200 43.83100
H  44.02000 46.74800 40.81100
H  41.17400 43.71000 41.73700
H  41.15400 44.98200 43.00900
H  42.33500 43.65700 43.05700
Mg 36.26600 48.87400 25.31700
C  36.84100 46.75300 28.23800
C  34.98100 51.25500 27.33500
C  35.84800 50.56900 22.66000
C  37.57500 46.12100 23.49200
N  35.88500 48.95300 27.51600
C  36.23300 48.09300 28.49800
C  35.92600 48.67300 29.87500
C  35.08300 49.95700 29.44800
C  35.32800 50.09100 28.01400
C  33.62900 49.93400 29.93100
C  37.13800 48.94700 30.84000
C  37.10100 48.42300 32.25300
H  35.88400 48.84800 33.05000
N  35.50600 50.74500 25.04200
C  35.17200 51.66400 26.00400
C  34.78600 52.88800 25.26300
C  35.14600 52.71600 23.88000
C  35.52100 51.32600 23.77700
C  34.09200 54.01200 25.90600
C  35.25500 53.72300 22.74100
O  35.76000 53.38000 21.68100
C  34.92300 55.05500 22.83100
N  36.37400 48.31900 23.32100
C  36.14100 49.27500 22.36200
C  36.59000 48.79800 20.95100
C  37.28200 47.44400 21.27900
C  37.08000 47.25300 22.76700
C  35.42100 48.61800 19.97000
C  38.74000 47.40700 20.81300
C  39.73800 48.25500 21.58500
N  36.94900 46.81700 25.66700
C  37.46100 45.90200 24.85800
C  37.83700 44.73000 25.56300
C  37.61300 45.00200 26.87900
C  37.07400 46.26900 26.91900
C  38.41400 43.47200 24.94400
C  37.70900 44.50600 28.22900
O  38.20000 43.42500 28.68900
C  37.15000 45.66500 29.18000
C  36.00800 45.14200 30.01400
O  34.88500 44.92600 29.62700
O  36.35100 44.87700 31.34700
C  35.24600 44.58800 32.24200
H  34.43700 52.01500 27.90000
H  35.79500 51.22500 21.78800
H  38.20000 45.48100 22.86600
H  35.29200 47.96700 30.41300
H  35.47500 50.83500 29.96100
H  33.37500 48.96400 30.35800
H  32.82000 50.07800 29.21600
H  33.48500 50.54800 30.82100
H  37.30500 50.01400 30.98800
H  38.05300 48.52100 30.42900
H  37.98100 48.77300 32.79400
H  37.16500 47.33500 32.23900
H  33.02800 53.81900 26.04600
H  34.23000 54.97900 25.42300
H  34.47100 54.08500 26.92600
H  33.86800 55.10600 23.10000
H  35.05200 55.61000 21.90200
H  35.48300 55.56700 23.61300
H  37.33200 49.51400 20.59900
H  36.70600 46.61500 20.86800
H  35.10300 49.61700 19.67300
H  34.63300 48.06000 20.47600
H  35.74600 48.10500 19.06600
H  38.73800 47.69500 19.76100
H  39.05900 46.36500 20.81400
H  40.70500 47.75200 21.59300
H  39.44800 48.51300 22.60400
H  39.89300 49.16700 21.00800
H  37.69000 42.82000 24.45300
H  39.03300 42.94700 25.67100
H  39.15800 43.78300 24.21000
H  37.83500 46.10900 29.90200
H  34.85200 43.57500 32.32100
H  34.34400 45.17500 32.06900
H  35.63900 44.84000 33.22700

