158

Mg 8.48100 47.46600 28.01000
C  6.95500 46.72900 30.99700
C  11.42300 47.72100 29.83100
C  9.86800 48.82000 25.28100
C  5.29400 47.71200 26.41200
N  9.05600 47.43500 30.22300
C  8.31300 46.93400 31.19900
C  8.99800 47.00800 32.57300
C  10.44900 47.52100 32.15700
C  10.30000 47.57300 30.64400
C  11.07000 48.78300 32.75200
C  8.85200 45.70200 33.41900
C  9.92800 45.51800 34.50000
H  9.80200 44.44100 35.59100
N  10.47100 48.06100 27.55600
C  11.49800 48.11800 28.46000
C  12.71500 48.29200 27.66600
C  12.31300 48.61400 26.34000
C  10.82100 48.54200 26.29600
C  14.15900 48.33400 28.26900
C  13.09900 48.94900 25.13300
O  12.50200 49.20700 24.05100
C  14.51900 48.94300 25.17800
N  7.74300 47.93700 26.05900
C  8.50900 48.66200 25.21900
C  7.65400 49.32200 24.10700
C  6.32500 48.49300 24.27400
C  6.43500 47.97400 25.61400
C  7.44600 50.86100 24.26900
C  5.99000 47.49300 23.20700
C  7.02000 46.38500 22.93400
N  6.58100 47.20900 28.51600
C  5.31300 47.33500 27.82400
C  4.21000 47.00300 28.70300
C  4.83700 46.79900 29.88700
C  6.23500 46.87900 29.73300
C  2.78700 47.13200 28.39600
C  4.54100 46.60100 31.30300
O  3.46200 46.52000 31.88200
C  5.85100 46.47900 32.07300
C  5.85900 45.11400 32.71800
O  6.25300 44.06700 32.27200
O  5.52000 45.37200 34.00300
C  5.54800 44.20500 34.84800
H  12.41200 47.63000 30.28500
H  10.14700 49.43400 24.42200
H  4.29600 47.68700 25.96800
H  8.38100 47.77400 33.04300
H  11.13800 46.73900 32.47500
H  12.01900 48.33900 33.05500
H  10.46900 49.07200 33.61400
H  11.29800 49.62900 32.10400
H  8.73400 44.83000 32.77700
H  7.92900 45.83600 33.98300
H  10.15100 46.49600 34.92700
H  10.81800 45.14000 33.99700
H  14.89600 49.07100 27.95000
H  14.62700 47.38800 27.99600
H  14.18100 48.38700 29.35700
H  14.98200 49.59200 25.92100
H  14.91700 49.18200 24.19200
H  14.82700 47.95100 25.50600
H  8.04600 49.16800 23.10100
H  5.46000 49.15200 24.35100
H  6.46500 51.17200 24.62900
H  7.68500 51.33300 23.31600
H  8.06800 51.33600 25.02700
H  5.89800 48.01300 22.25400
H  5.11000 46.91300 23.48500
H  7.39700 46.43900 21.91300
H  6.63000 45.37200 23.03500
H  7.83600 46.55100 23.63700
H  2.33600 47.84700 29.08400
H  2.26600 46.17500 28.42400
H  2.64400 47.42700 27.35600
H  5.90400 47.34000 32.74000
H  4.90900 44.39000 35.71100
H  6.55200 43.98400 35.20900
H  5.04900 43.31600 34.46200
Mg -9.89400 40.29700 42.37100
C  -8.95000 37.03000 41.49000
C  -6.70200 41.28900 41.39800
C  -10.98900 43.42100 42.28700
C  -13.12400 39.13100 43.18700
N  -8.13000 39.24300 41.32000
C  -7.94000 37.97000 41.15700
C  -6.48600 37.55500 40.68000
C  -5.80700 38.91200 41.05200
C  -6.89700 39.88600 41.31500
C  -4.71700 39.02100 42.16500
C  -6.51200 37.15000 39.17800
C  -5.63500 36.06600 38.73100
H  -4.81600 36.44400 37.44100
N  -8.96400 42.07000 41.90900
C  -7.69300 42.31900 41.55800
C  -7.44300 43.74500 41.44600
C  -8.68000 44.34000 41.61800
C  -9.61700 43.26200 42.01700
C  -6.16200 44.40800 40.94400
C  -8.85100 45.85700 41.50500
O  -7.90200 46.61000 41.20600
C  -10.22600 46.48000 41.61400
N  -11.87300 41.14400 42.40800
C  -12.01000 42.49200 42.57200
C  -13.34400 42.89700 43.14300
C  -13.96400 41.51900 43.55600
C  -12.94500 40.50100 42.98700
C  -13.21200 43.92300 44.27900
C  -15.41300 41.19700 43.15900
C  -16.29900 40.77200 44.38800
N  -10.88000 38.45200 42.46400
C  -12.16200 38.15400 42.78700
C  -12.37900 36.71000 42.65400
C  -11.08100 36.25500 42.32300
C  -10.23600 37.32300 42.12300
C  -13.70600 35.94400 42.79500
C  -10.42200 35.03800 41.95100
O  -10.78500 33.86300 41.84300
C  -9.00200 35.54400 41.37200
C  -7.88200 34.93400 42.17400
O  -7.83700 34.90900 43.43000
O  -6.96600 34.35500 41.29200
C  -5.92600 33.62600 41.92000
H  -5.67100 41.64500 41.34000
H  -11.26700 44.47700 42.30600
H  -14.01500 38.81400 43.73300
H  -6.16300 36.74400 41.33300
H  -5.26900 39.33100 40.20200
H  -3.71400 39.17800 41.76800
H  -4.70400 38.08300 42.72100
H  -4.85700 39.80100 42.91300
H  -6.36300 38.05500 38.58900
H  -7.54300 36.84300 38.99900
H  -6.06300 35.08500 38.52500
H  -4.89100 35.92600 39.51500
H  -6.32900 44.84800 39.96000
H  -5.39400 43.64200 40.84300
H  -5.78600 45.11400 41.68400
H  -10.55500 46.39600 42.65000
H  -10.90500 45.93700 40.95700
H  -10.24900 47.55500 41.43400
H  -13.86500 43.40600 42.33300
H  -13.74300 41.51400 44.62300
H  -12.14700 44.03100 44.48700
H  -13.69800 43.55100 45.18100
H  -13.55700 44.92200 44.01300
H  -15.36000 40.43900 42.37700
H  -15.85300 42.08500 42.70500
H  -16.63700 39.76700 44.13700
H  -17.16300 41.40200 44.60100
H  -15.62200 40.75700 45.24100
H  -13.58200 34.86100 42.81200
H  -14.38600 36.23800 41.99600
H  -14.21200 36.25700 43.70900
H  -8.89500 35.13800 40.36600
H  -5.88700 33.47200 42.99900
H  -5.00100 34.17400 41.74300
H  -5.79100 32.69400 41.37200

