158

Mg 47.05400 16.67300 28.43600
C  44.84700 16.48800 31.16800
C  49.45500 18.02300 30.48900
C  48.70300 17.46500 25.73600
C  44.13200 15.70800 26.41500
N  47.13100 17.30400 30.57300
C  46.13400 16.89700 31.48600
C  46.60000 17.18600 32.92200
C  47.97400 17.97500 32.65100
C  48.25500 17.72500 31.20400
C  48.01000 19.47900 33.17500
C  46.68800 15.95600 33.80700
C  46.12800 16.15700 35.25700
H  46.19300 17.55700 35.91700
N  48.86200 17.64200 28.12000
C  49.73900 18.09000 29.07200
C  50.94000 18.47400 28.44500
C  50.70200 18.33100 27.06400
C  49.37900 17.82300 26.87200
C  52.22300 18.87400 29.23300
C  51.63700 18.53100 25.89400
O  51.41500 18.45400 24.69900
C  53.10100 18.95500 26.12200
N  46.42200 16.69600 26.39500
C  47.39000 16.90000 25.48100
C  46.78000 16.78900 24.04700
C  45.33600 16.14600 24.31000
C  45.30000 16.17900 25.78100
C  46.67800 18.01800 23.22400
C  45.07800 14.79200 23.54400
C  43.78300 14.54400 22.82300
N  44.97900 16.13000 28.63500
C  43.95100 15.72300 27.78500
C  42.72900 15.52400 28.52000
C  42.98300 15.75500 29.87400
C  44.39400 16.13700 29.90200
C  41.37400 15.03300 28.02700
C  42.39500 15.76100 31.21400
O  41.31400 15.49300 31.67100
C  43.60500 16.26700 32.04000
C  43.24100 17.50900 32.78600
O  43.26500 18.63300 32.28800
O  42.83000 17.21000 34.01500
C  42.08700 18.17300 34.78900
H  50.26900 18.20900 31.19300
H  49.25400 17.53600 24.79500
H  43.35900 15.39100 25.71200
H  45.83700 17.83800 33.34700
H  48.69300 17.43700 33.26900
H  47.06200 19.70900 33.66100
H  48.34100 20.30100 32.54000
H  48.71600 19.42300 34.00300
H  47.70900 15.57900 33.87400
H  46.04100 15.22000 33.33000
H  46.62100 15.41500 35.88400
H  45.07200 16.00200 35.03400
H  52.71400 17.91100 29.09300
H  52.07800 19.00600 30.30500
H  52.71700 19.72800 28.76900
H  53.55200 18.38300 26.93300
H  53.06200 20.01200 26.38300
H  53.71200 18.88000 25.22200
H  47.42300 16.08200 23.52300
H  44.57500 16.84000 23.95400
H  45.70600 18.50000 23.32700
H  47.04800 17.78900 22.22500
H  47.33800 18.74600 23.69600
H  45.33800 13.96600 24.20600
H  45.78500 14.75600 22.71500
H  43.96000 14.51400 21.74800
H  42.98600 15.21900 23.13600
H  43.42200 13.53600 23.03000
H  41.22400 15.29600 26.98000
H  40.47000 15.28100 28.58400
H  41.45900 13.94600 28.04100
H  43.91700 15.51000 32.76000
H  41.01000 18.05200 34.67500
H  42.48800 19.08500 34.34700
H  42.38300 18.11700 35.83600
Mg 10.27400 48.78900 25.05900
C  8.24900 48.83000 27.84300
C  12.63600 50.29100 26.79900
C  12.27400 48.59000 22.26700
C  7.46600 48.01500 22.97000
N  10.39300 49.54000 27.09400
C  9.54100 49.28700 28.11300
C  10.11600 49.75700 29.42300
C  11.34900 50.56200 28.97800
C  11.48000 50.16500 27.50100
C  11.28900 52.11100 29.23100
C  10.31700 48.50500 30.43100
C  9.67600 48.58500 31.87400
H  10.37700 49.43500 32.93100
N  12.15600 49.43500 24.59200
C  12.98600 49.91200 25.53700
C  14.39900 49.85600 25.03400
C  14.35300 49.32600 23.72500
C  12.93700 49.15200 23.49300
C  15.54400 50.26000 25.95000
C  15.42000 49.01700 22.76500
O  15.16000 48.72000 21.60000
C  16.88200 49.11800 23.15500
N  9.87100 48.58100 22.86000
C  10.91500 48.39400 21.96500
C  10.40900 47.77900 20.63400
C  8.91000 47.40900 20.98800
C  8.68500 48.11400 22.33100
C  10.72700 48.61500 19.39800
C  8.65400 45.80900 21.06200
C  9.37100 45.03400 22.23300
N  8.23300 48.58600 25.26900
C  7.25500 48.20300 24.34800
C  5.99000 48.05400 25.10200
C  6.39100 48.32500 26.45700
C  7.72500 48.66600 26.53900
C  4.66600 47.64100 24.66200
C  5.82300 48.35800 27.81100
O  4.69700 48.15500 28.24000
C  7.10500 48.70000 28.80300
C  7.15800 47.51100 29.72800
O  7.38100 46.34300 29.40600
O  6.74000 47.81300 30.99800
C  6.62800 46.59700 31.87500
H  13.46600 50.62800 27.42400
H  12.97400 48.23900 21.50500
H  6.74500 47.50200 22.33000
H  9.31900 50.39500 29.80400
H  12.18500 50.09500 29.49700
H  10.25300 52.32500 29.49300
H  11.48400 52.60100 28.27700
H  11.96000 52.36600 30.05200
H  11.32400 48.48600 30.84900
H  10.22000 47.51900 29.97700
H  9.34700 47.60300 32.21400
H  8.84800 49.21900 31.55800
H  16.40200 49.59900 25.83200
H  15.39700 50.24100 27.03000
H  15.88100 51.27700 25.74700
H  17.05400 50.05000 23.69500
H  17.41400 48.94000 22.22100
H  17.09200 48.25300 23.78300
H  11.00100 46.86500 20.58500
H  8.25900 47.82000 20.21700
H  9.80000 48.82700 18.86600
H  11.40800 48.12000 18.70500
H  11.23000 49.50100 19.78400
H  9.08000 45.27800 20.21200
H  7.58100 45.64900 20.96000
H  8.56600 44.78800 22.92600
H  10.14200 45.62300 22.72900
H  9.86700 44.16000 21.81000
H  4.06000 47.20800 25.45800
H  4.93200 46.87800 23.93000
H  4.04100 48.40700 24.20300
H  7.02200 49.58100 29.44000
H  5.80800 45.96600 31.53400
H  6.38000 46.94700 32.87700
H  7.54500 46.02100 32.00100

