158

Mg 8.42200 3.63500 26.77200
C  9.86000 2.08900 29.70600
C  6.29800 5.30800 28.85500
C  7.16400 5.01600 24.16900
C  10.31800 1.32500 24.80800
N  8.08900 3.61700 29.03600
C  8.90400 3.04300 29.97000
C  8.54500 3.68100 31.35800
C  7.48900 4.72800 31.02200
C  7.28300 4.54200 29.54000
C  6.18100 4.72600 31.90400
C  9.78900 4.32800 32.12200
C  9.56300 4.76100 33.62900
H  10.53700 4.19400 34.74900
N  6.87100 4.86400 26.50300
C  6.14000 5.46500 27.47000
C  5.20400 6.41300 26.87000
C  5.47200 6.38700 25.47900
C  6.49600 5.40400 25.30500
C  4.17400 7.21900 27.68100
C  4.80500 7.16600 24.30600
O  5.18300 7.19300 23.13800
C  3.59100 8.11700 24.58500
N  8.62900 3.14500 24.74300
C  8.10800 4.04300 23.84400
C  8.77000 3.89100 22.49500
C  9.78300 2.68700 22.73800
C  9.60100 2.34700 24.21500
C  7.81900 3.57300 21.33400
C  11.21300 2.96400 22.28400
C  12.15100 3.74800 23.24100
N  9.66400 1.85700 27.09900
C  10.32000 1.01300 26.24200
C  11.20100 0.12900 26.94400
C  11.02200 0.49900 28.32700
C  10.12300 1.61800 28.39300
C  12.13000 -0.81300 26.34300
C  11.54400 0.32700 29.67200
O  12.39500 -0.41600 30.16100
C  10.82000 1.35400 30.61000
C  10.15900 0.56500 31.72900
O  9.21200 -0.18100 31.61300
O  10.90600 0.77000 32.85200
C  10.44000 0.38400 34.21600
H  5.77900 5.93900 29.57800
H  6.85100 5.57200 23.28300
H  11.00500 0.88300 24.08300
H  8.05600 2.92600 31.97300
H  7.92700 5.72100 31.12400
H  6.08500 5.71800 32.34400
H  6.28700 3.92400 32.63500
H  5.26300 4.60500 31.32800
H  9.95900 5.21700 31.51300
H  10.68300 3.70500 32.10200
H  8.51000 4.53400 33.79600
H  9.63800 5.84400 33.72400
H  4.54100 8.23600 27.81400
H  4.10500 6.82900 28.69700
H  3.20400 7.19400 27.18400
H  2.65300 7.60600 24.80500
H  3.46100 8.76600 23.71900
H  3.85200 8.72400 25.45200
H  9.21200 4.86000 22.26000
H  9.38900 1.80700 22.23100
H  6.78600 3.41900 21.64700
H  8.09400 2.66300 20.80200
H  7.83700 4.35500 20.57500
H  11.12800 3.56900 21.38100
H  11.72500 2.04600 21.99500
H  12.41100 4.66900 22.71900
H  13.05100 3.14200 23.35200
H  11.66600 4.03100 24.17500
H  12.88100 -1.09500 27.08100
H  12.50600 -0.31900 25.44700
H  11.53900 -1.67800 26.04200
H  11.58500 1.97600 31.07500
H  10.26600 1.21900 34.89600
H  11.27100 -0.24900 34.52600
H  9.51400 -0.19100 34.20000
Mg 49.32100 35.21000 26.20300
C  47.65500 34.13200 29.08900
C  49.91300 38.13800 27.62200
C  50.78200 36.05100 23.38300
C  48.31000 32.01800 24.63500
N  48.97200 35.98600 28.19900
C  48.22400 35.39800 29.20300
C  47.98800 36.41400 30.34300
C  48.54500 37.77600 29.74800
C  49.24200 37.24300 28.43700
C  47.46000 38.81600 29.47800
C  48.82200 36.03600 31.69200
C  48.03000 35.84800 33.01500
H  47.85700 36.96500 34.05300
N  50.22600 36.84900 25.54600
C  50.33900 38.00100 26.28100
C  51.21200 38.90800 25.52800
C  51.55800 38.35400 24.29000
C  50.88600 36.99800 24.36100
C  51.62500 40.32300 26.02200
C  52.32800 38.86700 23.11800
O  52.66300 38.20700 22.08200
C  52.92200 40.26000 23.16200
N  49.42800 34.17800 24.35300
C  50.13200 34.84200 23.33700
C  50.22200 33.89100 22.16600
C  49.60400 32.53800 22.54200
C  49.11800 32.93800 23.95900
C  49.61700 34.56100 20.82300
C  50.60200 31.32500 22.51000
C  50.20400 30.15700 21.56300
N  48.20500 33.46200 26.72200
C  47.93000 32.24900 25.98200
C  47.09800 31.40000 26.81000
C  46.98800 32.06900 28.05500
C  47.69600 33.29400 27.97400
C  46.53300 30.09000 26.42400
C  46.46600 31.97700 29.31100
O  45.86800 31.07500 29.78400
C  46.60900 33.38400 29.94600
C  46.99600 33.09500 31.34900
O  48.11400 32.83900 31.74300
O  45.86200 33.18400 32.09900
C  45.96900 32.83300 33.51200
H  50.11100 39.12900 28.03500
H  51.42500 36.15500 22.50600
H  48.12100 30.97900 24.36000
H  46.92200 36.52200 30.54500
H  49.20700 38.25500 30.46900
H  47.31300 38.94800 28.40700
H  47.69400 39.73000 30.02500
H  46.47700 38.59300 29.89100
H  49.41000 36.93000 31.90500
H  49.40300 35.13500 31.49900
H  48.45500 35.02000 33.58300
H  47.02300 35.64000 32.65200
H  51.06100 40.98300 25.36200
H  52.67200 40.60600 26.12900
H  51.27300 40.54400 27.02900
H  53.57200 40.42300 22.30200
H  53.43800 40.58200 24.06600
H  52.05700 40.88700 22.94400
H  51.30200 33.84500 22.03000
H  48.76600 32.32200 21.88000
H  48.71900 34.15300 20.36000
H  50.35200 34.54300 20.01800
H  49.53200 35.61600 21.08100
H  50.64800 30.83100 23.48100
H  51.57300 31.66500 22.15000
H  49.67300 30.66000 20.75500
H  49.63200 29.34100 22.00400
H  51.17800 29.83400 21.19600
H  45.92600 30.27600 25.53800
H  45.98900 29.64000 27.25400
H  47.32900 29.37200 26.22600
H  45.67300 33.94200 29.94900
H  46.75000 32.09300 33.68900
H  45.00900 32.45600 33.86500
H  46.15600 33.71000 34.13100

