158

Mg -12.38800 39.29800 42.83300
C  -10.90900 36.36600 41.62000
C  -10.12700 41.13500 41.04400
C  -14.08400 41.98900 43.71500
C  -15.19300 37.32200 43.66500
N  -10.69600 38.82100 41.57800
C  -10.29400 37.54900 41.24900
C  -9.04900 37.57700 40.44300
C  -8.78500 39.12300 40.28300
C  -9.95400 39.71800 40.94700
C  -7.39000 39.50000 40.67600
C  -9.21600 36.86400 39.05400
C  -8.14600 35.75000 38.83800
H  -7.02800 36.12500 37.93100
N  -12.11600 41.28600 42.49600
C  -11.15900 41.86700 41.68800
C  -11.26900 43.28200 41.75100
C  -12.43600 43.58900 42.43800
C  -12.94800 42.29100 42.99500
C  -10.24300 44.21500 41.06700
C  -12.95500 44.96400 42.64100
O  -12.38900 45.94700 42.06600
C  -14.13800 45.27000 43.59600
N  -14.37300 39.53400 43.54800
C  -14.72600 40.80400 44.07000
C  -16.10600 40.82200 44.67800
C  -16.51500 39.31500 44.68300
C  -15.36100 38.69100 43.87500
C  -16.23900 41.58900 46.01100
C  -17.91500 39.00700 44.11600
C  -18.79200 38.02900 44.90400
N  -12.94900 37.27200 42.71700
C  -14.14300 36.65600 43.14700
C  -14.04600 35.26000 42.85300
C  -12.72400 35.03700 42.31400
C  -12.14400 36.34100 42.27400
C  -15.09600 34.23600 43.17300
C  -11.78100 34.06100 41.78800
O  -11.95600 32.85600 41.84400
C  -10.52900 34.88300 41.34600
C  -9.30100 34.35500 42.01200
O  -8.89500 34.66400 43.11900
O  -8.71700 33.44800 41.15500
C  -7.64100 32.66400 41.65600
H  -9.42000 41.74000 40.47300
H  -14.59900 42.89900 44.02800
H  -16.11000 36.83600 44.00600
H  -8.24000 37.11000 41.00500
H  -8.86100 39.37400 39.22500
H  -7.46300 40.52600 41.03900
H  -6.67000 39.57200 39.86100
H  -6.92600 38.84200 41.41100
H  -9.01100 37.56500 38.24500
H  -10.16900 36.37500 38.85100
H  -8.60600 34.79700 38.57500
H  -7.66700 35.49700 39.78400
H  -10.78200 44.64600 40.22200
H  -9.29300 43.82000 40.70800
H  -10.17500 45.12400 41.66400
H  -15.12300 44.94200 43.26200
H  -14.17300 46.35900 43.56300
H  -13.83900 45.02100 44.61400
H  -16.78300 41.34000 43.99900
H  -16.43400 38.89900 45.68700
H  -15.28100 42.01700 46.30500
H  -16.61900 40.96900 46.82300
H  -17.09000 42.26400 46.10200
H  -17.90900 38.46000 43.17300
H  -18.45900 39.94900 44.05700
H  -19.35100 37.20300 44.46700
H  -19.52600 38.67900 45.38000
H  -18.18900 37.62400 45.71700
H  -15.66000 34.08400 42.25300
H  -15.70300 34.62400 43.99000
H  -14.58300 33.32700 43.48900
H  -10.40500 34.81500 40.26500
H  -7.89900 32.14500 42.57900
H  -6.77700 33.31000 41.81100
H  -7.46500 31.91600 40.88300
Mg -11.24100 16.41000 41.98000
C  -7.89800 15.01900 41.96900
C  -9.88200 19.29900 40.68800
C  -14.38300 17.46600 41.53500
C  -12.34100 13.28400 42.89200
N  -9.13400 16.97700 41.44200
C  -7.92300 16.36100 41.51700
C  -6.76700 17.17900 41.03700
C  -7.43200 18.53700 40.89400
C  -8.91000 18.25000 40.99500
C  -6.88400 19.61600 41.81600
C  -6.25600 16.56600 39.64300
C  -4.83400 16.77000 39.35000
H  -4.19700 15.80400 38.32100
N  -12.00400 18.11500 41.20500
C  -11.31700 19.23800 40.75700
C  -12.32500 20.20700 40.33700
C  -13.67400 19.71400 40.61600
C  -13.39000 18.31600 41.10100
C  -11.87400 21.58200 39.72900
C  -14.95800 20.54800 40.38300
O  -14.91700 21.69900 39.96100
C  -16.36300 19.93800 40.62000
N  -13.11800 15.40100 41.93400
C  -14.27500 16.10800 41.85500
C  -15.48700 15.20000 42.13600
C  -14.85800 13.94300 42.81600
C  -13.39500 14.17900 42.52300
C  -16.72400 15.81300 42.92000
C  -15.45800 12.58000 42.25100
C  -16.10200 11.68300 43.40800
N  -10.35400 14.59700 42.49100
C  -10.91800 13.40700 42.83000
C  -9.92000 12.38300 43.12900
C  -8.66600 12.98400 42.79800
C  -9.03100 14.29200 42.35400
C  -10.18500 11.00000 43.47600
C  -7.24300 12.80600 42.79700
O  -6.55700 11.79100 43.03900
C  -6.66400 14.07000 42.22400
C  -5.92800 14.55300 43.40400
O  -6.43500 14.78200 44.44300
O  -4.57300 14.57700 43.14400
C  -3.81500 15.29500 44.27500
H  -9.55500 20.24200 40.24700
H  -15.36500 17.93300 41.44100
H  -12.58800 12.29000 43.27200
H  -6.04100 17.17100 41.85000
H  -7.22400 18.93200 39.90000
H  -7.66700 20.23600 42.25200
H  -6.12800 20.26700 41.37700
H  -6.23200 19.23200 42.60100
H  -6.84200 16.95500 38.81000
H  -6.40400 15.49100 39.75000
H  -4.23100 16.68900 40.25400
H  -4.62000 17.78300 39.01100
H  -12.57500 21.85900 38.94200
H  -10.92600 21.44200 39.20900
H  -11.83800 22.34400 40.50800
H  -17.11300 20.69300 40.38600
H  -16.48000 19.62500 41.65800
H  -16.37200 19.19600 39.82200
H  -15.78500 14.89100 41.13400
H  -14.83300 13.98700 43.90500
H  -16.96500 15.44000 43.91600
H  -17.60700 15.91600 42.29000
H  -16.54300 16.87700 43.07300
H  -14.68100 12.03400 41.71700
H  -16.10700 12.79300 41.40200
H  -17.14200 11.56500 43.10400
H  -16.02100 12.13000 44.39900
H  -15.50400 10.77500 43.48100
H  -9.28100 10.39100 43.48500
H  -10.88800 10.58400 42.75300
H  -10.56700 10.93100 44.49400
H  -6.03000 14.01700 41.33900
H  -3.21300 14.51100 44.73400
H  -4.36100 15.77000 45.09100
H  -3.22200 16.06500 43.78000

