158

Mg 24.00900 -4.83300 46.50500
C  26.22700 -2.54100 45.07800
C  21.63700 -3.69900 44.37500
C  22.29700 -7.59700 47.28800
C  26.93100 -6.21000 48.11100
N  23.98700 -3.29900 44.83500
C  24.96600 -2.44700 44.44300
C  24.49900 -1.61000 43.23600
C  22.91000 -1.75900 43.40400
C  22.80500 -2.96100 44.33800
C  22.14100 -0.54300 43.92000
C  25.09100 -2.12600 41.85800
C  26.15100 -1.23900 41.10300
H  26.05000 -1.43800 39.63200
N  22.12500 -5.50100 45.99700
C  21.33700 -4.92500 45.03200
C  20.15000 -5.70500 44.94400
C  20.25900 -6.86600 45.81800
C  21.59600 -6.74600 46.47800
C  18.98000 -5.36800 44.03400
C  19.26400 -7.98900 45.92700
O  18.15800 -7.93500 45.36500
C  19.65500 -9.34300 46.55900
N  24.61200 -6.55400 47.54400
C  23.66900 -7.53500 47.80100
C  24.16900 -8.76600 48.62100
C  25.66000 -8.36400 48.78500
C  25.77200 -6.94900 48.08200
C  23.38600 -9.08600 49.95100
C  26.52900 -9.47000 48.18700
C  27.69100 -9.83900 49.11200
N  26.18600 -4.36200 46.77500
C  27.13200 -4.90600 47.53100
C  28.40800 -4.22000 47.38800
C  28.08100 -3.22500 46.46200
C  26.71200 -3.36200 46.13700
C  29.74800 -4.42900 48.05300
C  28.62200 -2.16500 45.69600
O  29.72500 -1.71900 45.58500
C  27.53900 -1.69000 44.71200
C  27.44300 -0.24000 44.83100
O  26.96300 0.37800 45.75500
O  28.02900 0.36700 43.79500
C  28.04400 1.86400 43.94500
H  20.96600 -3.24700 43.64100
H  21.66900 -8.39200 47.69700
H  27.80000 -6.55800 48.67400
H  24.73100 -0.54600 43.27200
H  22.46400 -2.05800 42.45600
H  22.72200 0.24900 44.39200
H  21.38400 -0.89800 44.61900
H  21.61900 -0.00200 43.13100
H  24.33400 -2.33400 41.10300
H  25.52200 -3.10600 42.06100
H  27.17100 -1.48200 41.40300
H  26.06800 -0.21800 41.47700
H  19.12800 -4.43100 43.49600
H  18.05900 -5.30500 44.61400
H  18.80200 -6.20700 43.36200
H  20.65900 -9.52500 46.17400
H  19.01100 -10.14800 46.20700
H  19.67700 -9.23300 47.64300
H  24.09600 -9.65700 47.99800
H  25.73900 -8.04400 49.82400
H  23.08000 -10.12900 50.03300
H  22.49900 -8.45300 49.92500
H  24.07700 -8.84400 50.75900
H  26.96900 -9.12200 47.25200
H  25.89200 -10.31200 47.91700
H  27.46900 -9.35300 50.06200
H  28.60700 -9.48200 48.63900
H  27.84600 -10.90000 49.30700
H  30.10600 -5.41300 47.75200
H  29.82400 -4.20500 49.11700
H  30.43100 -3.85400 47.42800
H  27.80900 -1.96600 43.69200
H  28.35300 2.31000 43.00000
H  28.86700 2.27500 44.53000
H  27.06600 2.28400 44.18300
Mg -5.77400 26.08100 25.62900
C  -4.31000 26.95200 28.65200
C  -7.70400 23.80900 27.30600
C  -6.90600 24.68600 22.58500
C  -3.30500 27.71600 23.87400
N  -6.07000 25.51200 27.66800
C  -5.36400 26.05800 28.79700
C  -5.85400 25.48900 30.14300
C  -6.81800 24.21700 29.63000
C  -6.87100 24.56100 28.12300
C  -6.30800 22.76600 30.07000
C  -6.58500 26.55100 31.06200
C  -6.14300 26.48300 32.49600
H  -5.58500 25.16700 33.01400
N  -7.11800 24.53000 25.02800
C  -7.88800 23.74700 25.92300
C  -8.85100 22.86100 25.17100
C  -8.70500 23.26700 23.79000
C  -7.51500 24.23100 23.73900
C  -9.77600 21.88700 25.87900
C  -9.38800 22.69100 22.55700
O  -9.19500 23.12300 21.44600
C  -10.34700 21.54800 22.79000
N  -5.21600 26.23400 23.59000
C  -5.78200 25.63100 22.52700
C  -5.11900 26.01200 21.15200
C  -4.08500 27.06300 21.65000
C  -4.19600 27.00900 23.12400
C  -4.51300 24.75500 20.42900
C  -4.33800 28.50800 21.16400
C  -4.59200 28.79600 19.64400
N  -4.27200 27.24300 26.13500
C  -3.36700 27.89900 25.27500
C  -2.52400 28.67900 26.19700
C  -2.79200 28.35700 27.48200
C  -3.90800 27.50500 27.43100
C  -1.48100 29.65000 25.76900
C  -2.33100 28.48300 28.91400
O  -1.40200 29.16100 29.41700
C  -3.40900 27.57800 29.76300
C  -2.61800 26.54200 30.56600
O  -2.27100 25.46400 30.07900
O  -2.34300 26.95700 31.81900
C  -1.44400 26.27000 32.72200
H  -8.38100 23.16300 27.86900
H  -7.13600 24.26000 21.60600
H  -2.42900 28.18900 23.42400
H  -4.90900 25.15100 30.56900
H  -7.83700 24.39200 29.97600
H  -7.00500 22.22500 30.71000
H  -5.40600 22.87600 30.67100
H  -5.85200 22.25800 29.22000
H  -7.66000 26.46100 30.90600
H  -6.43300 27.58300 30.74600
H  -6.92600 26.78600 33.19100
H  -5.34300 27.17900 32.75000
H  -9.62900 20.90200 25.43700
H  -10.82400 22.17200 25.79800
H  -9.43900 21.70500 26.89900
H  -11.20700 21.73600 23.43200
H  -9.88000 20.61300 23.09700
H  -10.70200 21.43400 21.76500
H  -5.94400 26.36600 20.53400
H  -3.11700 26.64100 21.38100
H  -4.92800 24.71800 19.42200
H  -4.76000 23.79000 20.87300
H  -3.44900 24.94500 20.28400
H  -3.43400 29.09100 21.33900
H  -5.05700 29.05900 21.77100
H  -5.58500 29.23900 19.56900
H  -4.50900 27.92300 18.99700
H  -3.87200 29.55200 19.33000
H  -1.75300 30.19700 24.86700
H  -0.51900 29.17100 25.58100
H  -1.26400 30.35900 26.56900
H  -4.03400 28.19700 30.40700
H  -1.38100 25.20000 32.52800
H  -1.92100 26.35500 33.69900
H  -0.42600 26.64900 32.63100

