158

Mg 43.85100 4.21000 47.57900
C  41.52400 6.93100 47.25200
C  41.26200 2.08000 47.26800
C  45.94700 1.64600 47.55100
C  46.44500 6.53900 47.49900
N  41.60800 4.46800 47.36100
C  40.91400 5.64900 47.16800
C  39.45800 5.34000 47.21300
C  39.36900 3.82800 47.51300
C  40.86500 3.39800 47.50700
C  38.67600 3.49200 48.90000
C  38.51900 5.94700 46.04000
C  38.68900 5.34600 44.64500
H  39.51300 6.15600 43.63400
N  43.55400 2.07700 47.20500
C  42.46900 1.37800 47.14000
C  42.68000 -0.04300 46.85900
C  44.15600 -0.13900 46.83200
C  44.64600 1.24800 47.12200
C  41.77900 -1.06800 46.54300
C  44.91700 -1.39400 46.61000
O  44.29800 -2.38600 46.38200
C  46.39000 -1.55900 46.57000
N  45.92200 4.11200 47.36000
C  46.56800 2.93200 47.66600
C  48.05800 3.16400 47.93600
C  48.18400 4.69900 47.82700
C  46.78300 5.15700 47.42800
C  48.58200 2.48400 49.25600
C  49.34100 5.24800 46.86200
C  50.68300 5.63900 47.57300
N  43.97800 6.34100 47.36300
C  45.15500 7.11400 47.46000
C  44.67700 8.50500 47.55100
C  43.23900 8.44600 47.56700
C  42.87600 7.16300 47.34600
C  45.50900 9.73300 47.57900
C  42.07600 9.31200 47.63300
O  41.92500 10.49000 47.81300
C  40.88300 8.26200 47.35800
C  39.96700 8.41200 48.56100
O  40.07600 7.77700 49.56000
O  38.99900 9.40200 48.27500
C  37.87800 9.51600 49.20300
H  40.33300 1.51300 47.35300
H  46.58300 0.80400 47.83400
H  47.26200 7.23400 47.70600
H  39.09300 5.75500 48.15300
H  38.85600 3.27700 46.72500
H  39.47600 3.22500 49.59100
H  38.07900 2.60700 48.68100
H  38.00300 4.25000 49.29900
H  38.80900 6.99700 46.07800
H  37.47800 5.90200 46.36100
H  37.68600 5.25800 44.22700
H  39.12700 4.35100 44.73300
H  41.79400 -1.07500 45.45300
H  40.77900 -0.78400 46.87000
H  42.01400 -2.02400 47.00900
H  46.85100 -1.13900 47.46300
H  46.72900 -1.04500 45.67100
H  46.72600 -2.59600 46.57900
H  48.63600 2.71600 47.12700
H  48.35800 5.16800 48.79600
H  49.57600 2.08100 49.06000
H  47.80700 1.89100 49.74300
H  48.92100 3.23600 49.96800
H  48.89500 6.09100 46.33500
H  49.45000 4.44700 46.13200
H  50.52400 6.61000 48.04300
H  51.45800 5.73300 46.81200
H  50.97100 4.86700 48.28600
H  46.50600 9.50200 47.20300
H  45.68700 10.12600 48.58000
H  44.98900 10.52800 47.04400
H  40.30200 8.50400 46.46800
H  37.18300 10.30800 48.92600
H  38.21100 9.78600 50.20500
H  37.22400 8.65000 49.09900
Mg -5.79200 25.26100 26.71800
C  -3.84200 26.60800 29.23500
C  -7.30000 23.15400 29.01800
C  -7.20000 23.59900 24.17200
C  -3.86300 27.20800 24.34600
N  -5.34900 24.73400 28.78600
C  -4.67600 25.56800 29.64700
C  -5.05300 25.25700 31.11900
C  -5.90300 23.95300 30.99200
C  -6.25100 23.93000 29.49000
C  -5.22200 22.62600 31.42900
C  -5.83600 26.39100 31.76600
C  -5.83200 26.55400 33.31600
H  -5.81800 25.32700 34.19500
N  -7.07900 23.63500 26.59800
C  -7.70500 22.95300 27.66600
C  -8.68500 21.97300 27.08800
C  -8.70700 22.23300 25.65600
C  -7.65700 23.21300 25.44300
C  -9.50400 21.06100 27.87800
C  -9.57200 21.50300 24.53100
O  -9.51300 21.81200 23.35600
C  -10.46100 20.36200 24.83600
N  -5.52500 25.43500 24.62300
C  -6.22900 24.62700 23.75500
C  -5.73500 24.76500 22.27800
C  -4.78900 25.93200 22.37600
C  -4.75200 26.25100 23.87000
C  -5.18400 23.48900 21.53800
C  -5.14000 27.22900 21.50700
C  -4.38500 27.29500 20.14100
N  -4.14800 26.73400 26.75000
C  -3.52900 27.46900 25.75300
C  -2.55800 28.34300 26.39100
C  -2.62100 28.05100 27.78900
C  -3.59900 27.07800 27.91200
C  -1.63100 29.37400 25.67600
C  -2.13000 28.24300 29.14500
O  -1.20100 28.96600 29.55300
C  -3.03100 27.44300 30.12000
C  -2.15600 26.60100 30.94800
O  -1.58500 25.54400 30.66600
O  -1.97200 27.18300 32.17000
C  -1.13700 26.42800 33.06100
H  -7.91000 22.52100 29.66600
H  -7.56400 22.94100 23.38000
H  -3.21000 27.74200 23.65200
H  -4.10500 25.16200 31.64900
H  -6.85800 24.06200 31.50800
H  -5.01600 22.08600 30.50500
H  -5.99700 22.06400 31.95100
H  -4.37400 22.77500 32.09700
H  -6.89500 26.24100 31.55500
H  -5.49700 27.26900 31.21500
H  -6.69500 27.18200 33.54000
H  -4.97300 27.18900 33.53500
H  -10.56500 21.03600 27.63100
H  -9.50600 21.19600 28.95900
H  -8.99200 20.09800 27.85100
H  -9.77800 19.63700 25.27900
H  -10.83300 20.00800 23.87500
H  -11.36000 20.61400 25.39800
H  -6.68100 24.99000 21.78600
H  -3.81300 25.53700 22.09600
H  -4.81800 22.86500 22.35400
H  -4.27300 23.70200 20.97800
H  -5.83000 23.09100 20.75600
H  -4.90500 28.14900 22.04100
H  -6.18800 27.28300 21.21000
H  -3.64800 26.50000 20.25800
H  -3.83900 28.23800 20.09500
H  -5.02600 27.08500 19.28500
H  -2.16900 29.83200 24.84600
H  -0.73500 28.85500 25.33500
H  -1.43900 30.23300 26.31800
H  -3.65900 28.13700 30.67800
H  -1.27300 26.92000 34.02400
H  -0.05700 26.53400 32.95200
H  -1.25900 25.34500 33.06500

