158

Mg 43.28100 3.92200 46.75200
C  41.17600 6.68400 46.37600
C  40.57700 1.88000 46.71400
C  45.39900 1.28200 46.23800
C  46.00900 6.02600 46.42000
N  41.06600 4.26300 46.31300
C  40.40800 5.46200 46.41600
C  38.91200 5.32100 46.63600
C  38.80900 3.79200 46.83900
C  40.26700 3.26500 46.61900
C  38.15500 3.40900 48.23500
C  38.06700 5.97200 45.49700
C  38.51500 5.59800 44.09600
H  39.53200 6.56900 43.40000
N  43.01700 1.88300 46.56300
C  41.81600 1.23200 46.62300
C  41.97600 -0.18100 46.44200
C  43.38400 -0.44700 46.43000
C  44.02000 0.93500 46.41100
C  40.73600 -1.16900 46.53500
C  44.00600 -1.79100 46.41600
O  43.27800 -2.75800 46.41800
C  45.55700 -1.92300 46.34800
N  45.46500 3.67300 46.40400
C  46.07700 2.53400 46.28400
C  47.60800 2.67700 46.15700
C  47.81600 4.19600 46.30100
C  46.37300 4.68700 46.41900
C  48.39500 1.67200 46.99600
C  48.54800 4.87000 45.15400
C  49.60200 4.15900 44.30500
N  43.61000 5.88500 46.39700
C  44.74100 6.63500 46.40300
C  44.42500 8.02100 46.50600
C  43.03400 8.09300 46.45000
C  42.55600 6.74200 46.25900
C  45.40300 9.14400 46.53200
C  41.91300 8.97200 46.58900
O  41.75700 10.14800 46.88600
C  40.62300 8.11300 46.38900
C  39.74000 8.32200 47.50700
O  39.94100 7.85300 48.65200
O  38.73200 9.16600 47.15000
C  37.89200 9.64400 48.29800
H  39.69200 1.24000 46.71900
H  46.16300 0.53100 46.02700
H  46.87000 6.69600 46.37400
H  38.70900 5.87600 47.55200
H  38.19600 3.40100 46.02600
H  37.83500 4.30700 48.76300
H  38.86700 2.83100 48.82400
H  37.24800 2.80900 48.15800
H  37.87700 7.03500 45.64500
H  37.04900 5.59000 45.57500
H  37.67500 5.43700 43.42000
H  38.98600 4.61500 44.09800
H  40.51400 -1.52600 45.52900
H  39.79800 -0.73700 46.88600
H  40.85200 -1.99100 47.24200
H  46.08100 -1.33200 47.09900
H  46.02000 -1.55300 45.43300
H  45.91200 -2.93900 46.51800
H  47.62100 2.54900 45.07500
H  48.40800 4.40400 47.19200
H  48.51400 0.73200 46.45700
H  47.89200 1.47300 47.94200
H  49.36600 2.15200 47.11900
H  49.15700 5.67700 45.56100
H  47.89600 5.32900 44.41100
H  49.29800 4.26800 43.26300
H  49.61000 3.07700 44.44300
H  50.55400 4.65900 44.47800
H  44.93900 9.92200 45.92600
H  46.41000 8.89600 46.19600
H  45.46200 9.43700 47.58000
H  40.29700 8.39800 45.38800
H  38.44700 10.13300 49.09900
H  37.24900 8.81500 48.59500
H  37.37900 10.47500 47.81600
Mg 30.16100 57.98300 40.62000
C  27.31600 56.17800 39.75500
C  32.05600 55.17600 39.98600
C  33.02400 59.98500 40.73900
C  28.20800 60.83800 40.86000
N  29.77600 55.98300 39.85900
C  28.48700 55.46600 39.73800
C  28.55300 53.97800 39.36200
C  30.00400 53.59800 39.82600
C  30.70100 55.02400 39.90300
C  30.10000 52.72500 41.09500
C  28.17100 53.65000 37.88800
C  28.51300 54.73300 36.79400
H  28.39400 54.46100 35.20900
N  32.33700 57.60500 40.38500
C  32.88500 56.36000 40.07500
C  34.30000 56.52800 39.88400
C  34.59400 57.90800 40.17900
C  33.29200 58.58100 40.46800
C  35.19700 55.37600 39.60100
C  35.94700 58.59900 40.09400
O  36.83700 57.89800 39.62900
C  36.18100 60.08300 40.28700
N  30.60000 60.16600 40.69800
C  31.84400 60.72000 40.91800
C  31.73300 62.16600 41.33500
C  30.19900 62.33200 41.48000
C  29.56300 61.09800 40.90200
C  32.58600 62.72300 42.47900
C  29.54400 63.59500 40.79200
C  28.77500 64.62100 41.62400
N  28.18100 58.52100 40.39600
C  27.46100 59.68200 40.60900
C  26.07000 59.39800 40.39900
C  25.97800 58.03200 40.04400
C  27.25600 57.59400 40.07500
C  24.88500 60.28000 40.52500
C  25.04500 56.94100 39.64300
O  23.82500 57.00300 39.48300
C  25.91000 55.63200 39.46500
C  25.25600 54.61300 40.42500
O  25.09200 54.77500 41.63800
O  24.96500 53.52100 39.76300
C  24.72400 52.35900 40.60600
H  32.54800 54.20300 40.04000
H  33.93900 60.50200 41.03600
H  27.55000 61.68000 41.08700
H  27.82200 53.43100 39.95700
H  30.40600 52.84900 39.14300
H  30.78600 51.89300 40.93700
H  29.12400 52.44300 41.48800
H  30.46600 53.38400 41.88200
H  27.10600 53.46900 37.74700
H  28.64500 52.70100 37.63700
H  29.54300 55.02300 37.00000
H  27.95600 55.64100 37.02200
H  35.78700 55.35400 38.68500
H  34.55600 54.49900 39.50700
H  35.81400 55.09700 40.45500
H  36.07700 60.34700 41.33900
H  35.39200 60.52200 39.67700
H  37.12900 60.44500 39.88800
H  32.01700 62.67700 40.41500
H  29.97700 62.30200 42.54700
H  33.52100 62.17900 42.61900
H  31.98300 62.54300 43.36800
H  32.91900 63.73100 42.23300
H  28.84300 63.25200 40.03100
H  30.28600 64.02700 40.12100
H  27.88500 64.92500 41.07200
H  29.44900 65.44000 41.87600
H  28.45800 64.08000 42.51500
H  25.20600 61.31000 40.36900
H  24.54400 60.20500 41.55800
H  24.09700 59.96900 39.84000
H  25.74800 55.32000 38.43300
H  25.11500 51.47400 40.10400
H  23.64000 52.30600 40.50900
H  25.11600 52.35800 41.62300

