158

Mg -8.78700 40.30200 43.07100
C  -8.03300 37.00700 41.79900
C  -5.83300 41.39300 41.62000
C  -9.86500 43.53600 43.51600
C  -11.75800 39.14400 44.30500
N  -7.21800 39.29600 41.69700
C  -7.11200 37.99100 41.37600
C  -5.75100 37.69200 40.71700
C  -5.02700 39.04700 40.89200
C  -6.09000 40.02100 41.40500
C  -3.78400 39.04800 41.81900
C  -5.81700 37.25700 39.16300
C  -5.18600 35.93600 38.80900
H  -3.98700 36.21100 37.85700
N  -7.97500 42.20200 42.69600
C  -6.69200 42.43500 42.06400
C  -6.48800 43.90800 42.03500
C  -7.60700 44.53800 42.60800
C  -8.59200 43.44300 42.94900
C  -5.20800 44.62700 41.46000
C  -7.83000 45.96200 42.76800
O  -7.00900 46.72600 42.21700
C  -8.90700 46.63400 43.62700
N  -10.57400 41.24800 43.70000
C  -10.73000 42.54100 43.92500
C  -12.02200 42.78100 44.60200
C  -12.74800 41.38200 44.77200
C  -11.61800 40.52400 44.27400
C  -11.88700 43.50900 45.99200
C  -14.14400 41.20200 44.07100
C  -15.22200 40.90700 45.08900
N  -9.68300 38.49200 43.15000
C  -10.88400 38.14800 43.80200
C  -11.12100 36.69800 43.72700
C  -10.00600 36.22500 42.98000
C  -9.22900 37.35700 42.57400
C  -12.27200 35.92600 44.19000
C  -9.49800 35.05100 42.34400
O  -9.82800 33.88000 42.54800
C  -8.19500 35.46200 41.61800
C  -7.03100 34.69700 42.06100
O  -6.46400 34.79800 43.12900
O  -6.84700 33.76400 41.08400
C  -5.61300 32.93800 41.31800
H  -4.83600 41.72600 41.32500
H  -10.20100 44.54300 43.77000
H  -12.66300 38.80100 44.81100
H  -5.26100 36.90300 41.28700
H  -4.69900 39.35700 39.89900
H  -4.08800 39.40400 42.80300
H  -3.01500 39.74800 41.49400
H  -3.48800 38.00000 41.85500
H  -5.33900 38.06000 38.60200
H  -6.88400 37.20400 38.94500
H  -5.86100 35.22500 38.33200
H  -4.71100 35.49900 39.68700
H  -5.42100 45.06400 40.48400
H  -4.40400 43.89100 41.44100
H  -4.80300 45.40100 42.11200
H  -8.65300 47.69100 43.69600
H  -9.08100 46.13900 44.58300
H  -9.85600 46.56300 43.09500
H  -12.64400 43.45900 44.01700
H  -12.77100 41.05900 45.81300
H  -10.84300 43.72300 46.21700
H  -12.20900 42.84500 46.79500
H  -12.39300 44.47400 46.01900
H  -14.21800 40.51400 43.22900
H  -14.40800 42.14200 43.58700
H  -15.47900 41.67600 45.81800
H  -14.86600 40.04300 45.65000
H  -16.15700 40.52600 44.67600
H  -13.16300 36.55500 44.20700
H  -12.11700 35.32800 45.08800
H  -12.33600 35.18400 43.39400
H  -8.37000 35.25200 40.56300
H  -4.80100 33.66500 41.33400
H  -5.40700 32.46000 40.36000
H  -5.64400 32.33200 42.22300
Mg -0.91700 33.52400 26.67100
C  -2.48500 31.97900 29.52200
C  0.68900 35.45300 28.80500
C  -0.14100 35.31500 24.03500
C  -2.78800 31.31900 24.63000
N  -0.96700 33.65100 28.95100
C  -1.57400 32.97400 29.91500
C  -1.08200 33.18500 31.30100
C  -0.06800 34.40000 31.12100
C  -0.05300 34.57000 29.53000
C  -0.30000 35.71600 31.98900
C  -0.43700 31.93800 31.98200
C  -1.06100 31.55700 33.38100
H  -0.26000 32.09100 34.66500
N  0.12400 35.21400 26.50800
C  0.76700 35.85800 27.46300
C  1.53500 36.92500 26.91500
C  1.23300 36.91700 25.53600
C  0.37100 35.75400 25.31300
C  2.37600 37.83900 27.77000
C  1.71400 37.80000 24.43300
O  1.36400 37.73000 23.24600
C  2.66000 38.84600 24.84400
N  -1.65800 33.49800 24.55800
C  -0.99900 34.26800 23.66800
C  -1.47500 33.91500 22.27600
C  -2.09500 32.51500 22.46900
C  -2.22300 32.41000 23.96200
C  -2.42100 34.92800 21.67900
C  -1.23600 31.27300 21.95000
C  0.22200 31.07100 22.30500
N  -2.32700 31.95400 26.97700
C  -2.94700 31.14800 26.02900
C  -3.75200 30.24500 26.72400
C  -3.68400 30.54300 28.09400
C  -2.73800 31.58000 28.23300
C  -4.77400 29.29400 26.10200
C  -4.19900 30.28800 29.46400
O  -5.00900 29.49600 29.82800
C  -3.34800 31.14800 30.46500
C  -4.33200 31.91400 31.22800
O  -5.07200 32.82300 30.75900
O  -4.29400 31.62700 32.52900
C  -5.23900 32.43400 33.28800
H  1.46500 35.89600 29.43200
H  0.08700 35.82100 23.09500
H  -3.07900 30.52900 23.93400
H  -1.94000 33.49500 31.89900
H  0.98400 34.14100 31.24600
H  -0.66800 36.46600 31.29000
H  0.68600 36.03900 32.32400
H  -0.90500 35.53000 32.87700
H  0.60600 32.17500 32.19100
H  -0.50400 31.10600 31.28000
H  -1.04300 30.47500 33.50800
H  -2.04400 32.00700 33.52000
H  3.44700 37.67300 27.88600
H  2.03600 37.82300 28.80600
H  2.02100 38.80900 27.42200
H  2.94500 39.43000 23.96900
H  3.58800 38.35300 25.13400
H  2.20100 39.52600 25.56200
H  -0.65100 33.81200 21.57100
H  -3.06800 32.47600 21.97800
H  -1.94000 35.83300 21.30700
H  -3.12500 35.18100 22.47300
H  -3.03300 34.49000 20.89100
H  -1.25600 31.44100 20.87300
H  -1.80100 30.36500 22.16300
H  0.47600 31.90200 22.96300
H  0.84100 31.22700 21.42200
H  0.30800 30.13600 22.85900
H  -4.82400 29.33000 25.01300
H  -5.81600 29.48800 26.35300
H  -4.59200 28.29800 26.50600
H  -2.80000 30.44800 31.09600
H  -6.27000 32.08300 33.23500
H  -5.20200 33.49800 33.05400
H  -5.05800 32.34600 34.35900

