158

Mg 54.69200 24.55500 45.72000
C  51.92200 26.38100 44.66100
C  53.18900 21.70500 44.73100
C  57.52300 22.96200 46.38800
C  56.03600 27.43600 47.03100
N  52.89900 24.19000 44.49100
C  51.80600 25.08800 44.28300
C  50.62900 24.27200 43.61800
C  50.91900 22.87200 44.40600
C  52.42100 22.91900 44.65400
C  50.02400 22.53500 45.55500
C  50.73800 24.16500 42.06300
C  49.37700 24.65800 41.32900
H  48.98500 23.77800 40.10700
N  55.31800 22.64400 45.40400
C  54.56900 21.56900 45.06400
C  55.35900 20.35500 45.27000
C  56.69600 20.71900 45.50400
C  56.55200 22.19400 45.78000
C  54.75300 19.04600 45.12500
C  57.96200 19.79100 45.70100
O  57.75400 18.59200 45.70000
C  59.33800 20.30300 45.96700
N  56.48200 25.12700 46.84400
C  57.53700 24.31700 46.73200
C  58.89400 25.00000 47.09200
C  58.37700 26.41400 47.54200
C  56.91400 26.39600 47.08100
C  59.73800 24.20700 48.12200
C  59.17800 27.59400 46.92500
C  60.07600 28.20300 47.92700
N  54.22500 26.61800 45.70500
C  54.75200 27.62500 46.50400
C  53.98200 28.83100 46.34100
C  52.83400 28.45200 45.61900
C  53.00700 27.02100 45.35400
C  54.27800 30.24300 46.95100
C  51.62200 28.86200 44.97600
O  51.07700 29.95100 44.82300
C  50.93900 27.54800 44.38000
C  50.69200 27.69000 42.95900
O  51.55500 27.73900 42.05500
O  49.32800 27.82500 42.71600
C  48.98300 28.49100 41.41700
H  52.73500 20.74500 44.47800
H  58.56400 22.64000 46.31600
H  56.33600 28.45100 47.30200
H  49.71100 24.76600 43.93800
H  50.73000 22.03700 43.73100
H  50.55500 22.68800 46.49400
H  49.76700 21.47600 45.55300
H  49.13500 23.16600 45.55900
H  51.00200 23.17300 41.69600
H  51.58200 24.78700 41.76400
H  49.50200 25.70000 41.03500
H  48.49600 24.66700 41.97000
H  54.34300 19.04700 44.11500
H  53.88200 19.02400 45.78100
H  55.24100 18.08100 45.26300
H  59.47100 21.03100 45.16600
H  60.12700 19.57400 45.78300
H  59.33000 20.80200 46.93700
H  59.40200 25.24400 46.15900
H  58.30500 26.40700 48.63000
H  60.18300 24.80100 48.92000
H  60.64100 23.83400 47.64000
H  59.25900 23.28300 48.44700
H  58.48100 28.33000 46.52400
H  59.79700 27.24600 46.09900
H  60.08600 27.74400 48.91600
H  59.73000 29.19600 48.21400
H  61.07300 28.35700 47.51600
H  55.26900 30.54000 46.60700
H  54.13800 30.30300 48.03000
H  53.53600 30.97700 46.64000
H  50.00600 27.40800 44.92600
H  48.24900 27.85700 40.92000
H  49.75200 28.48200 40.64400
H  48.60700 29.49500 41.61100
Mg 30.50600 57.97300 40.22200
C  27.86600 56.01000 38.77300
C  32.66700 55.68100 38.99400
C  32.91900 60.25400 40.62700
C  28.01000 60.44900 40.93800
N  30.28000 56.08000 38.93100
C  29.15200 55.45300 38.55600
C  29.52800 54.16000 37.75700
C  31.11000 54.01800 38.02200
C  31.37500 55.26600 38.79100
C  31.64000 52.72500 38.71900
C  29.26200 54.33200 36.22800
C  27.98700 53.66300 35.69400
H  27.11400 54.54300 34.85300
N  32.53100 57.97100 40.00100
C  33.18300 56.88000 39.51400
C  34.61900 57.25600 39.35800
C  34.69800 58.62800 39.77800
C  33.33100 59.03300 40.19000
C  35.78400 56.35800 38.81600
C  36.02800 59.52200 39.67900
O  37.08000 58.96900 39.41100
C  36.06200 60.96000 39.89600
N  30.47500 60.08400 40.62600
C  31.62600 60.72300 40.89200
C  31.35500 62.12700 41.37200
C  29.80100 62.16600 41.66700
C  29.35400 60.86100 41.06400
C  32.29100 62.66700 42.43800
C  29.10900 63.54200 41.13200
C  28.27400 64.40300 42.10400
N  28.34500 58.24600 39.98900
C  27.50400 59.21700 40.46500
C  26.10900 58.90200 40.18400
C  26.21800 57.59500 39.57400
C  27.58400 57.30000 39.42700
C  24.88700 59.75200 40.34400
C  25.47800 56.54800 38.93200
O  24.26200 56.52500 38.67200
C  26.48600 55.36300 38.48400
C  26.22500 54.11900 39.34900
O  27.00900 53.56100 40.13400
O  24.97000 53.66800 39.05600
C  24.48100 52.40800 39.67300
H  33.42100 54.99500 38.60300
H  33.68900 61.01300 40.78100
H  27.25800 61.17500 41.25300
H  28.96300 53.36800 38.24800
H  31.54700 54.14400 37.03200
H  30.84300 51.98500 38.79100
H  32.09100 52.87200 39.70100
H  32.51400 52.26000 38.26200
H  30.09900 53.88100 35.69500
H  29.22400 55.40200 36.02500
H  27.46500 53.44500 36.62700
H  28.14100 52.80600 35.03800
H  36.25500 56.70900 37.89800
H  35.44100 55.33600 38.65400
H  36.68700 56.34300 39.42600
H  35.20700 61.35800 39.35000
H  36.92500 61.47500 39.47600
H  36.02300 61.16300 40.96700
H  31.51500 62.62700 40.41700
H  29.67100 62.11100 42.74800
H  31.72000 63.30200 43.11500
H  33.05500 63.28300 41.96400
H  32.77400 61.88500 43.02400
H  28.47900 63.25400 40.29000
H  29.86500 64.17900 40.67100
H  27.24000 64.34700 41.76400
H  28.56100 65.45300 42.16000
H  28.36700 64.11600 43.15200
H  24.03600 59.55600 39.69200
H  25.02600 60.83300 40.31500
H  24.60700 59.51900 41.37100
H  26.12200 55.24900 37.46300
H  24.89400 51.60900 39.05700
H  23.40200 52.43800 39.82800
H  24.87900 52.26300 40.67800

