158

Mg -2.61900 17.27200 27.03300
C  -3.13900 15.26000 29.91700
C  -3.02200 20.13000 29.05000
C  -2.60400 19.22300 24.40600
C  -2.45500 14.39100 25.17700
N  -3.03300 17.62600 29.24200
C  -3.13600 16.65700 30.20300
C  -3.46600 17.32100 31.59300
C  -3.30900 18.87000 31.30000
C  -3.10900 18.87500 29.76900
C  -4.47300 19.71300 31.79500
C  -2.64100 16.74300 32.76900
C  -2.31300 17.66300 33.94300
H  -2.06700 17.03600 35.30800
N  -2.72000 19.42900 26.75300
C  -2.86400 20.38300 27.71300
C  -2.99200 21.64300 27.05300
C  -2.88700 21.45700 25.62500
C  -2.72900 19.97100 25.56700
C  -3.16400 22.97100 27.78600
C  -2.82800 22.46800 24.48600
O  -2.79300 22.14500 23.33700
C  -2.92600 23.89500 24.86100
N  -2.45400 16.82900 25.14600
C  -2.48300 17.82500 24.16300
C  -2.51200 17.25400 22.74800
C  -2.13900 15.70000 23.02900
C  -2.29300 15.63000 24.55500
C  -3.70700 17.45900 21.80400
C  -0.75700 15.21600 22.50700
C  0.48200 15.86800 23.17300
N  -2.71000 15.22100 27.42100
C  -2.64000 14.18600 26.57100
C  -2.76700 12.91100 27.23500
C  -3.01800 13.26800 28.58800
C  -2.92700 14.75300 28.65300
C  -2.65200 11.47600 26.70000
C  -3.25700 12.74600 29.91800
O  -3.33300 11.56600 30.31600
C  -3.39400 14.02900 30.82800
C  -2.14500 13.85900 31.66700
O  -0.97900 14.17300 31.38400
O  -2.42800 13.26200 32.94800
C  -1.37400 13.22900 33.88500
H  -3.08700 20.97400 29.74000
H  -2.67900 19.77900 23.46900
H  -2.49500 13.52000 24.52000
H  -4.49800 17.02300 31.78100
H  -2.40500 19.32700 31.70200
H  -5.06000 19.04100 32.42000
H  -4.99300 20.07300 30.90700
H  -4.29800 20.60400 32.39800
H  -1.69500 16.38600 32.36300
H  -3.13900 15.87700 33.20500
H  -3.19300 18.30200 34.01300
H  -1.33700 18.07800 33.69100
H  -2.28600 23.60000 27.64000
H  -3.42400 23.01500 28.84400
H  -4.01100 23.49500 27.34500
H  -3.88400 24.14200 25.31900
H  -2.96000 24.29300 23.84700
H  -2.17100 24.45100 25.41600
H  -1.57500 17.53200 22.26500
H  -2.97700 15.21800 22.52500
H  -4.40700 16.62400 21.82800
H  -3.30900 17.83100 20.86000
H  -4.31400 18.24500 22.25300
H  -0.73800 15.46300 21.44600
H  -0.80900 14.12900 22.57500
H  0.75900 16.78200 22.64700
H  1.33300 15.22400 22.94900
H  0.49900 15.95100 24.26000
H  -2.08600 11.46000 25.76900
H  -3.65800 11.15500 26.43200
H  -2.14100 10.87200 27.45000
H  -4.28900 14.08400 31.44700
H  -1.62600 13.56500 34.89100
H  -0.46400 13.72500 33.54500
H  -1.00800 12.20300 33.86600
Mg 25.55500 1.29800 30.02500
C  27.35500 1.46200 33.21700
C  22.65600 1.85400 31.92800
C  23.79400 0.66400 27.29600
C  28.53400 0.61000 28.44900
N  25.09100 1.65800 32.35400
C  25.98500 1.65900 33.40500
C  25.32300 2.00500 34.76700
C  23.82600 1.88000 34.27900
C  23.85200 1.83900 32.74400
C  23.14100 0.57500 34.78200
C  25.71300 3.35200 35.41100
C  26.42500 3.25500 36.82900
H  26.05100 4.31100 37.86500
N  23.44200 1.28700 29.68700
C  22.41300 1.62800 30.53500
C  21.15600 1.64300 29.81600
C  21.52500 1.23700 28.48300
C  22.97700 0.98900 28.40700
C  19.80600 2.05000 30.41900
C  20.57700 1.13900 27.37900
O  20.91100 0.57800 26.34000
C  19.15900 1.68400 27.48600
N  26.11300 0.66300 28.17300
C  25.22200 0.59200 27.15600
C  25.87900 0.26800 25.78700
C  27.40300 0.49000 26.14000
C  27.33100 0.63900 27.66400
C  25.52800 -1.20700 25.37100
C  28.10800 1.73800 25.46600
C  27.19700 2.96200 25.35600
N  27.55500 1.01600 30.63600
C  28.69200 0.82000 29.84500
C  29.78400 0.82100 30.70700
C  29.35100 1.13000 31.99600
C  27.99600 1.23900 31.93500
C  31.21100 0.52000 30.36900
C  29.79800 1.37700 33.33300
O  30.92600 1.46100 33.77600
C  28.49100 1.52900 34.22700
C  28.34900 0.45000 35.22400
O  27.86400 -0.65100 35.00500
O  28.70500 0.85600 36.55100
C  28.78600 -0.14200 37.52600
H  21.84300 2.18900 32.57600
H  23.26900 0.43300 26.36700
H  29.47500 0.46800 27.91400
H  25.49700 1.30900 35.58800
H  23.35500 2.77700 34.68200
H  22.57100 -0.00400 34.05500
H  22.43300 0.92900 35.53100
H  23.92000 -0.03500 35.24000
H  24.84600 3.98700 35.59500
H  26.40500 3.68100 34.63600
H  27.45900 3.53000 36.62000
H  26.44300 2.25800 37.27000
H  19.09500 1.26900 30.15000
H  19.51300 2.97400 29.92000
H  19.80800 2.08800 31.50800
H  18.41300 1.05000 27.96600
H  18.75600 1.56300 26.48100
H  19.11600 2.72200 27.81600
H  25.49600 0.91400 24.99700
H  28.07500 -0.31600 25.84600
H  24.68300 -1.59100 25.94300
H  26.32300 -1.95200 25.38800
H  25.13200 -1.14400 24.35800
H  28.38600 1.35200 24.48500
H  28.94000 1.96200 26.13400
H  26.28000 2.86300 25.93700
H  26.94600 3.05200 24.29900
H  27.70200 3.89500 25.60700
H  31.44100 0.98600 29.41000
H  31.35400 -0.56000 30.38200
H  31.84600 0.68600 31.23900
H  28.45300 2.52500 34.66700
H  27.79400 -0.31000 37.94600
H  29.60300 -0.01300 38.23600
H  29.00300 -1.13500 37.13100

