158

Mg 47.63400 35.12100 26.14300
C  45.85300 33.74300 28.76700
C  48.09300 38.03900 27.99000
C  48.97600 36.49500 23.50700
C  46.56300 32.30400 24.16500
N  47.07200 35.70900 28.07700
C  46.53000 34.94100 29.07100
C  46.64900 35.71000 30.40200
C  46.81600 37.14500 29.98700
C  47.36800 36.97700 28.56400
C  45.53800 38.00100 30.10200
C  47.85400 35.10500 31.17000
C  47.70000 35.11800 32.68200
H  46.68500 36.02600 33.31700
N  48.54800 36.97200 25.82200
C  48.55500 38.07100 26.64900
C  49.11000 39.17800 25.93700
C  49.55300 38.67100 24.70100
C  49.05200 37.33200 24.65300
C  49.11000 40.64200 26.40000
C  50.38100 39.40700 23.59800
O  50.73600 38.81600 22.53600
C  50.68600 40.90100 23.72400
N  47.72900 34.49900 24.08500
C  48.29400 35.29200 23.20500
C  48.30000 34.71700 21.84400
C  47.88700 33.20800 22.03800
C  47.37900 33.32500 23.49700
C  47.35100 35.56000 20.85100
C  49.02900 32.28300 21.67200
C  50.31200 32.32000 22.52400
N  46.45000 33.33600 26.36700
C  46.14700 32.31800 25.46700
C  45.32900 31.30900 26.13000
C  45.11500 31.85200 27.42900
C  45.88800 33.06400 27.49900
C  44.83300 29.98600 25.46700
C  44.43200 31.70200 28.66100
O  43.63500 30.84700 29.06900
C  44.85900 32.87100 29.55000
C  45.35200 32.42500 30.89400
O  46.51800 31.97600 31.14100
O  44.32800 32.32000 31.84200
C  44.61300 32.33200 33.28900
H  48.38300 38.87300 28.63200
H  49.53500 36.88700 22.65500
H  46.16800 31.43600 23.63300
H  45.73000 35.61000 30.97900
H  47.46200 37.71400 30.65500
H  44.65800 37.54200 30.55400
H  45.30400 38.23700 29.06400
H  45.78500 38.84400 30.74900
H  48.72100 35.68400 30.85400
H  48.13200 34.09600 30.86500
H  48.72400 35.35900 32.96800
H  47.65300 34.08500 33.02900
H  48.61400 41.23100 25.62800
H  50.10700 41.01300 26.64100
H  48.60400 40.74200 27.36000
H  51.10200 41.22600 24.67800
H  49.65600 41.24900 23.79400
H  51.24800 41.33600 22.89700
H  49.30100 34.77500 21.41700
H  47.01500 32.98500 21.42200
H  46.76000 34.87100 20.24800
H  48.06300 36.18100 20.30700
H  46.61200 36.16000 21.38200
H  49.41300 32.65000 20.72000
H  48.58900 31.29000 21.57200
H  50.61000 31.28700 22.70400
H  50.09900 32.72800 23.51200
H  51.11400 32.87700 22.04000
H  45.58200 29.45100 24.88400
H  44.08400 30.31000 24.74400
H  44.42000 29.29700 26.20400
H  43.99400 33.49600 29.77100
H  45.69400 32.26200 33.40200
H  44.16500 31.45600 33.75900
H  44.29600 33.31000 33.65000
Mg 9.34100 48.31200 26.04200
C  6.75200 48.66100 28.56000
C  11.62900 49.62900 28.17000
C  11.54300 48.26900 23.46100
C  6.71200 47.62900 23.74800
N  9.21100 48.87300 28.16100
C  8.06900 48.98100 28.98900
C  8.49100 49.42300 30.45800
C  9.99400 49.98900 30.21600
C  10.33200 49.43100 28.77400
C  10.16000 51.54100 30.29100
C  8.42800 48.38000 31.57700
C  8.91300 48.82000 32.94800
H  8.23800 48.28600 34.21100
N  11.36100 48.76600 25.85900
C  12.08900 49.31800 26.86400
C  13.40600 49.50000 26.33300
C  13.47500 48.89400 25.07700
C  12.08700 48.61600 24.74100
C  14.51200 50.14800 27.10500
C  14.72200 48.61700 24.16200
O  14.57300 47.89300 23.16600
C  16.11100 49.14000 24.56200
N  9.15400 48.07400 23.91000
C  10.20900 48.00000 23.15100
C  9.87000 47.61700 21.62500
C  8.36800 47.30800 21.74000
C  8.03800 47.63500 23.23700
C  10.23300 48.58300 20.47500
C  8.00000 45.87000 21.32800
C  8.27900 44.82400 22.42600
N  7.14600 48.15400 26.06300
C  6.25200 47.93000 25.02100
C  4.95300 47.98300 25.62100
C  5.04600 48.26700 26.99900
C  6.43000 48.29100 27.25400
C  3.59600 47.77100 24.84500
C  4.35000 48.44700 28.31700
O  3.14100 48.38600 28.63100
C  5.47400 48.75600 29.34800
C  5.24900 47.86000 30.47600
O  5.88000 46.82600 30.64900
O  4.42100 48.46900 31.35000
C  4.20200 47.66800 32.52500
H  12.44800 49.95400 28.81500
H  12.28500 48.23100 22.66000
H  5.90100 47.40500 23.05200
H  7.86600 50.30200 30.61800
H  10.71200 49.57800 30.92600
H  10.09400 51.94300 29.28000
H  11.11100 51.77800 30.76700
H  9.33000 51.93100 30.88000
H  8.76800 47.39500 31.25600
H  7.35800 48.24500 31.72900
H  8.81700 49.90000 33.05100
H  9.90900 48.41400 33.12500
H  14.09000 50.90900 27.76100
H  15.28900 50.67600 26.55300
H  14.98600 49.35000 27.67800
H  16.90200 48.70900 23.94800
H  16.25700 48.88000 25.61000
H  16.14400 50.22600 24.47300
H  10.45400 46.70000 21.54200
H  7.84000 48.06700 21.16300
H  11.09600 49.16600 20.79600
H  9.43700 49.24800 20.14300
H  10.64600 47.96000 19.68100
H  8.59100 45.61000 20.45000
H  6.96800 45.91300 20.97900
H  7.34900 44.31100 22.66900
H  8.74200 45.21800 23.33100
H  8.93700 44.15600 21.87000
H  3.40800 46.70100 24.76000
H  3.78600 48.24200 23.88100
H  2.79200 48.34900 25.30000
H  5.33300 49.78900 29.66600
H  3.60700 48.25300 33.22700
H  5.14400 47.48900 33.04200
H  3.80500 46.71000 32.19100

