158

Mg 7.98800 53.00200 40.99700
C  7.64400 49.55400 40.63600
C  11.17900 52.70200 39.91500
C  8.03300 56.34300 40.65100
C  4.62100 53.11100 41.86500
N  9.13500 51.31400 40.08900
C  8.89700 49.97200 40.15000
C  9.99400 49.19600 39.50700
C  11.22600 50.11900 39.91900
C  10.48800 51.50700 39.94200
C  12.05000 49.81900 41.24400
C  9.84700 49.09800 37.89600
C  9.96800 47.70000 37.27100
H  8.78500 47.20800 36.31400
N  9.44200 54.44000 40.33100
C  10.69800 54.07800 39.96800
C  11.45900 55.24200 39.75500
C  10.56900 56.37500 39.91200
C  9.30500 55.76500 40.38800
C  12.97600 55.23300 39.27900
C  11.02200 57.81400 39.63100
O  12.17200 58.02500 39.19700
C  10.12700 59.05200 39.86600
N  6.56900 54.54600 41.24600
C  6.80100 55.81700 40.89700
C  5.60200 56.72500 41.14500
C  4.46100 55.69800 41.45600
C  5.24700 54.39200 41.54900
C  5.87200 57.71200 42.27600
C  3.27900 55.63700 40.49400
C  3.70700 55.10500 39.17700
N  6.43100 51.64000 41.27500
C  5.16000 51.82200 41.77600
C  4.50300 50.59300 42.00300
C  5.49700 49.65500 41.59200
C  6.59300 50.36500 41.14000
C  3.11800 50.41800 42.61500
C  5.82600 48.23800 41.61100
O  5.26600 47.28200 42.10900
C  7.18700 48.17800 40.93500
C  7.07000 47.43800 39.61800
O  6.68800 47.86800 38.52500
O  7.35000 46.10200 39.85200
C  6.88900 45.08800 38.90200
H  12.20900 52.44000 39.66500
H  7.99200 57.40800 40.41200
H  3.58900 53.19700 42.21300
H  10.05400 48.19900 39.94400
H  11.94900 50.02200 39.10900
H  11.50000 49.09500 41.84500
H  12.23800 50.69800 41.86100
H  12.93900 49.39900 40.77300
H  10.56300 49.77200 37.42700
H  8.86300 49.50100 37.65400
H  10.11200 46.95200 38.05100
H  10.74100 47.64400 36.50500
H  12.99400 55.92200 38.43400
H  13.41200 54.24900 39.10500
H  13.51000 55.62800 40.14300
H  9.49900 58.96900 40.75200
H  9.46000 59.12400 39.00700
H  10.69000 59.98400 39.89000
H  5.29400 57.15800 40.19300
H  4.14600 55.93000 42.47300
H  6.70000 57.38600 42.90600
H  4.95700 57.81000 42.85900
H  6.26900 58.66100 41.91600
H  2.84900 56.58700 40.17500
H  2.39900 55.12700 40.88400
H  3.15400 55.53600 38.34200
H  3.62100 54.01900 39.22500
H  4.75400 55.34000 38.98900
H  2.49200 51.19400 42.17600
H  3.18400 50.54600 43.69600
H  2.63600 49.46300 42.40800
H  7.73300 47.64100 41.71100
H  7.76500 44.78400 38.33000
H  6.13400 45.36600 38.16700
H  6.53200 44.16200 39.35300
Mg -11.55100 15.58600 42.07400
C  -8.51100 13.90700 42.01100
C  -9.99600 18.27000 40.39700
C  -14.49600 17.08300 41.76400
C  -13.06500 12.71900 43.20800
N  -9.47600 15.96000 41.23000
C  -8.43200 15.08600 41.34500
C  -7.21400 15.66800 40.59400
C  -7.63000 17.19500 40.39400
C  -9.08400 17.16800 40.67500
C  -6.77500 18.20100 41.22700
C  -6.78100 14.85900 39.29700
C  -5.34400 14.73700 38.97900
H  -4.86900 15.30200 37.66300
N  -12.20600 17.45000 41.29100
C  -11.41100 18.40600 40.68200
C  -12.20600 19.56700 40.34600
C  -13.52900 19.34100 40.72000
C  -13.45900 17.91000 41.28800
C  -11.68900 20.72200 39.61600
C  -14.70100 20.30200 40.67800
O  -14.52800 21.50400 40.35300
C  -16.11300 19.87300 41.06100
N  -13.49100 14.88200 42.14000
C  -14.54500 15.71800 42.20000
C  -15.85600 14.99300 42.70100
C  -15.40400 13.49100 42.83900
C  -13.87000 13.71000 42.72300
C  -16.32300 15.60500 43.99900
C  -15.93000 12.46400 41.69000
C  -16.67700 11.23200 42.29600
N  -10.94600 13.62200 42.55300
C  -11.68600 12.56800 43.05800
C  -10.77700 11.51700 43.35800
C  -9.52300 12.01500 43.04100
C  -9.73000 13.33400 42.49100
C  -11.10000 10.21700 44.09100
C  -8.11500 11.78300 43.09800
O  -7.49800 10.80900 43.50200
C  -7.42100 12.95200 42.41600
C  -6.36600 13.55500 43.29600
O  -6.63700 14.42000 44.13800
O  -5.21900 12.84000 43.16500
C  -4.25600 13.31900 44.22600
H  -9.54500 19.18100 39.99600
H  -15.41300 17.67400 41.81200
H  -13.51900 11.80800 43.60400
H  -6.39700 15.62600 41.31400
H  -7.49500 17.32800 39.32100
H  -6.00900 17.66600 41.78800
H  -7.40800 18.67700 41.97600
H  -6.29100 18.92200 40.56800
H  -7.12300 15.37500 38.40000
H  -7.27900 13.89300 39.38700
H  -5.21700 13.65600 38.92500
H  -4.70800 15.11900 39.77800
H  -12.24000 20.82500 38.68100
H  -10.60500 20.69600 39.50200
H  -11.87500 21.60300 40.22900
H  -16.83300 20.63700 40.76600
H  -16.19800 19.78000 42.14400
H  -16.38400 18.94400 40.56200
H  -16.61900 15.03800 41.92300
H  -15.66900 13.10200 43.82300
H  -16.91500 16.50500 43.83300
H  -15.49500 15.60000 44.70700
H  -17.06700 14.90100 44.37100
H  -15.12700 12.05700 41.07600
H  -16.62500 12.88300 40.96300
H  -16.67400 11.39600 43.37400
H  -16.09500 10.33900 42.07200
H  -17.71400 11.18200 41.96400
H  -10.62200 10.08300 45.06200
H  -10.98200 9.28700 43.53500
H  -12.17900 10.16800 44.24100
H  -6.94500 12.50900 41.54100
H  -4.66000 13.30200 45.23800
H  -3.98100 14.33100 43.93100
H  -3.44800 12.60400 44.06800

