158

Mg 1.64800 -1.99300 45.28200
C  5.12200 -1.02100 45.22600
C  1.01600 0.84100 43.41500
C  -1.50700 -2.95200 45.19100
C  2.63800 -4.98000 46.51900
N  2.97400 -0.23700 44.51300
C  4.31400 -0.12300 44.52200
C  4.79100 1.10300 43.69200
C  3.44600 1.94500 43.55200
C  2.41200 0.80400 43.78000
C  3.23100 3.25800 44.42600
C  5.41900 0.71200 42.34800
C  6.38300 1.74600 41.80200
H  6.24500 2.04800 40.32500
N  -0.04800 -1.13400 44.40400
C  -0.06800 -0.00400 43.60200
C  -1.38300 0.22000 43.18400
C  -2.19500 -0.76400 43.84600
C  -1.24100 -1.68300 44.58400
C  -1.80100 1.34900 42.27300
C  -3.72000 -0.90300 43.70200
O  -4.31100 -0.13600 42.95700
C  -4.62000 -1.82400 44.57900
N  0.73400 -3.76000 45.80800
C  -0.63200 -3.91300 45.67500
C  -1.05700 -5.34400 46.09900
C  0.27300 -5.93500 46.58900
C  1.27800 -4.83700 46.27200
C  -2.30900 -5.40400 47.06500
C  0.66200 -7.35300 45.93300
C  0.93100 -8.50700 46.93800
N  3.51200 -2.92500 45.79900
C  3.72200 -4.08300 46.40100
C  5.16300 -4.21100 46.65700
C  5.80600 -3.05300 46.24300
C  4.69000 -2.27700 45.66800
C  5.81600 -5.41800 47.30000
C  7.02600 -2.28100 46.06400
O  8.18700 -2.57300 46.30100
C  6.63600 -0.95900 45.44200
C  6.93400 0.08800 46.49300
O  6.80300 -0.04700 47.69800
O  7.31200 1.25100 45.90100
C  7.80600 2.29000 46.80700
H  0.79900 1.79000 42.91900
H  -2.54300 -3.23400 45.38800
H  2.95000 -5.96000 46.88400
H  5.50400 1.64900 44.31000
H  3.30200 2.31700 42.53800
H  4.20200 3.56500 44.81500
H  2.46900 3.13700 45.19600
H  2.98200 4.11500 43.80100
H  4.55900 0.38700 41.76200
H  5.96200 -0.22100 42.49600
H  7.42800 1.59100 42.07300
H  6.14500 2.66300 42.34100
H  -0.98100 2.02500 42.03100
H  -2.53900 1.89900 42.85800
H  -2.36300 1.00600 41.40400
H  -4.14800 -1.87500 45.56000
H  -4.72000 -2.74400 44.00200
H  -5.67400 -1.55200 44.52900
H  -1.40500 -5.85000 45.19800
H  0.27300 -6.08000 47.66900
H  -1.99000 -5.83100 48.01600
H  -3.02600 -6.12200 46.66500
H  -2.88700 -4.49800 47.24900
H  1.50700 -7.23200 45.25400
H  -0.31500 -7.62800 45.53500
H  0.61000 -8.26800 47.95200
H  1.99200 -8.74000 47.02400
H  0.31800 -9.38300 46.72300
H  5.32700 -6.35900 47.04600
H  6.08700 -5.30500 48.35000
H  6.70400 -5.49400 46.67400
H  7.20400 -0.97500 44.51100
H  8.85800 2.55200 46.69700
H  7.65700 2.22400 47.88500
H  7.33900 3.20600 46.44500
Mg 45.54300 4.92500 46.67900
C  43.45000 7.71100 46.50300
C  42.85500 2.86900 46.45700
C  47.62900 2.37300 45.84400
C  48.34300 7.26700 46.15900
N  43.47100 5.25000 46.44100
C  42.81300 6.47400 46.40900
C  41.26000 6.27000 46.28700
C  41.07400 4.70900 46.13200
C  42.52800 4.25000 46.39500
C  39.95500 4.17100 47.12700
C  40.50600 7.07600 45.12400
C  41.21900 7.27700 43.74000
H  40.68700 6.77200 42.39500
N  45.34000 2.84400 46.53000
C  44.09900 2.21700 46.47200
C  44.37100 0.80400 46.20000
C  45.80000 0.65300 46.19600
C  46.34500 1.95300 46.23100
C  43.24200 -0.23500 45.91100
C  46.51900 -0.64700 46.15500
O  45.91900 -1.73900 46.08900
C  48.06900 -0.72900 46.17900
N  47.64200 4.86600 46.04300
C  48.25200 3.66400 45.76700
C  49.63400 3.82300 45.27600
C  49.90600 5.33700 45.39800
C  48.60400 5.93700 45.95000
C  50.50900 2.97400 46.21500
C  50.19900 5.99100 44.00600
C  51.53800 5.60800 43.44400
N  45.94400 7.05600 46.52000
C  47.03700 7.83700 46.41900
C  46.70300 9.23900 46.52700
C  45.29800 9.24600 46.64100
C  44.82600 7.89600 46.52300
C  47.65500 10.43600 46.51400
C  44.11100 10.06200 46.71800
O  44.00700 11.31300 46.64600
C  42.84100 9.11200 46.65000
C  42.18600 9.23100 48.02200
O  42.44300 8.60400 49.04100
O  41.19200 10.16700 47.87700
C  40.27800 10.28400 49.04100
H  42.04600 2.14200 46.35000
H  48.26200 1.67000 45.29700
H  49.18100 7.94600 45.99000
H  40.75100 6.76900 47.11100
H  40.81400 4.49500 45.09500
H  39.83900 4.81500 47.99900
H  40.33800 3.25400 47.57500
H  39.03700 4.13600 46.53900
H  40.26900 8.07600 45.48800
H  39.62000 6.48000 44.90600
H  42.23100 6.87400 43.79200
H  41.54700 8.31200 43.64400
H  43.45100 -0.57600 44.89700
H  42.25000 0.21000 45.98400
H  43.24700 -1.02000 46.66700
H  48.20900 -1.73800 46.56700
H  48.50000 0.03700 46.82400
H  48.37100 -0.67900 45.13300
H  49.75400 3.36300 44.29500
H  50.77500 5.46500 46.04400
H  50.42400 1.95400 45.83900
H  50.08800 2.95800 47.22000
H  51.54900 3.30200 46.18900
H  50.12200 7.07600 44.07300
H  49.42500 5.65000 43.31900
H  51.56600 4.72900 42.79900
H  52.29700 5.51800 44.22100
H  51.84100 6.40400 42.76400
H  47.79800 10.67500 47.56800
H  47.20500 11.36100 46.15200
H  48.56900 10.30500 45.93500
H  42.25800 9.37500 45.76700
H  39.50900 9.51200 49.03200
H  39.69300 11.20300 48.99200
H  40.69600 10.37400 50.04300

