158

Mg 24.15200 -5.45400 45.29800
C  26.40300 -3.09500 43.85200
C  21.70500 -4.26300 43.12800
C  22.37500 -8.17300 45.96400
C  26.95800 -6.94200 46.86700
N  24.13600 -3.92700 43.70200
C  25.11800 -3.05100 43.27400
C  24.62300 -2.24500 42.04600
C  23.08100 -2.31400 42.27600
C  22.91000 -3.59000 43.04600
C  22.49700 -1.04900 42.82200
C  25.02900 -2.84300 40.68100
C  25.52100 -1.80000 39.64000
H  24.91600 -1.92500 38.24000
N  22.33400 -6.13700 44.64400
C  21.45200 -5.42300 43.86600
C  20.17200 -6.13300 43.85300
C  20.31900 -7.24100 44.69200
C  21.70000 -7.21900 45.16100
C  18.99900 -5.68600 43.07500
C  19.18300 -8.20500 45.15100
O  18.09900 -8.24300 44.69300
C  19.40800 -9.13400 46.26500
N  24.54100 -7.23900 46.28600
C  23.64900 -8.20800 46.49600
C  24.24700 -9.43100 47.20000
C  25.73600 -9.09100 47.44900
C  25.76200 -7.67200 46.77500
C  23.49500 -9.93100 48.51300
C  26.65800 -10.14500 46.84800
C  28.09900 -10.17100 47.33700
N  26.22000 -4.95600 45.68400
C  27.20400 -5.65100 46.34400
C  28.46700 -4.91600 46.17900
C  28.19200 -3.89800 45.18800
C  26.82700 -4.00000 44.90100
C  29.78800 -5.23200 46.82600
C  28.79000 -2.88800 44.36100
O  29.94900 -2.50200 44.33700
C  27.60800 -2.22700 43.43000
C  27.44100 -0.92700 43.93100
O  26.62900 -0.54300 44.79300
O  28.27700 -0.06900 43.25300
C  28.40400 1.28000 43.89400
H  20.91700 -3.86100 42.48600
H  21.97500 -9.18100 46.09500
H  27.74000 -7.38500 47.48600
H  24.96500 -1.23300 42.26500
H  22.43400 -2.40100 41.40300
H  23.29600 -0.45200 43.26200
H  21.76900 -1.22900 43.61300
H  22.04600 -0.51300 41.98700
H  24.29700 -3.54300 40.27900
H  25.97900 -3.36200 40.80200
H  26.59800 -1.87700 39.49000
H  25.18100 -0.80000 39.91000
H  18.09200 -6.29100 43.09200
H  19.24200 -5.56900 42.01900
H  18.74400 -4.69800 43.45700
H  18.42200 -9.30800 46.69500
H  19.98500 -8.68800 47.07500
H  19.81900 -10.05900 45.86000
H  24.16900 -10.31400 46.56500
H  25.89800 -8.93000 48.51500
H  23.08400 -10.92600 48.34100
H  22.69400 -9.24500 48.79000
H  24.17300 -10.03700 49.36000
H  26.74100 -9.91600 45.78500
H  26.27100 -11.16100 46.92400
H  28.23400 -11.24200 47.48400
H  28.09800 -9.65000 48.29400
H  28.91800 -10.00100 46.63700
H  30.38400 -6.09800 46.53800
H  29.70500 -5.37200 47.90400
H  30.28500 -4.26900 46.71600
H  27.85000 -2.36100 42.37500
H  28.98300 1.98600 43.29800
H  28.85100 1.09400 44.87100
H  27.45000 1.68300 44.23200
Mg 5.76800 53.07300 41.35200
C  4.67200 49.82400 41.01900
C  8.65500 52.17700 39.45500
C  6.65200 56.30700 41.36200
C  2.70500 53.92400 42.76900
N  6.42100 51.25000 40.19400
C  5.83200 50.01600 40.30800
C  6.62200 48.94300 39.52100
C  8.05100 49.65600 39.42600
C  7.70800 51.14100 39.68600
C  9.14700 49.18700 40.47700
C  5.94300 48.55300 38.09700
C  5.54600 49.70000 37.17400
H  5.62300 49.44700 35.66300
N  7.50300 54.09000 40.66300
C  8.58800 53.54600 39.88100
C  9.46600 54.63500 39.65800
C  8.94100 55.78700 40.21500
C  7.66200 55.44200 40.81600
C  10.80300 54.41500 38.82100
C  9.64700 57.04600 40.13700
O  10.84800 57.14100 39.71200
C  9.10300 58.34100 40.69600
N  4.82300 54.91100 41.80800
C  5.40600 56.14100 41.89200
C  4.55500 57.25500 42.54800
C  3.23600 56.37500 42.81700
C  3.59500 54.97900 42.40000
C  5.18900 57.78900 43.81900
C  1.97500 56.91100 42.11200
C  1.24300 58.01900 42.80000
N  4.01600 52.12000 41.85700
C  2.92000 52.49600 42.58500
C  2.16300 51.32500 42.95200
C  2.86600 50.29500 42.45500
C  3.88000 50.82500 41.67300
C  0.87600 51.31600 43.73300
C  2.88900 48.88000 42.28300
O  2.04000 48.07100 42.63000
C  4.02600 48.52300 41.34600
C  3.47400 47.73600 40.26100
O  2.48900 48.07200 39.63000
O  4.09100 46.55100 40.14000
C  3.75600 45.63900 39.07100
H  9.61000 51.82300 39.06100
H  6.96400 57.34900 41.45300
H  1.82700 54.16700 43.37200
H  6.61200 48.06400 40.16600
H  8.53800 49.55200 38.45600
H  8.81500 48.55100 41.29700
H  9.46000 50.05900 41.05000
H  9.96900 48.77400 39.89200
H  5.07400 47.93000 38.30800
H  6.60700 47.81900 37.64000
H  5.98100 50.63800 37.52000
H  4.48400 49.89700 37.31500
H  10.61700 54.66600 37.77700
H  11.07400 53.37400 38.99700
H  11.61400 55.01700 39.23000
H  9.90800 59.07100 40.62000
H  8.86400 58.27300 41.75700
H  8.24100 58.61800 40.08900
H  4.26300 57.98600 41.79400
H  2.97400 56.44000 43.87300
H  4.54100 57.47200 44.63600
H  5.30100 58.87100 43.89500
H  6.19300 57.39400 43.97500
H  1.19100 56.18000 41.91400
H  2.36200 57.20700 41.13700
H  1.78800 58.39600 43.66500
H  0.25700 57.64300 43.07400
H  1.17600 58.82600 42.07100
H  0.17500 51.90400 43.14000
H  1.02300 51.78200 44.70700
H  0.52800 50.28600 43.80900
H  4.52500 47.85100 42.04400
H  4.54100 44.88400 39.03600
H  3.71000 46.08400 38.07700
H  2.91300 45.01600 39.37000

