158

Mg 24.55800 -7.20600 47.07900
C  26.61600 -4.69700 45.61700
C  22.17400 -6.36400 44.63500
C  23.14600 -10.14400 47.62500
C  27.54000 -8.29600 48.71800
N  24.49100 -5.63400 45.34300
C  25.41700 -4.83600 44.91900
C  24.94800 -4.04300 43.63600
C  23.40200 -4.34100 43.70100
C  23.32400 -5.53600 44.60300
C  22.56500 -3.11700 44.09500
C  25.64700 -4.17400 42.23400
C  26.19400 -2.85100 41.60200
H  25.65400 -2.58700 40.20600
N  22.80500 -7.98700 46.48300
C  22.00000 -7.53000 45.47100
C  20.83000 -8.49700 45.30900
C  21.06900 -9.52200 46.28800
C  22.39800 -9.24200 46.86400
C  19.70200 -8.42500 44.36200
C  20.20900 -10.70800 46.44900
O  19.21000 -10.78900 45.80900
C  20.43000 -11.73100 47.53400
N  25.24300 -8.93200 47.96500
C  24.44700 -10.03700 48.14100
C  25.22200 -11.13300 48.95000
C  26.61600 -10.59300 49.19600
C  26.43800 -9.16900 48.69700
C  24.51500 -11.71000 50.24200
C  27.76000 -11.45600 48.54800
C  28.87500 -12.01200 49.44200
N  26.60600 -6.56100 47.39000
C  27.58800 -7.10400 48.10600
C  28.76700 -6.21000 48.04500
C  28.41800 -5.28800 47.09700
C  27.11100 -5.55600 46.63900
C  30.10200 -6.36000 48.74800
C  28.90000 -4.17200 46.39500
O  30.04100 -3.67300 46.47100
C  27.76400 -3.68500 45.41800
C  27.23600 -2.30200 45.92400
O  26.86200 -2.06700 47.03000
O  27.47800 -1.39100 44.97400
C  27.34200 0.04400 45.35900
H  21.36300 -6.09700 43.95500
H  22.78800 -11.09200 48.03100
H  28.30900 -8.92000 49.17800
H  25.10200 -2.98400 43.84400
H  23.08700 -4.63400 42.70000
H  21.86900 -3.49500 44.84400
H  22.03900 -2.83400 43.18300
H  23.16200 -2.28800 44.47600
H  24.96500 -4.58600 41.49100
H  26.53700 -4.78100 42.40200
H  27.28000 -2.84800 41.69800
H  25.92400 -2.00300 42.23100
H  19.66700 -7.44100 43.89400
H  18.75900 -8.50100 44.90300
H  19.68200 -9.10300 43.50900
H  21.28300 -12.37800 47.32900
H  19.58600 -12.42000 47.51800
H  20.49600 -11.23400 48.50200
H  25.28500 -11.99900 48.29200
H  26.78100 -10.50500 50.27000
H  23.67600 -11.02900 50.38700
H  25.17700 -11.53300 51.08900
H  24.13800 -12.72700 50.13000
H  28.11700 -10.95200 47.65000
H  27.29500 -12.34000 48.11100
H  28.42800 -12.90600 49.87500
H  29.01200 -11.21700 50.17500
H  29.85200 -12.20300 48.99800
H  29.92700 -6.43000 49.82200
H  30.78400 -5.51800 48.63300
H  30.56900 -7.26900 48.36800
H  28.06400 -3.55900 44.37800
H  27.31100 0.65500 44.45700
H  28.19800 0.29500 45.98700
H  26.50600 0.20400 46.04000
Mg 9.25000 47.13500 27.11200
C  7.27500 47.25200 30.13300
C  12.05500 47.68900 28.91900
C  10.87600 47.74300 24.24600
C  6.14700 47.29500 25.36800
N  9.64000 47.30400 29.28200
C  8.69600 47.26000 30.28300
C  9.40000 47.37700 31.70700
C  10.84300 47.81100 31.28200
C  10.91600 47.56000 29.69400
C  11.15100 49.30500 31.70400
C  9.24800 46.05700 32.57200
C  9.94900 46.09700 33.98100
H  9.17600 45.53500 35.18200
N  11.28800 47.39700 26.63000
C  12.36300 47.51400 27.54700
C  13.59300 47.63800 26.81100
C  13.24400 47.71600 25.46000
C  11.74300 47.65200 25.40000
C  14.98900 47.77000 27.60700
C  14.15000 47.93500 24.28400
O  13.79300 48.00400 23.10100
C  15.59700 48.05500 24.48400
N  8.53800 47.65200 25.10900
C  9.43800 47.80700 24.13500
C  8.77900 47.93600 22.79300
C  7.28000 47.57100 23.07200
C  7.29800 47.48800 24.59900
C  8.89800 49.39000 22.16700
C  6.72900 46.17100 22.59200
C  6.44000 46.07300 21.08300
N  7.15100 47.08800 27.56700
C  6.02200 47.17300 26.76000
C  4.77800 47.25600 27.50500
C  5.24200 47.23600 28.85400
C  6.62600 47.22400 28.84500
C  3.43200 47.43200 26.89800
C  4.71900 47.37600 30.11000
O  3.63000 47.54700 30.59000
C  6.07800 47.29300 31.11500
C  5.95900 45.96400 31.84600
O  6.33400 44.90900 31.47900
O  5.49700 46.25800 33.08100
C  5.19100 45.13300 33.99700
H  12.90300 47.67200 29.60700
H  11.32800 47.94500 23.27300
H  5.23300 47.17600 24.78200
H  8.82700 48.08400 32.30600
H  11.51100 47.10800 31.78000
H  12.23900 49.34200 31.76700
H  10.72700 49.61500 32.65900
H  10.81000 49.95000 30.89400
H  9.81800 45.22500 32.15900
H  8.21900 45.71600 32.69500
H  10.23300 47.14700 34.03700
H  10.82800 45.45700 33.90300
H  14.83500 47.87200 28.68200
H  15.43700 48.71300 27.29600
H  15.70200 46.95400 27.48700
H  15.84700 48.83900 25.20000
H  16.08200 48.33700 23.55000
H  15.99500 47.08500 24.78200
H  9.20400 47.23500 22.07500
H  6.61800 48.30500 22.61100
H  9.68100 49.96600 22.66000
H  7.98300 49.98200 22.19800
H  9.14600 49.36700 21.10600
H  5.75300 45.94700 23.02100
H  7.39900 45.36700 22.89700
H  6.59100 47.02700 20.57800
H  5.41600 45.69900 21.08800
H  7.10600 45.35100 20.61100
H  3.30100 46.78600 26.03000
H  3.21500 48.43000 26.51600
H  2.71500 47.12700 27.66100
H  6.13200 47.99600 31.94700
H  5.90300 44.34800 34.25200
H  4.22700 44.65700 33.81900
H  5.14000 45.67600 34.94100

