158

Mg 24.93000 -5.71700 46.64300
C  26.93900 -3.52400 44.76100
C  22.33500 -4.87000 44.57300
C  23.52600 -8.55300 47.59200
C  27.94800 -6.69900 48.40200
N  24.68200 -4.28200 44.88300
C  25.58700 -3.47500 44.27000
C  24.98800 -2.49500 43.21200
C  23.46300 -2.80100 43.53300
C  23.47800 -4.04700 44.36400
C  22.71400 -1.60900 44.13100
C  25.52000 -2.62200 41.75800
C  25.93600 -1.33400 41.06200
H  25.40300 -1.01200 39.65100
N  23.11300 -6.57700 46.26500
C  22.22500 -6.03300 45.39400
C  21.07300 -6.92500 45.31500
C  21.37700 -8.07600 46.17300
C  22.69400 -7.76800 46.72700
C  19.76000 -6.70000 44.47500
C  20.46500 -9.28500 46.28800
O  19.40400 -9.30700 45.63400
C  20.77500 -10.41500 47.27600
N  25.61700 -7.32800 48.00200
C  24.81100 -8.35400 48.21300
C  25.48900 -9.35800 49.16500
C  26.81200 -8.55700 49.58800
C  26.85400 -7.52100 48.56900
C  24.62400 -9.95600 50.25200
C  28.12100 -9.43500 49.60300
C  29.09400 -8.99800 50.70700
N  26.88400 -5.06000 46.80100
C  28.00000 -5.58000 47.58100
C  29.21600 -4.83300 47.23300
C  28.81400 -4.06000 46.09400
C  27.46200 -4.21100 45.89100
C  30.62100 -4.96900 47.77900
C  29.38300 -3.21600 45.02600
O  30.51100 -2.84700 44.81600
C  28.10600 -2.72700 44.22300
C  28.05800 -1.27600 44.63700
O  27.74100 -0.86500 45.71100
O  28.42000 -0.43600 43.53200
C  28.41400 1.05900 43.78900
H  21.46900 -4.61400 43.95900
H  23.04200 -9.49100 47.87000
H  28.84500 -6.76600 49.02200
H  25.24800 -1.48100 43.51700
H  22.98600 -2.89200 42.55700
H  23.42600 -0.78300 44.15600
H  22.52600 -1.87000 45.17300
H  21.78300 -1.35000 43.62700
H  24.79200 -3.22000 41.21000
H  26.47600 -3.13700 41.84700
H  27.02500 -1.28400 41.07900
H  25.74200 -0.50800 41.74700
H  19.96800 -7.11400 43.48800
H  19.62000 -5.62000 44.50600
H  18.82500 -7.07400 44.89300
H  20.01400 -11.19300 47.22400
H  20.82100 -9.93000 48.25100
H  21.75900 -10.84300 47.08700
H  25.91700 -10.10100 48.49100
H  26.66300 -8.14000 50.58400
H  25.13500 -9.96800 51.21500
H  24.51400 -10.99300 49.93700
H  23.60000 -9.59700 50.14100
H  28.68600 -9.38600 48.67300
H  27.85400 -10.48700 49.70500
H  28.65300 -8.19600 51.29900
H  30.02300 -8.53100 50.37900
H  29.34000 -9.85200 51.33800
H  30.97900 -5.97400 47.55600
H  30.64500 -4.87600 48.86500
H  31.17500 -4.18700 47.26000
H  28.24200 -2.89100 43.15400
H  29.32100 1.19900 44.37600
H  27.69600 1.47500 44.49600
H  28.32500 1.60900 42.85200
Mg 36.37900 49.34900 26.23500
C  36.64800 47.48500 29.34200
C  35.43500 52.06300 28.04500
C  36.06600 50.81900 23.28700
C  37.66000 46.44600 24.59400
N  36.06000 49.68900 28.49600
C  36.31700 48.86200 29.54600
C  36.25900 49.61600 30.87900
C  35.86200 51.08200 30.41100
C  35.84900 50.98200 28.88000
C  34.64800 51.77200 31.09700
C  37.61400 49.59000 31.75200
C  37.70000 49.29700 33.31000
H  36.53200 49.60500 34.21300
N  35.68700 51.22600 25.75400
C  35.41500 52.21600 26.61500
C  35.11200 53.42300 25.89100
C  35.25900 53.09100 24.48100
C  35.68000 51.67900 24.42900
C  34.79400 54.77500 26.55200
C  35.21600 53.99500 23.27200
O  35.17000 53.50200 22.17500
C  35.16300 55.42400 23.51100
N  36.77600 48.63700 24.22200
C  36.64200 49.52600 23.17800
C  37.05600 48.87800 21.91700
C  37.80400 47.52800 22.30400
C  37.43600 47.54100 23.82000
C  36.01200 48.80900 20.77200
C  39.39100 47.47900 22.06500
C  39.94400 46.05800 21.85100
N  36.81800 47.37000 26.75000
C  37.35900 46.35600 25.95900
C  37.44300 45.16600 26.79600
C  37.20900 45.57900 28.07700
C  36.78500 46.92400 28.01500
C  37.94800 43.83000 26.38100
C  37.20600 45.11900 29.45400
O  37.59400 44.05800 29.93700
C  36.89600 46.35500 30.34700
C  35.83300 45.94500 31.27800
O  34.67600 45.43700 31.01500
O  36.16200 46.32400 32.54100
C  35.08100 46.20100 33.55600
H  35.20200 52.97100 28.60400
H  35.94500 51.38800 22.36300
H  38.03400 45.51900 24.15500
H  35.50100 49.11500 31.48200
H  36.75700 51.65700 30.64900
H  34.87700 52.62000 31.74300
H  34.06000 51.05300 31.66800
H  33.90900 52.16800 30.40100
H  38.15800 50.52800 31.64100
H  38.18900 48.77400 31.31300
H  38.57400 49.82400 33.69300
H  37.94300 48.24100 33.43000
H  35.65600 55.41400 26.74000
H  34.35100 54.58300 27.52900
H  34.05500 55.32800 25.97200
H  34.13700 55.72200 23.72400
H  35.54900 55.91300 22.61700
H  35.89600 55.66400 24.28100
H  37.87300 49.49400 21.54200
H  37.26300 46.69600 21.85400
H  35.62600 47.80300 20.61000
H  36.45900 49.03200 19.80300
H  35.15200 49.45800 20.93600
H  39.92200 47.82500 22.95200
H  39.68200 47.99700 21.15200
H  39.11600 45.35000 21.82000
H  40.63300 45.77100 22.64600
H  40.58100 45.83600 20.99500
H  37.71600 43.75800 25.31800
H  37.40700 43.11600 27.00200
H  39.03600 43.80100 26.43800
H  37.81000 46.56700 30.90100
H  34.71100 45.23100 33.88600
H  34.24900 46.79100 33.17200
H  35.35800 46.69500 34.48700

