158

Mg 9.34500 3.61100 28.18200
C  10.58500 1.84800 30.88600
C  6.97100 5.06200 30.23200
C  7.81000 5.05200 25.47300
C  11.09900 1.50000 25.98200
N  8.75200 3.28900 30.33400
C  9.53900 2.71000 31.25600
C  9.14000 3.18700 32.67600
C  7.95500 4.22100 32.47500
C  7.80100 4.16900 30.89000
C  6.66200 3.85400 33.23500
C  10.43900 3.74200 33.52600
C  10.18900 4.64600 34.75700
H  10.73500 4.19300 36.10200
N  7.69200 4.98900 27.89700
C  6.89400 5.45300 28.89600
C  5.93100 6.41400 28.34800
C  6.12800 6.37400 26.90200
C  7.18300 5.40400 26.67700
C  4.90300 7.23900 29.09600
C  5.48800 7.19200 25.78600
O  5.82000 7.07500 24.57300
C  4.29300 8.12400 26.11600
N  9.41200 3.24000 26.05200
C  8.82500 4.06200 25.13500
C  9.30700 3.91000 23.66400
C  10.39400 2.81200 23.94800
C  10.31700 2.46200 25.41200
C  8.21500 3.40100 22.71300
C  11.80500 3.25600 23.49800
C  12.51800 4.26700 24.36500
N  10.58600 2.01400 28.33900
C  11.19300 1.22600 27.31600
C  11.94100 0.21000 27.99800
C  11.79000 0.49900 29.40600
C  10.89300 1.55500 29.51300
C  12.81500 -0.79100 27.29100
C  12.32400 0.16200 30.76700
O  13.16500 -0.62100 31.10800
C  11.54600 1.09300 31.73900
C  10.83300 0.22900 32.66800
O  9.89700 -0.49100 32.37800
O  11.32800 0.29300 33.91100
C  10.54200 -0.35600 34.96700
H  6.29000 5.61700 30.88100
H  7.35100 5.52000 24.59900
H  11.85500 1.04700 25.33700
H  8.82600 2.27200 33.17700
H  8.18800 5.25300 32.73600
H  5.90100 3.62100 32.49000
H  6.29800 4.74100 33.75400
H  6.87900 3.03100 33.91600
H  11.10700 4.22400 32.81200
H  10.90300 2.83000 33.90300
H  9.11900 4.73000 34.94900
H  10.43300 5.65500 34.42500
H  4.88300 6.98200 30.15500
H  3.89500 7.06700 28.71800
H  5.11000 8.26900 28.80800
H  3.89300 8.49500 25.17200
H  4.51800 8.96200 26.77500
H  3.39900 7.59700 26.44700
H  9.76700 4.82500 23.29300
H  10.00600 1.97500 23.36700
H  7.38800 3.02900 23.31800
H  8.55800 2.51200 22.18400
H  8.03000 4.06300 21.86700
H  11.73300 3.74300 22.52600
H  12.43500 2.37600 23.36500
H  12.09700 4.50500 25.34200
H  12.74100 5.17200 23.79900
H  13.50000 3.89000 24.65100
H  13.39700 -0.32700 26.49500
H  12.25800 -1.58400 26.79400
H  13.49200 -1.31500 27.96500
H  12.12800 1.88800 32.20600
H  9.71300 -0.99800 34.66700
H  10.16000 0.49900 35.52400
H  11.16100 -0.99800 35.59400
Mg 24.62000 -5.69500 45.88700
C  26.71100 -3.56600 44.12300
C  22.05500 -5.00800 43.54400
C  22.86200 -8.52300 46.75500
C  27.39200 -7.11600 47.45400
N  24.33600 -4.38300 44.21500
C  25.37100 -3.61000 43.66500
C  24.83600 -2.74400 42.47000
C  23.30500 -3.00800 42.48400
C  23.22000 -4.21200 43.44300
C  22.46200 -1.79400 43.04500
C  25.65600 -3.14800 41.19700
C  26.43700 -2.06600 40.40500
H  26.05200 -1.91200 38.86700
N  22.62100 -6.46200 45.43700
C  21.73800 -6.03300 44.42900
C  20.57400 -6.82300 44.44400
C  20.65800 -7.83900 45.54600
C  22.09200 -7.65500 46.01600
C  19.35300 -6.60100 43.47400
C  19.62900 -8.92600 45.93600
O  18.57400 -8.85900 45.34300
C  19.80800 -9.87900 47.01400
N  25.07900 -7.63700 47.00900
C  24.20600 -8.59500 47.15700
C  24.77400 -9.91800 47.74800
C  26.32600 -9.35900 48.06100
C  26.25400 -7.96300 47.45700
C  24.08300 -10.46900 49.06600
C  27.50200 -10.25900 47.38400
C  28.48400 -11.06200 48.26000
N  26.71500 -5.31400 45.95200
C  27.68200 -5.91400 46.73300
C  28.92300 -5.26400 46.45400
C  28.66400 -4.32600 45.44400
C  27.28100 -4.40200 45.13800
C  30.22000 -5.62500 47.08800
C  29.19000 -3.27900 44.54600
O  30.31000 -2.81200 44.54200
C  28.02000 -2.84900 43.66300
C  27.99000 -1.37800 43.80700
O  27.55900 -0.82300 44.79800
O  28.62500 -0.84600 42.70400
C  28.81800 0.62400 42.83100
H  21.37900 -4.78000 42.71700
H  22.37700 -9.49400 46.87300
H  28.24700 -7.53200 47.99200
H  25.23500 -1.76000 42.71900
H  22.82800 -3.25900 41.53600
H  23.08200 -0.90600 43.16300
H  22.07000 -2.04500 44.03100
H  21.69100 -1.54900 42.31500
H  24.85500 -3.51200 40.55400
H  26.34400 -3.97200 41.38700
H  27.51700 -2.20400 40.34800
H  26.24000 -1.06400 40.78500
H  18.78500 -5.74800 43.84500
H  18.87000 -7.56300 43.29900
H  19.78200 -6.29700 42.51900
H  18.84500 -10.15500 47.44300
H  20.54000 -9.49800 47.72700
H  20.27200 -10.71400 46.48900
H  24.70600 -10.60100 46.90100
H  26.38100 -9.24300 49.14400
H  23.16000 -9.91900 49.24700
H  24.75100 -10.35600 49.92000
H  23.78400 -11.49300 48.84100
H  28.13000 -9.62100 46.76200
H  27.02600 -11.06000 46.81800
H  28.36600 -12.12700 48.06300
H  28.19900 -10.84300 49.28900
H  29.51900 -10.87600 47.97300
H  30.11700 -6.02400 48.09700
H  30.96000 -4.83000 47.18000
H  30.72200 -6.39500 46.50300
H  28.25900 -3.12400 42.63600
H  28.12500 1.00300 43.58200
H  28.59200 1.06400 41.86000
H  29.88200 0.72100 43.05100

