158

Mg 26.82000 51.38000 25.20500
C  24.86900 52.59900 27.85300
C  28.94400 49.97500 27.64500
C  28.75600 50.44700 22.86800
C  24.59200 52.89400 23.06000
N  26.82600 51.22900 27.36300
C  25.91300 51.83500 28.22900
C  26.24700 51.58800 29.65500
C  27.68200 50.95800 29.62400
C  27.84400 50.63500 28.14100
C  28.88300 51.90100 29.99800
C  25.21200 50.60200 30.27100
C  24.66700 51.07500 31.54000
H  25.57200 51.67600 32.64500
N  28.73200 50.31300 25.21000
C  29.46100 49.89500 26.32600
C  30.68400 49.27700 25.84800
C  30.62800 49.45000 24.41300
C  29.30700 50.03800 24.09900
C  31.71100 48.67100 26.76700
C  31.73900 49.07800 23.32400
O  31.64300 49.17200 22.10500
C  33.04500 48.60400 23.86300
N  26.71900 51.73500 23.19000
C  27.67600 51.23400 22.45500
C  27.33900 51.35500 20.93500
C  25.96700 52.11100 21.00600
C  25.70100 52.30800 22.49700
C  28.40300 52.02100 20.07100
C  24.74300 51.31000 20.38400
C  23.91600 52.09200 19.36600
N  25.11600 52.58300 25.37500
C  24.28400 53.08100 24.41800
C  23.16600 53.80700 25.01900
C  23.38400 53.61000 26.39600
C  24.54200 52.87600 26.53300
C  22.14700 54.73200 24.44000
C  22.89200 54.03900 27.70000
O  21.93800 54.76000 27.98900
C  23.81200 53.31300 28.76300
C  24.38800 54.39600 29.63700
O  25.32300 55.07700 29.39700
O  23.59900 54.59100 30.82200
C  23.86400 55.78900 31.68400
H  29.57800 49.52700 28.41300
H  29.05000 49.92700 21.95400
H  23.92500 53.31800 22.30500
H  26.35100 52.53200 30.18900
H  27.78500 50.08800 30.27300
H  28.52000 52.77500 30.54000
H  29.38300 52.23800 29.09000
H  29.58200 51.32700 30.60700
H  25.59300 49.58400 30.34500
H  24.32900 50.41900 29.65900
H  24.16600 50.29400 32.11200
H  23.76000 51.66000 31.38600
H  31.73700 47.59100 26.62100
H  31.45000 48.92400 27.79500
H  32.66000 49.16300 26.55400
H  33.41100 49.50400 24.35700
H  33.75500 48.30800 23.09000
H  33.02800 47.76500 24.55800
H  27.30800 50.34600 20.52500
H  26.17300 53.10400 20.60500
H  27.99400 52.84000 19.47800
H  28.87800 51.31800 19.38800
H  29.15100 52.31300 20.80800
H  24.01900 50.99700 21.13600
H  25.05700 50.43600 19.81300
H  23.98600 51.64500 18.37500
H  24.24800 53.13000 19.35300
H  22.90100 52.24000 19.73600
H  22.24000 54.52600 23.37400
H  22.41500 55.76200 24.67700
H  21.12700 54.50600 24.74900
H  23.23400 52.57800 29.32300
H  24.86600 55.56800 32.05000
H  23.17000 55.86800 32.52100
H  23.92000 56.72600 31.13000
Mg -11.84200 16.70200 42.91500
C  -8.45300 15.62800 42.41700
C  -10.85000 19.75800 41.58000
C  -15.12700 17.34700 42.40100
C  -12.57400 13.56400 44.04100
N  -9.85600 17.47600 41.92200
C  -8.64900 16.90200 41.99000
C  -7.60400 17.81600 41.38200
C  -8.27900 19.29300 41.48500
C  -9.74500 18.88900 41.63800
C  -7.72300 20.28400 42.55200
C  -6.97600 17.28100 40.06900
C  -5.46400 17.19500 40.00000
H  -4.75300 16.27100 38.93600
N  -12.86100 18.29100 42.13200
C  -12.24400 19.44900 41.64700
C  -13.30900 20.32800 41.14700
C  -14.57500 19.65500 41.28000
C  -14.24300 18.38100 41.96600
C  -13.08600 21.65200 40.34900
C  -15.95300 20.20700 40.77800
O  -15.99200 21.29100 40.18000
C  -17.23100 19.47200 40.84900
N  -13.72000 15.61500 43.17000
C  -14.95200 16.10800 42.97100
C  -15.98900 15.21200 43.42000
C  -15.16800 14.09800 44.08500
C  -13.70700 14.39700 43.73500
C  -17.12100 15.73400 44.29800
C  -15.67400 12.63000 43.75900
C  -15.59400 11.52900 44.85900
N  -10.77100 14.88300 43.19400
C  -11.19700 13.73200 43.81400
C  -10.03100 12.82000 43.95100
C  -8.96300 13.52500 43.42400
C  -9.46400 14.77900 42.93500
C  -10.01800 11.38600 44.57300
C  -7.55500 13.51900 43.27800
O  -6.82000 12.62000 43.64600
C  -7.08800 14.89400 42.63100
C  -6.28000 15.67700 43.60400
O  -6.73300 16.45800 44.45400
O  -4.98500 15.41100 43.44700
C  -4.04300 16.35800 44.17300
H  -10.60700 20.79500 41.33800
H  -16.17000 17.57300 42.16800
H  -12.87900 12.64600 44.54600
H  -6.76900 17.87000 42.08000
H  -8.22500 19.74400 40.49400
H  -7.42000 21.19500 42.03600
H  -6.88600 19.96000 43.17100
H  -8.57000 20.55000 43.18300
H  -7.45100 17.90800 39.31400
H  -7.39800 16.30500 39.82900
H  -5.03400 16.90900 40.96000
H  -5.13000 18.21500 39.81000
H  -13.67900 21.76300 39.44100
H  -12.04900 21.71700 40.02100
H  -13.31400 22.46400 41.04000
H  -17.61700 19.54600 41.86600
H  -17.12100 18.42100 40.58400
H  -17.97500 20.00800 40.26000
H  -16.38100 14.90100 42.45200
H  -15.33900 14.25800 45.15000
H  -17.97100 16.16900 43.77100
H  -16.67900 16.47900 44.95900
H  -17.46800 14.87400 44.87000
H  -15.11800 12.28900 42.88600
H  -16.74400 12.62100 43.54800
H  -15.15300 11.92400 45.77400
H  -15.07000 10.69000 44.40200
H  -16.60900 11.16400 45.01600
H  -9.13100 11.08300 45.12800
H  -10.12000 10.60300 43.82200
H  -10.93700 11.30000 45.15300
H  -6.47600 14.80400 41.73400
H  -4.03600 16.03100 45.21300
H  -4.33100 17.40900 44.17300
H  -3.01200 16.22800 43.84300

