158

Mg 24.91500 -4.88600 45.11700
C  26.96200 -2.36500 43.85600
C  22.30800 -3.63300 43.13200
C  23.21100 -7.65900 45.63400
C  27.64000 -6.15700 46.96400
N  24.69500 -3.30300 43.62000
C  25.71300 -2.38000 43.31100
C  25.20200 -1.40600 42.21300
C  23.68300 -1.62200 42.28700
C  23.51800 -2.91900 43.04500
C  22.91900 -0.30900 42.76800
C  25.60700 -1.83800 40.72300
C  25.78000 -0.71100 39.77500
H  25.18900 -0.81000 38.34800
N  22.99000 -5.50200 44.55900
C  22.11000 -4.85600 43.79400
C  20.93200 -5.65600 43.59500
C  21.06900 -6.80700 44.35000
C  22.46100 -6.69700 44.90500
C  19.75400 -5.11100 42.87900
C  19.94800 -7.78300 44.65100
O  18.84000 -7.71100 44.16400
C  20.20700 -8.83500 45.60200
N  25.43100 -6.69700 46.11500
C  24.47100 -7.71400 46.26000
C  24.95100 -8.82600 47.25100
C  26.42100 -8.29600 47.65500
C  26.53900 -7.01300 46.85500
C  24.12500 -9.15800 48.50400
C  27.51700 -9.23900 47.06100
C  28.22300 -10.26200 47.97400
N  26.88000 -4.37200 45.46400
C  27.88600 -4.97400 46.23900
C  29.08400 -4.12300 46.15300
C  28.74500 -3.13500 45.24000
C  27.41900 -3.34200 44.83700
C  30.40300 -4.27600 46.84200
C  29.24100 -1.95300 44.64600
O  30.34800 -1.43100 44.80500
C  28.15900 -1.49100 43.61900
C  27.96200 -0.05200 43.65500
O  27.18100 0.58300 44.34900
O  28.78300 0.53400 42.75000
C  29.03700 1.88400 42.93000
H  21.43300 -3.16600 42.67500
H  22.70700 -8.61900 45.76900
H  28.53800 -6.50700 47.47600
H  25.44800 -0.36500 42.42100
H  23.21000 -1.74300 41.31300
H  22.42300 0.23800 41.96600
H  23.61400 0.43400 43.15900
H  22.24000 -0.50800 43.59600
H  24.91100 -2.56600 40.30600
H  26.50100 -2.45200 40.83900
H  26.80800 -0.35000 39.74100
H  25.25700 0.09300 40.29300
H  20.13600 -4.97300 41.86700
H  19.44000 -4.13600 43.25000
H  18.98600 -5.88100 42.81400
H  20.47600 -8.36600 46.54900
H  20.93500 -9.48200 45.11400
H  19.28500 -9.39400 45.75900
H  24.98600 -9.70200 46.60300
H  26.58300 -8.05200 48.70500
H  23.70500 -10.15800 48.60500
H  23.29900 -8.47700 48.29900
H  24.51800 -8.79700 49.45500
H  28.33900 -8.68900 46.60300
H  27.12200 -9.80000 46.21500
H  27.87400 -10.20700 49.00500
H  29.28000 -10.00300 47.91900
H  27.99100 -11.29200 47.69900
H  30.73000 -5.27200 46.54300
H  30.29200 -4.24500 47.92600
H  31.11000 -3.56900 46.40900
H  28.48800 -1.81600 42.63200
H  30.08700 2.02300 43.18600
H  28.40500 2.43100 43.63000
H  28.90100 2.25100 41.91300
Mg 17.03800 -0.50800 27.99200
C  16.00000 1.59200 30.63900
C  19.13600 -2.06200 30.18600
C  18.63000 -2.04500 25.35100
C  15.42100 1.66000 25.72700
N  17.56600 -0.14900 30.05500
C  16.92000 0.55500 31.02400
C  17.33600 0.19900 32.41300
C  18.54000 -0.78600 32.25100
C  18.39500 -1.02600 30.71800
C  19.95500 -0.10000 32.43700
C  16.20500 -0.31100 33.39000
C  16.73200 -0.70400 34.78100
H  17.88500 0.05200 35.51800
N  18.52600 -2.07400 27.86200
C  19.32400 -2.55100 28.87300
C  20.17600 -3.60100 28.38400
C  19.96600 -3.61600 26.99300
C  18.99800 -2.57900 26.65700
C  21.21300 -4.29200 29.31400
C  20.61900 -4.44400 25.87600
O  20.30900 -4.31200 24.68800
C  21.44200 -5.58200 26.17100
N  16.87500 -0.29400 25.81300
C  17.75000 -0.98100 25.03900
C  17.63900 -0.38300 23.64600
C  16.46600 0.63600 23.69300
C  16.24700 0.71500 25.16300
C  18.98100 0.18900 23.16400
C  15.22700 0.30300 22.87000
C  14.01100 -0.31300 23.48300
N  15.83100 1.16200 28.10000
C  15.22800 1.92800 27.14100
C  14.51900 3.02200 27.73400
C  14.80000 2.90300 29.09200
C  15.63400 1.81200 29.28200
C  13.65500 3.96300 27.14300
C  14.42900 3.49000 30.35000
O  13.66600 4.38600 30.66400
C  15.21100 2.61400 31.44600
C  15.97700 3.45900 32.35200
O  17.17500 3.64300 32.31100
O  15.16800 3.97000 33.31600
C  15.87600 4.41600 34.50900
H  19.57700 -2.65800 30.98800
H  19.21400 -2.33800 24.47600
H  14.98100 2.42500 25.08400
H  17.73100 1.09600 32.89000
H  18.52900 -1.60800 32.96600
H  20.61100 -0.33300 31.59800
H  20.55700 -0.27600 33.32800
H  19.77300 0.97400 32.42900
H  15.98700 -1.27600 32.93200
H  15.32900 0.33800 33.42400
H  17.04900 -1.74300 34.68900
H  15.90100 -0.62400 35.48200
H  21.23400 -5.37000 29.15300
H  20.83200 -4.28400 30.33600
H  22.23500 -3.93500 29.19500
H  21.14400 -6.15500 27.04800
H  22.41100 -5.18100 26.47000
H  21.51400 -6.20500 25.27900
H  17.40000 -1.24600 23.02400
H  16.79200 1.61000 23.32900
H  19.08100 1.26900 23.27100
H  19.10200 -0.10500 22.12200
H  19.83500 -0.11700 23.76800
H  15.51600 -0.34000 22.03800
H  14.92600 1.26000 22.44300
H  14.10500 -0.82400 24.44100
H  13.54700 -1.08500 22.86900
H  13.29700 0.48400 23.69300
H  13.70200 4.97400 27.54500
H  12.67200 3.50500 27.25100
H  13.88000 4.11500 26.08700
H  14.46800 2.00800 31.96600
H  16.69600 5.09100 34.26400
H  16.33100 3.52900 34.94900
H  15.22800 4.91300 35.23100

