158

Mg 30.11300 58.16900 39.98000
C  27.37300 56.24900 39.13800
C  32.12000 55.52600 38.97800
C  32.80500 60.16500 40.06700
C  27.96300 60.95100 40.08900
N  29.77100 56.08700 39.37200
C  28.56300 55.49400 39.03500
C  28.75600 54.02000 38.75100
C  30.12900 53.68300 39.33200
C  30.79100 55.18100 39.23500
C  30.16700 53.07500 40.76200
C  28.70600 53.67000 37.21100
C  27.62600 52.64900 36.62100
H  26.73500 53.35900 35.60100
N  32.19100 57.90000 39.46200
C  32.80600 56.77700 39.09200
C  34.20100 56.94200 39.00500
C  34.47000 58.29000 39.43200
C  33.13000 58.94400 39.59400
C  35.05400 55.83500 38.60700
C  35.83300 58.86800 39.63400
O  36.79700 58.14600 39.37500
C  36.01600 60.27600 40.16200
N  30.32300 60.36800 39.88400
C  31.59200 60.87400 40.18600
C  31.38800 62.32100 40.59900
C  29.81700 62.46500 40.74700
C  29.28300 61.17200 40.15100
C  32.11300 62.83100 41.91400
C  29.15200 63.65700 39.97600
C  28.50700 64.67100 40.85300
N  28.03300 58.53000 39.89200
C  27.35800 59.71600 39.89700
C  25.94800 59.37400 39.87600
C  25.89500 57.96300 39.59300
C  27.20500 57.58600 39.50200
C  24.89200 60.38800 40.02700
C  25.05600 56.87300 39.32100
O  23.85400 56.79600 39.30200
C  26.02900 55.68900 38.98700
C  25.60100 54.48000 39.71100
O  26.01900 54.11800 40.81200
O  24.81500 53.61900 38.91700
C  24.31600 52.36100 39.48500
H  32.67900 54.61900 38.74200
H  33.65200 60.81900 40.28700
H  27.27900 61.73400 40.42200
H  28.02200 53.43000 39.30100
H  30.63700 53.10200 38.56300
H  29.24700 53.40500 41.24400
H  31.05000 53.50700 41.23400
H  30.31600 51.99500 40.75300
H  29.63400 53.35800 36.73100
H  28.52000 54.60800 36.68700
H  26.89900 52.30500 37.35700
H  28.21000 51.84600 36.17200
H  35.28000 55.32200 39.54200
H  35.95300 56.21900 38.12500
H  34.55100 55.02400 38.08000
H  35.57900 60.60100 41.10500
H  35.98900 60.92500 39.28700
H  37.09400 60.22600 40.31900
H  31.69300 62.87700 39.71300
H  29.51100 62.54700 41.79000
H  32.31800 61.93000 42.49300
H  31.47200 63.55400 42.42000
H  33.04400 63.34100 41.66500
H  28.30100 63.35500 39.36600
H  29.91500 64.19600 39.41300
H  28.24500 64.44600 41.88700
H  27.60600 64.92700 40.29500
H  29.17400 65.52500 40.96700
H  23.96200 59.84900 39.84200
H  25.02800 61.14900 39.25900
H  24.95400 60.90400 40.98500
H  25.87800 55.31700 37.97400
H  24.17400 51.63600 38.68300
H  23.38800 52.49400 40.04200
H  25.00600 51.93600 40.21300
Mg -12.05700 37.91200 42.30000
C  -9.31200 35.85500 42.01900
C  -9.96900 40.73300 41.93100
C  -14.72600 39.91300 42.28300
C  -14.08600 35.07100 43.01500
N  -9.86900 38.18400 41.82100
C  -8.97700 37.19400 41.82500
C  -7.58300 37.81700 41.51800
C  -7.69500 39.32000 41.95300
C  -9.24000 39.49100 41.88900
C  -7.26600 39.57800 43.45800
C  -7.06200 37.70300 39.99100
C  -5.78600 36.86500 39.66900
H  -5.93800 35.80100 38.58400
N  -12.25500 40.03500 41.89900
C  -11.33300 41.02000 41.91800
C  -11.95500 42.35700 41.73400
C  -13.36400 42.15400 41.66700
C  -13.52300 40.59900 41.89600
C  -11.14400 43.72000 41.43600
C  -14.42200 43.20500 41.44300
O  -14.11200 44.35900 41.33200
C  -15.94300 42.91100 41.16700
N  -14.10000 37.60100 42.42700
C  -15.03000 38.57100 42.48900
C  -16.40400 38.09400 42.82500
C  -16.19800 36.56900 42.79500
C  -14.71300 36.37100 42.77800
C  -16.88100 38.63500 44.21100
C  -16.99700 35.71000 41.70300
C  -16.28100 35.14800 40.42500
N  -11.84000 35.84400 42.53800
C  -12.70300 34.83500 42.89000
C  -11.93700 33.62900 43.00600
C  -10.59400 33.95800 42.64900
C  -10.62200 35.31300 42.39400
C  -12.45700 32.29900 43.48300
C  -9.30100 33.46500 42.47200
O  -8.94400 32.31900 42.60300
C  -8.33600 34.66200 42.02900
C  -7.21800 34.79000 42.93300
O  -7.28300 35.17800 44.13400
O  -6.05100 34.15400 42.45200
C  -4.94400 33.87600 43.39300
H  -9.27100 41.57000 42.00500
H  -15.45000 40.67400 42.58000
H  -14.76700 34.27200 43.31500
H  -6.87900 37.36100 42.21400
H  -7.26200 40.02800 41.24600
H  -6.59800 38.81600 43.86200
H  -8.16700 39.73500 44.05000
H  -6.67000 40.48200 43.58600
H  -6.93300 38.71100 39.59700
H  -7.86400 37.22300 39.42900
H  -5.36800 36.31000 40.50900
H  -4.97300 37.54800 39.42400
H  -11.75600 44.43100 40.88000
H  -10.18700 43.52300 40.95300
H  -10.98100 44.17400 42.41300
H  -16.13700 41.88900 40.84100
H  -16.25300 43.52500 40.32200
H  -16.49000 43.20300 42.06300
H  -17.04800 38.40700 42.00300
H  -16.62500 36.12700 43.69500
H  -16.02400 38.88200 44.83800
H  -17.45000 37.80300 44.62600
H  -17.60100 39.45400 44.21100
H  -17.83900 36.29300 41.32900
H  -17.34900 34.84500 42.26500
H  -16.58800 34.10200 40.44100
H  -15.19700 35.24500 40.47900
H  -16.48800 35.65800 39.48400
H  -12.16700 32.15100 44.52300
H  -12.01500 31.43700 42.98500
H  -13.54400 32.24200 43.42600
H  -7.90100 34.47900 41.04700
H  -4.12500 33.44900 42.81300
H  -5.29500 33.02000 43.96900
H  -4.67600 34.67900 44.08000

