158

Mg 54.33000 23.29000 45.12400
C  51.97800 25.33400 43.72800
C  52.49200 20.54800 44.27100
C  57.21200 21.25300 45.18300
C  56.39000 26.07300 45.45700
N  52.41600 23.01900 44.11600
C  51.56300 23.96400 43.70200
C  50.28600 23.30900 43.10700
C  50.34300 21.90400 43.79800
C  51.83700 21.75800 44.02800
C  49.54100 21.87500 45.19600
C  50.28100 23.32500 41.54600
C  49.03100 23.76900 40.87900
H  48.82700 23.60600 39.41700
N  54.77400 21.13400 44.83900
C  53.82000 20.21300 44.48200
C  54.44900 18.92000 44.57400
C  55.82100 19.11300 44.78300
C  55.97900 20.54300 44.96000
C  53.64200 17.56300 44.39500
C  56.83200 17.93900 44.77400
O  56.39400 16.76700 44.56600
C  58.29400 18.10900 44.86800
N  56.41700 23.61300 45.29500
C  57.39400 22.65500 45.39300
C  58.77200 23.28100 45.83600
C  58.50500 24.79700 45.76500
C  57.00800 24.83000 45.52100
C  59.23200 22.66800 47.23900
C  59.26200 25.57400 44.66200
C  60.05500 26.83500 45.01800
N  54.07800 25.36000 45.01700
C  55.02800 26.31000 45.17600
C  54.42600 27.58900 45.02900
C  53.26100 27.32900 44.34700
C  53.15300 25.88100 44.33600
C  54.93800 28.81300 45.56900
C  52.08100 27.81200 43.69900
O  51.71200 29.00200 43.59100
C  51.16700 26.57000 43.23100
C  51.01800 26.68300 41.82600
O  51.84200 26.43500 40.97100
O  49.71900 27.12700 41.57700
C  49.42600 27.29000 40.13200
H  51.77800 19.72200 44.25500
H  58.10500 20.63500 45.29400
H  57.01200 26.96900 45.50000
H  49.48100 23.87700 43.57300
H  49.91800 21.18400 43.09900
H  50.05800 21.35100 46.00000
H  48.58600 21.37100 45.05200
H  49.29300 22.86800 45.57100
H  50.36900 22.28300 41.23700
H  51.14200 23.83200 41.11200
H  48.89300 24.81300 41.15800
H  48.18600 23.22500 41.30300
H  52.57700 17.77000 44.49100
H  53.87600 16.80600 45.14500
H  53.85300 17.13800 43.41400
H  58.63600 18.53800 45.81000
H  58.62000 18.65400 43.98300
H  58.80800 17.15300 44.76300
H  59.48400 23.00600 45.05800
H  58.77600 25.23400 46.72600
H  58.61700 21.80900 47.50700
H  59.21700 23.38600 48.05900
H  60.25500 22.30900 47.12500
H  58.57900 25.87000 43.86500
H  59.95000 24.86100 44.20700
H  61.12100 26.61300 44.98300
H  59.94400 27.21900 46.03200
H  59.73400 27.64700 44.36500
H  54.83100 28.80800 46.65400
H  54.36200 29.67800 45.24100
H  55.99000 28.95900 45.32500
H  50.24300 26.74200 43.78400
H  48.48000 27.82200 40.03100
H  49.45000 26.36800 39.55200
H  50.15400 27.91500 39.61600
Mg 35.43900 49.41900 24.50800
C  35.82000 47.63400 27.35800
C  34.18300 52.03000 26.23500
C  34.78200 51.04900 21.52100
C  36.58000 46.63800 22.68200
N  35.02100 49.75100 26.55600
C  35.35800 48.95000 27.64000
C  35.02100 49.57100 28.98400
C  34.45400 50.95700 28.54900
C  34.62700 50.89600 27.04800
C  32.97400 51.12100 28.94300
C  36.29500 49.65100 29.91900
C  36.11900 49.17000 31.37900
H  34.74800 48.93300 31.90200
N  34.53100 51.26300 23.98800
C  34.15300 52.22200 24.87200
C  33.66900 53.34900 24.16100
C  33.92000 53.06200 22.74700
C  34.44800 51.71900 22.69900
C  33.28100 54.57200 24.86500
C  33.67200 53.95800 21.54300
O  33.99800 53.71300 20.40400
C  33.07600 55.36400 21.83000
N  35.71800 48.92400 22.41300
C  35.32700 49.73800 21.31600
C  35.84500 49.17900 19.94700
C  36.48600 47.78300 20.41600
C  36.23700 47.76200 21.92400
C  34.66800 49.03400 18.99300
C  37.95900 47.61900 19.88000
C  38.46400 46.15500 19.51100
N  36.19800 47.54200 24.93900
C  36.63600 46.50200 24.11000
C  37.10400 45.44000 24.89400
C  36.71500 45.78400 26.17700
C  36.24800 47.07900 26.13600
C  37.71800 44.08200 24.28500
C  36.64600 45.31200 27.56900
O  36.95600 44.25600 28.07500
C  35.99500 46.51000 28.45600
C  34.83100 46.00400 29.13300
O  33.71700 45.85000 28.65400
O  35.27500 45.46300 30.30600
C  34.28400 44.71600 31.13100
H  33.68500 52.75800 26.87800
H  34.58700 51.49700 20.54400
H  36.92100 45.72600 22.18800
H  34.21100 49.02000 29.46200
H  34.94100 51.88600 28.84700
H  32.72400 50.65800 29.89700
H  32.30000 50.68900 28.20300
H  32.71200 52.17500 29.04000
H  36.75000 50.63800 29.84500
H  37.14200 49.03600 29.61400
H  36.61600 49.84400 32.07700
H  36.71000 48.27900 31.59000
H  33.73300 55.43800 24.38100
H  33.54200 54.49300 25.92100
H  32.23300 54.84400 24.74000
H  32.17300 55.11800 22.38900
H  32.70200 55.80600 20.90600
H  33.76200 56.06400 22.30600
H  36.58400 49.80000 19.44100
H  35.80700 47.09900 19.90800
H  34.83400 48.42500 18.10500
H  34.23800 50.00500 18.74600
H  33.87400 48.53300 19.54600
H  38.71500 48.13500 20.47300
H  37.96600 48.14500 18.92600
H  39.38200 45.97200 20.07100
H  38.72600 46.10800 18.45400
H  37.69900 45.42800 19.78400
H  37.14600 43.83600 23.39000
H  37.62800 43.31100 25.05100
H  38.78100 44.18200 24.06400
H  36.73400 46.75800 29.21700
H  34.86800 44.10300 31.81800
H  33.75300 44.03200 30.46800
H  33.55200 45.32400 31.66200

