158

Mg 41.04400 40.85400 26.99300
C  40.54600 43.20100 29.60700
C  42.16700 38.69400 29.27500
C  41.78700 38.71000 24.42900
C  40.40400 43.31200 24.68000
N  41.25700 40.94300 29.22100
C  40.95600 41.95900 30.04900
C  40.98600 41.51400 31.56900
C  41.56200 40.04200 31.39200
C  41.71500 39.85900 29.87700
C  42.89000 39.84800 32.17900
C  39.57600 41.56900 32.23800
C  39.41000 42.43800 33.51200
H  39.05800 41.88100 34.96900
N  41.82300 38.95500 26.88100
C  42.17600 38.25400 27.94900
C  42.62500 36.94400 27.49600
C  42.45500 36.84000 26.08800
C  41.98000 38.19000 25.79100
C  43.26300 35.97900 28.41900
C  42.60400 35.68500 25.20500
O  42.52100 35.87000 23.96900
C  42.88900 34.30000 25.66200
N  41.00600 40.88000 24.88700
C  41.35100 39.89100 23.98200
C  41.09200 40.20800 22.52100
C  40.81700 41.77700 22.62700
C  40.65400 41.99800 24.18500
C  42.17000 39.88500 21.39600
C  39.53900 42.29700 21.92500
C  39.88000 43.45600 21.00000
N  40.34000 42.79200 27.03000
C  40.12400 43.70900 26.02800
C  39.95200 44.97700 26.53800
C  39.95900 44.82300 27.87900
C  40.30600 43.48200 28.20000
C  39.74400 46.26700 25.78200
C  39.80900 45.51800 29.17600
O  39.40100 46.63500 29.42000
C  40.17300 44.49100 30.31200
C  41.31100 45.00400 31.17600
O  42.46600 45.08900 30.84800
O  40.84600 45.28300 32.45300
C  41.73900 45.98700 33.40500
H  42.49800 37.96000 30.01300
H  41.96300 38.02900 23.59400
H  40.20700 44.09900 23.94900
H  41.71300 42.10700 32.12500
H  40.76300 39.40200 31.76900
H  43.12800 40.78200 32.68800
H  43.69000 39.73200 31.44800
H  43.02000 39.02700 32.88500
H  39.12200 40.61600 32.50900
H  38.90500 42.03900 31.51900
H  38.56300 43.08800 33.29400
H  40.30200 43.03100 33.71500
H  42.58800 35.21800 28.81000
H  43.71000 36.44400 29.29800
H  44.03600 35.44000 27.87200
H  42.21400 34.10900 26.49600
H  43.92200 34.30100 26.00800
H  42.76100 33.58100 24.85200
H  40.16600 39.68400 22.28300
H  41.66900 42.41300 22.38500
H  42.62400 40.78000 20.97000
H  41.73400 39.25100 20.62400
H  42.97800 39.40500 21.94800
H  38.76300 42.64700 22.60600
H  39.16700 41.53800 21.23700
H  39.10100 44.20100 21.15900
H  39.93300 43.13700 19.95900
H  40.83500 43.95900 21.15000
H  39.15100 46.99800 26.33200
H  39.28000 46.11400 24.80800
H  40.72600 46.73300 25.70000
H  39.32700 44.23500 30.95000
H  42.72600 46.07900 32.95100
H  41.82500 45.31100 34.25600
H  41.19700 46.91600 33.58200
Mg -10.58100 39.37500 40.50600
C  -9.56200 36.31900 39.46000
C  -7.76600 40.76700 38.89600
C  -11.84200 42.56400 40.94300
C  -13.71600 38.14300 41.31300
N  -8.83700 38.58500 39.34900
C  -8.67300 37.29600 39.05500
C  -7.45400 37.03100 38.12400
C  -6.78200 38.41700 38.20500
C  -7.88300 39.37700 38.79100
C  -5.43100 38.48500 39.02800
C  -7.81500 36.60600 36.63600
C  -6.72200 36.54300 35.58800
H  -6.70100 37.63700 34.58500
N  -9.85700 41.38000 40.14000
C  -8.65800 41.68800 39.51600
C  -8.44100 43.11500 39.43200
C  -9.49100 43.62400 40.20300
C  -10.51600 42.55000 40.44400
C  -7.18800 43.89500 38.88700
C  -9.71300 45.04700 40.68400
O  -8.84200 45.91600 40.47100
C  -10.87400 45.46800 41.45100
N  -12.59000 40.24100 40.98800
C  -12.76400 41.52200 41.27000
C  -14.20400 41.86500 41.72100
C  -14.80000 40.38500 41.83700
C  -13.70000 39.56300 41.27800
C  -14.27700 42.76400 42.96700
C  -16.16900 40.13700 41.10100
C  -17.37100 40.42900 41.98800
N  -11.47600 37.60200 40.58100
C  -12.71500 37.20900 40.99600
C  -12.84000 35.76600 40.94500
C  -11.65800 35.45500 40.21600
C  -10.80700 36.58600 40.11200
C  -14.02100 34.87400 41.33100
C  -10.94300 34.36200 39.62500
O  -11.36400 33.20900 39.50900
C  -9.58000 34.85200 39.11900
C  -8.49600 34.15400 39.81100
O  -8.31100 34.14700 41.04200
O  -7.59300 33.70900 38.84000
C  -6.33100 33.23400 39.44800
H  -6.84300 41.09800 38.41700
H  -12.33100 43.51800 41.14900
H  -14.65900 37.65200 41.56300
H  -6.86300 36.29600 38.67000
H  -6.59200 38.81300 37.20800
H  -5.67600 39.21300 39.80000
H  -4.68100 38.78500 38.29600
H  -5.26000 37.52200 39.50900
H  -8.63000 37.20400 36.22900
H  -8.19800 35.59400 36.76800
H  -6.96200 35.57400 35.15300
H  -5.80400 36.57100 36.17500
H  -7.60300 44.65500 38.22400
H  -6.58000 43.21600 38.29000
H  -6.62700 44.40800 39.66900
H  -11.18500 44.73000 42.19100
H  -11.71000 45.64900 40.77700
H  -10.61500 46.36100 42.01900
H  -14.61800 42.41800 40.87800
H  -14.77300 40.15800 42.90300
H  -15.02900 43.54600 42.86100
H  -13.34400 43.30900 43.10500
H  -14.42000 42.18600 43.88000
H  -16.17900 39.15200 40.63500
H  -16.37400 40.86700 40.31800
H  -17.95000 39.51200 42.09400
H  -18.01300 41.19300 41.55000
H  -17.14100 40.81300 42.98200
H  -13.82300 33.85900 40.98700
H  -14.96500 35.19200 40.88800
H  -14.12500 34.83200 42.41600
H  -9.57900 34.73600 38.03600
H  -5.76300 32.68700 38.69500
H  -6.48800 32.57500 40.30100
H  -5.67900 34.02300 39.82500

