158

Mg 15.64200 51.63300 25.64900
C  17.69500 50.50700 28.23100
C  13.32600 52.49900 27.96600
C  13.56800 52.13500 23.05100
C  18.01000 50.41300 23.34400
N  15.49300 51.41500 27.84800
C  16.53800 51.03500 28.70300
C  16.22700 51.36500 30.20800
C  14.67600 51.91400 30.10300
C  14.50100 51.97700 28.56900
C  13.70400 50.80700 30.68000
C  17.24100 52.39100 30.92900
C  17.43500 52.34000 32.45200
H  16.58500 51.36600 33.23900
N  13.74000 52.30100 25.54400
C  12.93000 52.54400 26.63500
C  11.61100 53.04000 26.05800
C  11.71100 52.75100 24.63700
C  13.06600 52.37900 24.39700
C  10.48300 53.53800 26.90300
C  10.58700 52.81100 23.60400
O  10.62900 52.48100 22.43600
C  9.21800 53.27900 24.15900
N  15.77900 51.31300 23.55200
C  14.77500 51.63200 22.64400
C  15.28900 51.78400 21.17800
C  16.74400 51.28400 21.33400
C  16.84700 50.94400 22.80800
C  14.41900 50.90600 20.20100
C  17.87300 52.36000 20.87600
C  18.78700 51.73800 19.76900
N  17.53500 50.78500 25.68000
C  18.35200 50.31700 24.68100
C  19.59800 49.78500 25.28100
C  19.33400 49.80600 26.69800
C  18.08400 50.43000 26.86000
C  20.83800 49.31900 24.59000
C  19.86700 49.49600 27.99200
O  20.96400 49.03000 28.29200
C  18.82400 49.97900 29.04500
C  18.52200 48.97800 30.07100
O  17.96100 47.92100 29.88700
O  19.13500 49.32600 31.30300
C  19.10000 48.40000 32.37700
H  12.58400 52.86600 28.67800
H  12.92100 52.32400 22.19200
H  18.83300 50.16600 22.67000
H  16.42300 50.44600 30.75900
H  14.58700 52.84000 30.67100
H  13.24700 50.22400 29.88000
H  13.00600 51.36300 31.30600
H  14.39700 50.17500 31.23500
H  16.83400 53.36300 30.65200
H  18.18400 52.33700 30.38500
H  17.35700 53.32400 32.91400
H  18.43900 51.93700 32.58800
H  10.10800 54.49500 26.53800
H  10.83700 53.75000 27.91200
H  9.63300 52.85600 26.92500
H  8.44200 53.45200 23.41400
H  9.33800 54.24100 24.65800
H  8.95600 52.60100 24.97200
H  15.24900 52.86600 21.05500
H  16.89000 50.35100 20.79000
H  13.45600 50.61700 20.62200
H  14.93200 49.96500 20.00300
H  14.12700 51.36300 19.25600
H  18.49200 52.54400 21.75400
H  17.49300 53.35900 20.66500
H  18.62400 52.49100 18.99900
H  18.59700 50.69200 19.52600
H  19.82500 51.64800 20.09100
H  20.99500 49.80700 23.62800
H  20.66200 48.25800 24.41100
H  21.70200 49.61500 25.18400
H  19.33000 50.82600 29.50800
H  18.03700 48.35600 32.61500
H  19.57300 48.77900 33.28300
H  19.47000 47.38700 32.21700
Mg -9.50000 18.30800 42.93000
C  -5.97700 17.58300 42.80900
C  -8.85300 21.46900 41.75300
C  -12.88300 18.85900 42.69800
C  -9.98800 14.90900 43.28700
N  -7.56900 19.31400 42.34100
C  -6.24700 18.90800 42.49400
C  -5.30100 20.03500 42.13100
C  -6.24600 21.29300 41.81000
C  -7.64600 20.68000 41.95100
C  -5.95900 22.50000 42.68300
C  -4.45800 19.79100 40.84500
C  -4.97800 18.73700 39.81500
H  -4.71700 19.06500 38.34500
N  -10.74400 19.89000 42.27100
C  -10.26800 21.13100 41.85700
C  -11.41200 22.05600 41.55600
C  -12.58400 21.28400 41.72900
C  -12.13200 19.89500 42.21900
C  -11.23900 23.63600 41.26500
C  -14.00600 21.75600 41.46000
O  -14.25700 22.94400 41.16200
C  -15.22000 20.89600 41.54800
N  -11.18000 17.02100 42.93000
C  -12.41900 17.56300 42.98600
C  -13.36300 16.45400 43.42900
C  -12.50500 15.12700 43.24400
C  -11.11100 15.70000 43.12500
C  -14.08300 16.64800 44.74500
C  -12.94000 14.23900 41.95900
C  -12.72300 12.71300 42.16200
N  -8.28000 16.60300 43.07200
C  -8.66200 15.30200 43.24700
C  -7.49900 14.40000 43.30700
C  -6.44100 15.30200 43.18200
C  -6.95100 16.60000 43.07700
C  -7.57500 12.86900 43.39400
C  -4.96900 15.42700 43.28600
O  -4.14700 14.52700 43.37300
C  -4.63700 16.88600 42.95200
C  -3.70500 17.34000 43.98800
O  -2.51100 17.53100 43.88300
O  -4.38200 17.37500 45.15600
C  -3.49600 17.29100 46.39500
H  -8.73200 22.53800 41.56200
H  -13.97200 18.93000 42.74500
H  -10.25800 13.90300 43.61400
H  -4.66900 20.15400 43.01100
H  -6.20300 21.76100 40.82600
H  -6.82200 22.69300 43.32100
H  -5.59100 23.29800 42.03900
H  -5.12700 22.37100 43.37600
H  -3.49500 19.51700 41.27600
H  -4.19500 20.71300 40.32700
H  -6.04700 18.74500 40.02600
H  -4.59700 17.75100 40.08100
H  -11.82300 23.90200 40.38400
H  -10.25800 23.96600 40.92500
H  -11.51600 24.30600 42.07900
H  -15.45300 20.68500 42.59100
H  -14.84800 20.01600 41.02300
H  -16.08300 21.33000 41.04200
H  -14.09200 16.48700 42.61900
H  -12.55000 14.55000 44.16800
H  -13.94100 17.61100 45.23500
H  -13.78100 15.88300 45.46100
H  -15.14300 16.43600 44.61000
H  -12.33300 14.54200 41.10600
H  -13.97700 14.33100 41.63900
H  -12.35900 12.35200 43.12400
H  -11.79400 12.38000 41.70000
H  -13.58300 12.14700 41.80300
H  -6.63400 12.58500 43.86600
H  -7.59500 12.38500 42.41800
H  -8.41200 12.55900 44.02000
H  -4.12900 16.86200 41.98800
H  -2.87800 18.18900 46.36800
H  -3.07700 16.28900 46.48400
H  -4.06600 17.37900 47.31900

