158

Mg 49.42900 45.12300 42.13700
C  45.93900 44.84600 41.81500
C  49.73300 41.81700 41.79800
C  52.72400 45.56700 41.92500
C  48.96900 48.63100 41.78400
N  48.01900 43.56000 41.75900
C  46.63900 43.59500 41.75400
C  45.97200 42.26500 41.75500
C  47.16200 41.28800 41.96800
C  48.43600 42.26000 41.82300
C  47.20400 40.58100 43.39800
C  45.19000 42.07000 40.41700
C  45.67700 42.76000 39.13700
H  45.11100 42.23200 37.76300
N  51.07900 43.86000 41.98600
C  50.96100 42.52100 41.73200
C  52.24400 41.94000 41.55400
C  53.17200 42.99900 41.81300
C  52.39200 44.25200 41.92000
C  52.44200 40.55200 41.31200
C  54.67300 42.83800 41.96900
O  55.17600 41.76900 41.72800
C  55.62200 43.90800 42.36600
N  50.69600 46.83600 41.86000
C  51.99000 46.80300 41.94200
C  52.62500 48.16200 42.11500
C  51.46700 49.11200 42.10500
C  50.31200 48.16900 41.90800
C  53.49900 48.41200 43.38700
C  51.53200 50.30900 41.10100
C  51.01500 50.05600 39.65000
N  47.81600 46.53400 41.85400
C  47.79600 47.87700 41.79100
C  46.37700 48.35200 41.81400
C  45.64400 47.15800 41.80300
C  46.50100 46.11200 41.83900
C  45.86500 49.85000 41.72200
C  44.25300 46.66300 41.80800
O  43.17800 47.25300 41.71200
C  44.40600 45.13700 41.80900
C  43.65100 44.54100 43.03200
O  43.08500 43.43100 43.05500
O  43.85500 45.38200 44.16200
C  43.56600 44.66400 45.43600
H  49.80000 40.73000 41.87300
H  53.79400 45.74600 41.80000
H  48.70700 49.68900 41.85400
H  45.32100 42.24700 42.63000
H  47.18400 40.50800 41.20700
H  46.30100 40.76200 43.98100
H  48.13500 40.78900 43.92500
H  47.30600 39.51000 43.22000
H  44.13700 42.34800 40.47000
H  45.01000 40.99700 40.35600
H  46.76100 42.66400 39.08900
H  45.53200 43.83600 39.24000
H  52.25000 40.10800 42.28900
H  53.45700 40.21300 41.10400
H  51.84200 40.06000 40.54600
H  55.28700 44.34500 43.30700
H  55.53200 44.53900 41.48200
H  56.59700 43.42200 42.37300
H  53.15400 48.41400 41.19600
H  51.29500 49.48100 43.11600
H  52.82100 48.44200 44.23900
H  54.17100 49.26800 43.31100
H  54.15600 47.58100 43.64300
H  52.57800 50.60900 41.04900
H  51.03700 51.15700 41.57400
H  50.15800 50.70600 39.47800
H  50.72000 49.04200 39.37800
H  51.78800 50.36100 38.94600
H  46.16600 50.31000 42.66300
H  44.78000 49.76100 41.78100
H  46.13200 50.31100 40.77100
H  43.85200 44.58700 41.04900
H  44.06900 43.69700 45.42400
H  42.49400 44.62400 45.62800
H  43.98300 45.12800 46.33100
Mg 9.91700 47.71700 25.65200
C  7.90500 48.04400 28.44800
C  12.58200 48.84400 27.49900
C  11.60100 47.62400 22.90800
C  6.88100 47.08900 23.64300
N  10.12200 48.47700 27.64200
C  9.19600 48.40700 28.68700
C  9.81400 48.72000 30.10600
C  11.22400 49.31500 29.67000
C  11.32900 48.89400 28.15400
C  11.28000 50.84500 29.89000
C  9.86200 47.50600 31.04200
C  9.36000 47.88200 32.46100
H  9.34600 46.77100 33.47000
N  11.85600 48.08700 25.22200
C  12.83700 48.50300 26.13800
C  14.07000 48.50600 25.42900
C  13.81500 48.28000 24.03000
C  12.39900 47.99600 23.98300
C  15.38900 48.79000 25.99500
C  14.74000 48.32500 22.82200
O  14.30200 48.24700 21.70000
C  16.21200 48.56600 23.06600
N  9.25000 47.39200 23.62400
C  10.22300 47.38700 22.74100
C  9.69300 46.97000 21.38400
C  8.24800 46.45200 21.59500
C  8.08400 47.02700 23.01600
C  9.67900 48.15700 20.40500
C  8.12600 44.90100 21.57700
C  8.28200 44.14000 22.80900
N  7.83700 47.47900 25.95800
C  6.73800 47.29200 25.09300
C  5.50900 47.36800 25.81300
C  5.94400 47.52500 27.16300
C  7.33900 47.59900 27.20200
C  4.09200 47.31700 25.19100
C  5.49600 47.68500 28.53400
O  4.32400 47.68200 29.01300
C  6.77000 47.79500 29.46200
C  6.88800 46.54700 30.27700
O  7.39500 45.52600 29.80200
O  6.28000 46.57600 31.53700
C  6.25000 45.38400 32.36600
H  13.47300 49.15600 28.04800
H  12.07600 47.59200 21.92500
H  6.00200 46.93000 23.01600
H  9.24200 49.50200 30.60500
H  11.98500 48.70400 30.15600
H  10.27000 51.20900 30.07700
H  11.71000 51.35300 29.02700
H  11.92100 51.10200 30.73400
H  10.90100 47.21100 31.19500
H  9.38900 46.55800 30.78400
H  8.36900 48.32500 32.36000
H  10.02600 48.69200 32.75900
H  15.32500 48.70600 27.08000
H  15.77000 49.77600 25.73000
H  16.09000 48.04900 25.61000
H  16.70000 47.67100 23.45200
H  16.45200 49.47500 23.61800
H  16.77100 48.71400 22.14200
H  10.37900 46.22700 20.97900
H  7.53200 46.90100 20.90700
H  10.16600 49.01300 20.87200
H  8.68100 48.53300 20.17900
H  10.28000 47.94700 19.52000
H  8.92600 44.50700 20.95100
H  7.19400 44.60500 21.09500
H  9.13900 44.43000 23.41700
H  8.48000 43.10100 22.54500
H  7.36800 44.09800 23.40100
H  3.62000 46.33500 25.16000
H  4.22600 47.76200 24.20500
H  3.51700 48.00200 25.81400
H  6.73100 48.69600 30.07500
H  5.19300 45.11800 32.39800
H  6.56900 45.65900 33.37200
H  7.01900 44.62500 32.23100

