158

Mg 48.07800 16.65000 28.49800
C  45.96600 16.32800 31.40500
C  50.09200 18.68300 30.21800
C  49.46000 17.23700 25.57700
C  45.18100 15.19000 26.67200
N  47.99400 17.39400 30.54300
C  47.16800 17.11300 31.59400
C  47.62500 17.75300 32.90100
C  48.73400 18.71100 32.42200
C  48.93900 18.27600 30.98600
C  48.47400 20.26200 32.62400
C  47.96300 16.66900 33.98700
C  47.36200 16.96400 35.37900
H  47.10800 18.39200 35.81300
N  49.67300 17.73800 27.97900
C  50.48800 18.52000 28.84600
C  51.65000 18.92600 28.11300
C  51.41800 18.57200 26.77200
C  50.16900 17.75400 26.67500
C  52.79200 19.76400 28.66300
C  52.45300 18.69700 25.58200
O  52.13200 18.20700 24.46300
C  53.75300 19.35300 25.77400
N  47.32400 16.41600 26.36900
C  48.25500 16.64200 25.40100
C  47.70000 16.14800 24.02800
C  46.29600 15.54900 24.38000
C  46.17600 15.75500 25.92100
C  47.53900 17.34100 22.89200
C  46.09300 14.09300 23.80300
C  44.89600 13.97300 22.78900
N  46.02200 15.86300 28.85700
C  44.96700 15.36300 28.07200
C  43.89000 14.78800 28.88000
C  44.20000 15.20500 30.19900
C  45.47700 15.89200 30.09900
C  42.69800 14.02200 28.41700
C  43.72800 15.21700 31.53900
O  42.68400 14.89900 32.00800
C  44.87200 16.03100 32.48800
C  44.12000 17.20400 33.03700
O  44.16100 18.32200 32.56900
O  43.30400 16.87500 34.14700
C  42.79900 17.95100 34.92700
H  50.91900 19.25600 30.64200
H  50.02600 17.28900 24.64400
H  44.46200 14.57300 26.13000
H  46.79900 18.38300 33.23300
H  49.73500 18.54200 32.81800
H  47.41600 20.46000 32.79600
H  48.73600 20.69900 31.66100
H  49.06600 20.74900 33.39900
H  49.02700 16.60400 34.21500
H  47.72700 15.68700 33.57700
H  47.84900 16.51700 36.24600
H  46.43800 16.38900 35.44900
H  52.55300 20.11600 29.66700
H  53.12500 20.64700 28.11700
H  53.59000 19.05300 28.87700
H  53.65400 20.40900 26.02300
H  54.33600 19.35300 24.85300
H  54.21400 18.66000 26.47800
H  48.38500 15.39200 23.64400
H  45.47300 16.13300 23.96700
H  46.46000 17.48000 22.82300
H  47.98600 17.17200 21.91300
H  47.95500 18.22000 23.38400
H  46.00600 13.36700 24.61100
H  47.03400 13.94500 23.27300
H  44.88800 12.92200 22.50000
H  45.12000 14.57400 21.90700
H  44.01100 14.32600 23.31700
H  43.07800 13.18700 27.82800
H  41.98400 14.62400 27.85500
H  42.22600 13.71700 29.35100
H  45.16800 15.40900 33.33200
H  42.13300 18.50700 34.26900
H  43.51500 18.69400 35.27900
H  42.29900 17.62200 35.83800
Mg 48.71400 35.49100 26.66400
C  46.95200 33.89400 29.18600
C  49.07700 38.22400 28.65200
C  49.94700 37.18500 23.97900
C  47.94400 32.80700 24.63400
N  48.01400 35.93100 28.72900
C  47.51300 35.10000 29.62500
C  47.57900 35.65600 31.04600
C  47.96600 37.11600 30.73300
C  48.43200 37.12700 29.25200
C  46.77800 38.10500 31.12800
C  48.71900 34.88000 31.82800
C  48.77400 34.92100 33.31700
H  47.65700 35.78600 34.01900
N  49.36500 37.42900 26.36100
C  49.54600 38.41600 27.33400
C  50.19300 39.61700 26.78000
C  50.35300 39.41600 25.41400
C  49.81100 37.98700 25.14400
C  50.46900 40.81500 27.67000
C  50.91700 40.30800 24.36600
O  50.95000 39.95500 23.19700
C  51.26300 41.65800 24.69100
N  49.08700 34.99400 24.67500
C  49.64300 35.86300 23.75200
C  49.93900 35.10100 22.47400
C  49.12000 33.75600 22.66200
C  48.74000 33.78900 24.09200
C  49.43500 35.82800 21.09500
C  49.88000 32.39400 22.23100
C  49.52900 31.71200 20.92300
N  47.78300 33.61200 26.85100
C  47.47300 32.66300 25.94000
C  46.69000 31.59000 26.49000
C  46.47000 32.02300 27.87000
C  47.11400 33.31100 27.94500
C  46.03400 30.40400 25.85700
C  45.76600 31.75800 29.08000
O  45.13100 30.77300 29.39700
C  46.01800 32.95200 30.01500
C  46.41700 32.39300 31.33600
O  47.30400 31.59200 31.50100
O  45.55000 32.75500 32.32900
C  45.73500 31.95100 33.52900
H  49.42800 38.93000 29.40800
H  50.31500 37.64000 23.05700
H  47.67600 32.03900 23.90500
H  46.59600 35.62100 31.51600
H  48.90900 37.43800 31.17500
H  45.98400 37.57900 31.65700
H  46.43700 38.61400 30.22600
H  47.34200 38.70000 31.84600
H  49.69400 35.26700 31.53200
H  48.60000 33.84400 31.51000
H  49.79000 35.09000 33.67500
H  48.60400 33.86800 33.54300
H  50.61900 40.52300 28.70900
H  49.61000 41.48500 27.69800
H  51.37800 41.38900 27.48700
H  51.49400 42.14400 23.74300
H  52.06100 41.48900 25.41500
H  50.33700 42.03300 25.12700
H  51.02300 34.98900 22.45900
H  48.14900 33.93200 22.20000
H  48.86800 35.12600 20.48500
H  50.40300 35.96800 20.61300
H  48.88800 36.76200 21.23100
H  49.79400 31.59500 22.96700
H  50.93700 32.64700 22.31000
H  50.27300 32.06900 20.21200
H  48.61800 32.14300 20.50700
H  49.22100 30.66800 20.97300
H  45.21200 30.73800 25.22300
H  45.72200 29.72300 26.64900
H  46.64300 29.84600 25.14600
H  45.08000 33.48100 30.18500
H  46.78500 31.91600 33.81800
H  45.33800 30.95600 33.32800
H  45.12100 32.29000 34.36400

