158

Mg 46.81700 35.71000 28.82100
C  44.98300 33.41100 30.99300
C  47.19200 37.74900 31.33900
C  48.06400 37.81900 26.62200
C  46.07400 33.44000 26.23700
N  46.29900 35.50900 30.93000
C  45.74500 34.46200 31.64000
C  45.69700 34.79300 33.11400
C  46.11500 36.30000 33.12900
C  46.60600 36.52300 31.71300
C  44.93600 37.30000 33.54100
C  46.81800 33.98000 33.84200
C  46.93700 33.94500 35.36100
H  46.07200 34.86600 36.24600
N  47.63700 37.48300 28.99300
C  47.74500 38.19800 30.16900
C  48.38100 39.49700 29.89800
C  48.68500 39.55500 28.52400
C  48.16100 38.26300 27.98000
C  48.70500 40.55900 30.86000
C  49.41300 40.50600 27.66900
O  49.72400 40.38900 26.50800
C  49.97300 41.81400 28.16500
N  47.01600 35.66900 26.67200
C  47.50600 36.65700 26.03700
C  47.33900 36.46200 24.56600
C  47.08000 34.94900 24.44800
C  46.63300 34.62600 25.89300
C  46.26200 37.41200 23.97500
C  48.38300 34.14800 24.12000
C  48.35700 33.34700 22.80500
N  45.74500 33.84500 28.58900
C  45.58000 33.01100 27.48100
C  44.74300 31.84600 27.81400
C  44.49300 31.96600 29.20500
C  45.16900 33.12300 29.63700
C  44.23800 30.70100 26.93100
C  43.77400 31.44200 30.41000
O  43.11600 30.41100 30.45000
C  43.94800 32.43400 31.58000
C  44.25200 31.85500 32.91100
O  45.20400 31.03400 33.08800
O  43.41600 32.31300 33.94100
C  43.70600 31.81200 35.27100
H  47.40800 38.37500 32.20800
H  48.61600 38.47100 25.94200
H  45.96000 32.67500 25.46600
H  44.75900 34.71100 33.66400
H  46.96700 36.43100 33.79600
H  44.16900 36.75700 34.09300
H  44.53500 37.97200 32.78300
H  45.34700 37.94200 34.32000
H  47.80400 34.24500 33.46100
H  46.70800 32.94600 33.51500
H  47.97300 34.27100 35.46400
H  47.01900 32.92200 35.72700
H  49.75600 40.83300 30.96000
H  48.58300 40.27500 31.90500
H  48.06300 41.42100 30.67600
H  49.23700 42.35400 28.76200
H  50.04300 42.47200 27.29900
H  50.81900 41.47700 28.76300
H  48.26300 36.83300 24.12400
H  46.28700 34.57100 23.80200
H  45.54700 37.65100 24.76200
H  45.75000 36.93400 23.14000
H  46.72900 38.38000 23.79300
H  48.49400 33.34100 24.84400
H  49.22300 34.84100 24.05500
H  48.11200 32.30400 23.00900
H  49.35000 33.31400 22.35500
H  47.62300 33.79700 22.13700
H  44.48000 29.64700 27.06500
H  44.55500 30.95600 25.92000
H  43.15700 30.80600 27.02600
H  42.94900 32.87000 31.60100
H  43.14700 32.49700 35.90900
H  44.77200 31.84600 35.49800
H  43.26300 30.84900 35.52400
Mg -1.78700 34.09900 26.57800
C  -2.87500 32.23700 29.32700
C  -0.99200 36.63000 28.57900
C  -1.42700 36.07000 23.79000
C  -3.78600 32.01100 24.57300
N  -1.89200 34.27700 28.64200
C  -2.10400 33.33700 29.63300
C  -1.63500 33.83300 31.08700
C  -1.09500 35.19600 30.74800
C  -1.38900 35.42700 29.22900
C  -1.43900 36.43300 31.61100
C  -0.77600 32.94000 31.97800
C  -1.04900 33.02000 33.53000
H  -0.01400 32.38000 34.54000
N  -1.13800 36.02600 26.20000
C  -0.84600 36.87300 27.16900
C  -0.09300 37.95500 26.64200
C  -0.33700 37.90700 25.22200
C  -1.03200 36.65900 25.03700
C  0.78800 38.88200 27.49300
C  0.18700 38.77300 24.06600
O  0.06100 38.56600 22.85800
C  0.88200 40.04500 24.54600
N  -2.34700 34.05200 24.50000
C  -2.01000 34.89100 23.51300
C  -2.60300 34.53800 22.16700
C  -3.27600 33.18400 22.45000
C  -3.14000 33.06700 24.00800
C  -3.56900 35.58200 21.58600
C  -2.77400 32.02700 21.55000
C  -1.62800 31.21900 22.09800
N  -2.91100 32.23800 26.82600
C  -3.74100 31.61600 25.89200
C  -4.43000 30.53400 26.56400
C  -4.08800 30.74700 27.98400
C  -3.20900 31.77500 28.02400
C  -5.20800 29.37600 25.98300
C  -4.24500 30.25500 29.32600
O  -4.95900 29.36500 29.77900
C  -3.49900 31.19300 30.22600
C  -4.39500 31.86100 31.22500
O  -5.14700 32.80700 31.02200
O  -4.19100 31.23500 32.43000
C  -4.76700 31.83700 33.70200
H  -0.50900 37.33200 29.26200
H  -1.30500 36.74200 22.93800
H  -4.47700 31.46700 23.92600
H  -2.54700 33.94200 31.67400
H  -0.01100 35.08300 30.75700
H  -2.00700 36.23300 32.52000
H  -2.03000 37.13000 31.01700
H  -0.53300 37.01000 31.79700
H  0.25400 33.28700 31.89800
H  -0.82300 31.90800 31.63000
H  -1.99500 32.49300 33.65500
H  -1.24400 34.04700 33.83900
H  1.84900 38.87400 27.24000
H  0.58400 38.60600 28.52700
H  0.32900 39.86300 27.37500
H  0.88900 40.84600 23.80600
H  1.89100 39.89100 24.92900
H  0.24500 40.35500 25.37500
H  -1.74300 34.34400 21.52600
H  -4.30700 33.40800 22.17400
H  -3.00200 36.49800 21.42000
H  -4.21600 35.87600 22.41300
H  -4.01900 35.22300 20.66100
H  -2.50700 32.29500 20.52700
H  -3.61400 31.38000 21.29700
H  -0.91200 31.16600 21.27800
H  -2.01300 30.20800 22.22800
H  -1.10100 31.69500 22.92500
H  -4.85700 28.43000 26.39400
H  -5.20600 29.38900 24.89300
H  -6.22400 29.41100 26.37600
H  -2.63100 30.64800 30.59600
H  -4.16500 32.71600 33.93200
H  -4.72300 31.11200 34.51400
H  -5.77800 32.16500 33.45900

