158

Mg 24.23900 -7.31200 48.28300
C  26.61700 -4.97500 47.04500
C  21.98500 -6.18000 45.73900
C  22.10600 -9.47300 49.33600
C  26.83500 -8.61900 50.18000
N  24.31600 -5.78900 46.70500
C  25.37600 -5.00400 46.35100
C  24.99600 -3.93900 45.34800
C  23.41500 -4.09700 45.24700
C  23.19500 -5.44800 45.97200
C  22.62000 -2.87600 45.81200
C  25.77300 -4.03900 43.97000
C  26.45400 -2.76300 43.52300
H  25.87300 -2.10800 42.30500
N  22.31500 -7.83800 47.55500
C  21.48900 -7.24600 46.55200
C  20.23300 -7.89700 46.51100
C  20.14700 -8.73600 47.59600
C  21.56200 -8.76900 48.22500
C  19.14900 -7.50300 45.46600
C  18.90700 -9.57600 48.00600
O  17.85500 -9.46400 47.37600
C  18.91400 -10.59700 49.09900
N  24.42300 -8.95300 49.44100
C  23.35300 -9.60200 49.90200
C  23.72500 -10.75400 50.91400
C  25.31400 -10.53300 51.03400
C  25.55200 -9.27500 50.17200
C  22.93100 -10.70300 52.32000
C  26.28000 -11.71200 50.69100
C  26.82100 -11.80300 49.22200
N  26.33200 -6.86100 48.70000
C  27.28200 -7.49000 49.43200
C  28.59700 -6.82700 49.35300
C  28.38200 -5.71200 48.45400
C  27.01800 -5.83700 48.04700
C  29.84900 -7.25700 50.07800
C  28.96200 -4.58000 47.73400
O  30.13700 -4.19600 47.67300
C  27.85200 -4.11100 46.75500
C  27.73600 -2.66500 47.09100
O  27.11000 -2.19400 48.06100
O  28.18400 -1.90600 46.07100
C  27.72700 -0.51900 46.19200
H  21.29200 -5.81500 44.97800
H  21.36500 -10.17100 49.73300
H  27.63400 -9.13400 50.71800
H  25.20700 -2.94000 45.72800
H  23.03500 -4.23000 44.23400
H  23.26600 -2.02300 46.02100
H  22.04400 -3.35000 46.60700
H  21.90700 -2.50500 45.07700
H  24.96000 -4.10900 43.24800
H  26.44800 -4.89400 43.92500
H  27.46900 -3.08500 43.29000
H  26.52000 -1.96200 44.26000
H  18.50400 -6.68100 45.77600
H  18.55000 -8.38400 45.23500
H  19.48000 -7.26900 44.45500
H  17.95400 -11.07100 49.30000
H  19.14100 -10.05400 50.01600
H  19.71200 -11.32900 48.97800
H  23.57600 -11.69500 50.38600
H  25.44000 -10.09100 52.02300
H  22.43200 -9.74600 52.46900
H  23.61700 -10.83600 53.15700
H  22.23600 -11.54200 52.33000
H  25.91900 -12.68100 51.03600
H  27.05200 -11.71100 51.46000
H  26.88800 -12.88100 49.07900
H  27.76800 -11.27000 49.13800
H  25.98300 -11.47200 48.60800
H  30.26000 -8.20800 49.73700
H  29.51100 -7.51300 51.08200
H  30.61300 -6.48100 50.04000
H  28.21600 -4.14000 45.72800
H  28.15400 0.02300 45.34800
H  28.17200 0.03500 47.01900
H  26.64200 -0.56400 46.10400
Mg -1.79100 35.16200 26.71900
C  -3.46500 33.22700 29.18400
C  -0.59000 37.15600 29.24300
C  -0.85400 37.43900 24.41500
C  -3.59900 33.42400 24.37600
N  -2.13600 35.25800 28.93400
C  -2.79600 34.31500 29.75000
C  -2.52400 34.60500 31.22800
C  -1.81900 35.95500 31.21100
C  -1.40500 36.06600 29.75100
C  -2.73200 37.15400 31.52200
C  -1.48100 33.48000 31.75100
C  -1.84600 32.95400 33.13400
H  -0.86300 32.96100 34.33200
N  -0.74300 36.88400 26.81300
C  -0.23900 37.49600 27.93400
C  0.67900 38.57200 27.55000
C  0.59600 38.73000 26.15600
C  -0.37800 37.64500 25.72000
C  1.35500 39.40900 28.56800
C  1.30100 39.68200 25.18500
O  1.13300 39.72700 24.04600
C  2.32200 40.58300 25.68500
N  -2.24000 35.48300 24.69600
C  -1.76900 36.52500 23.94700
C  -2.35100 36.50500 22.53600
C  -2.89200 35.00100 22.41300
C  -2.96700 34.58300 23.92700
C  -3.35900 37.67200 22.30700
C  -1.96700 34.03400 21.69100
C  -2.64800 32.78100 21.05600
N  -3.12800 33.58300 26.74700
C  -3.73400 32.93000 25.71900
C  -4.38500 31.72000 26.15500
C  -4.36700 31.76800 27.51800
C  -3.60900 32.95600 27.85800
C  -5.16100 30.80800 25.25900
C  -4.86300 31.16500 28.77600
O  -5.55900 30.18500 29.01500
C  -4.11600 32.03300 29.93200
C  -5.11700 32.41100 30.90900
O  -6.25900 32.82400 30.60900
O  -4.67700 32.01000 32.17000
C  -5.67100 32.23100 33.26300
H  -0.14200 37.80800 29.99500
H  -0.54100 38.18400 23.68100
H  -4.07500 32.85400 23.57500
H  -3.51800 34.57400 31.67500
H  -0.97100 35.80600 31.87900
H  -3.61900 36.86800 32.08800
H  -2.97900 37.60800 30.56300
H  -2.23800 37.87500 32.17300
H  -0.46600 33.87700 31.72000
H  -1.46400 32.70000 30.99000
H  -2.20100 31.93700 32.96800
H  -2.71300 33.54400 33.43000
H  1.19700 40.47800 28.42500
H  2.42900 39.22800 28.51700
H  1.09300 39.28500 29.61900
H  2.99200 40.96600 24.91500
H  3.00900 39.98900 26.28800
H  2.03500 41.54000 26.12200
H  -1.55100 36.68600 21.81800
H  -3.85500 35.10000 21.91200
H  -3.71700 37.42100 21.30900
H  -2.83900 38.63000 22.30100
H  -4.22100 37.71600 22.97300
H  -1.26200 33.54100 22.35900
H  -1.35400 34.59400 20.98400
H  -3.71400 32.72000 21.27600
H  -2.25000 31.92000 21.59300
H  -2.54200 32.58400 19.98900
H  -5.95400 31.26600 24.66900
H  -5.69800 30.08400 25.87200
H  -4.56600 30.23100 24.55200
H  -3.39200 31.39700 30.43900
H  -6.40300 33.00000 33.01300
H  -5.11800 32.67200 34.09300
H  -6.06900 31.28200 33.62100

