158

Mg 47.80700 16.31200 27.94900
C  45.91200 15.98800 30.91100
C  49.89700 18.40800 29.65400
C  49.23800 17.01500 24.98500
C  45.25700 14.46400 26.31800
N  47.89100 17.05400 30.06600
C  47.02600 16.78600 31.07800
C  47.52800 17.36800 32.46700
C  48.61000 18.36600 31.89400
C  48.82400 17.99500 30.41200
C  48.17500 19.80200 32.03900
C  48.02000 16.32600 33.51400
C  47.83800 16.83500 35.00400
H  47.63000 18.27600 35.35400
N  49.50900 17.42800 27.48100
C  50.24600 18.18500 28.33300
C  51.41600 18.73800 27.65500
C  51.20800 18.42500 26.23900
C  49.91600 17.63000 26.12100
C  52.55700 19.41600 28.41800
C  52.16000 18.72200 25.08800
O  51.89400 18.28500 23.95000
C  53.42100 19.55100 25.31000
N  47.37600 15.78700 25.97100
C  48.09000 16.20300 24.91700
C  47.54700 15.64100 23.61200
C  46.30800 14.80700 24.10000
C  46.35500 14.96800 25.59000
C  47.20000 16.68800 22.54400
C  46.35700 13.29900 23.65000
C  45.73300 13.13500 22.25200
N  45.89300 15.50600 28.45200
C  44.94500 14.77900 27.70300
C  43.82200 14.44900 28.50400
C  44.20800 14.81900 29.79200
C  45.43500 15.51100 29.70600
C  42.66700 13.56200 28.09000
C  43.73700 14.77200 31.17500
O  42.75800 14.31700 31.74800
C  44.89500 15.53000 31.90900
C  44.29700 16.73000 32.67100
O  44.03200 17.84100 32.17900
O  44.05100 16.30400 34.00000
C  43.48600 17.36900 34.87000
H  50.57600 19.05100 30.21700
H  49.68200 17.24600 24.01400
H  44.52200 13.75100 25.94000
H  46.64200 17.90900 32.79800
H  49.56700 18.24500 32.40000
H  47.40400 20.15600 32.72300
H  48.04400 20.28400 31.07100
H  49.04100 20.31000 32.46400
H  49.05500 16.09300 33.26500
H  47.39800 15.44900 33.33600
H  48.62600 16.52200 35.68700
H  46.97000 16.29500 35.38000
H  53.43700 18.78200 28.30300
H  52.46900 19.35300 29.50200
H  52.67700 20.42000 28.01200
H  53.58900 20.03500 24.34800
H  54.24100 18.91700 25.64900
H  53.17200 20.35400 26.00400
H  48.25300 14.93400 23.17600
H  45.40300 15.26900 23.70600
H  47.82700 16.63500 21.65400
H  47.41800 17.69100 22.91100
H  46.18200 16.61600 22.16000
H  45.92400 12.60200 24.36700
H  47.40900 13.01300 23.67200
H  44.87600 12.49300 22.45600
H  46.44500 12.74900 21.52300
H  45.32500 14.04800 21.81700
H  43.06300 12.74100 27.49300
H  42.01300 14.26400 27.57300
H  42.11200 13.13900 28.92800
H  45.29700 14.80100 32.61200
H  42.42900 17.39400 34.60600
H  44.06300 18.29300 34.83600
H  43.47400 17.09600 35.92500
Mg 30.44700 57.46600 40.53800
C  27.67500 55.67100 39.58700
C  32.44600 55.01900 39.30300
C  33.07300 59.73500 40.35600
C  28.27300 60.32000 41.14700
N  30.01000 55.61500 39.34700
C  28.87400 55.00700 39.22200
C  29.05600 53.63700 38.54600
C  30.57000 53.32100 38.93700
C  31.05200 54.74100 39.22700
C  30.79400 52.33500 40.13600
C  28.71300 53.76000 37.01900
C  27.52500 52.96700 36.46600
H  26.57600 53.59600 35.46600
N  32.48900 57.38500 40.05700
C  33.09300 56.22700 39.67400
C  34.50300 56.44600 39.72900
C  34.74100 57.78800 40.07000
C  33.42700 58.41100 40.18700
C  35.54200 55.38500 39.28000
C  36.12700 58.44400 40.09100
O  37.14300 57.90400 39.66200
C  36.31300 59.77600 40.74400
N  30.59800 59.79300 40.64500
C  31.83900 60.39700 40.66300
C  31.68000 61.86500 41.10000
C  30.12200 61.99600 41.37000
C  29.63100 60.60300 41.05600
C  32.53800 62.31900 42.28200
C  29.43600 62.98500 40.52000
C  28.34300 63.81000 41.10100
N  28.34000 57.86300 40.61800
C  27.62800 59.10400 40.88100
C  26.22600 58.76600 40.82400
C  26.14200 57.42900 40.30300
C  27.49000 56.92400 40.18100
C  25.12100 59.70000 40.97300
C  25.32800 56.28300 39.81200
O  24.16300 56.23800 39.65100
C  26.25200 55.12900 39.44500
C  25.80500 54.02800 40.28900
O  25.85100 53.91300 41.47200
O  25.33200 53.07500 39.54500
C  24.82400 51.83900 40.05100
H  33.09300 54.17300 39.06400
H  33.88500 60.45900 40.45500
H  27.60500 61.12300 41.46300
H  28.39300 52.91800 39.02600
H  30.99200 52.86000 38.04400
H  31.51900 52.71300 40.85700
H  31.37500 51.48600 39.77500
H  29.90100 52.18000 40.74300
H  29.65900 53.49600 36.54700
H  28.43200 54.77600 36.74000
H  26.90300 52.56700 37.26600
H  27.95400 52.08700 35.98700
H  35.95800 55.62300 38.30000
H  35.07600 54.40000 39.27900
H  36.33000 55.28900 40.02600
H  35.53300 59.79800 41.50500
H  36.18500 60.51800 39.95600
H  37.32600 59.87300 41.13400
H  31.90400 62.60000 40.32600
H  29.90200 62.21100 42.41500
H  32.08500 62.54800 43.24600
H  32.98400 63.27100 41.99400
H  33.34300 61.60900 42.47300
H  28.99800 62.53500 39.62900
H  30.13900 63.69800 40.09000
H  28.03800 63.40500 42.06600
H  27.50500 63.84500 40.40500
H  28.61500 64.83000 41.37400
H  24.37000 59.13800 41.52900
H  24.89800 60.05000 39.96500
H  25.53200 60.52400 41.55500
H  26.01900 54.86800 38.41300
H  23.75600 51.63500 39.97700
H  25.02700 51.66900 41.10900
H  25.28200 50.99100 39.54300

