158

Mg 25.65000 -0.49800 29.40000
C  27.36800 -0.97200 32.36700
C  22.86800 0.19800 31.16800
C  23.85200 -0.52800 26.39100
C  28.44000 -1.60300 27.67600
N  25.17300 -0.53400 31.58500
C  26.06500 -0.60100 32.60500
C  25.43900 -0.32700 33.98700
C  24.02400 0.15600 33.57400
C  23.99500 -0.04500 32.01300
C  22.80800 -0.59100 34.19200
C  26.13200 0.78600 34.87200
C  26.96400 0.35200 36.08500
H  26.88500 1.20900 37.31800
N  23.62500 -0.26200 28.86700
C  22.63700 -0.01200 29.77900
C  21.36000 0.18900 29.10000
C  21.64000 0.08900 27.70500
C  23.08100 -0.28400 27.57800
C  19.97000 0.28800 29.86400
C  20.76700 0.17000 26.46700
O  21.19600 0.07200 25.32300
C  19.29800 0.51400 26.59300
N  25.96600 -1.23200 27.32400
C  25.15700 -1.01900 26.25600
C  25.90100 -1.17300 24.83600
C  27.42800 -1.15200 25.34700
C  27.31700 -1.26200 26.90000
C  25.47000 -2.55900 24.21300
C  28.29900 0.13100 25.07500
C  29.63100 -0.12800 24.29100
N  27.52600 -1.19800 29.90100
C  28.59800 -1.54800 29.07400
C  29.75300 -1.76200 29.84900
C  29.33900 -1.67100 31.17500
C  27.99300 -1.21800 31.11200
C  31.19800 -2.09800 29.43100
C  29.75700 -1.83700 32.55000
O  30.78900 -1.99700 33.13100
C  28.47300 -1.49700 33.40500
C  28.10600 -2.53200 34.44500
O  27.21400 -3.33800 34.26000
O  28.85700 -2.37300 35.58200
C  28.63500 -3.35500 36.67400
H  21.97100 0.64600 31.60000
H  23.36500 -0.33500 25.43200
H  29.36400 -1.71900 27.10600
H  25.27000 -1.28900 34.47100
H  23.84900 1.21800 33.74400
H  22.60100 -1.46600 33.57600
H  21.90700 0.01800 34.26700
H  22.98400 -1.00200 35.18600
H  25.37600 1.46400 35.26900
H  26.84900 1.38400 34.30900
H  27.99200 0.25800 35.73400
H  26.73400 -0.65400 36.43500
H  19.28200 0.99500 29.40100
H  20.17200 0.37100 30.93200
H  19.35000 -0.60200 29.76400
H  18.93900 0.47100 25.56400
H  19.13000 1.36500 27.25200
H  18.86700 -0.32000 27.14700
H  25.77500 -0.29600 24.20100
H  27.92200 -2.05100 24.97800
H  24.93200 -3.12200 24.97700
H  26.32400 -3.15100 23.88600
H  24.78700 -2.21500 23.43600
H  28.58100 0.57400 26.03000
H  27.66700 0.84800 24.55000
H  29.46800 -0.79100 23.44200
H  30.39400 -0.50200 24.97300
H  29.86400 0.90600 24.03800
H  31.30100 -3.12900 29.09300
H  31.81600 -1.92100 30.31100
H  31.47700 -1.48700 28.57300
H  28.85000 -0.61400 33.92200
H  28.90500 -4.27900 36.16400
H  27.63500 -3.38500 37.10800
H  29.27600 -3.16700 37.53600
Mg -1.03600 34.50300 26.59400
C  -2.26600 32.93500 29.44000
C  0.64200 36.66900 28.70900
C  -0.53500 36.58300 24.01300
C  -3.11400 32.49500 24.60400
N  -0.86000 34.71600 28.91200
C  -1.43100 33.99700 29.86900
C  -0.98700 34.44500 31.28300
C  0.01600 35.61100 30.97800
C  -0.03000 35.69400 29.44900
C  -0.36200 36.82000 31.81600
C  -0.37800 33.19300 32.02600
C  0.51600 33.60900 33.18300
H  0.28600 32.94100 34.56300
N  -0.09500 36.32900 26.41900
C  0.63700 37.05900 27.35600
C  1.28900 38.25400 26.73500
C  0.80700 38.32700 25.37300
C  -0.03400 37.09000 25.23200
C  2.34500 39.10400 27.53800
C  1.16000 39.36100 24.31900
O  0.64200 39.41500 23.20600
C  2.28400 40.43300 24.59900
N  -1.82100 34.60100 24.47900
C  -1.19600 35.44000 23.61700
C  -1.66900 35.10100 22.22500
C  -2.35400 33.68800 22.36200
C  -2.50100 33.59300 23.90400
C  -2.36200 36.26100 21.38800
C  -1.57500 32.48100 21.79400
C  -0.05600 32.30200 22.01800
N  -2.34200 32.97300 26.90100
C  -3.09100 32.20400 25.97600
C  -3.84100 31.28200 26.68400
C  -3.59000 31.49600 28.02500
C  -2.58900 32.51200 28.11400
C  -4.79800 30.30100 26.13400
C  -3.84700 31.03300 29.39900
O  -4.58700 30.11100 29.79100
C  -3.01700 31.98500 30.39100
C  -4.00700 32.63200 31.30600
O  -4.67800 33.60100 31.04100
O  -4.09500 31.96200 32.55100
C  -4.77200 32.68900 33.63000
H  1.38100 37.16800 29.33900
H  -0.23100 37.21300 23.17400
H  -3.71100 31.91800 23.89500
H  -1.92700 34.69900 31.77200
H  0.96500 35.23600 31.36100
H  -0.90100 37.55600 31.21900
H  0.49500 37.24200 32.33900
H  -0.92100 36.51300 32.70000
H  0.06800 32.47600 31.33600
H  -1.23400 32.72600 32.51200
H  0.48500 34.68900 33.32100
H  1.54800 33.37200 32.92400
H  3.08000 39.46800 26.82000
H  2.83800 38.47400 28.27800
H  2.04700 40.03200 28.02500
H  2.08900 41.03900 25.48400
H  2.29000 41.14400 23.77200
H  3.26200 39.97400 24.74300
H  -0.72700 34.92000 21.70800
H  -3.32900 33.65900 21.87400
H  -1.69000 36.85200 20.76600
H  -2.79100 36.96400 22.10100
H  -3.15900 35.77900 20.82200
H  -1.81100 32.54400 20.73200
H  -2.08400 31.58000 22.13600
H  0.29400 32.80500 22.92000
H  0.40000 32.74300 21.13200
H  0.16700 31.23600 21.97500
H  -5.20400 30.65700 25.18700
H  -5.54400 30.15700 26.91500
H  -4.34300 29.32000 25.99700
H  -2.34600 31.36500 30.98500
H  -4.02900 33.27800 34.16800
H  -5.36700 31.99600 34.22400
H  -5.59000 33.29800 33.24500

