158

Mg 25.43400 2.41700 29.64400
C  27.59800 2.28900 32.41100
C  22.77100 2.42200 31.88900
C  23.47800 2.44500 27.01500
C  28.17000 1.47600 27.59800
N  25.25100 2.48800 31.88900
C  26.28900 2.58300 32.79100
C  25.79500 2.78400 34.22300
C  24.20900 2.71500 34.06000
C  24.03300 2.57900 32.50800
C  23.63200 1.48200 34.89500
C  26.44700 4.08900 34.84000
C  27.14400 3.96500 36.23100
H  26.70500 4.75700 37.54300
N  23.42300 2.51600 29.44400
C  22.50700 2.40600 30.42800
C  21.17700 2.32100 29.85800
C  21.31700 2.35300 28.46900
C  22.79500 2.47500 28.23400
C  19.93600 2.22100 30.70100
C  20.29700 2.22600 27.32500
O  20.56100 2.04100 26.17200
C  18.87300 2.25800 27.59500
N  25.70800 1.75300 27.58300
C  24.78400 2.18900 26.68900
C  25.33800 2.17900 25.28700
C  26.86200 1.92200 25.45900
C  26.91800 1.74400 26.98400
C  24.53200 1.07600 24.47900
C  27.74300 3.13200 24.86400
C  27.93000 4.42500 25.83900
N  27.43000 1.84700 29.93700
C  28.37100 1.47500 28.96800
C  29.63500 1.28500 29.69200
C  29.35600 1.66900 31.03700
C  28.01800 1.91700 31.10300
C  30.89200 0.71200 29.15500
C  29.85900 1.76500 32.37500
O  31.03100 1.58600 32.80000
C  28.71700 2.12400 33.30200
C  28.67400 1.02200 34.22000
O  28.17200 -0.06200 34.03700
O  29.15400 1.40300 35.43300
C  28.82000 0.52700 36.62600
H  21.88000 2.55600 32.50500
H  22.79400 2.62400 26.18300
H  28.88800 1.34800 26.78500
H  26.16100 1.87400 34.69900
H  23.71300 3.60800 34.43900
H  22.64600 1.21400 34.51400
H  23.56000 1.90900 35.89500
H  24.38500 0.70800 34.74100
H  25.73200 4.88800 35.03900
H  27.08500 4.60300 34.12200
H  28.20100 4.20800 36.11700
H  27.22100 2.91000 36.49300
H  20.14000 2.13000 31.76700
H  19.45600 1.29100 30.39700
H  19.28100 3.09100 30.64100
H  18.47500 1.33500 28.01700
H  18.41400 2.39800 26.61600
H  18.77700 3.06200 28.32400
H  25.15400 3.18800 24.91800
H  27.11000 0.97400 24.98100
H  23.85600 0.52200 25.13000
H  25.12300 0.33900 23.93400
H  23.96300 1.62100 23.72600
H  27.28500 3.47500 23.93600
H  28.60500 2.62700 24.42700
H  28.08100 4.15800 26.88500
H  27.00400 4.99800 25.78400
H  28.81800 4.98400 25.54400
H  30.49900 -0.07100 28.50500
H  31.56300 0.23200 29.86600
H  31.40300 1.47000 28.56200
H  28.93900 2.98800 33.92900
H  27.77200 0.46700 36.92000
H  29.45700 0.78000 37.47400
H  29.23100 -0.45100 36.37500
Mg 44.99700 4.76600 47.80200
C  43.03200 7.65300 46.96600
C  42.21300 2.85700 47.25100
C  46.93000 2.05000 47.82400
C  47.81100 6.91000 47.38800
N  42.94600 5.21500 47.12000
C  42.40000 6.42900 46.81300
C  40.90500 6.26700 46.52600
C  40.49100 4.82800 47.04800
C  41.96400 4.22500 47.23400
C  39.69400 4.84100 48.34600
C  40.53500 6.54400 45.00800
C  39.76000 7.79700 44.68200
H  39.98900 8.44600 43.37000
N  44.57800 2.72300 47.56400
C  43.40200 2.09100 47.38700
C  43.54600 0.62500 47.39300
C  44.93400 0.39800 47.59200
C  45.54100 1.72300 47.67100
C  42.35300 -0.26300 47.00200
C  45.60000 -0.92900 47.63700
O  44.97000 -1.91300 47.34100
C  47.10300 -1.09300 47.99300
N  47.03000 4.51100 47.40500
C  47.64100 3.33600 47.70500
C  49.18700 3.49200 47.86600
C  49.40200 4.93800 47.36600
C  47.98300 5.52200 47.39300
C  49.77100 3.20200 49.25500
C  50.04400 5.02700 45.93900
C  51.58800 5.44300 45.80400
N  45.34800 6.86000 47.52700
C  46.55100 7.56200 47.43900
C  46.18700 9.00600 47.49400
C  44.82800 9.10400 47.33600
C  44.37800 7.76200 47.28700
C  47.11300 10.08800 47.68200
C  43.75500 10.05400 47.22300
O  43.71800 11.30100 47.38600
C  42.49400 9.16800 46.89100
C  41.45800 9.36100 47.93400
O  41.30100 8.59200 48.89200
O  40.73500 10.50300 47.75000
C  39.80600 11.04500 48.77600
H  41.28600 2.29700 47.11100
H  47.67200 1.26300 47.97300
H  48.70700 7.53100 47.43900
H  40.43000 6.97200 47.20800
H  39.84400 4.37800 46.29500
H  39.38300 5.86700 48.54400
H  40.25900 4.34600 49.13600
H  38.75200 4.33400 48.14000
H  39.96700 5.66200 44.71100
H  41.46100 6.49300 44.43500
H  39.83200 8.44000 45.55900
H  38.71200 7.51500 44.78900
H  42.37200 -0.26900 45.91200
H  41.34300 0.12800 47.13100
H  42.42900 -1.28800 47.36500
H  47.65500 -0.81700 47.09500
H  47.30100 -2.16000 48.09200
H  47.24400 -0.59100 48.95000
H  49.63500 2.73600 47.22200
H  50.05300 5.56300 47.97700
H  50.12900 4.12700 49.70700
H  50.65300 2.56100 49.25400
H  48.96200 2.77000 49.84400
H  49.52100 5.81500 45.39600
H  50.18900 4.12400 45.34600
H  51.55100 6.38200 45.25300
H  52.20800 4.62200 45.44500
H  51.93000 5.60800 46.82600
H  46.51900 10.74200 48.32000
H  47.27700 10.65800 46.76700
H  48.09700 9.87500 48.10100
H  42.12000 9.50800 45.92500
H  38.81200 10.93300 48.34200
H  39.98100 12.09700 49.00100
H  39.87800 10.61900 49.77700

