158

Mg 26.86700 50.86100 26.47000
C  25.04200 51.84000 29.22400
C  29.28000 49.58400 28.52700
C  28.55300 49.82400 23.68800
C  24.59300 52.39300 24.34500
N  27.04600 50.63900 28.66200
C  26.22200 51.08600 29.60800
C  26.72800 50.72800 31.00200
C  28.13000 50.00800 30.73700
C  28.10500 50.06900 29.23700
C  29.35800 50.58600 31.49400
C  25.79900 49.76200 31.90600
C  25.50000 50.38400 33.22900
H  26.65100 50.43400 34.22300
N  28.68700 49.79500 26.19000
C  29.52700 49.30500 27.13800
C  30.64500 48.61100 26.55400
C  30.40500 48.59900 25.15100
C  29.15400 49.38300 24.94800
C  31.82000 47.92400 27.31900
C  31.20300 47.88100 24.06400
O  30.92100 47.97100 22.87400
C  32.36100 46.98300 24.34100
N  26.63700 51.12200 24.26300
C  27.43800 50.55700 23.35500
C  26.97500 50.81300 21.89600
C  25.55300 51.51100 22.15700
C  25.55500 51.66600 23.67300
C  28.05200 51.75800 21.20500
C  24.24800 50.84600 21.58800
C  23.25800 51.95400 21.08500
N  25.22800 52.05000 26.71600
C  24.33900 52.56200 25.76500
C  23.24400 53.18700 26.50500
C  23.56800 53.00100 27.84200
C  24.63900 52.21700 27.90800
C  22.14600 53.82900 25.86100
C  23.01800 53.19500 29.21700
O  21.95300 53.79800 29.46500
C  24.02100 52.48000 30.15600
C  24.54200 53.59600 31.03100
O  25.33200 54.46500 30.67700
O  23.89200 53.54900 32.25100
C  24.16500 54.63700 33.19200
H  30.05500 49.21300 29.20100
H  29.26400 49.59200 22.89200
H  23.89200 52.89200 23.67300
H  27.00600 51.67400 31.46500
H  28.12800 48.95100 31.00500
H  30.02400 49.90400 32.02400
H  29.07100 51.37800 32.18600
H  29.94200 51.09000 30.72300
H  26.24700 48.77700 32.03000
H  24.85500 49.71100 31.36400
H  24.63300 49.86300 33.63500
H  25.26800 51.42100 32.98300
H  31.75700 48.19000 28.37500
H  32.75100 48.21100 26.83200
H  31.79400 46.83700 27.25500
H  33.08200 47.16400 23.54300
H  31.95700 45.98400 24.18000
H  32.98600 47.04700 25.23200
H  26.92600 49.82700 21.43400
H  25.56500 52.55200 21.83200
H  28.79000 51.13200 20.70300
H  28.51900 52.28500 22.03700
H  27.71000 52.59600 20.59700
H  23.79000 50.19000 22.32900
H  24.51600 50.24600 20.71900
H  22.69400 51.48800 20.27600
H  23.79500 52.85100 20.77700
H  22.61600 52.17800 21.93700
H  22.43400 54.86500 25.67800
H  21.21500 53.78800 26.42500
H  22.06800 53.29700 24.91300
H  23.51100 51.70800 30.73200
H  23.23900 55.08600 33.55200
H  24.77300 55.41200 32.72500
H  24.74800 54.19400 33.99900
Mg 5.59200 54.55400 40.99700
C  5.42100 51.00900 41.25100
C  8.90000 54.19000 39.73700
C  5.60100 57.71000 40.25500
C  2.36300 54.75700 42.18400
N  6.93700 52.73100 40.39000
C  6.61800 51.39400 40.65100
C  7.87300 50.55900 40.35200
C  9.03800 51.59100 40.21000
C  8.23700 52.96700 40.08600
C  10.17500 51.70000 41.33500
C  7.83300 49.56000 39.10800
C  6.77600 49.80500 37.97900
H  7.32200 50.49600 36.79900
N  7.05200 55.75400 40.06000
C  8.36200 55.50200 39.71100
C  8.95200 56.72700 39.22400
C  7.98500 57.70500 39.19900
C  6.77100 57.07600 39.80400
C  10.41800 56.82200 38.75300
C  8.18700 59.06900 38.65900
O  9.28500 59.40700 38.24300
C  6.94500 60.08200 38.38300
N  4.10100 56.01900 41.06200
C  4.45800 57.28800 40.96500
C  3.37700 58.30600 41.39500
C  2.26100 57.29500 41.97400
C  2.92900 55.93600 41.72600
C  3.85000 59.32200 42.47400
C  0.84800 57.39500 41.23700
C  -0.36900 57.32700 42.20200
N  4.16100 53.23900 41.60200
C  2.91900 53.45300 42.19100
C  2.35800 52.17600 42.71400
C  3.31600 51.22100 42.40200
C  4.37100 51.87300 41.69400
C  1.16200 51.96000 43.55800
C  3.69500 49.82000 42.51100
O  3.20800 48.90400 43.10800
C  5.05700 49.61500 41.70600
C  4.70800 48.67200 40.62800
O  4.06000 49.03100 39.64300
O  5.23700 47.43900 40.87800
C  5.06800 46.47100 39.79000
H  9.88400 54.08600 39.27400
H  5.65800 58.80000 40.24700
H  1.33900 54.62400 42.54000
H  8.08900 49.96700 41.24200
H  9.59800 51.42900 39.28900
H  10.07600 50.78300 41.91600
H  9.97100 52.58700 41.93500
H  11.16300 51.78700 40.88100
H  7.65000 48.59500 39.58000
H  8.77100 49.37300 38.58600
H  5.96100 50.45800 38.29000
H  6.29200 48.86000 37.73200
H  10.94800 55.87400 38.66700
H  11.07500 57.45700 39.34900
H  10.45800 57.16100 37.71700
H  6.05400 59.49900 38.14700
H  7.28400 60.66600 37.52800
H  6.66300 60.64800 39.27000
H  3.12700 58.83100 40.47300
H  2.20600 57.49000 43.04500
H  3.67600 59.01000 43.50400
H  3.32700 60.27200 42.36000
H  4.91000 59.55400 42.37100
H  0.86000 56.58800 40.50600
H  0.80600 58.37400 40.75900
H  -0.88100 58.28900 42.18000
H  -0.12500 57.21900 43.25900
H  -1.10700 56.57600 41.91900
H  0.88700 50.90900 43.46400
H  0.30500 52.58800 43.31800
H  1.36800 52.13400 44.61500
H  5.80700 49.12200 42.32600
H  5.62100 45.55000 39.97300
H  5.48900 46.85200 38.86000
H  4.01600 46.19500 39.73100

