158

Mg 37.46500 50.29900 25.11200
C  37.40100 48.36900 27.98800
C  36.01600 52.73600 26.79100
C  37.21100 51.88100 22.13900
C  38.45600 47.33300 23.20700
N  36.86700 50.55100 27.16800
C  37.02000 49.64800 28.20300
C  36.52000 50.31200 29.46600
C  36.22400 51.74900 29.10200
C  36.36700 51.67200 27.60100
C  34.81100 52.31000 29.46700
C  37.55400 50.08100 30.72900
C  37.01400 49.46400 32.03300
H  35.44800 49.52200 32.13500
N  36.65500 52.08300 24.54300
C  36.07500 52.95200 25.37300
C  35.65300 54.14400 24.65200
C  35.95200 53.86500 23.30300
C  36.73800 52.57000 23.30200
C  34.84000 55.26400 25.33900
C  35.62000 54.70200 22.06400
O  36.10300 54.53300 20.88700
C  34.83500 56.07400 22.16000
N  37.78300 49.62500 22.93900
C  37.63000 50.57100 21.93600
C  37.90100 49.92600 20.55400
C  38.55600 48.55200 20.90500
C  38.25700 48.47900 22.39200
C  36.63900 49.85300 19.64400
C  40.02900 48.46200 20.61300
C  41.08300 48.84200 21.62400
N  37.91100 48.26900 25.47800
C  38.25700 47.19600 24.63400
C  38.49300 46.03800 25.48900
C  38.18000 46.44100 26.84000
C  37.79600 47.79400 26.76500
C  39.04600 44.79300 24.98000
C  38.18400 45.97400 28.16300
O  38.41700 44.86500 28.63400
C  37.61600 47.21700 29.01200
C  36.38600 46.74900 29.74900
O  35.19600 46.79500 29.41400
O  36.83300 46.05300 30.87800
C  35.83600 45.55200 31.85700
H  35.64700 53.50400 27.47500
H  37.09000 52.43400 21.20500
H  38.81000 46.46000 22.65400
H  35.60200 49.73500 29.58500
H  37.00800 52.36200 29.54600
H  34.54900 51.82900 30.40900
H  34.03600 52.06400 28.74100
H  34.68000 53.38000 29.63400
H  38.10300 50.99500 30.95500
H  38.41700 49.48400 30.43500
H  37.43500 49.91900 32.92900
H  37.25500 48.40200 31.99900
H  33.75800 55.14400 25.39700
H  35.19000 56.23900 25.00100
H  35.10300 55.36500 26.39200
H  33.84100 55.95600 22.59200
H  34.88900 56.49000 21.15400
H  35.40600 56.80300 22.73400
H  38.65800 50.65600 20.26600
H  38.12400 47.63500 20.50300
H  36.53700 48.82000 19.31100
H  36.86200 50.48400 18.78400
H  35.75500 50.15000 20.20900
H  40.28300 49.09500 19.76200
H  40.23400 47.47200 20.20500
H  40.77000 48.70200 22.65900
H  41.47500 49.84900 21.48100
H  41.92700 48.16300 21.50300
H  38.17100 44.32100 24.53300
H  39.26000 44.21300 25.87800
H  39.88100 45.08600 24.34400
H  38.32000 47.35400 29.83300
H  34.82500 45.55500 31.44800
H  35.81300 46.34400 32.60600
H  36.17400 44.65300 32.37200
Mg 6.97300 53.47100 41.24500
C  6.31400 50.16100 40.43600
C  9.87000 53.27400 39.34100
C  7.18000 56.86100 41.39700
C  3.50500 53.76300 42.38000
N  7.89800 51.98400 40.05400
C  7.50700 50.66900 39.90000
C  8.52000 49.98200 38.83700
C  9.79800 50.80300 39.11000
C  9.15100 52.10300 39.52600
C  10.72900 50.33600 40.24100
C  7.94900 50.14800 37.31300
C  8.23200 48.95100 36.49000
H  7.42000 48.67200 35.26900
N  8.46700 54.82300 40.61000
C  9.52000 54.54200 39.81300
C  10.24500 55.71900 39.56600
C  9.59400 56.87100 40.28500
C  8.36000 56.22500 40.83400
C  11.42900 55.65900 38.55900
C  10.12500 58.30800 40.34800
O  11.12900 58.65200 39.74300
C  9.56300 59.37000 41.36500
N  5.51800 55.11300 41.73400
C  5.93500 56.37300 41.80600
C  4.73400 57.24100 42.18900
C  3.65000 56.25200 42.76600
C  4.24200 54.91800 42.21900
C  5.05900 58.45100 43.11400
C  2.13800 56.52600 42.26700
C  1.19200 56.45800 43.48200
N  5.28500 52.24100 41.44400
C  3.98500 52.43600 41.97900
C  3.32700 51.21200 42.05900
C  4.15700 50.24700 41.48800
C  5.32700 50.94500 41.11200
C  1.99300 50.88600 42.54400
C  4.33200 48.79900 41.19600
O  3.62700 47.83000 41.48700
C  5.79700 48.79800 40.45900
C  5.70800 48.00100 39.29100
O  4.80500 48.17200 38.44300
O  6.59100 46.90500 39.25600
C  6.43200 45.94900 38.18400
H  10.81100 53.16000 38.79800
H  7.12000 57.94600 41.28700
H  2.52200 53.92900 42.82700
H  8.71700 48.94300 39.10200
H  10.39900 50.90600 38.20700
H  10.69300 51.04100 41.07100
H  11.74100 50.21500 39.85500
H  10.36000 49.44000 40.74000
H  8.42400 51.00900 36.84300
H  6.88300 50.25000 37.51600
H  8.11400 48.04900 37.09000
H  9.22200 49.23000 36.12900
H  11.29000 54.98000 37.71800
H  12.26600 55.22400 39.10500
H  11.81600 56.59300 38.15000
H  9.04200 58.96400 42.23200
H  8.93200 60.03800 40.77800
H  10.43100 59.91400 41.73900
H  4.33600 57.63200 41.25300
H  3.71400 56.21600 43.85400
H  4.82800 59.38900 42.60900
H  6.13900 58.34900 43.21500
H  4.54600 58.43700 44.07500
H  1.80100 55.87600 41.45900
H  2.04000 57.52300 41.83700
H  1.70100 56.35000 44.44000
H  0.49200 55.63000 43.37600
H  0.65500 57.40000 43.37400
H  1.36200 50.28000 41.89300
H  1.35500 51.76900 42.50900
H  2.16900 50.49500 43.54600
H  6.50500 48.31200 41.13100
H  6.41100 45.00300 38.72400
H  7.33100 45.81300 37.58300
H  5.49200 46.00700 37.63500

