158

Mg 25.80900 0.55400 29.40400
C  27.63400 0.74900 32.38700
C  22.88100 0.97000 31.25000
C  24.04400 0.18300 26.50400
C  28.77000 -0.02800 27.62800
N  25.30200 0.84200 31.57200
C  26.21000 0.87900 32.59500
C  25.55600 1.26500 33.92400
C  24.06100 1.19400 33.56900
C  24.04500 1.01600 32.03000
C  23.04700 0.44500 34.47600
C  26.15900 2.52100 34.66900
C  26.48800 2.33100 36.12500
H  25.46300 2.83900 37.12000
N  23.71900 0.60800 28.93500
C  22.66900 0.80600 29.80700
C  21.45700 0.67600 29.02600
C  21.80400 0.41300 27.69900
C  23.22700 0.34300 27.67400
C  20.10300 0.67000 29.66100
C  20.90400 0.12300 26.54000
O  21.26200 -0.26500 25.39900
C  19.48700 0.33600 26.58400
N  26.35700 -0.00700 27.30400
C  25.46600 0.08300 26.35500
C  26.19800 0.13700 24.99400
C  27.63800 0.40600 25.39100
C  27.64200 0.04500 26.83600
C  25.96000 -1.22500 24.17500
C  28.07200 1.95100 25.14300
C  28.30400 2.39800 23.72600
N  27.79800 0.28800 29.85700
C  28.82500 -0.01700 29.07200
C  29.96000 -0.20300 29.94400
C  29.58800 0.09600 31.22000
C  28.21700 0.43900 31.14800
C  31.28300 -0.76600 29.55700
C  30.01100 0.18900 32.60800
O  31.11800 -0.04900 33.14100
C  28.82000 0.62200 33.38300
C  28.60900 -0.31900 34.46300
O  28.04400 -1.43100 34.34800
O  29.13900 0.19000 35.62500
C  29.07700 -0.53400 36.91900
H  21.90900 1.20000 31.69200
H  23.58700 0.23500 25.51300
H  29.72100 0.01500 27.09400
H  25.92900 0.37200 34.42500
H  23.76200 2.23800 33.66300
H  22.55400 -0.27300 33.82100
H  22.39900 1.24200 34.84000
H  23.55500 -0.02200 35.32000
H  25.31400 3.20600 34.74400
H  26.97900 3.00200 34.13600
H  27.44300 2.85500 36.14800
H  26.72200 1.28400 36.31800
H  20.17300 0.66000 30.74900
H  19.60800 -0.20300 29.23500
H  19.57700 1.56400 29.32500
H  19.01100 -0.53400 27.03800
H  19.17300 0.45100 25.54600
H  19.27700 1.30200 27.04200
H  25.82400 0.99800 24.43800
H  28.38300 -0.21100 24.88900
H  25.80000 -1.04200 23.11300
H  25.12300 -1.82900 24.52600
H  26.90800 -1.75500 24.26600
H  28.99700 2.15000 25.68500
H  27.32100 2.60000 25.59200
H  27.70500 3.26300 23.44100
H  28.13800 1.56700 23.04000
H  29.32300 2.75800 23.58600
H  31.98500 0.06800 29.53400
H  31.14600 -1.39600 28.67800
H  31.59900 -1.43600 30.35600
H  29.08800 1.59700 33.79000
H  29.80100 -0.08400 37.59800
H  29.16200 -1.61800 36.84500
H  28.13900 -0.25100 37.39700
Mg 48.59200 34.67500 27.05600
C  46.59200 33.68000 29.82800
C  49.03100 37.55400 28.56100
C  49.62900 35.99700 24.11800
C  47.11800 32.09200 25.31500
N  48.02700 35.38700 29.00400
C  47.28700 34.84800 30.01800
C  47.30000 35.74200 31.33100
C  47.74600 37.12600 30.68600
C  48.28700 36.66000 29.30900
C  46.65100 38.21500 30.56000
C  48.26600 35.32800 32.40500
C  47.68600 35.37600 33.89300
H  48.47100 35.97700 34.94600
N  49.52000 36.45000 26.53900
C  49.61900 37.57600 27.25900
C  50.42800 38.58000 26.61400
C  50.65000 38.02600 25.29600
C  49.93600 36.80000 25.30100
C  50.88600 39.90900 27.23900
C  51.53600 38.53800 24.18200
O  51.71800 37.94400 23.14400
C  52.27100 39.85800 24.36000
N  48.31900 34.25100 25.01200
C  48.89200 34.84100 23.94700
C  48.76300 34.09400 22.60400
C  47.85400 32.85800 23.02400
C  47.76900 33.07100 24.54400
C  48.35500 34.95000 21.42200
C  48.44400 31.48500 22.43800
C  49.86400 31.14800 22.97800
N  47.22800 33.12500 27.43600
C  46.73100 32.10600 26.62200
C  45.80600 31.23600 27.37900
C  45.72000 31.83000 28.69100
C  46.62000 32.95700 28.66500
C  45.06800 30.09200 26.88200
C  45.08200 31.77000 29.99900
O  44.28900 30.98200 30.45500
C  45.59700 33.08200 30.77300
C  45.99600 32.75000 32.17500
O  46.96700 31.99900 32.39300
O  45.06600 33.21300 33.04800
C  45.08500 32.48500 34.28500
H  49.33400 38.44000 29.12200
H  49.90500 36.31500 23.11100
H  46.64800 31.31700 24.70700
H  46.30200 35.89000 31.74300
H  48.49600 37.59800 31.32000
H  45.75100 37.70600 30.90400
H  46.53800 38.74300 29.61300
H  46.97400 39.00300 31.24000
H  49.23500 35.82100 32.32900
H  48.50000 34.28400 32.20000
H  47.63800 34.34100 34.23300
H  46.70900 35.85500 33.83700
H  50.24500 40.20800 28.06800
H  50.81100 40.74000 26.53700
H  51.88700 39.87400 27.66800
H  51.51100 40.63900 24.36000
H  53.02700 39.99000 23.58600
H  52.78600 39.97400 25.31300
H  49.80100 33.84300 22.38400
H  46.86200 33.04100 22.61000
H  49.19600 35.13000 20.75200
H  47.89600 35.91400 21.63700
H  47.64200 34.39100 20.81600
H  48.69200 31.57200 21.38000
H  47.73400 30.72500 22.76400
H  49.70300 30.18000 23.45200
H  50.28700 31.90200 23.64200
H  50.52700 31.04600 22.11900
H  45.72600 29.22900 26.78300
H  44.59200 30.23800 25.91200
H  44.22100 29.92900 27.54900
H  44.71300 33.70800 30.89100
H  45.15000 31.43100 34.01300
H  44.21400 32.79700 34.86100
H  45.94200 32.85800 34.84600

