158

Mg 1.71400 -2.82700 45.40700
C  5.10900 -2.92700 44.66800
C  1.41700 -0.15500 43.04700
C  -1.62300 -3.24400 45.33300
C  2.14200 -5.90800 47.14300
N  3.09300 -1.63600 44.08400
C  4.45500 -1.90300 43.92700
C  5.09900 -0.90000 42.88000
C  4.00100 0.13700 42.69400
C  2.75600 -0.60900 43.22600
C  4.16100 1.53900 43.28400
C  5.62200 -1.67100 41.56900
C  7.09400 -1.41300 41.10700
H  7.34900 -0.87700 39.70500
N  0.17800 -1.70200 44.54500
C  0.24800 -0.67900 43.61200
C  -1.08900 -0.18400 43.31900
C  -1.96200 -1.08400 43.85700
C  -1.14900 -2.06300 44.66100
C  -1.32200 0.97100 42.38500
C  -3.44900 -1.11200 43.63500
O  -3.85400 -0.20500 42.93800
C  -4.34200 -2.13300 44.24000
N  0.51200 -4.33000 46.08300
C  -0.85500 -4.20800 46.05100
C  -1.54600 -5.44100 46.72900
C  -0.33000 -6.17100 47.31500
C  0.85300 -5.49600 46.78000
C  -2.60400 -5.07500 47.83900
C  -0.33500 -7.67600 47.23800
C  0.40300 -8.40600 46.11500
N  3.28200 -4.15000 45.92600
C  3.33900 -5.28700 46.70100
C  4.68800 -5.74000 46.83000
C  5.41800 -4.79300 46.08900
C  4.48800 -3.84600 45.53600
C  5.24300 -6.91600 47.59600
C  6.74300 -4.49500 45.59700
O  7.86000 -5.04800 45.78800
C  6.60700 -3.22800 44.69500
C  7.37700 -2.14100 45.20600
O  7.36100 -1.71900 46.35000
O  7.96100 -1.40800 44.18300
C  8.58800 -0.09000 44.34400
H  1.30200 0.73900 42.43100
H  -2.69000 -3.46900 45.38800
H  2.05800 -6.72200 47.86600
H  5.94100 -0.43500 43.39400
H  3.79800 0.42700 41.66400
H  4.86700 1.41900 44.10600
H  3.19900 1.89700 43.65200
H  4.61200 2.22700 42.57000
H  4.91400 -1.42000 40.78000
H  5.41900 -2.72600 41.75200
H  7.70000 -2.31300 41.20600
H  7.43500 -0.67000 41.82800
H  -1.66200 0.65700 41.39800
H  -0.42000 1.58200 42.35400
H  -2.12300 1.56000 42.83200
H  -4.14800 -3.09000 43.75600
H  -5.34200 -1.80900 43.95000
H  -4.41500 -2.21300 45.32400
H  -1.97200 -6.09100 45.96500
H  -0.28200 -5.99400 48.39000
H  -2.82800 -4.01100 47.90500
H  -2.18600 -5.43600 48.77900
H  -3.58700 -5.50600 47.65100
H  -1.34100 -8.06800 47.38900
H  0.17700 -7.98800 48.14900
H  -0.30400 -9.08200 45.63400
H  1.22800 -8.99800 46.51000
H  0.85500 -7.74900 45.37100
H  4.77700 -7.84400 47.26300
H  4.84900 -6.83900 48.60900
H  6.31200 -6.70800 47.55900
H  7.00200 -3.43500 43.70100
H  9.26000 -0.07800 45.20200
H  7.80000 0.63200 44.56000
H  9.25700 0.23400 43.54700
Mg 6.72800 53.93100 41.81500
C  6.46500 50.44200 41.49600
C  9.81000 53.73600 40.32100
C  6.72100 57.19600 41.75300
C  3.53400 53.87800 43.22500
N  7.82100 52.32000 40.73100
C  7.61500 50.98300 40.78000
C  8.62600 50.14900 40.05100
C  9.81400 51.17200 40.09400
C  9.16200 52.51800 40.31700
C  10.94100 50.81400 41.06300
C  8.26900 49.68700 38.63300
C  7.24400 50.48600 37.85200
H  6.89800 50.16800 36.40300
N  8.14500 55.28900 41.20500
C  9.36800 55.07100 40.63700
C  10.05900 56.33400 40.47800
C  9.19500 57.33900 40.96900
C  8.01900 56.66200 41.43300
C  11.41100 56.44800 39.94900
C  9.55900 58.77500 40.95600
O  10.46900 59.19000 40.26800
C  8.77900 59.69200 41.88000
N  5.12800 55.36300 42.13400
C  5.50900 56.72900 42.19000
C  4.47000 57.54200 42.91100
C  3.39000 56.42300 43.37600
C  4.06400 55.15100 42.90500
C  5.01400 58.54300 43.92000
C  1.95200 56.47300 42.82300
C  0.78100 56.60100 43.82500
N  5.20000 52.47800 42.27400
C  4.03700 52.62600 42.90000
C  3.53500 51.32700 43.29900
C  4.44500 50.44100 42.78000
C  5.41100 51.15600 42.09900
C  2.23800 51.01800 43.98100
C  4.77300 48.99900 42.55800
O  4.25000 47.96000 42.90900
C  6.01300 48.97000 41.59800
C  5.52400 48.25000 40.38400
O  4.85100 48.65600 39.43300
O  5.74600 46.89300 40.53200
C  5.29400 46.10400 39.39500
H  10.85300 53.67900 40.00500
H  6.56600 58.27600 41.79800
H  2.59000 53.81100 43.76900
H  9.00300 49.28000 40.59000
H  10.34100 51.26200 39.14500
H  11.87300 50.80100 40.49800
H  10.91000 49.79500 41.44800
H  10.92100 51.63600 41.77800
H  7.86300 48.68100 38.73200
H  9.19100 49.72000 38.05200
H  7.48400 51.54300 37.97300
H  6.29500 50.29200 38.35100
H  11.39900 56.66600 38.88200
H  11.93300 55.52500 40.20000
H  11.90900 57.18100 40.58400
H  8.42800 59.31000 42.83900
H  7.91000 60.07900 41.34700
H  9.49300 60.48600 42.09800
H  3.97500 58.13900 42.14600
H  3.36800 56.48300 44.46400
H  4.88800 59.56800 43.57200
H  6.07300 58.42400 44.15200
H  4.40900 58.56300 44.82700
H  1.80700 55.55500 42.25300
H  1.87300 57.34400 42.17300
H  0.29700 57.57600 43.76900
H  1.00000 56.44800 44.88200
H  -0.00800 55.89800 43.55800
H  1.47700 51.54200 43.40200
H  2.19300 51.18400 45.05800
H  2.02700 49.95100 43.91600
H  6.79400 48.40400 42.10700
H  5.82100 46.49600 38.52500
H  4.22300 46.26900 39.27200
H  5.49300 45.04200 39.53600

