158

Mg 43.86000 3.91200 47.53700
C  41.99300 6.78500 47.09700
C  41.02700 2.05300 47.02200
C  45.95300 1.27900 47.30800
C  46.75300 6.08400 47.49800
N  41.73200 4.36000 47.26200
C  41.20400 5.60700 47.02200
C  39.69300 5.57500 46.66300
C  39.37200 4.10200 47.07600
C  40.75400 3.46400 47.18800
C  38.73500 4.13200 48.47500
C  39.44000 6.01600 45.24600
C  38.30500 6.98800 44.94200
H  37.45800 6.61900 43.68200
N  43.54100 1.96600 47.35400
C  42.32200 1.40600 47.14800
C  42.54100 0.00200 46.86600
C  43.95100 -0.28200 46.89700
C  44.55600 1.02600 47.20600
C  41.46300 -0.96100 46.64600
C  44.56500 -1.63600 46.57100
O  43.86100 -2.58700 46.21300
C  46.12400 -1.88700 46.56100
N  46.08600 3.76400 47.11700
C  46.65300 2.49900 47.32200
C  48.14300 2.58700 47.58800
C  48.42600 4.07200 47.62700
C  47.00100 4.70700 47.40800
C  48.57300 1.80800 48.91200
C  49.39400 4.55900 46.51000
C  50.34100 5.69700 46.85600
N  44.35900 6.05000 47.43100
C  45.53200 6.74600 47.54300
C  45.28700 8.17400 47.49600
C  43.88000 8.26000 47.32300
C  43.34500 6.94700 47.29700
C  46.28100 9.25700 47.51600
C  42.76900 9.16200 47.24100
O  42.67000 10.35100 47.19500
C  41.52100 8.26600 46.97200
C  40.61200 8.65500 48.05700
O  40.67900 8.32600 49.28200
O  39.60700 9.45100 47.52800
C  38.70200 10.03600 48.53000
H  40.16000 1.42700 46.79900
H  46.56200 0.38600 47.46400
H  47.68100 6.64100 47.64700
H  39.18000 6.27100 47.32600
H  38.79000 3.70600 46.24300
H  39.42900 4.42400 49.26200
H  38.17900 3.22700 48.72300
H  37.97700 4.90200 48.61500
H  39.23200 5.09500 44.70100
H  40.36300 6.43100 44.84200
H  38.72900 7.98500 44.81500
H  37.64100 7.07800 45.80200
H  40.57400 -0.68300 47.21200
H  41.64400 -1.98200 46.98200
H  41.13100 -1.00100 45.60800
H  46.57900 -1.88500 47.55100
H  46.67500 -1.23000 45.88700
H  46.31000 -2.90000 46.20300
H  48.72000 2.20200 46.74700
H  48.82200 4.42200 48.58100
H  47.75600 1.91700 49.62600
H  49.46600 2.21900 49.38200
H  48.64400 0.76200 48.61500
H  48.92000 4.97900 45.62400
H  49.99300 3.72500 46.14300
H  50.07800 6.13600 47.81900
H  50.26700 6.46100 46.08200
H  51.36500 5.32700 46.80700
H  47.11000 8.98900 46.86100
H  46.54000 9.50900 48.54500
H  45.63900 10.03300 47.09800
H  41.18000 8.49200 45.96200
H  39.08300 11.04700 48.67500
H  38.49000 9.47900 49.44300
H  37.73100 10.25500 48.08700
Mg -11.25100 38.46100 42.09700
C  -9.33300 35.87900 40.58400
C  -9.39900 40.86400 40.68100
C  -13.72300 40.68900 42.89200
C  -13.51300 35.77700 43.12100
N  -9.55300 38.34300 40.80400
C  -8.93800 37.24600 40.30300
C  -7.67000 37.61800 39.55000
C  -7.63300 39.17400 39.64300
C  -8.96300 39.52000 40.38800
C  -6.37300 39.75300 40.35800
C  -7.65800 36.99400 38.11900
C  -6.34800 36.21900 37.75500
H  -5.44800 36.81000 36.67300
N  -11.43500 40.57400 41.92000
C  -10.56200 41.35700 41.25000
C  -11.08700 42.70700 41.34500
C  -12.38600 42.65600 41.84200
C  -12.55600 41.25300 42.25400
C  -10.37500 43.86900 40.66500
C  -13.35700 43.78400 41.99500
O  -13.03500 44.90100 41.61900
C  -14.64000 43.74400 42.86200
N  -13.32900 38.21200 42.77200
C  -14.05000 39.37900 43.17300
C  -15.38000 38.91400 43.71000
C  -15.25200 37.38000 43.76500
C  -13.99300 37.09100 43.10500
C  -15.86600 39.62400 45.04700
C  -16.52000 36.63400 43.23200
C  -17.31600 35.90300 44.32800
N  -11.35000 36.31500 41.98000
C  -12.29400 35.40600 42.48200
C  -11.76800 33.97700 42.29500
C  -10.65900 34.16500 41.53100
C  -10.42700 35.58400 41.36200
C  -12.34400 32.62100 42.68700
C  -9.57400 33.40300 40.91700
O  -9.29900 32.22200 40.93500
C  -8.63200 34.55300 40.29800
C  -7.41300 34.50300 41.23100
O  -7.33200 34.79600 42.43300
O  -6.48900 33.86300 40.46800
C  -5.23800 33.33500 41.04700
H  -8.74400 41.65800 40.31800
H  -14.51400 41.38900 43.17000
H  -14.14500 35.03400 43.61200
H  -6.81800 37.31400 40.15700
H  -7.56800 39.66400 38.67100
H  -6.34400 40.83500 40.22500
H  -5.48000 39.34600 39.88300
H  -6.41100 39.50800 41.41900
H  -7.84800 37.76900 37.37800
H  -8.56700 36.39700 38.04300
H  -6.53800 35.16400 37.55400
H  -5.64900 36.12400 38.58600
H  -10.51500 44.74000 41.30400
H  -10.87400 44.12000 39.72900
H  -9.31800 43.63100 40.54800
H  -15.45500 43.21500 42.36800
H  -14.95200 44.78800 42.89700
H  -14.44600 43.40100 43.87900
H  -16.00800 39.20300 42.86700
H  -15.16600 37.12600 44.82100
H  -16.73800 40.23100 44.80400
H  -15.09300 40.27800 45.45200
H  -16.18500 38.88500 45.78200
H  -16.00300 35.99300 42.51800
H  -17.16500 37.39300 42.78900
H  -17.78300 36.56600 45.05600
H  -16.67900 35.22900 44.90100
H  -18.05500 35.25300 43.86000
H  -12.46100 32.66800 43.76900
H  -11.78600 31.78600 42.26300
H  -13.32700 32.45200 42.24600
H  -8.28600 34.39700 39.27700
H  -4.37100 33.33900 40.38600
H  -5.40200 32.32400 41.41900
H  -5.10000 33.96700 41.92400

