158

Mg -2.03100 16.22900 26.06700
C  -2.48000 14.24400 28.84300
C  -2.76500 19.02100 27.97700
C  -1.60500 18.26900 23.29800
C  -1.89700 13.49500 23.99500
N  -2.48800 16.55700 28.08200
C  -2.67500 15.62000 29.08500
C  -2.96500 16.22200 30.52100
C  -3.34500 17.67100 30.06000
C  -2.77400 17.76300 28.64300
C  -4.91900 17.86700 30.00000
C  -1.78300 16.15400 31.54000
C  -2.08500 15.27400 32.80000
H  -2.74400 15.98600 33.92200
N  -2.10500 18.32900 25.72000
C  -2.45100 19.28700 26.71700
C  -2.24400 20.62700 26.07600
C  -2.00900 20.39900 24.71100
C  -1.85600 18.93200 24.55000
C  -2.38800 21.91100 26.87300
C  -1.91500 21.38000 23.58000
O  -1.86800 21.05300 22.38800
C  -1.79000 22.87700 23.96500
N  -2.11500 15.95200 23.87200
C  -1.72200 16.95100 22.98400
C  -1.49900 16.33000 21.60100
C  -1.34800 14.78100 21.94000
C  -1.72800 14.73900 23.33800
C  -2.65000 16.59600 20.58900
C  0.13900 14.28600 21.70600
C  1.21700 14.99600 22.46500
N  -2.19900 14.25400 26.30500
C  -2.10200 13.23200 25.38300
C  -2.23700 12.05100 26.08200
C  -2.26400 12.33000 27.47400
C  -2.28000 13.70600 27.56000
C  -2.07600 10.68800 25.34700
C  -2.39100 11.77600 28.78400
O  -2.46700 10.62600 29.15400
C  -2.44200 12.99500 29.77800
C  -1.29000 12.94400 30.77900
O  -0.20500 13.48300 30.52800
O  -1.55700 12.17200 31.85600
C  -0.55500 11.83900 32.76400
H  -3.07300 19.85800 28.60800
H  -1.52900 18.86300 22.38400
H  -1.76200 12.66200 23.30200
H  -3.72500 15.62100 31.02100
H  -2.84600 18.43000 30.66200
H  -5.51400 17.01100 30.31800
H  -5.18900 18.21000 29.00100
H  -5.13900 18.74700 30.60400
H  -1.56800 17.17300 31.85900
H  -0.83100 15.89800 31.07400
H  -1.12400 14.86900 33.11700
H  -2.77500 14.47800 32.52100
H  -2.40000 21.75700 27.95200
H  -3.29600 22.50100 26.75300
H  -1.55900 22.58100 26.64700
H  -1.86200 23.60600 23.15800
H  -0.90500 23.08600 24.56600
H  -2.57000 23.19600 24.65600
H  -0.60900 16.83100 21.21900
H  -1.99300 14.29400 21.20700
H  -2.18900 16.99100 19.68400
H  -3.40000 17.20400 21.09400
H  -3.14300 15.71700 20.17400
H  0.37600 14.41400 20.64900
H  0.29600 13.24900 22.00100
H  1.90400 14.25500 22.87400
H  0.76800 15.62300 23.23500
H  1.71200 15.68600 21.78200
H  -1.57000 10.79900 24.38900
H  -3.03500 10.17500 25.27400
H  -1.49900 10.10800 26.06700
H  -3.41500 12.91500 30.26300
H  0.18700 11.29100 32.18400
H  -1.02000 11.16900 33.48800
H  -0.12800 12.67100 33.32500
Mg 52.97700 24.07200 44.56200
C  50.16200 25.97200 43.73500
C  51.50000 21.34800 43.09100
C  55.90600 22.53700 44.89200
C  54.52500 27.07700 45.76900
N  51.20100 23.80400 43.26200
C  50.24200 24.71300 43.06800
C  49.03500 24.10900 42.35300
C  49.36900 22.56000 42.53100
C  50.80500 22.53300 42.95700
C  48.41000 21.84900 43.51100
C  49.22500 24.53900 40.88100
C  47.91200 24.89800 40.12000
H  47.37000 23.74300 39.29400
N  53.56700 22.09300 44.10500
C  52.83600 21.13400 43.56000
C  53.63700 19.94800 43.49000
C  54.95500 20.29400 43.95400
C  54.89100 21.68700 44.42700
C  53.12700 18.64800 42.94100
C  56.11300 19.34400 44.00900
O  56.08000 18.22900 43.61200
C  57.39900 19.68400 44.79200
N  55.00100 24.86400 44.87100
C  55.93900 23.92400 45.11300
C  57.18500 24.56800 45.77700
C  56.86900 26.09600 45.74300
C  55.37900 26.02000 45.45100
C  57.59400 24.04600 47.17300
C  57.56100 26.91300 44.61800
C  58.51700 27.99000 45.00100
N  52.48600 26.13600 44.75300
C  53.12300 27.13400 45.52000
C  52.07000 28.23600 45.75400
C  50.95800 27.85600 45.01500
C  51.24200 26.50500 44.49600
C  52.31300 29.54100 46.51800
C  49.55100 28.25600 44.61600
O  48.92800 29.25100 44.77900
C  48.96100 26.96000 43.85700
C  48.40000 27.51700 42.57400
O  49.08000 28.06300 41.75500
O  46.98300 27.37200 42.61300
C  46.28300 27.86400 41.44700
H  51.09100 20.40900 42.71000
H  56.87300 22.08800 45.12800
H  55.04500 27.92700 46.21500
H  48.05700 24.36300 42.76100
H  49.34400 22.06100 41.56300
H  47.80500 20.98900 43.22600
H  47.70900 22.54000 43.97900
H  49.09900 21.43900 44.24900
H  49.58300 23.63900 40.38100
H  50.06000 25.23200 40.77800
H  48.15000 25.71500 39.44000
H  47.12000 25.02300 40.85900
H  53.88000 18.26400 42.25400
H  52.30700 18.82000 42.24400
H  52.74200 17.92700 43.66200
H  57.99000 18.77500 44.90400
H  57.07800 19.97800 45.79100
H  57.95400 20.48700 44.30600
H  58.05700 24.37900 45.15000
H  57.11400 26.57600 46.69000
H  58.66900 24.13400 47.33300
H  57.29500 23.04600 47.48700
H  57.04900 24.70700 47.84800
H  56.87700 27.46200 43.97100
H  58.04300 26.16100 43.99200
H  59.45400 27.84700 44.46300
H  58.56300 28.14800 46.07800
H  58.21700 28.98700 44.67800
H  52.96400 30.20000 45.94200
H  52.83100 29.26200 47.43600
H  51.40300 30.02800 46.86800
H  48.14300 26.57200 44.46300
H  46.35800 26.98300 40.80900
H  46.85100 28.64300 40.93800
H  45.28500 28.26900 41.61400

