158

Mg -0.52900 7.17800 27.54200
C  0.17400 9.33500 30.20800
C  -0.76100 4.59300 29.86500
C  -1.12300 5.02000 25.03500
C  -0.45200 9.81400 25.36500
N  -0.27000 6.96300 29.74800
C  -0.06800 7.99900 30.63800
C  -0.26900 7.56000 32.11200
C  -0.43700 6.03300 32.01300
C  -0.50000 5.81000 30.46800
C  0.60400 5.23400 32.70800
C  -1.36700 8.31500 32.87000
C  -1.15100 8.57500 34.41400
H  -0.06100 7.93100 35.23500
N  -0.73600 5.07800 27.41900
C  -0.79700 4.19800 28.49600
C  -1.03400 2.84800 27.96700
C  -0.98300 2.93200 26.55500
C  -0.90300 4.39800 26.23400
C  -0.98700 1.67700 28.91600
C  -0.98700 1.91000 25.57500
O  -0.79300 2.16500 24.41400
C  -1.13400 0.43700 25.96200
N  -0.86900 7.31600 25.56700
C  -0.96800 6.33800 24.66600
C  -0.90200 6.78900 23.17900
C  -0.97600 8.33700 23.41300
C  -0.68600 8.46100 24.92400
C  0.34900 6.35600 22.42000
C  -2.39300 9.00800 23.10400
C  -2.48600 10.50500 22.69900
N  -0.23700 9.11900 27.69600
C  -0.24600 10.15500 26.78100
C  0.09500 11.39500 27.36200
C  0.27800 11.15900 28.70400
C  0.07300 9.75600 28.87100
C  0.25100 12.68600 26.58000
C  0.73000 11.77800 29.99400
O  1.18200 12.89600 30.15200
C  0.38600 10.63400 31.05800
C  1.44200 10.58800 32.04100
O  2.42100 9.88200 31.98400
O  1.13600 11.42800 33.12200
C  2.03100 11.33800 34.30700
H  -0.92700 3.77700 30.57200
H  -1.15900 4.34600 24.17600
H  -0.36500 10.63900 24.65500
H  0.64300 7.83700 32.64100
H  -1.42200 5.72700 32.36600
H  1.03300 4.47900 32.05000
H  0.02900 4.55900 33.34200
H  1.39900 5.85500 33.12100
H  -2.31300 7.77700 32.81700
H  -1.46300 9.28800 32.38800
H  -2.12400 8.31400 34.83000
H  -1.00400 9.65200 34.50400
H  -1.77600 0.94500 28.74400
H  -1.20000 1.88200 29.96500
H  -0.00500 1.20500 28.89300
H  -0.47600 0.30100 26.82100
H  -0.97900 -0.27100 25.14800
H  -2.16400 0.30700 26.29400
H  -1.82300 6.38000 22.76400
H  -0.25200 9.02200 22.97300
H  0.86900 7.20200 21.97000
H  0.10000 5.79400 21.52000
H  1.13800 6.03600 23.10200
H  -3.04900 8.78400 23.94500
H  -2.90600 8.43700 22.33000
H  -3.16200 11.00300 23.39400
H  -2.82500 10.43300 21.66500
H  -1.55800 11.06900 22.79600
H  1.07000 13.18700 27.09700
H  -0.65800 13.24600 26.79900
H  0.45700 12.72500 25.51000
H  -0.59600 10.93300 31.42300
H  2.57600 12.27400 34.42800
H  2.78300 10.55200 34.23200
H  1.53500 11.28200 35.27500
Mg 48.39600 25.58200 29.49700
C  49.89100 27.27600 32.20500
C  47.39600 23.14900 31.76200
C  47.52500 23.60800 26.94500
C  49.73500 27.81500 27.29800
N  48.63800 25.27300 31.68300
C  49.15800 26.17000 32.59700
C  48.85000 25.80800 33.99000
C  48.32600 24.30900 33.87100
C  48.04000 24.31100 32.35400
C  49.29300 23.12900 34.30500
C  47.86700 26.82000 34.68700
C  48.47300 27.60100 35.89600
H  47.46100 28.07400 36.98600
N  47.49900 23.74300 29.40200
C  47.05800 22.90800 30.39900
C  46.41400 21.81200 29.87400
C  46.35900 21.98500 28.46000
C  47.14400 23.21000 28.22300
C  45.90000 20.70300 30.72800
C  45.68900 21.10000 27.39500
O  45.73300 21.45600 26.24000
C  44.99700 19.76300 27.73500
N  48.41100 25.79700 27.39500
C  48.17700 24.78100 26.59800
C  48.54600 25.05400 25.08800
C  49.01700 26.51000 25.18600
C  48.99900 26.79600 26.70000
C  49.60200 24.09100 24.44600
C  48.22500 27.54600 24.30100
C  46.74300 27.56500 24.67000
N  49.51000 27.34400 29.65400
C  49.94400 28.11000 28.68300
C  50.70800 29.25000 29.26600
C  50.71500 28.95600 30.66100
C  49.97600 27.79000 30.82800
C  51.38000 30.36600 28.47900
C  51.19100 29.37900 31.97800
O  51.79300 30.38100 32.24300
C  50.60200 28.33100 33.02600
C  51.72900 27.85000 33.97200
O  52.73200 27.24200 33.55300
O  51.55300 28.40100 35.21200
C  52.62900 28.03200 36.19700
H  46.97900 22.37200 32.40600
H  47.51800 22.85400 26.15500
H  50.15100 28.55400 26.61000
H  49.73400 25.75400 34.62600
H  47.43700 24.07100 34.45500
H  49.81900 22.54600 33.54900
H  48.64600 22.36200 34.73000
H  50.02200 23.46400 35.04300
H  47.07400 26.16500 35.04800
H  47.35800 27.50300 34.00600
H  48.80700 28.55300 35.48100
H  49.31700 27.09800 36.36800
H  45.48900 21.01900 31.68700
H  46.61800 19.90300 30.90900
H  45.04600 20.27400 30.20200
H  45.70700 19.04800 28.15100
H  44.67100 19.36500 26.77400
H  44.13300 19.92300 28.37900
H  47.63700 25.02200 24.48800
H  50.03500 26.60100 24.80700
H  50.12200 24.65800 23.67400
H  49.07800 23.27000 23.95600
H  50.29100 23.65600 25.17000
H  48.32700 27.28700 23.24700
H  48.57100 28.56100 24.49400
H  46.52000 28.61000 24.45600
H  46.61800 27.48600 25.75000
H  46.10000 26.98600 24.00700
H  50.69900 31.11600 28.07700
H  52.11200 30.05600 27.73300
H  51.94000 30.76800 29.32300
H  49.90400 28.96700 33.57100
H  53.17900 28.95700 36.37100
H  53.38900 27.29300 35.94200
H  52.25500 27.89500 37.21200

