158

Mg 8.69000 2.29400 27.70900
C  10.09900 0.60700 30.53900
C  7.27500 4.49300 29.83700
C  6.95100 3.42300 25.15200
C  9.93300 -0.40400 25.68800
N  8.64500 2.44800 29.85000
C  9.32900 1.74500 30.79300
C  9.27100 2.35000 32.15300
C  8.19700 3.37400 31.94800
C  8.07800 3.51100 30.43600
C  6.86000 3.24100 32.78800
C  10.60300 2.93500 32.62600
C  10.92900 2.82700 34.10100
H  9.85300 2.80000 35.23600
N  7.33200 3.76700 27.51200
C  6.93000 4.63300 28.47100
C  6.12000 5.63200 27.95300
C  6.06900 5.44700 26.54300
C  6.74300 4.10200 26.35700
C  5.30200 6.66700 28.78300
C  5.38600 6.32800 25.40200
O  5.27600 5.98900 24.20700
C  4.79300 7.68700 25.83000
N  8.39700 1.53200 25.63600
C  7.68600 2.24600 24.81800
C  7.84300 1.70200 23.35700
C  8.82200 0.54600 23.59000
C  9.18700 0.61800 24.99600
C  6.49800 1.38300 22.67200
C  10.12900 0.69400 22.72000
C  10.50700 -0.44700 21.78200
N  9.75000 0.46500 27.97800
C  10.11400 -0.51500 27.09500
C  10.82100 -1.53700 27.84100
C  10.88800 -1.08200 29.20400
C  10.16900 0.07700 29.23100
C  11.48900 -2.76300 27.24700
C  11.43400 -1.40000 30.51200
O  12.21600 -2.26900 30.82200
C  10.96400 -0.24700 31.41600
C  10.02400 -0.80300 32.45100
O  8.86200 -1.11200 32.17700
O  10.57100 -0.82400 33.74700
C  9.61700 -1.19600 34.79300
H  7.00500 5.29700 30.52500
H  6.41600 3.89300 24.32300
H  10.30000 -1.21800 25.05900
H  8.93700 1.60800 32.87800
H  8.53200 4.33000 32.35300
H  5.97500 2.99200 32.20200
H  6.70900 4.22400 33.23500
H  7.00400 2.41500 33.48400
H  10.66500 4.00900 32.45500
H  11.40200 2.36100 32.15600
H  11.70500 3.54000 34.37800
H  11.34100 1.81800 34.13000
H  5.79000 7.57800 28.43600
H  5.41300 6.50500 29.85500
H  4.26400 6.65200 28.45100
H  5.57100 8.42400 26.02800
H  4.01900 7.50500 26.57600
H  4.24400 8.12200 24.99400
H  8.21200 2.52100 22.73900
H  8.40900 -0.45500 23.46600
H  6.54400 0.39900 22.20500
H  6.24900 2.10400 21.89300
H  5.69200 1.34900 23.40400
H  11.00600 0.75600 23.36500
H  10.21300 1.61200 22.13800
H  9.65600 -1.10700 21.61200
H  11.35100 -1.08900 22.03600
H  10.83000 -0.00700 20.83900
H  12.46700 -2.44400 26.88700
H  10.82300 -3.28500 26.56000
H  11.69100 -3.54100 27.98300
H  11.82500 0.29800 31.80400
H  9.16500 -2.18200 34.69000
H  9.00600 -0.29400 34.83600
H  10.24500 -1.18900 35.68300
Mg 43.99100 3.42300 47.47700
C  41.62900 5.93300 46.83200
C  41.53200 1.08200 47.16200
C  46.32600 1.04100 47.17300
C  46.51700 5.87200 47.10500
N  41.85600 3.54900 47.08200
C  41.08000 4.66900 46.91000
C  39.56500 4.25400 46.84500
C  39.58900 2.75100 47.24400
C  41.07700 2.42700 47.07600
C  39.08300 2.43100 48.66000
C  38.96900 4.35800 45.35600
C  37.83100 5.37200 45.22400
H  38.15500 6.59900 44.37100
N  43.96500 1.26200 47.30300
C  42.84300 0.48900 47.25800
C  43.23300 -0.94200 47.23900
C  44.65800 -0.95500 47.37400
C  45.02800 0.47800 47.18700
C  42.25900 -2.11300 47.30200
C  45.58000 -2.18800 47.62600
O  45.05000 -3.29600 47.75800
C  47.04800 -2.05000 47.87400
N  46.08300 3.44200 47.29900
C  46.80800 2.30000 47.11100
C  48.31900 2.55500 47.00400
C  48.39400 4.10000 47.12700
C  46.92100 4.53800 47.25100
C  49.19400 1.60400 47.94500
C  49.30800 4.87000 46.20500
C  50.66700 5.34900 46.82400
N  44.14000 5.54700 47.18200
C  45.20200 6.36000 47.13900
C  44.77600 7.72600 47.09300
C  43.35200 7.58200 46.90900
C  43.02500 6.24100 47.01600
C  45.53400 9.09900 47.11000
C  42.17400 8.35900 46.80400
O  42.01800 9.56500 46.78600
C  40.99100 7.31000 46.69500
C  40.05100 7.58100 47.84600
O  40.23900 7.25000 49.01100
O  38.97800 8.20500 47.41200
C  37.86400 8.40100 48.44300
H  40.72900 0.34200 47.14600
H  47.14600 0.32500 47.09000
H  47.23300 6.69500 47.05500
H  38.87900 4.75000 47.53100
H  39.07400 2.11600 46.52200
H  38.65200 3.31500 49.13000
H  39.97900 2.31200 49.26900
H  38.49900 1.52000 48.52500
H  38.54200 3.46100 44.91000
H  39.75000 4.56200 44.62300
H  37.59300 5.75900 46.21500
H  36.88300 4.88600 44.99400
H  42.58400 -2.84800 46.56600
H  41.28600 -1.76700 46.95200
H  42.22700 -2.62100 48.26600
H  47.50700 -1.77700 46.92400
H  47.44100 -2.98200 48.27900
H  47.19000 -1.30300 48.65500
H  48.66000 2.26100 46.01200
H  48.82200 4.18300 48.12600
H  48.58200 1.09100 48.68700
H  50.02600 2.16900 48.36600
H  49.72000 0.93400 47.26400
H  48.79200 5.66800 45.67100
H  49.59700 4.10600 45.48300
H  51.58600 4.92400 46.41900
H  50.58200 5.05400 47.87000
H  50.72800 6.43100 46.70900
H  46.55800 9.05200 46.73900
H  45.67400 9.47500 48.12300
H  44.90400 9.68800 46.44300
H  40.51200 7.35900 45.71700
H  36.99400 8.98500 48.14500
H  38.31200 8.85500 49.32700
H  37.51900 7.38200 48.61900

