158

Mg 48.09400 34.15900 27.12400
C  46.25300 32.72000 29.75400
C  48.97200 36.64000 29.35600
C  49.90600 35.43200 24.69800
C  47.27000 31.33500 25.08900
N  47.65000 34.56100 29.24100
C  46.99100 33.80400 30.16200
C  47.34400 34.27000 31.62500
C  47.79300 35.71900 31.37200
C  48.11400 35.66600 29.84300
C  46.66600 36.71100 31.65100
C  48.39900 33.44700 32.29700
C  48.34900 33.41900 33.85400
H  47.36700 34.26500 34.78300
N  49.16200 35.89800 26.97800
C  49.42000 36.84200 28.06000
C  50.41500 37.77800 27.52300
C  50.73900 37.38500 26.20200
C  49.88700 36.19800 25.88800
C  50.99300 38.88600 28.48000
C  51.68100 38.07400 25.17200
O  51.94400 37.55300 24.07100
C  52.32100 39.46100 25.52500
N  48.36000 33.55900 25.09400
C  49.18300 34.29500 24.22800
C  49.54000 33.53100 22.93000
C  48.78800 32.11100 23.15500
C  48.03700 32.31000 24.51600
C  49.22800 34.29000 21.59100
C  49.75900 30.89900 23.16600
C  50.02900 30.23700 21.83200
N  46.84600 32.52600 27.30900
C  46.61200 31.48200 26.40900
C  45.67300 30.56000 26.98900
C  45.50800 31.01000 28.31400
C  46.25900 32.17600 28.45600
C  45.11200 29.34900 26.31600
C  44.84300 30.68300 29.55500
O  44.14700 29.69000 29.84000
C  45.26200 31.82200 30.57000
C  45.86500 31.07300 31.62900
O  46.85500 30.37200 31.51400
O  45.05800 31.03600 32.73600
C  45.62300 30.25300 33.83800
H  49.14500 37.51000 29.99200
H  50.57500 35.71100 23.88200
H  47.22000 30.43300 24.47500
H  46.50700 34.26600 32.32400
H  48.65300 36.01500 31.97300
H  45.95500 36.40100 32.41700
H  46.10000 36.82000 30.72500
H  47.09900 37.67400 31.91800
H  49.37600 33.86200 32.05300
H  48.45100 32.45700 31.84500
H  49.36400 33.71900 34.11500
H  48.30200 32.39600 34.22600
H  51.99100 38.57400 28.78700
H  50.27600 39.00600 29.29200
H  51.13200 39.85200 27.99300
H  51.56700 40.23500 25.66700
H  53.01000 39.65000 24.70300
H  52.88500 39.26600 26.43700
H  50.61500 33.36300 22.99100
H  48.01800 32.10700 22.38300
H  48.69900 35.23100 21.74400
H  48.62800 33.71900 20.88100
H  50.17500 34.23900 21.05500
H  49.62100 30.18400 23.97700
H  50.74300 31.32600 23.35800
H  49.54400 30.72000 20.98300
H  49.61300 29.22900 21.82400
H  51.09500 30.08500 21.66700
H  45.00000 29.59400 25.26000
H  44.14300 29.10400 26.75100
H  45.87300 28.58800 26.48600
H  44.40900 32.41600 30.90000
H  45.60500 29.24000 33.43500
H  44.96600 30.21700 34.70700
H  46.64800 30.47200 34.13700
Mg 16.35800 51.80500 26.03400
C  17.98400 50.86400 28.93700
C  13.82500 53.12500 28.09300
C  14.80900 52.86700 23.30800
C  18.62800 50.15500 24.17300
N  15.88900 51.89800 28.19300
C  16.82900 51.53100 29.20200
C  16.32300 51.87600 30.59500
C  14.87300 52.48100 30.31400
C  14.85100 52.49400 28.82900
C  13.66200 51.79600 31.01200
C  17.26100 52.86000 31.42500
C  17.68800 52.36900 32.81000
H  16.91500 53.02300 34.04400
N  14.62100 52.94000 25.76300
C  13.70900 53.39200 26.71900
C  12.66400 54.12100 26.02700
C  12.94400 54.05600 24.62100
C  14.23100 53.25000 24.47700
C  11.49700 54.77000 26.70300
C  12.23900 54.76300 23.39800
O  12.59100 54.65400 22.21800
C  10.99400 55.67900 23.63800
N  16.72800 51.69700 23.97300
C  15.97200 52.18300 23.02500
C  16.57300 51.71700 21.59800
C  17.88400 51.07800 22.05800
C  17.65900 50.86500 23.47900
C  15.54100 50.77800 20.85800
C  19.07700 52.10800 21.79400
C  20.41700 51.54500 21.52200
N  17.93000 50.63700 26.41500
C  18.86500 50.07800 25.57100
C  19.92100 49.48500 26.29600
C  19.66300 49.69200 27.67300
C  18.43100 50.43100 27.65300
C  21.18800 48.86900 25.75600
C  20.14700 49.55300 29.09000
O  21.12400 48.96300 29.52800
C  19.04300 50.30400 29.88700
C  18.50600 49.20300 30.70000
O  17.83600 48.23700 30.37900
O  19.12000 49.27200 31.98600
C  18.58800 48.31000 32.98200
H  13.00300 53.45200 28.73300
H  14.32200 53.24200 22.40600
H  19.43000 49.83000 23.50800
H  16.24600 50.94900 31.16200
H  14.84800 53.55900 30.47300
H  12.71500 52.26500 30.74700
H  13.65200 51.96400 32.08900
H  13.60000 50.71400 30.89300
H  16.76900 53.82500 31.54700
H  18.16300 53.00500 30.83000
H  18.71100 52.73800 32.74500
H  17.67200 51.28000 32.77600
H  11.64000 54.82000 27.78200
H  10.61300 54.18100 26.46000
H  11.47700 55.80300 26.35700
H  11.25800 56.59100 24.17200
H  10.27400 54.97400 24.05600
H  10.66600 55.86300 22.61500
H  16.57100 52.67900 21.08600
H  18.04300 50.13900 21.52700
H  16.08200 49.85100 20.66700
H  15.11800 51.21600 19.95400
H  14.64500 50.53400 21.42900
H  18.97700 52.76200 22.66000
H  18.76400 52.69900 20.93300
H  21.00500 51.23600 22.38600
H  20.98000 52.22800 20.88500
H  20.20700 50.66700 20.91000
H  21.32700 49.16000 24.71500
H  21.03800 47.80000 25.60900
H  22.04200 49.06800 26.40400
H  19.41800 51.03800 30.60000
H  17.50200 48.32600 33.07500
H  18.96400 48.66000 33.94300
H  19.03300 47.31800 32.91000

