158

Mg 5.07900 52.42400 42.14900
C  5.04900 48.89300 41.85400
C  7.52700 52.39200 39.74500
C  4.62500 55.80500 41.85000
C  2.30000 52.18800 44.15200
N  5.97400 50.86300 40.80000
C  5.83500 49.47300 40.84800
C  6.69400 48.82600 39.75000
C  7.74800 49.90300 39.51700
C  7.04000 51.12600 40.03900
C  9.15900 49.71200 40.13600
C  5.82000 48.30500 38.53700
C  5.91500 46.79500 38.01200
H  6.38400 46.50800 36.53900
N  6.02000 53.95700 41.00600
C  7.03600 53.70600 40.10800
C  7.56100 55.03900 39.73100
C  6.86800 56.01700 40.46000
C  5.82400 55.29000 41.15700
C  8.63500 55.16300 38.69100
C  7.20500 57.44000 40.50000
O  8.21500 57.83400 39.88400
C  6.42800 58.43900 41.36500
N  3.75200 53.74700 42.89400
C  3.71300 55.06800 42.63100
C  2.39000 55.72800 43.11800
C  1.45100 54.49700 43.41900
C  2.54400 53.40700 43.52600
C  2.50900 56.60600 44.43600
C  0.43400 54.25800 42.24700
C  -0.51100 55.45700 41.94700
N  4.00000 50.94500 43.02400
C  2.99200 50.99200 43.96300
C  2.69600 49.65000 44.40200
C  3.49400 48.78000 43.59700
C  4.23700 49.59900 42.77000
C  1.71800 49.27600 45.46400
C  3.85200 47.39400 43.36300
O  3.52800 46.33800 43.82800
C  4.88900 47.47100 42.19500
C  4.61600 46.53600 41.15800
O  3.66200 46.64200 40.37100
O  5.44100 45.45600 41.29100
C  5.03300 44.30700 40.48100
H  8.41400 52.49000 39.11600
H  4.42700 56.87800 41.81900
H  1.33100 52.17400 44.65400
H  7.03000 47.95200 40.30700
H  7.89400 50.02600 38.44400
H  9.90000 49.83900 39.34700
H  9.27300 48.72500 40.58400
H  9.40400 50.55100 40.78900
H  6.08600 48.95600 37.70400
H  4.80700 48.64400 38.75600
H  4.91700 46.40200 38.20500
H  6.64200 46.35600 38.69500
H  8.58100 54.37100 37.94500
H  9.62600 55.06000 39.13200
H  8.65200 56.18100 38.29900
H  6.91400 59.41500 41.36800
H  6.48000 57.88700 42.30300
H  5.49800 58.64400 40.83400
H  2.08400 56.44200 42.35300
H  0.84800 54.70400 44.30400
H  3.39900 57.23300 44.40200
H  2.58000 55.99200 45.33400
H  1.73500 57.36900 44.51700
H  -0.19400 53.39500 42.46600
H  0.91100 53.92400 41.32600
H  0.01200 56.34800 41.59900
H  -1.14100 55.72700 42.79500
H  -1.20300 55.21400 41.14100
H  0.72900 49.37100 45.01600
H  1.80500 50.00200 46.27200
H  1.84000 48.28000 45.88900
H  5.86800 47.22000 42.60500
H  5.79700 43.53700 40.58600
H  5.12800 44.59200 39.43400
H  3.99800 44.05300 40.71000
Mg -11.45100 16.16500 41.47400
C  -8.86400 13.91400 41.11100
C  -9.68800 18.64600 39.95100
C  -14.40600 17.91600 40.86800
C  -13.57000 13.29800 42.18700
N  -9.61500 16.19100 40.53700
C  -8.64000 15.19800 40.61700
C  -7.27100 15.71800 40.26000
C  -7.55200 17.27900 40.08900
C  -9.06400 17.37100 40.16100
C  -6.76300 18.05100 41.17000
C  -6.61000 15.10600 38.96000
C  -5.13000 15.08100 38.65300
H  -4.77400 15.42600 37.20000
N  -11.97100 18.07300 40.69700
C  -11.09900 18.91800 40.09300
C  -11.74900 20.19100 39.85100
C  -13.10000 20.03600 40.25400
C  -13.21500 18.62400 40.64300
C  -10.95500 21.35400 39.40200
C  -14.13900 21.08100 40.21200
O  -13.91900 22.15000 39.71500
C  -15.46800 20.90300 40.95600
N  -13.72900 15.56100 41.32300
C  -14.73200 16.60000 41.16800
C  -16.13100 15.94200 41.15800
C  -15.72200 14.54600 41.70200
C  -14.25400 14.42200 41.81800
C  -17.00000 16.80300 42.05700
C  -16.47700 13.38400 40.93100
C  -17.05100 12.24800 41.77800
N  -11.25100 14.04600 41.82400
C  -12.14200 13.02800 42.12900
C  -11.39000 11.86300 42.45700
C  -10.07500 12.15700 42.08000
C  -10.08200 13.47900 41.71700
C  -12.02800 10.56200 42.97000
C  -8.75700 11.59900 41.99600
O  -8.36700 10.49500 42.23300
C  -7.85600 12.81200 41.49600
C  -6.88900 13.29500 42.48400
O  -7.11500 13.74600 43.59600
O  -5.60700 13.18200 42.00300
C  -4.53600 13.61300 42.89500
H  -8.93100 19.37600 39.65700
H  -15.30600 18.44700 40.55100
H  -14.15700 12.46000 42.56900
H  -6.57500 15.58500 41.08700
H  -7.22300 17.68500 39.13200
H  -6.14300 17.39200 41.77800
H  -7.42700 18.58500 41.84900
H  -6.13800 18.78200 40.65600
H  -7.22500 15.49700 38.14900
H  -6.94000 14.06900 39.02500
H  -4.84900 14.04000 38.81000
H  -4.70700 15.95400 39.14900
H  -10.25300 21.59400 40.20100
H  -11.53600 22.25000 39.18500
H  -10.48300 20.98300 38.49300
H  -16.34700 20.62700 40.37200
H  -15.68600 21.89400 41.35500
H  -15.31700 20.33700 41.87500
H  -16.45800 15.82400 40.12500
H  -16.06100 14.49600 42.73700
H  -16.42900 17.53000 42.63500
H  -17.72400 16.22600 42.63200
H  -17.70200 17.41500 41.49200
H  -15.80300 12.90200 40.22200
H  -17.34900 13.79000 40.42000
H  -16.84800 11.30800 41.26600
H  -18.11900 12.31400 41.98400
H  -16.54300 12.24300 42.74300
H  -12.77300 10.88300 43.69800
H  -11.38000 9.81400 43.42500
H  -12.57400 10.07200 42.16300
H  -7.26200 12.54100 40.62300
H  -3.69300 13.71200 42.21100
H  -4.28600 12.81300 43.59100
H  -4.73500 14.60800 43.29500

