158

Mg 53.80600 24.10100 44.47800
C  51.23800 26.26900 43.45100
C  51.79900 21.63000 43.34400
C  56.43100 22.15100 44.82100
C  55.66900 26.87400 45.47100
N  51.86500 24.01100 43.30200
C  51.02000 25.03300 43.00300
C  49.88900 24.49700 42.12200
C  49.71900 23.09600 42.76600
C  51.16800 22.89700 43.24700
C  48.65000 22.99000 43.88800
C  50.09900 24.63800 40.61400
C  48.97500 25.13000 39.70000
H  49.59200 25.80600 38.46100
N  54.08000 22.10300 44.17400
C  53.11700 21.24300 43.72500
C  53.69700 19.92300 43.69100
C  54.99200 20.00800 44.28200
C  55.23700 21.47700 44.45500
C  52.97400 18.68300 43.17300
C  55.87000 18.80400 44.68700
O  55.54200 17.65300 44.52300
C  57.24900 18.98900 45.38000
N  55.80600 24.48300 44.79900
C  56.66300 23.48000 45.01900
C  58.03700 24.00600 45.34000
C  57.87400 25.55500 45.29000
C  56.37200 25.64200 45.23100
C  58.65300 23.60100 46.70100
C  58.48300 26.27000 44.04800
C  59.06400 27.69200 44.21500
N  53.54400 26.17600 44.57200
C  54.31500 27.16500 45.09400
C  53.61900 28.47500 45.08900
C  52.39000 28.12900 44.48900
C  52.38900 26.76200 44.11300
C  54.02800 29.73400 45.67900
C  51.03500 28.59500 44.06500
O  50.56300 29.72800 44.13300
C  50.26400 27.41400 43.51800
C  49.79700 27.78700 42.13200
O  50.54700 27.89600 41.19100
O  48.50000 28.15300 42.17700
C  47.87000 28.72400 40.99900
H  51.08100 20.82200 43.18900
H  57.32300 21.54400 44.98700
H  56.31000 27.62600 45.93600
H  48.99900 25.07500 42.36800
H  49.44200 22.28000 42.09800
H  47.80900 23.56600 43.50000
H  49.04900 23.48000 44.77600
H  48.40600 21.94300 44.06700
H  50.45100 23.65800 40.29400
H  51.02200 25.16600 40.37400
H  48.36700 25.91500 40.15000
H  48.37200 24.29800 39.33700
H  52.17700 18.90400 42.46300
H  52.51300 18.22800 44.05000
H  53.55600 17.85800 42.76200
H  57.07500 19.73100 46.16000
H  57.98500 19.34300 44.65800
H  57.65000 18.09800 45.86300
H  58.72500 23.56500 44.61900
H  58.38500 25.91100 46.18500
H  59.14300 22.62900 46.63300
H  57.90900 23.37700 47.46500
H  59.37700 24.28900 47.13700
H  57.73100 26.21100 43.26100
H  59.27000 25.55900 43.80000
H  60.15300 27.73000 44.25700
H  58.65600 28.27900 45.03700
H  58.73900 28.39400 43.44700
H  54.89300 30.19800 45.20600
H  54.21900 29.47300 46.72000
H  53.19000 30.42600 45.58600
H  49.39700 27.20500 44.14400
H  48.03900 28.24900 40.03300
H  48.28600 29.72700 41.09400
H  46.81300 28.95800 41.12400
Mg 48.11400 34.60500 27.53500
C  46.33700 33.38900 30.31200
C  48.44100 37.60300 29.21100
C  49.46100 35.81300 24.79900
C  46.93100 31.77100 25.62800
N  47.60500 35.31100 29.60000
C  46.90400 34.66000 30.55300
C  46.72800 35.49500 31.78100
C  47.02600 36.91000 31.16400
C  47.76500 36.60400 29.93600
C  45.74400 37.79200 31.03700
C  47.85200 35.11300 32.88000
C  47.32500 34.64700 34.25000
H  47.68200 35.29500 35.51400
N  48.98100 36.32500 27.16600
C  49.05300 37.49000 27.94600
C  49.85400 38.53900 27.30200
C  50.37400 37.91800 26.07300
C  49.65900 36.56100 25.95800
C  50.17000 39.86200 27.94500
C  51.31200 38.39700 25.09600
O  51.70100 37.68200 24.15700
C  51.91300 39.73600 25.25100
N  48.12100 33.82300 25.41900
C  48.72400 34.61500 24.45300
C  48.76100 33.91000 23.09300
C  48.01300 32.55300 23.33900
C  47.60100 32.69300 24.85700
C  48.21100 34.76800 21.93200
C  48.81500 31.23300 23.11600
C  50.28100 31.23400 23.62800
N  46.89900 32.97300 27.81700
C  46.59600 31.83600 27.01300
C  45.69500 30.95700 27.83100
C  45.51700 31.53000 29.03400
C  46.32900 32.70600 29.03000
C  45.13100 29.65800 27.37100
C  44.90500 31.37100 30.32400
O  44.12800 30.52200 30.77200
C  45.22000 32.63900 31.12600
C  45.60000 32.20600 32.45800
O  46.60900 31.67200 32.86500
O  44.53300 32.49000 33.23500
C  44.58800 31.90400 34.57800
H  48.50100 38.58000 29.69700
H  49.81900 36.21300 23.84800
H  46.59200 30.93900 25.00700
H  45.72500 35.28100 32.15200
H  47.71500 37.40200 31.84900
H  45.68600 38.10600 29.99500
H  45.81400 38.59000 31.77600
H  44.84900 37.24000 31.32600
H  48.45000 35.97100 33.18600
H  48.46400 34.34300 32.41000
H  47.75700 33.66300 34.43700
H  46.24100 34.64300 34.13100
H  51.23300 39.89600 28.18800
H  49.42500 40.16500 28.68100
H  50.00000 40.59100 27.15200
H  51.06000 40.39600 25.09200
H  52.57900 39.91200 24.40600
H  52.33000 39.95500 26.23400
H  49.77500 33.65400 22.78700
H  47.14300 32.57200 22.68400
H  48.16700 35.84200 22.11500
H  47.20300 34.41700 21.71200
H  48.79400 34.65500 21.01800
H  48.66300 31.04200 22.05300
H  48.13700 30.49400 23.54400
H  50.64200 32.20900 23.95300
H  50.92100 30.99200 22.77900
H  50.49600 30.61200 24.49700
H  45.88500 29.00800 26.92600
H  44.39600 29.80500 26.58000
H  44.62000 29.23400 28.23500
H  44.35300 33.28900 31.23700
H  45.18900 32.55000 35.21800
H  45.04300 30.91300 34.59800
H  43.63700 31.80400 35.10000

