158

Mg 7.14000 55.39100 41.68000
C  5.98800 52.27600 40.56700
C  10.14000 54.57800 40.78600
C  7.75200 58.74400 41.52700
C  3.91500 56.18200 42.58500
N  7.91700 53.60800 40.76900
C  7.33000 52.46200 40.43300
C  8.34600 51.38700 40.06100
C  9.73600 52.04600 40.45100
C  9.28400 53.48800 40.70600
C  10.47900 51.25900 41.60900
C  8.29000 50.88100 38.59500
C  8.89200 49.51000 38.39600
H  9.53700 49.44500 36.98500
N  8.75900 56.57600 41.28600
C  9.96900 55.96700 40.90900
C  10.93900 56.99900 40.77100
C  10.21500 58.22400 40.79100
C  8.82600 57.88200 41.20900
C  12.41800 56.69900 40.56400
C  10.71700 59.60900 40.49900
O  11.89700 59.79300 40.12600
C  9.97500 60.89600 40.68300
N  5.96600 57.26700 42.14300
C  6.48000 58.49000 42.02900
C  5.39200 59.49800 42.47700
C  4.24100 58.68500 43.03200
C  4.65100 57.33200 42.47800
C  6.09900 60.47700 43.47100
C  2.80100 59.17000 42.53700
C  1.73100 58.94600 43.59300
N  5.30500 54.43300 41.62900
C  4.08700 54.85300 42.05100
C  3.16400 53.77200 41.99600
C  3.79500 52.69700 41.25200
C  5.12300 53.19400 41.12800
C  1.79800 53.73200 42.61000
C  3.71200 51.30800 40.75300
O  2.83300 50.43300 40.86800
C  5.13400 51.01900 40.17400
C  4.85100 51.00400 38.74000
O  4.47300 52.02000 38.14800
O  5.13100 49.74600 38.15500
C  4.96400 49.70100 36.67900
H  11.20400 54.42500 40.59500
H  7.95000 59.81800 41.51300
H  2.93200 56.23500 43.05700
H  8.17100 50.54000 40.72400
H  10.31200 51.98300 39.52800
H  10.20500 51.57900 42.61400
H  11.50900 51.34900 41.26200
H  10.19900 50.21400 41.47300
H  8.93200 51.58900 38.07000
H  7.26800 50.93900 38.22100
H  8.04300 48.85100 38.57900
H  9.66600 49.29000 39.13100
H  12.45900 56.11200 39.64700
H  12.79000 56.12600 41.41400
H  13.00000 57.62100 40.55400
H  10.00100 61.21400 41.72500
H  8.95500 60.86100 40.29900
H  10.64800 61.60200 40.19700
H  5.29500 60.09600 41.57100
H  4.26400 58.57300 44.11600
H  7.18000 60.35400 43.54100
H  5.52200 60.48200 44.39500
H  5.94400 61.47200 43.05200
H  2.62800 58.46900 41.72100
H  2.90700 60.13600 42.04400
H  1.96300 58.25400 44.40300
H  0.92500 58.38400 43.12200
H  1.20500 59.85900 43.87300
H  1.40100 54.73900 42.73700
H  1.80000 53.22200 43.57400
H  1.13600 53.24400 41.89500
H  5.57100 50.04400 40.38900
H  5.48000 50.53400 36.20100
H  3.89800 49.90900 36.59300
H  5.15600 48.69100 36.31600
Mg 9.62000 47.43100 25.74200
C  7.29700 47.29100 28.53600
C  11.96600 48.37100 27.92800
C  11.63100 47.32700 23.13900
C  6.82900 46.90100 23.58000
N  9.57700 47.85000 28.05400
C  8.57400 47.59400 28.98000
C  9.13400 47.75900 30.41000
C  10.53900 48.34800 30.13800
C  10.70900 48.26100 28.59600
C  10.58400 49.86000 30.64700
C  9.02700 46.53000 31.35000
C  9.91400 46.40400 32.55500
H  9.27600 45.80700 33.86800
N  11.50300 47.94700 25.54200
C  12.29200 48.33100 26.59200
C  13.65500 48.53500 26.05500
C  13.58000 48.13200 24.63800
C  12.18800 47.76600 24.37500
C  14.93900 48.74000 26.85900
C  14.70900 48.08900 23.57900
O  14.43800 47.73900 22.45800
C  16.13000 48.39600 23.89200
N  9.24300 47.48200 23.62600
C  10.31100 47.28500 22.79500
C  9.69200 47.05000 21.32800
C  8.20000 47.05200 21.50800
C  8.07200 46.98200 22.98000
C  10.20400 48.16300 20.36400
C  7.60500 45.83600 20.74600
C  7.84300 45.76300 19.25600
N  7.52200 47.14300 25.97000
C  6.48200 46.97900 24.99200
C  5.21400 46.90000 25.66600
C  5.52100 47.00800 27.02400
C  6.91900 47.10400 27.18200
C  3.78500 46.80300 25.06000
C  4.92900 47.13000 28.28400
O  3.74300 47.11300 28.56700
C  6.01400 47.16000 29.32800
C  5.99300 45.91900 30.05100
O  6.48600 44.78700 29.75700
O  5.24300 46.14800 31.22600
C  4.97500 45.10300 32.19300
H  12.80100 48.62100 28.58600
H  12.19500 47.07100 22.23900
H  5.92800 46.89100 22.96300
H  8.55400 48.57800 30.83400
H  11.30000 47.82900 30.72100
H  10.45300 50.63800 29.89500
H  11.52000 50.06100 31.16800
H  9.83300 49.98900 31.42600
H  9.13300 45.63300 30.74000
H  7.99800 46.58900 31.70200
H  10.43100 47.32100 32.83900
H  10.61900 45.63100 32.24900
H  14.71500 48.72200 27.92600
H  15.49900 49.66400 26.71600
H  15.81200 48.11900 26.65800
H  16.45500 48.84300 22.95300
H  16.62800 47.53000 24.32700
H  16.10000 49.21300 24.61200
H  10.05500 46.04300 21.12200
H  7.72700 47.91100 21.03300
H  11.06400 48.59400 20.87700
H  9.43200 48.92700 20.26500
H  10.53900 47.81000 19.38900
H  6.53400 45.69400 20.89300
H  8.08800 44.95700 21.17200
H  7.77700 46.63800 18.60900
H  7.04600 45.11100 18.90000
H  8.79800 45.29200 19.02600
H  3.89000 46.50300 24.01800
H  3.10800 47.63100 25.26800
H  3.31200 46.07900 25.72400
H  5.87400 47.99400 30.01600
H  3.94400 44.77800 32.33300
H  5.37600 45.51700 33.11800
H  5.49300 44.16500 31.99300

