158

Mg 24.28300 -4.61800 45.68300
C  26.34300 -2.19900 44.08100
C  21.65500 -3.40000 43.57400
C  22.51600 -7.38400 46.35000
C  27.05100 -5.82800 47.35700
N  24.07700 -3.03600 43.97800
C  25.00900 -2.16000 43.61100
C  24.58300 -1.25900 42.44900
C  23.04900 -1.37100 42.60300
C  22.91300 -2.69900 43.42100
C  22.33300 -0.22100 43.35600
C  25.12100 -1.87800 41.05400
C  25.77700 -0.76300 40.16800
H  25.34400 -0.88600 38.68000
N  22.27100 -5.25600 45.12400
C  21.44000 -4.64200 44.25100
C  20.23500 -5.45800 44.15900
C  20.41900 -6.66200 44.93500
C  21.78900 -6.45700 45.51500
C  19.11200 -5.12700 43.29000
C  19.38400 -7.72000 45.17900
O  18.29600 -7.65300 44.60000
C  19.63800 -8.75300 46.20000
N  24.69900 -6.29300 46.68100
C  23.82900 -7.34100 46.84500
C  24.24100 -8.42100 47.78400
C  25.65300 -7.88800 48.20600
C  25.79700 -6.54400 47.42400
C  23.24800 -8.78500 48.91300
C  26.88700 -8.85400 48.04900
C  28.05400 -8.74500 49.03600
N  26.32800 -4.12400 45.81800
C  27.31900 -4.66000 46.57000
C  28.60100 -3.96700 46.42700
C  28.28300 -2.98200 45.38100
C  26.88000 -3.11500 45.05100
C  29.98700 -4.35500 47.10000
C  28.80400 -1.92700 44.54500
O  29.91000 -1.35300 44.49600
C  27.58200 -1.36600 43.65400
C  27.36000 0.06900 43.92400
O  26.61200 0.58100 44.78100
O  28.07100 0.75700 42.95000
C  27.82800 2.19100 43.01000
H  20.87400 -2.94000 42.96400
H  21.93200 -8.25300 46.66100
H  27.85000 -6.22500 47.98700
H  24.96700 -0.25000 42.59900
H  22.56400 -1.39500 41.62800
H  21.73500 -0.62700 44.17200
H  21.62400 0.19200 42.63800
H  22.99800 0.60500 43.61100
H  24.27700 -2.21300 40.45000
H  25.79600 -2.72900 41.14500
H  26.86700 -0.77300 40.14000
H  25.48500 0.21700 40.54500
H  18.93000 -5.97900 42.63500
H  19.17700 -4.12700 42.86100
H  18.23300 -5.08600 43.93400
H  18.74500 -9.37900 46.20600
H  19.77300 -8.33200 47.19600
H  20.38600 -9.50800 45.95700
H  24.44500 -9.28300 47.14900
H  25.44100 -7.69100 49.25700
H  22.44400 -8.05000 48.96600
H  23.74700 -8.72500 49.88000
H  22.70500 -9.73000 48.88000
H  27.30300 -8.83200 47.04200
H  26.50600 -9.87400 48.00100
H  28.12200 -9.53900 49.78000
H  27.79800 -7.88600 49.65600
H  29.01100 -8.62000 48.53000
H  30.08300 -5.43000 46.94400
H  30.03200 -4.14200 48.16800
H  30.85600 -3.86000 46.66600
H  27.82700 -1.60300 42.61900
H  26.90400 2.50400 43.49500
H  27.71800 2.53100 41.98000
H  28.60600 2.83400 43.42200
Mg 49.22000 47.06500 42.93200
C  45.99500 48.07600 42.14700
C  48.93800 44.31700 40.83200
C  52.51000 46.51000 43.11000
C  49.67500 50.58200 43.68500
N  47.59400 46.33100 41.58700
C  46.40700 46.92400 41.41300
C  45.72500 46.31200 40.22700
C  46.60600 45.04200 39.87500
C  47.76900 45.22100 40.87800
C  45.80800 43.75600 39.82100
C  45.50500 47.29500 39.09000
C  44.03600 47.31800 38.61400
H  43.71500 46.93800 37.20800
N  50.43700 45.44000 42.33000
C  50.15200 44.41300 41.54200
C  51.23800 43.47400 41.57600
C  52.30000 44.04700 42.28700
C  51.77800 45.41000 42.62500
C  51.18900 42.05800 40.96000
C  53.73700 43.31800 42.48900
O  53.96700 42.23900 41.96300
C  54.79900 44.05800 43.25600
N  50.79800 48.40300 43.17800
C  52.09300 47.86700 43.28400
C  53.14400 48.86200 43.76600
C  52.22400 50.18900 43.78100
C  50.80000 49.69800 43.63400
C  53.82500 48.57700 45.09300
C  52.69300 51.22900 42.78700
C  53.57000 52.44200 43.29500
N  48.03900 48.87800 43.33500
C  48.35600 50.17900 43.54200
C  47.11300 50.99400 43.67600
C  46.17000 50.13800 43.26400
C  46.79000 48.93200 42.93500
C  47.09600 52.44900 44.15200
C  44.73700 50.05500 43.00100
O  43.77700 50.78000 43.18900
C  44.60200 48.72900 42.16600
C  43.46400 47.86900 42.71500
O  43.23800 47.53300 43.89500
O  42.87100 47.32800 41.66300
C  41.93500 46.21100 41.76100
H  48.74100 43.48800 40.15000
H  53.54500 46.26400 43.35600
H  49.86300 51.59500 44.04600
H  44.80000 45.94200 40.67000
H  47.06000 45.15300 38.89000
H  44.73600 43.85600 39.99400
H  46.06000 43.10900 40.66100
H  46.05800 43.37700 38.83000
H  46.15200 47.05800 38.24500
H  45.72500 48.29900 39.45300
H  43.53800 48.27800 38.75000
H  43.46300 46.63200 39.23800
H  52.03200 41.87500 40.29500
H  50.26200 41.87200 40.41700
H  51.32000 41.35700 41.78500
H  55.45600 43.30900 43.69800
H  54.32000 44.53800 44.10800
H  55.21900 44.85100 42.63700
H  53.94100 49.06800 43.05200
H  52.32800 50.72200 44.72600
H  53.03700 48.76100 45.82400
H  54.67400 49.23800 45.26800
H  54.06700 47.51800 45.17400
H  51.73100 51.67500 42.53500
H  52.98800 50.85600 41.80700
H  53.29000 52.69800 44.31700
H  53.58900 53.34400 42.68300
H  54.54800 51.96200 43.30300
H  48.10700 52.74300 44.43600
H  46.40600 52.43100 44.99600
H  46.61200 52.96800 43.32500
H  44.27100 49.02800 41.17100
H  40.93600 46.35100 41.34900
H  41.96000 45.89000 42.80200
H  42.31600 45.35200 41.20800

