158

Mg 1.88800 41.99400 26.08400
C  3.59800 42.49000 28.96900
C  -0.86000 41.13800 27.87100
C  0.43000 40.89400 23.32300
C  4.81500 42.76900 24.25300
N  1.48900 41.79100 28.21300
C  2.25000 42.17800 29.22800
C  1.56900 42.10000 30.58100
C  0.11300 41.47300 30.10800
C  0.21100 41.46900 28.62800
C  -0.28900 40.09000 30.87900
C  1.52100 43.48000 31.41000
C  1.97600 43.41900 32.86800
H  1.75900 42.15300 33.69600
N  -0.03000 41.26400 25.65100
C  -1.03700 41.08200 26.50400
C  -2.25400 40.63800 25.83800
C  -1.89500 40.59200 24.41000
C  -0.45500 40.91800 24.43900
C  -3.58100 40.32400 26.56000
C  -2.78200 40.28300 23.20200
O  -2.46300 40.31200 22.02600
C  -4.29000 40.13700 23.58700
N  2.55300 41.76000 24.16200
C  1.78500 41.20200 23.19600
C  2.50200 40.92400 21.92100
C  3.78900 41.78600 22.07500
C  3.71900 42.19900 23.57400
C  2.58000 39.45600 21.45900
C  3.75000 43.15600 21.32600
C  5.24000 43.75700 20.95000
N  3.82100 42.55400 26.44400
C  4.87100 42.92200 25.64300
C  5.94900 43.35700 26.42900
C  5.54000 43.10000 27.74600
C  4.19100 42.69400 27.74000
C  7.29500 43.73100 25.96000
C  6.05000 42.92000 29.07000
O  7.21900 42.88100 29.52500
C  4.70800 42.65600 29.97500
C  5.03500 41.40500 30.71500
O  4.97600 40.27300 30.22200
O  5.37300 41.64800 32.06400
C  5.70700 40.45800 32.88700
H  -1.77000 41.03100 28.46500
H  -0.10900 40.58700 22.42400
H  5.67200 43.07400 23.65000
H  2.19900 41.40400 31.13500
H  -0.54400 42.25100 30.49700
H  -0.69500 39.34400 30.19600
H  -1.13300 40.35500 31.51600
H  0.55600 39.77600 31.49200
H  0.54800 43.96200 31.50700
H  2.06300 44.20900 30.80900
H  1.53900 44.29200 33.35300
H  3.06100 43.52400 32.89600
H  -4.25600 41.11500 26.23300
H  -3.49300 40.25400 27.64500
H  -3.94800 39.31500 26.37300
H  -4.51900 39.07300 23.64600
H  -4.88500 40.49600 22.74700
H  -4.70000 40.70500 24.42200
H  1.93900 41.52500 21.20700
H  4.78300 41.34000 22.03100
H  3.59400 39.07600 21.58500
H  2.22400 39.44000 20.42900
H  2.09500 38.75200 22.13500
H  3.18800 43.79300 22.00900
H  3.13700 43.27400 20.43300
H  5.37100 43.75100 19.86800
H  6.08200 43.15700 21.29700
H  5.48700 44.71800 21.40000
H  7.21000 44.11300 24.94300
H  7.96800 42.87500 26.00100
H  7.71200 44.38800 26.72300
H  4.46900 43.53800 30.57000
H  5.69500 40.89500 33.88500
H  6.68000 39.98200 32.76400
H  5.03100 39.63000 32.67200
Mg -5.29100 24.99500 26.01400
C  -3.71000 26.32600 28.93000
C  -7.15200 23.14700 28.18800
C  -6.30800 23.34600 23.29700
C  -3.10600 26.91600 24.11500
N  -5.26900 24.67500 28.30500
C  -4.65600 25.39300 29.24200
C  -5.05300 25.05200 30.65300
C  -6.02200 23.83800 30.40100
C  -6.18700 23.85600 28.88800
C  -5.48400 22.45100 30.87400
C  -5.79400 26.32900 31.25300
C  -5.62700 26.51200 32.70600
H  -6.67800 25.79600 33.54400
N  -6.56200 23.44000 25.78000
C  -7.22300 22.82700 26.80900
C  -8.03500 21.80300 26.20000
C  -7.86400 21.91400 24.77900
C  -6.87600 22.91100 24.52400
C  -8.92500 20.88700 27.02300
C  -8.51300 21.21700 23.66300
O  -8.33600 21.48400 22.49700
C  -9.53300 20.14500 24.01900
N  -4.68400 25.08000 23.94000
C  -5.31600 24.35300 23.02100
C  -4.86700 24.75100 21.57800
C  -3.90000 25.94800 21.85100
C  -3.92400 26.00600 23.37100
C  -4.29600 23.53400 20.81700
C  -4.25300 27.27600 21.22200
C  -3.43200 27.53400 19.94500
N  -3.81000 26.46200 26.37600
C  -2.93700 27.04800 25.50300
C  -2.04300 28.01100 26.21100
C  -2.25800 27.72800 27.55000
C  -3.31700 26.72800 27.59700
C  -1.05900 28.99300 25.66200
C  -1.90600 28.02900 28.92900
O  -1.07500 28.79100 29.41400
C  -2.74100 27.08200 29.84600
C  -1.69900 26.27600 30.62600
O  -1.30300 25.15600 30.36400
O  -1.57100 26.86000 31.84500
C  -1.03100 26.00800 32.95600
H  -7.88200 22.60500 28.79400
H  -6.56700 22.92500 22.32400
H  -2.56100 27.69600 23.57800
H  -4.14500 24.80200 31.20200
H  -6.97700 24.10200 30.85500
H  -4.55200 22.73600 31.36200
H  -5.23200 21.81200 30.02800
H  -6.23300 22.06800 31.56700
H  -6.86800 26.24600 31.08900
H  -5.52600 27.26500 30.76300
H  -5.76700 27.56700 32.94200
H  -4.60900 26.26900 33.00900
H  -9.97900 20.96100 26.75400
H  -8.71200 21.01400 28.08400
H  -8.70900 19.86300 26.72000
H  -10.14400 19.77100 23.19700
H  -10.24800 20.62900 24.68400
H  -9.00000 19.38600 24.59200
H  -5.72700 25.02800 20.96800
H  -2.87000 25.70000 21.59300
H  -4.98500 22.97000 20.18900
H  -4.02900 22.80300 21.58000
H  -3.40500 23.90200 20.30700
H  -4.03300 28.19400 21.76500
H  -5.26400 27.35000 20.82000
H  -4.04600 27.67700 19.05600
H  -2.70700 26.76300 19.68600
H  -2.81300 28.42900 20.00300
H  -1.29700 29.23100 24.62500
H  -0.07300 28.58200 25.87900
H  -1.10900 29.89600 26.27100
H  -3.17600 27.71100 30.62300
H  -0.60400 25.05100 32.65500
H  -1.85700 25.69900 33.59600
H  -0.26100 26.49400 33.55500

