158

Mg 55.79400 25.11200 45.23300
C  52.78400 26.52200 44.12900
C  54.58800 22.08300 44.12300
C  58.99900 23.96600 45.19700
C  56.89000 28.28000 46.08200
N  53.98600 24.45500 44.02400
C  52.85000 25.15100 43.93600
C  51.68000 24.26000 43.51000
C  52.18600 22.92300 44.00700
C  53.63300 23.08100 44.10200
C  51.49700 22.28900 45.31500
C  51.47500 24.26000 41.94000
C  50.07600 24.60100 41.57000
H  49.43000 24.00500 40.27400
N  56.66100 23.19600 44.87900
C  56.00400 22.12900 44.40300
C  56.98700 21.06400 44.30700
C  58.30900 21.59100 44.67500
C  58.02800 23.02600 44.91800
C  56.57100 19.58200 43.91400
C  59.58700 20.76100 44.72700
O  59.63000 19.53300 44.47700
C  60.86800 21.33000 45.17500
N  57.73800 26.03400 45.55300
C  58.87300 25.30600 45.55900
C  60.03000 26.19400 46.03400
C  59.40500 27.59700 46.03000
C  57.89600 27.30700 46.02200
C  60.71500 25.82900 47.40700
C  59.82100 28.57700 44.79000
C  60.44000 29.93800 45.22100
N  55.04800 27.00000 45.22300
C  55.55800 28.14300 45.68900
C  54.53000 29.21900 45.55300
C  53.36000 28.60200 44.96700
C  53.81200 27.33600 44.71100
C  54.54600 30.53900 46.30900
C  51.92800 28.76700 44.58500
O  51.10700 29.71100 44.68100
C  51.54200 27.44200 43.86400
C  51.14100 27.94600 42.52500
O  51.93300 28.17900 41.65700
O  49.71900 28.03100 42.55500
C  49.06800 28.48000 41.34400
H  54.10200 21.11600 43.97300
H  60.06200 23.72300 45.26100
H  57.21900 29.30400 46.27200
H  50.73900 24.49300 44.00700
H  51.91100 22.24400 43.20000
H  52.26200 22.10600 46.07000
H  51.14000 21.31400 44.98500
H  50.74100 22.91100 45.79400
H  51.83400 23.34300 41.47200
H  52.13100 25.06600 41.61200
H  50.00500 25.66000 41.32100
H  49.37300 24.31200 42.35100
H  57.01900 18.72700 44.42000
H  57.00500 19.30200 42.95400
H  55.48400 19.52200 43.85800
H  61.24200 21.96500 44.37200
H  61.57500 20.50300 45.25100
H  60.77100 21.83700 46.13500
H  60.71300 26.14700 45.18500
H  59.61600 28.04400 47.00200
H  60.14900 25.05200 47.92100
H  60.65900 26.64200 48.13000
H  61.73300 25.43900 47.36800
H  58.91100 28.75500 44.21800
H  60.48600 28.08900 44.07700
H  61.39700 30.03400 44.70900
H  60.57200 29.88100 46.30200
H  59.81500 30.74100 44.82900
H  53.62200 30.91200 46.75100
H  54.99700 31.23400 45.60100
H  55.32500 30.49500 47.07000
H  50.71100 27.05800 44.45500
H  48.89700 29.55200 41.44100
H  48.14000 27.96100 41.10700
H  49.71800 28.40200 40.47200
Mg -1.95100 35.26500 27.27000
C  -3.95900 33.48000 29.66600
C  -0.98300 37.48500 29.67800
C  -0.60800 37.18500 24.76200
C  -3.44100 33.28300 24.84200
N  -2.41500 35.42100 29.42400
C  -3.09800 34.48800 30.22800
C  -3.15100 35.01700 31.63600
C  -2.23100 36.24500 31.60200
C  -1.83100 36.37900 30.10900
C  -2.79400 37.55500 32.25200
C  -2.93800 33.94600 32.80400
C  -1.93500 34.33400 33.92800
H  -1.98800 33.51500 35.16500
N  -0.87700 37.05900 27.26800
C  -0.49000 37.77700 28.33900
C  0.36800 38.88700 28.01000
C  0.46900 38.85100 26.56200
C  -0.36400 37.70800 26.14800
C  1.12900 39.69700 28.96000
C  1.18500 39.77800 25.58300
O  1.18700 39.62600 24.34800
C  1.93500 40.93100 26.11700
N  -2.04400 35.28600 25.03000
C  -1.47500 36.24500 24.21200
C  -1.60400 35.92100 22.68700
C  -2.38600 34.55600 22.83500
C  -2.55100 34.30500 24.34400
C  -2.26500 36.96600 21.76900
C  -1.80100 33.29600 22.25200
C  -2.72200 32.59800 21.22400
N  -3.42800 33.71300 27.21100
C  -3.88000 32.99600 26.17500
C  -4.70600 31.89100 26.64500
C  -4.82300 32.08000 27.99000
C  -4.02900 33.21500 28.31500
C  -5.31400 30.78900 25.74800
C  -5.39700 31.59500 29.26500
O  -6.04800 30.54900 29.45800
C  -4.88700 32.54700 30.41100
C  -6.09800 33.36000 30.94600
O  -6.75100 34.21700 30.40100
O  -6.36300 32.86300 32.16600
C  -7.34700 33.53200 33.01500
H  -0.60700 38.14000 30.46700
H  -0.17300 37.71600 23.91200
H  -3.85400 32.65300 24.05200
H  -4.17800 35.27100 31.89700
H  -1.33000 36.15800 32.21000
H  -3.05200 38.23700 31.44100
H  -2.07700 38.03800 32.91500
H  -3.72800 37.42600 32.79800
H  -2.55700 33.01200 32.39100
H  -3.87900 33.72200 33.30600
H  -2.01900 35.35600 34.29800
H  -0.97500 34.15600 33.44200
H  0.93500 39.23700 29.92900
H  0.69200 40.68600 28.81900
H  2.21000 39.71900 28.81800
H  2.80600 40.49200 26.60400
H  1.36100 41.55700 26.80000
H  2.27600 41.47600 25.23700
H  -0.54800 35.84000 22.42600
H  -3.45100 34.76000 22.72200
H  -2.39400 37.83100 22.41900
H  -3.16000 36.51900 21.33800
H  -1.63400 37.25200 20.92700
H  -1.47100 32.61700 23.03900
H  -0.95400 33.66500 21.67400
H  -2.30400 32.86100 20.25200
H  -3.71600 33.04600 21.20800
H  -2.77300 31.52800 21.42500
H  -4.73300 30.69500 24.83000
H  -6.26300 31.04100 25.27500
H  -5.42000 29.83900 26.27100
H  -4.33800 32.02400 31.19400
H  -6.97500 34.53900 33.19900
H  -7.54300 32.90300 33.88400
H  -8.32200 33.67400 32.54700

