158

Mg 52.70900 23.81000 43.95500
C  49.63400 25.67500 43.33500
C  50.92200 20.89100 43.35300
C  55.71200 21.99700 43.56700
C  54.41100 26.78900 44.33700
N  50.60100 23.33400 43.20000
C  49.53200 24.24100 43.25300
C  48.21800 23.48300 43.18100
C  48.60100 21.96500 43.32400
C  50.14100 21.99700 43.32400
C  47.88000 21.21800 44.45900
C  47.27700 23.62300 41.92600
C  47.99000 23.91300 40.56200
H  47.26200 23.35900 39.26500
N  53.27600 21.73100 43.45500
C  52.35800 20.70200 43.32100
C  53.09400 19.48600 43.00900
C  54.47400 19.82600 42.87000
C  54.56200 21.19900 43.35500
C  52.46200 18.15400 42.82800
C  55.59000 18.94000 42.38400
O  55.37500 17.76800 42.11600
C  57.02300 19.46000 42.15700
N  54.70200 24.31800 43.95700
C  55.76600 23.42900 43.89000
C  57.10400 24.16800 43.93100
C  56.64700 25.62300 44.35800
C  55.16500 25.61000 44.23200
C  58.21900 23.57800 44.85700
C  57.17600 26.70100 43.42600
C  56.61100 27.02600 42.04100
N  52.16100 25.82600 44.00000
C  53.01100 26.90300 44.17600
C  52.17600 28.08100 44.27400
C  50.88300 27.61500 44.03900
C  50.91200 26.23800 43.72200
C  52.67300 29.44500 44.57300
C  49.53900 28.07900 44.07000
O  49.05400 29.15500 44.34400
C  48.71200 26.81900 43.42300
C  48.27400 27.29200 42.10700
O  49.01600 27.56400 41.18400
O  46.94400 27.36300 42.05800
C  46.43200 27.58600 40.68100
H  50.32000 19.98500 43.26300
H  56.70100 21.55200 43.70100
H  54.97700 27.68500 44.59900
H  47.59200 23.75100 44.03300
H  48.37500 21.45500 42.38800
H  48.35700 21.19000 45.43900
H  47.68200 20.18400 44.17800
H  46.91600 21.71700 44.55400
H  46.92300 24.62300 42.17600
H  46.54700 22.81900 41.83000
H  48.91300 23.34000 40.65600
H  48.25200 24.96000 40.41100
H  53.07500 17.47400 43.42000
H  52.31200 17.95300 41.76800
H  51.56800 18.02300 43.43900
H  56.97900 20.32400 41.49300
H  57.61500 18.59300 41.86500
H  57.35500 19.78900 43.14200
H  57.59100 24.12500 42.95700
H  56.93300 25.77700 45.39900
H  58.14500 24.10600 45.80700
H  59.22800 23.74100 44.47900
H  58.06000 22.51300 45.02900
H  58.23900 26.45900 43.42100
H  57.21800 27.57100 44.08100
H  56.64500 28.11200 41.96600
H  55.61700 26.69400 41.73900
H  57.28700 26.61600 41.29100
H  53.75300 29.45700 44.72200
H  52.17400 29.91800 45.41800
H  52.48300 30.12300 43.74100
H  47.82400 26.68100 44.04000
H  46.15200 26.70200 40.10800
H  46.99000 28.15800 39.94000
H  45.46900 28.09500 40.71300
Mg 34.88800 49.63600 25.58200
C  35.39800 47.63300 28.50800
C  33.28800 52.01300 27.53600
C  34.30400 51.06300 22.77800
C  36.01400 46.75400 23.79400
N  34.39400 49.75200 27.77000
C  34.71900 48.84200 28.79400
C  34.22700 49.42400 30.14500
C  33.39700 50.63200 29.73300
C  33.73800 50.89000 28.27300
C  31.84600 50.52000 30.03400
C  35.48700 49.75100 31.09700
C  35.41300 49.38200 32.54600
H  33.98100 49.51400 33.11900
N  33.96000 51.38200 25.20700
C  33.32200 52.25800 26.12800
C  32.81700 53.36800 25.38000
C  33.17700 53.10200 23.98400
C  33.80100 51.80700 23.92400
C  32.09600 54.51000 26.05600
C  32.98300 54.02400 22.80200
O  33.18000 53.74800 21.61900
C  32.37000 55.45400 22.94300
N  35.16700 49.06700 23.54300
C  34.95200 49.87800 22.57700
C  35.56600 49.51500 21.21600
C  35.93100 48.00200 21.48400
C  35.67900 47.89100 23.05300
C  34.49700 49.59600 20.05500
C  37.40700 47.62800 21.10500
C  38.50400 47.93100 22.08900
N  35.58300 47.63500 25.97300
C  36.03400 46.61800 25.14100
C  36.49600 45.47200 25.95200
C  36.24100 45.89100 27.27300
C  35.71700 47.13300 27.21400
C  37.14700 44.25600 25.45300
C  36.31200 45.44000 28.71800
O  36.69300 44.31900 29.17500
C  35.73700 46.53900 29.55400
C  34.58400 45.99700 30.34000
O  33.46500 45.69400 29.90000
O  34.96600 45.78600 31.63200
C  34.06700 45.01800 32.51200
H  32.93800 52.79500 28.21300
H  34.08400 51.56000 21.83100
H  36.43800 45.92400 23.22500
H  33.58800 48.79200 30.76200
H  33.80600 51.50100 30.24900
H  31.31600 50.80100 29.12400
H  31.66300 51.28600 30.78700
H  31.60900 49.55800 30.48800
H  35.66800 50.82600 31.12100
H  36.31700 49.30000 30.55400
H  36.07000 50.04100 33.11400
H  35.72700 48.33900 32.58300
H  32.41100 55.53300 25.85200
H  32.19600 54.59200 27.13800
H  31.05200 54.52600 25.74200
H  31.99900 55.69700 21.94700
H  33.06600 56.21800 23.28900
H  31.56000 55.32800 23.66100
H  36.44700 50.09200 20.93600
H  35.22200 47.30900 21.03100
H  34.31300 50.66000 19.90600
H  33.63600 49.00900 20.37500
H  34.72500 49.06300 19.13100
H  37.70500 48.17900 20.21300
H  37.55400 46.59000 20.80900
H  38.08500 48.43700 22.95900
H  39.22500 48.67900 21.75800
H  39.10600 47.11100 22.47900
H  37.40800 43.56700 26.25500
H  38.00100 44.49000 24.81800
H  36.40000 43.75000 24.84100
H  36.42400 46.96800 30.28400
H  33.28000 45.65700 32.91400
H  34.63700 44.80100 33.41500
H  33.70900 44.10900 32.02800

