158

Mg 42.96200 4.00400 46.84100
C  41.42800 7.41600 46.60300
C  39.88200 2.78100 46.14000
C  44.38900 1.02700 46.65200
C  46.05800 5.69200 47.02900
N  40.96500 5.14000 46.27800
C  40.47800 6.40400 46.44900
C  39.00700 6.56000 46.21200
C  38.55500 5.04000 46.38100
C  39.89300 4.23600 46.25700
C  37.87500 4.78500 47.79700
C  38.64800 7.30700 44.92400
C  39.53500 6.93200 43.73900
H  38.93800 6.89400 42.26400
N  42.24700 2.23800 46.35800
C  40.96500 1.90300 46.13200
C  40.84600 0.42900 45.97200
C  42.11900 -0.14200 46.13400
C  43.02200 1.04900 46.38100
C  39.51800 -0.25500 45.54400
C  42.42500 -1.63300 46.07500
O  41.59100 -2.46700 45.70500
C  43.73200 -2.18000 46.45300
N  45.03700 3.45900 46.74400
C  45.28300 2.14600 46.78700
C  46.84300 2.04000 46.52500
C  47.36600 3.49500 46.91300
C  46.09900 4.27600 46.81200
C  47.51400 0.93200 47.41300
C  48.51200 4.04200 45.97800
C  49.35500 5.16200 46.54700
N  43.59200 6.01900 46.83000
C  44.84500 6.51100 46.95200
C  44.89900 7.99300 46.95200
C  43.53800 8.38500 46.89200
C  42.80200 7.18400 46.81300
C  46.18100 8.82300 47.19000
C  42.68300 9.56000 46.79600
O  42.93800 10.74300 46.84700
C  41.23400 8.96200 46.53000
C  40.24200 9.40200 47.48400
O  39.87600 8.82300 48.52200
O  39.63000 10.51000 46.92200
C  38.41700 11.00100 47.66700
H  38.89900 2.37700 45.89000
H  44.79100 0.02300 46.50300
H  47.03600 6.15800 47.16500
H  38.54300 7.02900 47.07900
H  37.93100 4.82700 45.51400
H  37.04100 4.09900 47.64900
H  37.52500 5.72900 48.21500
H  38.55300 4.23100 48.44600
H  38.50700 8.37800 45.07000
H  37.64100 6.98200 44.66300
H  39.79600 5.88000 43.85200
H  40.43600 7.54200 43.79400
H  38.86500 0.34700 44.91300
H  38.95800 -0.56000 46.42700
H  39.79900 -1.08300 44.89300
H  44.11800 -1.69600 47.35000
H  44.42900 -2.01100 45.63200
H  43.49600 -3.22900 46.63200
H  47.01600 1.80300 45.47500
H  47.65900 3.61600 47.95600
H  46.82300 0.14300 47.70900
H  47.93300 1.33400 48.33500
H  48.29100 0.41000 46.85400
H  47.95400 4.46300 45.14200
H  49.16800 3.25100 45.61500
H  50.39500 4.85900 46.66800
H  49.04900 5.35500 47.57600
H  49.17500 5.98500 45.85600
H  46.88800 8.64700 46.37900
H  46.74100 8.56000 48.08600
H  46.07300 9.90800 47.17700
H  40.91000 9.31000 45.54900
H  37.59100 10.37300 48.00100
H  37.99900 11.81700 47.07800
H  38.80100 11.46300 48.57700
Mg -12.32600 37.43400 42.46000
C  -10.16800 35.00800 41.41800
C  -10.21300 39.92500 40.93600
C  -14.71500 39.83800 43.11400
C  -14.65700 34.87500 43.31400
N  -10.46800 37.45000 41.23200
C  -9.72100 36.28700 40.99200
C  -8.46400 36.57600 40.22200
C  -8.44300 38.16600 40.16100
C  -9.80900 38.58800 40.77800
C  -7.25400 38.87300 40.90000
C  -8.54200 35.86200 38.76200
C  -7.45900 34.88300 38.39700
H  -6.54500 35.30000 37.18100
N  -12.45200 39.58500 42.08300
C  -11.43800 40.40700 41.49600
C  -11.87700 41.82100 41.58800
C  -13.26400 41.84400 42.07800
C  -13.52700 40.40400 42.47700
C  -11.00600 43.01600 41.21100
C  -14.33800 42.97400 42.02000
O  -13.92700 44.04800 41.55600
C  -15.72700 42.91400 42.64900
N  -14.40600 37.33800 43.13400
C  -15.11800 38.50400 43.34600
C  -16.52000 38.19000 43.84700
C  -16.50900 36.62800 43.73200
C  -15.11400 36.20900 43.36500
C  -16.96700 38.80300 45.17700
C  -17.56500 36.17000 42.54900
C  -18.66800 35.29500 43.00800
N  -12.40500 35.41400 42.43700
C  -13.40900 34.46000 42.91700
C  -12.84200 33.06800 42.73100
C  -11.54700 33.30900 42.24700
C  -11.36000 34.69400 42.10100
C  -13.52400 31.71200 43.13400
C  -10.41000 32.58300 41.81100
O  -10.26600 31.35900 41.75600
C  -9.34100 33.70800 41.33000
C  -8.09000 33.63700 42.16900
O  -7.00400 33.82000 41.64500
O  -8.19300 33.54200 43.49600
C  -7.08100 33.98700 44.34300
H  -9.52700 40.72000 40.63600
H  -15.50200 40.50800 43.46600
H  -15.36400 34.04800 43.22700
H  -7.61700 36.17300 40.77800
H  -8.63600 38.47600 39.13400
H  -7.44100 38.99000 41.96800
H  -6.94700 39.85400 40.53900
H  -6.36500 38.25900 40.75200
H  -8.40400 36.65500 38.02600
H  -9.50100 35.40100 38.52400
H  -7.86900 33.89100 38.20800
H  -6.81100 34.84800 39.27300
H  -10.01800 42.74400 41.58200
H  -11.30100 43.85100 41.84600
H  -10.81500 43.16800 40.14800
H  -16.24900 43.87200 42.64800
H  -15.51200 42.47600 43.62400
H  -16.33500 42.22900 42.05900
H  -17.25100 38.64000 43.17600
H  -16.68100 36.12000 44.68100
H  -16.16600 39.06700 45.86800
H  -17.72900 38.17500 45.63800
H  -17.55500 39.69900 44.97700
H  -17.02600 35.58500 41.80300
H  -18.08000 36.99500 42.05900
H  -18.50400 34.96000 44.03300
H  -18.69100 34.32600 42.50800
H  -19.62800 35.77500 42.82100
H  -13.25100 30.89500 42.46600
H  -14.60700 31.75800 43.24900
H  -13.04700 31.45600 44.08000
H  -9.21900 33.47700 40.27200
H  -7.34100 34.49600 45.27100
H  -6.27200 34.42800 43.76000
H  -6.67400 33.01800 44.63200

