158

Mg -2.54000 17.50600 27.27500
C  -2.87600 15.04300 29.84200
C  -3.42800 19.88900 29.48600
C  -2.38000 19.73300 24.76800
C  -2.36600 14.92500 24.96700
N  -2.93800 17.48100 29.40200
C  -2.91800 16.40900 30.27500
C  -3.05800 16.83200 31.78300
C  -3.48100 18.35700 31.53400
C  -3.33700 18.58500 30.01800
C  -4.96400 18.85200 32.00500
C  -1.84200 16.49700 32.70500
C  -1.37700 17.48600 33.79100
H  -1.11200 16.81500 35.15200
N  -2.79200 19.59100 27.18500
C  -3.15100 20.36100 28.18800
C  -3.01600 21.74500 27.71300
C  -2.47900 21.69500 26.43800
C  -2.56400 20.30400 26.07200
C  -3.32900 22.95500 28.71500
C  -2.03400 22.81000 25.41400
O  -1.63300 22.58000 24.30100
C  -1.97200 24.19100 25.96200
N  -2.54600 17.30800 25.19200
C  -2.45700 18.40100 24.39900
C  -2.26100 18.00300 22.88800
C  -1.95100 16.48700 22.97200
C  -2.26100 16.21500 24.44600
C  -3.53200 18.42300 22.06800
C  -0.49400 16.12000 22.65600
C  0.65300 16.70200 23.45300
N  -2.63200 15.44900 27.26300
C  -2.62000 14.52400 26.23600
C  -2.78100 13.18000 26.78100
C  -2.85300 13.34600 28.16200
C  -2.79400 14.75800 28.41100
C  -2.71400 11.85000 26.10800
C  -2.91500 12.59300 29.40400
O  -2.87400 11.40400 29.69500
C  -3.01100 13.72000 30.53400
C  -2.05600 13.46900 31.55300
O  -0.86100 13.85300 31.52100
O  -2.61700 12.70600 32.49500
C  -1.70200 12.21100 33.54800
H  -3.73700 20.62400 30.23300
H  -2.25900 20.39200 23.90500
H  -2.19900 14.13700 24.23000
H  -3.99400 16.52500 32.24800
H  -2.69700 19.00500 31.92500
H  -4.61100 19.60400 32.71200
H  -5.52700 18.15800 32.63000
H  -5.56800 19.24900 31.18900
H  -0.93900 16.31200 32.12400
H  -2.03100 15.59500 33.28800
H  -2.17000 18.23000 33.85600
H  -0.43400 17.94800 33.49700
H  -3.96000 22.59000 29.52500
H  -3.88300 23.72300 28.17500
H  -2.46700 23.43300 29.18000
H  -1.01200 24.35500 26.45100
H  -2.80500 24.46200 26.61200
H  -1.91100 24.90800 25.14400
H  -1.37800 18.52500 22.51900
H  -2.64800 16.01400 22.28000
H  -3.48800 19.45100 21.70600
H  -4.42100 18.45400 22.69700
H  -3.74800 17.75200 21.23700
H  -0.39700 16.07100 21.57100
H  -0.46600 15.07600 22.96700
H  1.19400 15.87500 23.91200
H  0.24400 17.40900 24.17400
H  1.31400 17.23600 22.77000
H  -2.31800 11.83700 25.09200
H  -3.67800 11.34100 26.08100
H  -1.95500 11.27600 26.64000
H  -4.03200 13.59000 30.89400
H  -0.85700 11.62700 33.18200
H  -2.24300 11.60100 34.27100
H  -1.20800 12.97400 34.15100
Mg 27.95200 56.41300 40.73300
C  25.35600 54.07100 39.90400
C  30.28700 54.30700 39.56800
C  29.91900 59.02300 40.52400
C  25.20900 58.67100 41.39300
N  27.78300 54.50400 39.73100
C  26.70400 53.67400 39.57700
C  27.10100 52.46300 38.70600
C  28.65000 52.41700 38.91300
C  28.93200 53.84200 39.39500
C  29.28800 51.34200 39.85100
C  26.59100 52.26600 37.24600
C  26.36700 53.64800 36.55400
H  26.65600 53.72100 35.03400
N  29.91400 56.59200 40.27400
C  30.82300 55.56300 39.98500
C  32.17800 56.14500 39.77000
C  32.02100 57.62500 39.88800
C  30.59300 57.81900 40.23300
C  33.28600 55.26400 39.21500
C  33.13100 58.60400 39.75800
O  34.30800 58.25200 39.52200
C  32.94300 60.11300 39.94900
N  27.61100 58.51000 40.97100
C  28.64700 59.37700 40.90400
C  28.19100 60.82500 41.02100
C  26.76300 60.67800 41.41900
C  26.48100 59.14000 41.22400
C  29.04900 61.61800 42.00300
C  25.75700 61.69100 40.78700
C  24.67500 62.39100 41.74400
N  25.70500 56.35900 40.84600
C  24.79400 57.29400 41.17000
C  23.51200 56.67200 41.27300
C  23.70500 55.39500 40.75300
C  25.02600 55.23200 40.51400
C  22.25900 57.29600 41.80700
C  23.00100 54.17600 40.49900
O  21.82700 53.81700 40.58800
C  24.01100 53.30300 39.71000
C  23.97800 51.95200 40.26900
O  23.44900 50.97400 39.74600
O  24.68600 51.99200 41.46200
C  25.03400 50.69000 42.01800
H  31.11600 53.61700 39.39500
H  30.56300 59.87800 40.30900
H  24.42000 59.38600 41.63400
H  26.64400 51.64300 39.26100
H  29.23300 52.41300 37.99200
H  28.49400 50.73300 40.28200
H  29.71900 51.79400 40.74400
H  30.02800 50.65700 39.43500
H  25.70800 51.62900 37.29900
H  27.33100 51.74700 36.63600
H  26.88700 54.46200 37.05900
H  25.28100 53.69200 36.64600
H  33.97600 55.87600 38.63400
H  33.01400 54.44400 38.55000
H  33.73600 54.72200 40.04600
H  32.45200 60.22700 40.91600
H  32.23500 60.49500 39.21300
H  33.87800 60.65400 39.80800
H  28.25800 61.25300 40.02100
H  26.68400 60.84900 42.49300
H  28.43600 62.12300 42.74900
H  29.49700 62.44700 41.45400
H  29.77000 60.99500 42.53200
H  25.34100 61.14600 39.94000
H  26.28000 62.54000 40.34600
H  24.73500 63.47400 41.63800
H  24.94200 62.05500 42.74600
H  23.67400 62.04900 41.48300
H  21.66700 57.65700 40.96600
H  22.63500 58.21800 42.25000
H  21.59900 56.79500 42.51500
H  23.74600 53.19200 38.65800
H  26.11200 50.65800 42.17400
H  24.76800 49.88100 41.33800
H  24.51900 50.58300 42.97300

