158

Mg 28.99600 58.92000 41.74700
C  26.13700 57.41200 40.37200
C  30.82000 56.45200 40.19400
C  31.71700 60.90200 41.90500
C  26.86200 61.73800 42.60900
N  28.49700 57.09700 40.55100
C  27.27100 56.73200 40.07900
C  27.31500 55.42600 39.26600
C  28.80500 54.98600 39.44200
C  29.48200 56.19800 40.18100
C  29.08700 53.61800 40.14300
C  26.86200 55.66800 37.78700
C  26.25500 54.44300 37.14700
H  25.67900 54.65400 35.69900
N  31.02400 58.63700 41.24500
C  31.52900 57.56700 40.66000
C  33.00200 57.68200 40.68400
C  33.31400 59.00100 41.13400
C  32.00200 59.57500 41.50900
C  33.98500 56.68000 40.12800
C  34.76800 59.75600 40.97800
O  35.77500 59.11600 40.58400
C  35.00000 61.17400 41.33200
N  29.24400 60.91800 42.35300
C  30.48900 61.49000 42.27100
C  30.42100 62.97500 42.59700
C  28.90400 63.30300 42.75900
C  28.27000 61.93000 42.57000
C  31.31500 63.49800 43.69400
C  28.34400 64.39900 41.73500
C  27.14400 65.23000 42.28100
N  26.90800 59.38200 41.76000
C  26.20600 60.55800 42.16400
C  24.74700 60.33600 41.87000
C  24.68800 59.11700 41.23500
C  26.03200 58.60700 41.12300
C  23.70000 61.33100 42.04400
C  23.78300 58.17500 40.66300
O  22.58500 58.27700 40.71900
C  24.71300 57.05700 39.87100
C  24.22600 55.79300 40.30200
O  24.28700 55.41700 41.46800
O  23.70700 55.06300 39.26300
C  23.20400 53.75100 39.59400
H  31.42300 55.72200 39.65000
H  32.53100 61.62600 41.97100
H  26.19300 62.53000 42.95400
H  26.65000 54.76600 39.82400
H  29.33500 54.89300 38.49400
H  28.58300 53.53000 41.10600
H  30.16400 53.52200 40.27800
H  28.85500 52.74900 39.52700
H  27.78100 55.76700 37.20900
H  26.27100 56.56000 37.58300
H  25.45500 54.00600 37.74500
H  27.04200 53.68900 37.18500
H  34.40700 56.42600 41.10000
H  34.73500 56.98500 39.39800
H  33.46600 55.84500 39.65800
H  34.24200 61.84500 40.92900
H  35.94500 61.57300 40.96100
H  35.14200 61.16800 42.41300
H  30.72400 63.42800 41.65300
H  28.62400 63.47100 43.79900
H  31.78900 62.60700 44.10600
H  30.76100 64.12200 44.39600
H  32.06600 64.14000 43.23400
H  27.85700 63.96300 40.86300
H  29.10400 65.13500 41.47300
H  26.31600 65.16100 41.57400
H  27.39900 66.28400 42.17000
H  26.93200 65.13300 43.34600
H  23.82400 62.13000 41.31300
H  23.68500 61.71300 43.06500
H  22.74300 60.83800 41.87700
H  24.61300 57.18800 38.79400
H  22.81900 53.30500 38.67700
H  22.52100 53.67200 40.44000
H  24.01900 53.04800 39.76500
Mg -5.82500 25.36000 26.51600
C  -3.90400 26.95700 28.89800
C  -6.73500 22.99600 28.95400
C  -7.42200 23.57200 24.13500
C  -4.21300 27.20800 23.96000
N  -5.35500 25.02700 28.66600
C  -4.77700 26.00500 29.44700
C  -5.02200 25.68300 30.91100
C  -5.45100 24.18900 30.90900
C  -5.89200 24.03800 29.40000
C  -4.32400 23.24900 31.24800
C  -5.92400 26.78600 31.55800
C  -5.50200 27.15300 33.01700
H  -5.09800 25.99300 33.95500
N  -6.96200 23.59000 26.60800
C  -7.24600 22.77100 27.63700
C  -7.91100 21.49200 27.24800
C  -8.19200 21.74000 25.88700
C  -7.51600 22.99800 25.47500
C  -8.38400 20.41100 28.18200
C  -9.00700 20.89000 24.88400
O  -9.15200 21.19200 23.73100
C  -9.53800 19.56900 25.38800
N  -5.67600 25.34800 24.36500
C  -6.65300 24.63900 23.64100
C  -6.64000 24.97200 22.20400
C  -5.50700 26.06400 22.08800
C  -5.20400 26.33100 23.55300
C  -6.32900 23.73000 21.24800
C  -5.95600 27.33100 21.36200
C  -5.63500 27.33100 19.84900
N  -4.34100 26.81500 26.41600
C  -3.79800 27.43200 25.34500
C  -2.76400 28.36700 25.79900
C  -2.74900 28.27400 27.16000
C  -3.71700 27.19300 27.48600
C  -2.05700 29.32600 24.84400
C  -2.15400 28.67700 28.45000
O  -1.25200 29.46800 28.78400
C  -2.84600 27.75200 29.62200
C  -1.66000 26.95900 30.20900
O  -0.89700 26.34300 29.48800
O  -1.67800 26.94300 31.58200
C  -0.82600 25.93500 32.18700
H  -7.09800 22.32300 29.73400
H  -7.94900 23.06300 23.32500
H  -3.71800 27.79300 23.18200
H  -4.04800 25.77900 31.39100
H  -6.25200 24.21200 31.64800
H  -3.59700 23.65400 31.95200
H  -3.80800 23.04300 30.31100
H  -4.65600 22.35900 31.78200
H  -6.92000 26.37300 31.72000
H  -5.98200 27.72900 31.01400
H  -6.33500 27.62600 33.53700
H  -4.56900 27.70900 32.92800
H  -8.28500 20.77900 29.20300
H  -7.83100 19.50700 27.92900
H  -9.43400 20.19700 27.98200
H  -9.91800 18.93900 24.58400
H  -10.42500 19.80200 25.97700
H  -8.75100 19.00400 25.88700
H  -7.65600 25.31800 22.01700
H  -4.66500 25.57000 21.60500
H  -6.35400 22.78300 21.78800
H  -5.44600 23.71700 20.61000
H  -7.13000 23.55200 20.53100
H  -5.57000 28.21900 21.86300
H  -7.03700 27.44900 21.42900
H  -6.60200 27.51300 19.38000
H  -5.09200 26.47500 19.44800
H  -5.02600 28.21400 19.65700
H  -2.83400 29.66600 24.16000
H  -1.36200 28.67500 24.31400
H  -1.59700 30.19700 25.31100
H  -3.24400 28.38000 30.41900
H  0.19600 26.30400 32.09600
H  -0.96900 25.02000 31.61200
H  -0.99200 25.75200 33.24800

