158

Mg 0.62800 7.92000 27.54900
C  1.23900 10.10800 30.21100
C  0.68300 5.25000 29.70500
C  0.69000 5.76200 24.92700
C  0.92100 10.58700 25.33700
N  1.04500 7.74900 29.69400
C  1.17600 8.75200 30.62900
C  0.77200 8.27100 31.95900
C  1.02400 6.67900 31.87500
C  0.81800 6.54900 30.32400
C  2.44800 6.22600 32.36500
C  -0.75300 8.61800 32.31800
C  -0.89900 9.24400 33.75400
H  0.09600 8.98000 34.92200
N  0.72300 5.75800 27.37900
C  0.71500 4.86700 28.34800
C  0.66500 3.48100 27.81000
C  0.67000 3.62100 26.37000
C  0.66600 5.08400 26.13400
C  0.70400 2.12200 28.68200
C  0.60000 2.58300 25.26900
O  0.54400 2.81100 24.07600
C  0.56800 1.20800 25.68200
N  0.82500 8.13100 25.44400
C  0.78000 7.12300 24.55000
C  0.70000 7.59900 23.07600
C  0.57300 9.16400 23.29900
C  0.75200 9.33100 24.80300
C  1.82600 7.16500 22.12400
C  -0.85100 9.61500 22.90200
C  -0.92400 10.03700 21.51200
N  0.90500 9.97100 27.67600
C  1.00800 10.93000 26.72300
C  1.19500 12.17400 27.32600
C  1.24100 11.94400 28.68800
C  1.19700 10.54400 28.82900
C  1.35800 13.42900 26.60000
C  1.41800 12.59200 29.97800
O  1.54200 13.78100 30.30600
C  1.33300 11.44200 31.06000
C  2.57100 11.45300 31.90000
O  3.68300 11.00600 31.61400
O  2.25400 12.02700 33.14700
C  3.21700 11.93600 34.22100
H  0.64200 4.40700 30.39900
H  0.57500 5.17200 24.01600
H  0.97700 11.41800 24.63100
H  1.47800 8.75800 32.63200
H  0.27300 6.07900 32.38800
H  3.04600 7.01900 32.81400
H  3.00900 5.83500 31.51600
H  2.41200 5.50700 33.18400
H  -1.33800 7.70000 32.27200
H  -1.17100 9.29800 31.57500
H  -1.83400 8.83400 34.13500
H  -1.13700 10.30100 33.64100
H  1.10000 2.38000 29.66500
H  1.32400 1.28900 28.35400
H  -0.32400 1.81600 28.87600
H  1.45700 0.95800 26.26200
H  0.48000 0.63100 24.76200
H  -0.36400 0.97200 26.19600
H  -0.21200 7.08100 22.78100
H  1.36900 9.70700 22.78900
H  2.66200 6.81900 22.73200
H  2.25800 7.92500 21.47300
H  1.51900 6.28100 21.56500
H  -1.24000 10.38200 23.57300
H  -1.47600 8.73400 23.04200
H  -0.01000 10.43800 21.07200
H  -1.55500 10.92500 21.55300
H  -1.33000 9.31200 20.80700
H  2.15300 13.39600 25.85400
H  1.58200 14.22400 27.31100
H  0.40500 13.67000 26.13000
H  0.54900 11.60100 31.80000
H  4.23000 11.69600 33.90000
H  2.91600 11.21900 34.98500
H  3.40500 12.94800 34.57700
Mg 49.70700 34.60500 26.15200
C  47.80200 33.49000 28.94900
C  49.93400 37.59900 27.76400
C  51.38800 35.77500 23.43800
C  48.95600 31.68500 24.51700
N  48.95000 35.43400 28.23500
C  48.24400 34.83400 29.15500
C  47.97300 35.74800 30.33600
C  48.54500 37.14700 29.81900
C  49.05600 36.79300 28.41700
C  47.60300 38.36800 29.84200
C  48.58000 35.24500 31.73600
C  47.55000 35.00100 32.95800
H  47.73900 35.81200 34.28600
N  50.65400 36.39400 25.74900
C  50.73400 37.48500 26.53700
C  51.56800 38.48400 25.92800
C  52.02300 37.96200 24.68400
C  51.35300 36.64300 24.50700
C  51.84500 39.88100 26.57900
C  53.02800 38.59700 23.66400
O  53.41900 37.94500 22.69100
C  53.36000 40.01700 23.74200
N  50.01100 33.89200 24.27900
C  50.85900 34.50900 23.34600
C  51.13200 33.53400 22.17400
C  50.47000 32.19600 22.57200
C  49.75100 32.57700 23.86800
C  50.68200 34.10200 20.70300
C  51.47600 30.96900 22.81000
C  51.15500 29.69000 22.05900
N  48.59100 32.94000 26.57100
C  48.34900 31.84500 25.77200
C  47.48700 30.94100 26.44300
C  47.17200 31.56200 27.63400
C  47.95000 32.75000 27.73100
C  47.08900 29.60100 25.92000
C  46.41500 31.40600 28.84000
O  45.59500 30.61700 29.24800
C  46.92000 32.59900 29.80400
C  47.67900 32.00800 30.91200
O  48.85500 31.85800 31.05000
O  46.73600 31.57200 31.83700
C  47.13300 30.98100 33.10700
H  50.10300 38.57300 28.23000
H  51.95200 36.16200 22.58600
H  48.91000 30.72500 23.99900
H  46.90800 35.73900 30.56600
H  49.36900 37.49200 30.44400
H  48.04000 39.21000 30.37900
H  46.62100 38.15400 30.26200
H  47.53200 38.70400 28.80700
H  49.35700 35.92000 32.09300
H  49.02800 34.27200 31.53500
H  47.52400 33.95800 33.27600
H  46.57700 35.23700 32.52800
H  52.89900 39.90300 26.85500
H  51.28600 40.11900 27.48400
H  51.66200 40.60900 25.78800
H  53.67100 40.25900 24.75900
H  52.47100 40.61100 23.52900
H  54.26700 40.14900 23.15200
H  52.18900 33.27700 22.10000
H  49.66900 31.87200 21.90700
H  50.32400 35.13000 20.76700
H  49.97800 33.54200 20.08800
H  51.62600 34.25400 20.17900
H  51.52500 30.80300 23.88600
H  52.50000 31.28900 22.61800
H  52.08500 29.47800 21.53100
H  50.36200 29.87200 21.33300
H  50.67600 28.94200 22.69100
H  47.43900 28.94300 26.71500
H  47.51300 29.33800 24.95100
H  46.00000 29.56500 25.97200
H  46.05100 33.05600 30.27700
H  48.22000 30.91800 33.16800
H  46.77800 29.95700 33.21700
H  46.66700 31.60300 33.87200

