158

Mg 46.76800 15.84700 29.10900
C  44.65400 15.32200 31.84200
C  49.00000 17.61400 31.26900
C  48.90900 16.35000 26.53800
C  44.70300 14.11700 27.05600
N  46.75200 16.47800 31.26700
C  45.82900 16.07000 32.16800
C  46.15000 16.56700 33.65500
C  47.36800 17.54700 33.30500
C  47.76200 17.25400 31.79200
C  47.14800 19.07500 33.49900
C  46.46800 15.38700 34.53900
C  45.89900 15.43000 35.95700
H  45.89800 16.66400 36.87200
N  48.64900 16.81100 28.94300
C  49.39600 17.36800 29.91000
C  50.72900 17.68900 29.31800
C  50.65500 17.49500 27.90400
C  49.32200 16.87200 27.74500
C  51.93700 18.03900 30.14700
C  51.73200 17.74300 26.82800
O  51.57800 17.55700 25.62100
C  52.98300 18.44600 27.14000
N  46.63700 15.53900 27.04400
C  47.68100 15.74100 26.23200
C  47.26500 15.29300 24.80600
C  46.13500 14.22600 25.00300
C  45.77100 14.69200 26.43400
C  46.88200 16.49000 23.87500
C  46.66500 12.82700 25.09700
C  46.49100 12.06100 23.76300
N  45.04000 14.92400 29.30600
C  44.22600 14.33800 28.35500
C  43.03000 13.75000 29.01500
C  43.16900 14.22000 30.37600
C  44.36900 14.90400 30.50200
C  41.96300 13.00300 28.38500
C  42.59300 14.14700 31.63900
O  41.63500 13.52600 32.09900
C  43.59700 14.82000 32.64100
C  42.84600 15.78000 33.50800
O  42.51200 16.89400 33.15900
O  42.57700 15.19700 34.70100
C  41.95900 15.92800 35.83100
H  49.73500 18.11400 31.90200
H  49.56100 16.39100 25.66300
H  44.08400 13.33500 26.61200
H  45.28100 17.12300 34.00700
H  48.23300 17.23100 33.88800
H  47.14700 19.56000 32.52300
H  47.91700 19.48900 34.15100
H  46.22900 19.27400 34.05000
H  47.54100 15.32500 34.71900
H  46.19600 14.46000 34.03500
H  46.61600 14.74700 36.41200
H  44.93000 14.93200 35.96600
H  52.73600 17.30400 30.05300
H  51.61000 18.19400 31.17500
H  52.32200 18.96600 29.72300
H  53.45700 18.49200 26.16000
H  53.62000 17.91800 27.84900
H  52.90700 19.47900 27.48100
H  48.18600 14.86400 24.41200
H  45.24900 14.38700 24.38900
H  45.81400 16.48500 23.65400
H  47.40300 16.43700 22.91900
H  47.17100 17.45000 24.30200
H  46.15300 12.29200 25.89700
H  47.70700 12.90300 25.41100
H  46.09400 11.05900 23.92400
H  47.37200 12.11900 23.12400
H  45.75600 12.56800 23.13800
H  42.27000 11.96200 28.48700
H  41.66500 13.31500 27.38400
H  41.12500 13.10000 29.07500
H  44.00900 14.03900 33.28000
H  40.89600 15.68900 35.87100
H  42.00200 17.01700 35.83400
H  42.31400 15.53200 36.78200
Mg 48.74500 44.97800 42.68500
C  45.22200 44.64700 42.60800
C  48.89000 41.50700 42.18400
C  52.04700 45.29900 42.39800
C  48.27200 48.42900 42.64600
N  47.06200 43.28900 42.31200
C  45.76800 43.39600 42.51500
C  45.13200 42.00400 42.46100
C  46.32000 40.98300 42.43000
C  47.50700 41.98300 42.24500
C  46.43900 40.08700 43.67200
C  44.22300 41.75200 41.19800
C  44.83300 42.09600 39.74000
H  44.88400 40.96900 38.72500
N  50.33000 43.58000 42.21500
C  50.14200 42.25000 42.07600
C  51.52100 41.69500 41.89500
C  52.41700 42.82500 41.85900
C  51.60700 43.98400 42.18000
C  51.76400 40.28000 41.61400
C  53.96900 42.82200 41.63000
O  54.56400 41.76400 41.34600
C  54.86500 44.04300 41.63300
N  49.98700 46.62800 42.29900
C  51.30900 46.44100 42.55300
C  52.01200 47.69800 43.01500
C  50.86200 48.71900 42.82700
C  49.60800 47.91300 42.58200
C  52.72200 47.56200 44.45900
C  51.01800 49.76000 41.59000
C  50.47800 51.10100 41.89200
N  47.15200 46.24600 42.69100
C  47.07200 47.64400 42.63400
C  45.70800 48.11200 42.71600
C  44.94500 46.94000 42.69100
C  45.86700 45.86500 42.65700
C  45.21600 49.55000 42.75600
C  43.66000 46.47900 42.68700
O  42.66900 47.14900 42.77600
C  43.73100 44.99900 42.62000
C  42.97700 44.24100 43.61300
O  41.96600 43.55700 43.38000
O  43.55800 44.43300 44.84600
C  42.90000 43.69400 46.02200
H  48.96900 40.41900 42.24200
H  53.10000 45.44100 42.65100
H  48.20700 49.47100 42.96800
H  44.50300 41.94100 43.35000
H  46.19500 40.31000 41.58200
H  46.09000 39.06400 43.53200
H  46.01600 40.50400 44.58600
H  47.52000 40.11200 43.80100
H  43.28500 42.30100 41.28000
H  43.83300 40.74800 41.36900
H  45.79100 42.55400 39.98800
H  44.23700 42.84500 39.21900
H  52.82900 40.04600 41.61200
H  51.30900 40.06900 40.64700
H  51.25500 39.63600 42.33200
H  54.53100 44.90500 41.05600
H  55.90200 43.76300 41.44800
H  54.87600 44.21600 42.70900
H  52.67800 48.00400 42.20900
H  50.78000 49.18700 43.80800
H  53.74400 47.93900 44.48800
H  52.69500 46.56200 44.89000
H  52.20300 48.16200 45.20700
H  50.66900 49.34800 40.64300
H  52.07000 50.02200 41.47500
H  51.20400 51.90800 41.99400
H  49.96900 50.93900 42.84300
H  49.80100 51.43800 41.10700
H  45.71200 50.06200 43.58100
H  44.13500 49.66300 42.84300
H  45.57300 49.98300 41.82200
H  43.22300 44.65200 41.72000
H  41.92400 43.30100 45.73600
H  42.74600 44.37500 46.85900
H  43.49900 42.83900 46.33600

