158

Mg 0.24800 8.73800 26.65700
C  0.85600 10.86300 29.63900
C  0.06900 6.15600 28.84300
C  0.28000 6.81600 23.95000
C  0.56000 11.64300 24.77200
N  0.62800 8.58400 29.03900
C  0.74900 9.50000 30.01700
C  0.42300 8.93100 31.37000
C  0.43000 7.41100 31.11000
C  0.35700 7.37100 29.57100
C  1.69700 6.61100 31.65200
C  -0.97300 9.43500 31.92400
C  -1.09700 9.88800 33.37300
H  -0.05900 9.66400 34.38300
N  0.24800 6.68600 26.43200
C  0.06900 5.77900 27.46300
C  -0.28800 4.51000 26.89100
C  -0.12400 4.60900 25.47500
C  0.16300 6.07200 25.21500
C  -0.79000 3.35000 27.76300
C  -0.20400 3.58800 24.43700
O  0.02500 3.82900 23.25300
C  -0.51400 2.14000 24.88500
N  0.37300 9.18000 24.72800
C  0.43100 8.21200 23.77100
C  0.38700 8.82900 22.35800
C  0.22800 10.37300 22.58000
C  0.42400 10.43500 24.09300
C  1.75600 8.58100 21.63300
C  -1.11100 11.04300 22.15800
C  -0.95300 12.10600 20.97900
N  0.55000 10.84100 27.06100
C  0.71400 11.88700 26.17100
C  1.01400 13.11100 26.82800
C  1.07600 12.74300 28.19800
C  0.80300 11.37100 28.33000
C  1.32200 14.41600 26.19300
C  1.22700 13.26100 29.47800
O  1.30200 14.48400 29.79500
C  1.06400 12.06000 30.51300
C  2.33400 11.84400 31.20400
O  3.18300 10.97700 31.04500
O  2.35700 12.70900 32.26600
C  3.41800 12.59500 33.21800
H  -0.04400 5.25400 29.44800
H  0.14200 6.18500 23.07000
H  0.63400 12.51200 24.11500
H  1.21700 9.26300 32.03900
H  -0.42800 6.94300 31.59200
H  2.30000 7.26500 32.28200
H  2.39700 6.36900 30.85200
H  1.33900 5.67900 32.09000
H  -1.72000 8.66400 31.73600
H  -1.21900 10.31800 31.33400
H  -1.94600 9.33500 33.77400
H  -1.50000 10.90100 33.39100
H  -1.77300 3.04300 27.40800
H  -1.19900 3.74900 28.69200
H  -0.07700 2.52600 27.78600
H  0.37400 1.82000 25.42900
H  -0.73300 1.54400 23.99900
H  -1.35300 1.97700 25.56200
H  -0.45200 8.37000 21.83500
H  1.01700 11.00000 22.16600
H  2.48100 8.30700 22.39900
H  1.98100 9.48100 21.06200
H  1.75500 7.59400 21.17000
H  -1.38200 11.73900 22.95200
H  -1.90100 10.30000 22.05100
H  -1.57100 11.77700 20.14300
H  0.08100 12.28700 20.68600
H  -1.40600 13.02900 21.34000
H  0.45700 14.79400 25.64800
H  2.10900 14.32400 25.44400
H  1.57700 15.18700 26.92000
H  0.30600 12.23700 31.27500
H  3.30400 13.20100 34.11700
H  4.37600 12.97100 32.85900
H  3.59400 11.58300 33.58300
Mg 6.34700 55.08100 41.39400
C  5.19200 51.77600 41.53600
C  9.34400 53.93600 39.96000
C  7.18200 58.23200 40.52800
C  3.16500 56.15500 42.28100
N  7.14000 53.08400 40.73900
C  6.44800 51.90900 40.90800
C  7.19500 50.75100 40.26600
C  8.66500 51.40800 40.33500
C  8.42900 52.91600 40.28700
C  9.58200 51.02000 41.55300
C  6.74700 50.35600 38.82500
C  5.68000 51.28000 38.10600
H  6.25600 52.39300 37.29600
N  8.01400 55.95600 40.36600
C  9.10100 55.29000 39.89100
C  10.09900 56.22300 39.38600
C  9.42000 57.50600 39.32900
C  8.16300 57.29000 40.10400
C  11.49100 55.82300 38.98300
C  9.96900 58.83300 38.71900
O  11.06700 58.92500 38.19200
C  9.15900 60.15700 38.72000
N  5.27100 56.99900 41.41500
C  5.91900 58.15200 41.17500
C  5.01500 59.30900 41.56000
C  3.74800 58.62900 42.06200
C  4.09800 57.13100 42.00300
C  5.76300 60.33800 42.44100
C  2.51900 59.21100 41.34900
C  2.12700 58.57600 40.05400
N  4.55400 54.16200 41.95600
C  3.38200 54.75400 42.33000
C  2.44800 53.69700 42.66200
C  3.18100 52.51500 42.50000
C  4.40000 52.89800 41.94000
C  1.06100 53.95900 43.19800
C  3.09100 51.07800 42.57100
O  2.16600 50.36800 43.03100
C  4.44400 50.54500 42.05100
C  4.18300 49.56800 41.00700
O  3.70000 49.79300 39.90900
O  4.58200 48.33000 41.45200
C  4.30000 47.28100 40.46700
H  10.35700 53.65300 39.66600
H  7.52500 59.23500 40.26400
H  2.24800 56.58300 42.69300
H  7.19700 49.84300 40.87000
H  9.17800 51.13600 39.41300
H  9.68300 51.81200 42.29600
H  10.57200 50.78600 41.16000
H  9.10700 50.25100 42.16300
H  6.35200 49.34000 38.85700
H  7.63500 50.53100 38.21800
H  5.03100 51.72500 38.86100
H  4.98500 50.61300 37.59500
H  11.72500 55.73000 37.92200
H  11.81100 54.91300 39.49200
H  12.19900 56.60500 39.25800
H  8.22100 60.18500 38.16500
H  9.92400 60.84300 38.35500
H  9.06600 60.53800 39.73700
H  4.95900 59.78500 40.58200
H  3.50300 58.80600 43.11000
H  5.08600 60.71700 43.20800
H  5.99000 61.16400 41.76800
H  6.67000 59.96200 42.91300
H  2.67100 60.28900 41.30100
H  1.68000 59.06400 42.02800
H  3.00600 58.28000 39.48300
H  1.56100 59.14300 39.31400
H  1.57700 57.69600 40.38600
H  0.52000 54.66300 42.56600
H  1.07300 54.29800 44.23400
H  0.55000 53.00200 43.08700
H  4.90100 50.04400 42.90500
H  3.22300 47.28400 40.29400
H  4.61800 46.34900 40.93400
H  4.91900 47.44100 39.58500

