158

Mg 0.14300 43.40200 26.00900
C  2.28400 43.11200 28.79700
C  -2.41300 42.51700 28.15500
C  -1.84300 43.20100 23.37500
C  2.83100 44.27000 24.03400
N  -0.06000 42.73700 28.25100
C  0.93500 42.84400 29.17500
C  0.47100 42.66700 30.64500
C  -1.01900 42.12400 30.34200
C  -1.24100 42.55700 28.85300
C  -1.27700 40.58900 30.56600
C  0.61000 44.02600 31.46200
C  1.26700 43.89800 32.81000
H  0.87600 42.64700 33.65200
N  -1.90700 42.93400 25.80200
C  -2.82100 42.65500 26.77200
C  -4.10700 42.47500 26.22000
C  -3.91000 42.58300 24.77100
C  -2.46400 42.92300 24.56200
C  -5.27100 42.31400 27.16400
C  -4.92800 42.48900 23.60800
O  -4.70900 42.62400 22.45800
C  -6.34500 42.05800 23.96700
N  0.49500 43.63700 24.01200
C  -0.54700 43.57000 23.08600
C  -0.12800 44.05000 21.68100
C  1.34100 44.56600 21.99200
C  1.57000 44.20700 23.39900
C  -0.20600 42.89300 20.62200
C  1.53000 46.06700 21.76600
C  1.40200 46.61300 20.37500
N  2.11500 43.63800 26.28900
C  3.12300 43.96000 25.41600
C  4.44000 43.93900 26.08800
C  4.05500 43.66900 27.42500
C  2.68100 43.41800 27.48500
C  5.77100 44.03300 25.43300
C  4.66700 43.41600 28.70500
O  5.89100 43.38700 28.96600
C  3.53000 43.09600 29.71100
C  3.81100 41.68300 30.19500
O  3.87100 40.65700 29.50500
O  4.09400 41.69000 31.49900
C  4.85800 40.62800 32.12800
H  -3.24600 42.23700 28.80500
H  -2.50600 43.30200 22.51300
H  3.61700 44.77600 23.47100
H  0.97200 41.84900 31.16200
H  -1.74900 42.66300 30.94700
H  -1.79600 40.54700 31.52400
H  -0.32800 40.07900 30.39800
H  -1.83500 40.28400 29.68100
H  -0.34300 44.50500 31.68600
H  1.23500 44.71400 30.89400
H  1.05900 44.82400 33.34600
H  2.34700 44.02200 32.73600
H  -5.19400 41.25100 27.39300
H  -6.23000 42.45400 26.66600
H  -5.09100 42.88800 28.07300
H  -7.07800 42.85100 23.82100
H  -6.28700 41.55600 24.93200
H  -6.64800 41.22300 23.33600
H  -0.74900 44.90300 21.40700
H  2.08000 44.00900 21.41600
H  0.76400 42.72100 20.15600
H  -0.78700 43.28900 19.78900
H  -0.67800 41.94600 20.88300
H  2.47800 46.43200 22.16200
H  0.90200 46.55900 22.50800
H  0.99200 47.60000 20.59100
H  0.64000 46.18400 19.72600
H  2.37300 46.76600 19.90400
H  5.77900 44.08300 24.34400
H  6.49500 43.34700 25.87200
H  6.11800 45.05000 25.61800
H  3.41300 43.79900 30.53600
H  4.19700 39.92400 32.63300
H  5.52900 41.05500 32.87300
H  5.36600 39.98600 31.40800
Mg -1.83700 34.23100 26.43600
C  -3.08900 32.54300 29.12900
C  -0.40900 36.53200 28.62900
C  -0.88700 36.03100 23.75200
C  -3.66500 31.99100 24.28400
N  -1.90100 34.53300 28.60700
C  -2.30800 33.61200 29.49200
C  -1.76300 34.01300 30.95800
C  -0.88400 35.24900 30.68700
C  -1.08400 35.49300 29.17400
C  -1.12100 36.55500 31.49300
C  -1.12200 32.79400 31.78700
C  -1.69200 32.66700 33.23900
H  -0.69000 32.62100 34.45400
N  -0.86400 36.11100 26.26400
C  -0.33900 36.88400 27.30000
C  0.34600 38.04200 26.66400
C  0.27800 37.89300 25.27700
C  -0.52600 36.66900 25.02900
C  1.03100 39.06100 27.57800
C  0.88800 38.86600 24.24900
O  0.72700 38.71900 23.05900
C  1.74800 40.00600 24.76600
N  -2.19900 34.02800 24.30100
C  -1.59700 34.90700 23.45300
C  -1.85200 34.40500 22.02300
C  -2.53300 32.99900 22.22300
C  -2.81500 32.97200 23.68100
C  -2.67200 35.55700 21.28200
C  -1.60700 31.78300 21.82600
C  -0.21100 31.64000 22.30800
N  -3.16600 32.63800 26.59200
C  -3.78200 31.80200 25.70000
C  -4.54100 30.76600 26.34700
C  -4.28000 31.08900 27.65400
C  -3.49000 32.21500 27.78700
C  -5.31100 29.64400 25.74400
C  -4.54200 30.57100 28.93700
O  -5.20100 29.57900 29.28400
C  -3.71000 31.46200 29.99000
C  -4.72400 31.95500 31.02200
O  -5.52600 32.80200 30.81800
O  -4.48900 31.11300 32.10500
C  -5.36000 31.31900 33.25000
H  0.29400 37.08300 29.25800
H  -0.34500 36.48900 22.92300
H  -4.00000 31.12100 23.71600
H  -2.65600 34.24800 31.53700
H  0.13900 35.00400 30.97400
H  -1.56900 37.33300 30.87500
H  -0.13900 36.91400 31.80200
H  -1.72200 36.25300 32.35100
H  -0.04800 32.98100 31.79500
H  -1.21300 31.88500 31.19300
H  -2.16800 31.68600 33.23300
H  -2.40400 33.44800 33.50400
H  0.59500 40.02500 27.31800
H  2.11300 39.04300 27.44900
H  0.75100 38.91400 28.62100
H  2.22500 40.48600 23.91100
H  2.55000 39.72100 25.44800
H  1.00000 40.65000 25.22800
H  -0.90400 34.32200 21.49100
H  -3.48000 32.93000 21.68800
H  -2.02600 36.03100 20.54200
H  -3.02600 36.31300 21.98200
H  -3.56400 35.27000 20.72500
H  -1.80400 31.66100 20.76100
H  -2.11600 30.94100 22.29500
H  -0.02400 32.27000 23.17700
H  0.36300 32.06800 21.48600
H  0.16500 30.62000 22.39300
H  -4.95200 29.42300 24.73900
H  -6.33700 29.97700 25.58900
H  -5.40900 28.74700 26.35600
H  -2.89400 30.88800 30.42900
H  -6.25200 30.69300 33.22600
H  -5.59500 32.38300 33.29600
H  -4.93400 31.10600 34.23000

