158

Mg 35.84400 49.60500 24.33100
C  36.01800 47.72300 27.23500
C  34.50300 52.21700 26.04500
C  35.04400 51.02800 21.33600
C  36.69300 46.61300 22.51900
N  35.37500 49.92100 26.42300
C  35.57600 49.03300 27.44300
C  35.46600 49.78200 28.76200
C  34.79600 51.08000 28.36100
C  34.81500 51.08700 26.84200
C  33.37000 51.29900 28.97000
C  36.88100 49.96000 29.44100
C  36.87500 49.74900 30.96500
H  35.57000 49.69200 31.71700
N  34.89200 51.39700 23.74400
C  34.56500 52.36800 24.66800
C  34.21900 53.59400 23.91400
C  34.24700 53.27600 22.58500
C  34.79800 51.87900 22.52000
C  33.89500 54.92800 24.56600
C  33.79100 54.06200 21.34300
O  34.10500 53.73300 20.19300
C  33.03900 55.38200 21.51900
N  35.72000 48.91900 22.26000
C  35.46500 49.66000 21.24400
C  35.56700 48.97700 19.95700
C  36.16600 47.58300 20.27700
C  36.26200 47.70400 21.79800
C  34.30900 48.90600 19.16800
C  37.49900 47.18900 19.57800
C  37.43700 46.36100 18.24200
N  36.42700 47.60700 24.71300
C  36.74400 46.50100 23.88300
C  37.11100 45.41600 24.75400
C  36.87400 45.87300 26.04200
C  36.34300 47.13100 25.95600
C  37.63100 44.08000 24.32300
C  36.88600 45.46200 27.42400
O  37.18100 44.36300 27.88900
C  36.36500 46.67600 28.21200
C  35.20800 46.19200 29.13400
O  34.08500 46.01100 28.67800
O  35.65900 45.99100 30.42400
C  34.63600 45.42400 31.32800
H  34.16400 53.12100 26.55600
H  35.02700 51.53900 20.37100
H  37.07700 45.69700 22.06300
H  34.89700 49.09400 29.38600
H  35.39700 51.88900 28.77700
H  33.29500 52.22100 29.54600
H  33.04300 50.43100 29.54400
H  32.64200 51.28900 28.15900
H  37.19100 50.99100 29.26900
H  37.62300 49.29800 28.99600
H  37.44100 50.56500 31.41500
H  37.42500 48.82500 31.14300
H  34.60500 55.03100 25.38700
H  32.84600 55.12500 24.78900
H  34.09900 55.63300 23.76000
H  33.72600 56.20200 21.72600
H  32.35400 55.38700 22.36700
H  32.47800 55.63900 20.62100
H  36.21700 49.53500 19.28300
H  35.42200 46.83100 20.01500
H  34.09400 47.90500 18.79500
H  34.43900 49.63200 18.36500
H  33.48300 49.33800 19.73300
H  38.14200 46.63600 20.26300
H  37.95500 48.15500 19.35600
H  37.83800 45.38000 18.49700
H  38.13600 46.75900 17.50700
H  36.43800 46.30900 17.81100
H  36.95100 43.24600 24.49600
H  38.54800 43.89600 24.88200
H  37.83700 44.04400 23.25400
H  37.22400 46.97700 28.81200
H  33.60400 45.55000 31.00200
H  34.71700 45.71700 32.37500
H  34.87900 44.36100 31.30600
Mg 17.31800 52.84600 26.77400
C  19.41600 51.26800 28.92400
C  15.06300 53.11800 29.25600
C  15.09300 54.25600 24.55100
C  19.40500 52.12800 24.20800
N  17.28600 52.31300 28.85000
C  18.31000 51.81400 29.59700
C  17.99500 51.85000 31.09100
C  16.42200 51.85900 31.02100
C  16.21200 52.52300 29.63100
C  15.74700 50.41000 31.19800
C  18.70800 53.07700 31.74700
C  18.29700 53.32900 33.13300
H  17.41400 52.28700 33.87300
N  15.38200 53.80100 26.92400
C  14.64300 53.80400 28.06400
C  13.37500 54.51900 27.75400
C  13.38000 54.84000 26.40600
C  14.63600 54.27600 25.85700
C  12.40200 54.83300 28.90300
C  12.26600 55.51900 25.67100
O  12.38100 55.89800 24.51900
C  10.97900 55.72700 26.32600
N  17.19800 52.99200 24.67900
C  16.25800 53.74600 23.99300
C  16.67100 53.94900 22.50100
C  18.22800 53.57900 22.54800
C  18.29700 52.82500 23.87400
C  15.84800 53.04000 21.56500
C  19.21400 54.79400 22.48200
C  20.23000 54.64700 21.30300
N  19.09400 51.85800 26.50300
C  19.81700 51.63000 25.42200
C  21.04800 50.89900 25.81400
C  20.93100 50.76000 27.22900
C  19.74100 51.35300 27.56300
C  22.20600 50.25300 25.01800
C  21.56300 50.12900 28.39900
O  22.52800 49.40100 28.59200
C  20.69100 50.66200 29.56200
C  20.26600 49.49300 30.29500
O  19.65800 48.51900 29.86700
O  20.72900 49.63400 31.60200
C  20.30300 48.51700 32.46100
H  14.27600 53.17400 30.01200
H  14.33300 54.66300 23.88000
H  20.08100 51.90800 23.37900
H  18.40200 50.94900 31.55100
H  15.83100 52.46100 31.71200
H  15.17100 50.28600 30.28100
H  15.12000 50.28500 32.08200
H  16.55200 49.67900 31.26700
H  18.58900 54.02600 31.22400
H  19.76300 52.85300 31.90700
H  17.82700 54.31100 33.17300
H  19.13600 53.43900 33.82000
H  12.71500 54.45300 29.87600
H  11.47600 54.33000 28.62600
H  12.31400 55.90600 29.07400
H  10.56200 54.76000 26.60600
H  10.23300 56.09900 25.62300
H  11.13000 56.37500 27.18900
H  16.42000 54.94300 22.13100
H  18.40000 52.96300 21.66600
H  15.51700 52.13100 22.06700
H  16.50400 52.81900 20.72300
H  14.96700 53.65300 21.37200
H  19.70000 54.80400 23.45800
H  18.66000 55.72100 22.33600
H  20.15400 53.74300 20.69800
H  21.21900 54.61300 21.76100
H  20.14000 55.55200 20.70300
H  23.06100 50.55800 25.62200
H  22.19100 50.63600 23.99800
H  22.08200 49.17100 25.02400
H  21.28300 51.34700 30.16900
H  20.72600 48.60300 33.46200
H  20.72400 47.57600 32.10800
H  19.21400 48.55500 32.47900

