158

Mg 16.12700 -1.90300 28.28100
C  15.37600 0.09000 30.96500
C  18.23500 -3.73000 30.29300
C  16.96900 -3.76100 25.53400
C  14.04800 0.12400 26.23500
N  16.79200 -1.79000 30.36800
C  16.31700 -0.93100 31.27700
C  16.84600 -1.18400 32.63700
C  18.03700 -2.27100 32.35800
C  17.67600 -2.66200 30.93400
C  19.46300 -1.77900 32.45500
C  15.85300 -1.71900 33.72600
C  16.18600 -1.25700 35.20000
H  17.60300 -0.70300 35.53000
N  17.42000 -3.51900 27.96500
C  18.15700 -4.17300 28.93400
C  18.71900 -5.36800 28.32500
C  18.40900 -5.36400 26.89400
C  17.51300 -4.16000 26.74700
C  19.50600 -6.37800 29.13100
C  18.88000 -6.20900 25.75000
O  18.60500 -6.13200 24.58600
C  19.82200 -7.29600 26.06000
N  15.72300 -1.71400 26.17200
C  16.16700 -2.67800 25.23100
C  15.77500 -2.19100 23.81500
C  14.54400 -1.21200 24.18000
C  14.71300 -0.91900 25.59800
C  16.86800 -1.44600 23.05400
C  13.13000 -1.69900 23.69700
C  12.18300 -2.56400 24.49500
N  14.89100 -0.25400 28.51500
C  14.14400 0.52500 27.58900
C  13.48800 1.56300 28.33700
C  13.92500 1.44900 29.64400
C  14.81200 0.33100 29.73800
C  12.58000 2.59800 27.70100
C  13.81200 2.01900 30.97100
O  13.23300 2.99500 31.41200
C  14.75100 1.11400 31.86500
C  15.61000 2.06800 32.52400
O  16.62400 2.53100 32.00600
O  15.17900 2.28200 33.84400
C  15.96500 3.33700 34.53300
H  18.91100 -4.41400 30.81000
H  17.13800 -4.41400 24.67500
H  13.33000 0.71800 25.66500
H  17.25600 -0.20400 32.88100
H  18.01700 -3.15300 32.99800
H  19.40200 -0.82300 32.97400
H  19.88800 -1.61300 31.46600
H  20.09700 -2.46300 33.02100
H  15.66500 -2.79100 33.66400
H  14.87900 -1.28500 33.49900
H  15.85900 -2.15200 35.72800
H  15.52400 -0.46800 35.55600
H  19.40600 -7.38800 28.73400
H  19.08700 -6.49300 30.13000
H  20.53100 -6.03200 29.26300
H  20.57900 -6.83200 26.69300
H  20.27900 -7.71200 25.16200
H  19.36400 -8.14400 26.57000
H  15.37500 -3.03700 23.25600
H  14.67700 -0.27200 23.64300
H  16.53900 -0.56100 22.50900
H  17.27200 -2.21000 22.39100
H  17.64900 -1.07600 23.71800
H  13.25400 -2.30000 22.79700
H  12.63800 -0.76000 23.44200
H  11.25200 -2.01800 24.64500
H  12.53800 -2.66100 25.52100
H  12.11800 -3.57400 24.09000
H  12.37600 3.41400 28.39300
H  11.66800 2.09700 27.37500
H  13.29200 2.85600 26.91700
H  14.15400 0.61200 32.62700
H  16.96800 3.67500 34.27100
H  16.02900 3.09800 35.59400
H  15.23700 4.14300 34.44200
Mg 47.24800 16.42100 28.80800
C  45.33400 15.89900 31.58500
C  49.38400 18.51300 30.55400
C  48.79100 17.22600 26.00500
C  44.79200 14.78100 26.83500
N  47.26300 17.24800 30.82900
C  46.42600 16.76600 31.83400
C  46.97400 17.26900 33.21000
C  48.11800 18.35800 32.79500
C  48.30500 18.02800 31.26000
C  47.75300 19.82100 33.03000
C  47.59300 16.09900 34.04200
C  47.41800 16.25700 35.52000
H  47.20700 17.68900 36.12100
N  48.94100 17.58400 28.36200
C  49.78200 18.23400 29.21400
C  50.89000 18.78200 28.51200
C  50.67900 18.50600 27.13300
C  49.40900 17.71800 27.12800
C  52.06800 19.38900 29.22500
C  51.45600 18.89900 25.92500
O  51.13300 18.61000 24.76000
C  52.61600 19.78800 26.07100
N  46.86600 15.98100 26.64300
C  47.69700 16.39600 25.75000
C  47.23100 16.05400 24.35900
C  45.96900 15.09500 24.63400
C  45.93600 15.19300 26.13800
C  47.03400 17.25100 23.45600
C  46.02900 13.57400 24.17000
C  45.25000 13.34900 22.89100
N  45.44200 15.56600 29.08800
C  44.51900 15.00000 28.19400
C  43.28700 14.65100 28.96600
C  43.62200 14.90500 30.28600
C  44.92600 15.48400 30.28300
C  42.03800 14.17700 28.44600
C  43.15600 14.86800 31.66800
O  42.13600 14.43900 32.13800
C  44.26700 15.53600 32.53700
C  43.71700 16.76000 33.10000
O  43.59700 17.82900 32.50800
O  43.34600 16.66900 34.44100
C  42.75500 17.91400 35.09400
H  49.96500 19.15500 31.22000
H  49.22300 17.49900 25.04000
H  43.92400 14.41000 26.28600
H  46.11800 17.73000 33.70200
H  49.00100 18.06200 33.36100
H  46.68300 20.00900 33.11100
H  48.19200 20.47000 32.27200
H  48.16000 20.04200 34.01700
H  48.64200 16.02100 33.75600
H  47.01500 15.20900 33.79100
H  48.14900 15.71600 36.12100
H  46.52400 15.69300 35.78800
H  52.91900 18.75000 28.99200
H  52.00100 19.34400 30.31200
H  52.27800 20.35100 28.75600
H  52.26500 20.72800 26.49700
H  53.14100 19.96800 25.13300
H  53.39400 19.44700 26.75300
H  48.04400 15.43800 23.97600
H  45.05700 15.54800 24.24500
H  47.15900 18.17000 24.02900
H  46.01800 17.19000 23.06700
H  47.67700 17.20100 22.57700
H  45.71400 12.96600 25.01800
H  47.01600 13.18300 23.92300
H  45.83500 12.69100 22.24800
H  44.80500 14.24900 22.46700
H  44.48300 12.61000 23.12300
H  41.17900 14.61300 28.95400
H  42.06200 13.08900 28.37800
H  41.84000 14.48900 27.42100
H  44.45400 14.83700 33.35200
H  41.99100 18.47900 34.55900
H  43.62300 18.54100 35.29900
H  42.34400 17.69000 36.07800

