158

Mg 53.33800 23.37800 43.74600
C  50.42800 25.38900 43.54000
C  51.40300 20.76600 42.70900
C  56.17100 21.67600 43.48600
C  55.28100 26.43900 44.05300
N  51.13400 23.08700 43.13700
C  50.13200 24.03900 43.21100
C  48.73200 23.35300 43.14800
C  49.08100 21.83800 43.24000
C  50.63200 21.87200 43.01000
C  48.61800 21.17000 44.50700
C  47.77700 23.90000 42.04000
C  48.32000 24.19600 40.58400
H  47.78100 23.41000 39.39000
N  53.73900 21.48200 43.14800
C  52.80800 20.50500 42.80700
C  53.52600 19.26100 42.72700
C  54.90800 19.50800 42.91000
C  55.00500 20.90600 43.22600
C  52.87500 17.94800 42.26100
C  56.02700 18.48100 42.80200
O  55.82500 17.37100 42.50200
C  57.48300 18.82000 42.99200
N  55.36200 23.99300 43.72000
C  56.39100 23.05800 43.70900
C  57.75300 23.63400 43.92700
C  57.43500 25.21200 43.88200
C  55.89600 25.24900 43.88700
C  58.53300 23.16700 45.17600
C  58.16200 25.94000 42.68700
C  57.62200 25.57300 41.26000
N  53.01000 25.53100 43.94400
C  53.83900 26.60000 44.05700
C  52.98500 27.78500 44.37700
C  51.65100 27.35400 44.14800
C  51.70900 25.93600 43.86700
C  53.46300 29.17200 44.85400
C  50.26700 27.74100 44.13500
O  49.66300 28.73000 44.47500
C  49.48500 26.51000 43.51400
C  49.09700 26.96500 42.18300
O  49.90100 27.23000 41.20400
O  47.82600 27.34900 42.24000
C  47.15200 27.71400 40.98700
H  50.64700 20.01800 42.46100
H  57.15300 21.20300 43.42300
H  55.89400 27.33200 44.18900
H  48.17900 23.63000 44.04600
H  48.64700 21.32100 42.38400
H  49.46200 20.93100 45.15300
H  47.94700 20.35600 44.23200
H  48.05000 21.85900 45.13200
H  47.25600 24.79900 42.36900
H  46.95300 23.20700 41.86900
H  49.40500 24.12600 40.50400
H  47.97900 25.21200 40.38100
H  53.14900 17.86100 41.21000
H  51.78600 17.92900 42.27000
H  53.32000 17.15200 42.85900
H  57.75300 19.52400 42.20500
H  58.17100 17.97900 42.90000
H  57.61600 19.27200 43.97500
H  58.33500 23.26800 43.08100
H  57.75900 25.67200 44.81500
H  59.47100 22.77600 44.78100
H  57.90600 22.48400 45.74900
H  58.92700 23.99200 45.77000
H  59.21900 25.68800 42.77000
H  57.88800 26.99300 42.74100
H  58.48300 25.24600 40.67600
H  57.19400 26.47000 40.81300
H  56.91000 24.74900 41.21200
H  54.52900 29.07900 45.06500
H  52.86300 29.33900 45.74800
H  53.24500 29.83600 44.01800
H  48.63800 26.40600 44.19200
H  47.71100 27.48500 40.08000
H  46.94900 28.78400 41.03500
H  46.24500 27.10900 41.00000
Mg -0.27900 44.05600 24.99200
C  1.74200 43.81000 27.73800
C  -3.03600 43.26400 27.02000
C  -2.30200 43.94900 22.24400
C  2.49100 44.46800 22.94900
N  -0.58300 43.63000 27.14500
C  0.38900 43.60900 28.14700
C  -0.22200 43.34800 29.50500
C  -1.72800 42.96300 29.13800
C  -1.74200 43.33900 27.66500
C  -2.23000 41.48100 29.47200
C  0.05600 44.47200 30.52500
C  0.36500 44.01500 31.98000
H  -0.18400 42.72600 32.46800
N  -2.37900 43.76700 24.69200
C  -3.34500 43.46400 25.64100
C  -4.69100 43.47300 24.98100
C  -4.48800 43.74400 23.57300
C  -2.98400 43.84100 23.43200
C  -5.96100 43.23200 25.80300
C  -5.50500 43.95300 22.54800
O  -5.23900 44.19000 21.37700
C  -7.04200 43.88700 22.92700
N  0.02500 44.35000 22.86200
C  -0.94800 44.06300 21.97800
C  -0.37000 43.94500 20.59300
C  1.12400 44.42600 20.78200
C  1.29100 44.48300 22.29500
C  -0.51900 42.43000 20.17100
C  1.41500 45.75800 20.04400
C  0.95200 46.99500 20.88500
N  1.66800 44.08400 25.21000
C  2.68100 44.27200 24.30500
C  3.97000 44.10200 24.99800
C  3.63200 43.91100 26.32200
C  2.20500 43.98800 26.39800
C  5.31500 44.04200 24.36500
C  4.23100 43.71600 27.59300
O  5.38900 43.54500 28.02400
C  3.01700 43.71600 28.54200
C  3.14900 42.51900 29.37400
O  2.82900 41.36700 29.07000
O  3.57500 42.89300 30.63000
C  3.70200 41.97500 31.74900
H  -3.80700 42.97800 27.73900
H  -2.91500 43.90400 21.34200
H  3.33000 44.55700 22.25600
H  0.31100 42.47500 29.88200
H  -2.46100 43.53300 29.71000
H  -2.73600 41.09800 28.58600
H  -2.82000 41.40300 30.38600
H  -1.40400 40.85300 29.80300
H  -0.82900 45.10800 30.56600
H  0.87900 45.11100 30.20500
H  0.05900 44.88500 32.56100
H  1.45400 44.04200 32.01200
H  -6.36200 42.27600 25.46800
H  -6.60200 44.10000 25.65500
H  -5.77500 43.21300 26.87700
H  -7.27800 44.72300 23.58600
H  -7.35100 42.96600 23.42000
H  -7.67900 44.02800 22.05400
H  -0.86700 44.56400 19.84600
H  1.84000 43.75900 20.30200
H  0.46800 41.97600 20.07800
H  -0.94900 42.23200 19.18900
H  -1.16500 41.83000 20.81100
H  0.87100 45.74700 19.10000
H  2.47700 45.81800 19.80400
H  0.37700 46.72600 21.77100
H  0.30100 47.60000 20.25300
H  1.71100 47.74900 21.09200
H  5.27900 43.51000 23.41500
H  6.01400 43.52600 25.02200
H  5.72900 45.04900 24.31400
H  3.11800 44.61000 29.15700
H  4.72200 41.92900 32.12900
H  3.23600 41.03700 31.44400
H  3.15600 42.38700 32.59800

