158

Mg 53.47500 23.82300 44.55500
C  50.81500 25.68500 43.69900
C  51.99000 21.00900 43.73500
C  56.50500 22.25800 44.89300
C  55.05700 26.87900 45.58800
N  51.60100 23.43200 43.62200
C  50.59800 24.31600 43.39800
C  49.36200 23.59100 42.93600
C  49.53500 22.15700 43.59400
C  51.11400 22.17300 43.68800
C  48.93100 21.85700 44.93900
C  49.41300 23.61900 41.35200
C  48.09400 23.93900 40.61900
H  47.37800 22.68700 40.09000
N  54.17500 21.88500 44.16700
C  53.39400 20.86100 43.74800
C  54.12500 19.67200 43.57200
C  55.44000 20.03900 43.97300
C  55.42500 21.43200 44.41700
C  53.52600 18.29500 43.17300
C  56.67900 19.09900 43.94500
O  56.54700 17.97600 43.58900
C  58.03100 19.54800 44.26400
N  55.57700 24.52900 44.94900
C  56.56500 23.60100 45.17600
C  57.91700 24.30200 45.64400
C  57.45000 25.78300 45.90000
C  55.92200 25.74200 45.46000
C  58.61200 23.66100 46.82600
C  58.27900 26.85500 45.19600
C  58.36600 28.27300 45.90400
N  53.11300 25.88500 44.58800
C  53.71300 26.95300 45.16100
C  52.83300 28.09300 45.26300
C  51.67300 27.65700 44.68500
C  51.91700 26.31800 44.27800
C  53.03300 29.41300 45.94800
C  50.31000 27.92900 44.35100
O  49.64400 28.92700 44.59300
C  49.68400 26.69400 43.68000
C  49.14500 27.07300 42.35400
O  49.81800 27.43200 41.40400
O  47.78800 27.18500 42.39500
C  47.26400 27.93200 41.24500
H  51.44300 20.06500 43.72300
H  57.45300 21.73300 45.02600
H  55.46600 27.79700 46.01600
H  48.51600 24.20600 43.24200
H  49.14000 21.43900 42.87600
H  49.65700 21.56100 45.69600
H  48.13000 21.11900 44.90200
H  48.43000 22.71700 45.38300
H  49.79500 22.62900 41.10100
H  50.14400 24.29000 40.90100
H  48.30600 24.58300 39.76500
H  47.54900 24.45900 41.40700
H  53.80800 18.05100 42.14900
H  52.44600 18.43500 43.22300
H  53.82500 17.48000 43.83300
H  58.38100 20.26900 43.52500
H  58.64800 18.65200 44.19100
H  58.13300 19.93200 45.27900
H  58.66500 24.43600 44.86200
H  57.35600 26.04700 46.95300
H  59.68600 23.79000 46.69300
H  58.58900 22.58400 46.99200
H  58.47500 24.18800 47.77000
H  57.96700 27.03900 44.16800
H  59.30600 26.49100 45.18400
H  59.27300 28.78500 45.58300
H  58.35700 28.20100 46.99100
H  57.48100 28.82600 45.59000
H  52.45800 29.40500 46.87400
H  52.77000 30.22100 45.26500
H  54.10600 29.53700 46.09900
H  48.86000 26.54800 44.37800
H  47.39200 27.25300 40.40200
H  47.78800 28.85400 40.99600
H  46.18100 28.05500 41.26300
Mg 47.72200 14.86400 28.29600
C  45.59600 14.51600 30.98000
C  49.54600 17.10300 30.12300
C  49.79400 15.18900 25.63800
C  45.68300 12.90000 26.43600
N  47.58100 15.70900 30.34900
C  46.65000 15.34900 31.33200
C  47.01700 15.95000 32.65700
C  47.98700 17.15200 32.20600
C  48.42500 16.63500 30.82900
C  47.53400 18.62100 32.17000
C  47.80800 14.98900 33.60100
C  47.56500 15.27700 35.06300
H  48.81800 15.25600 36.01600
N  49.54100 15.86600 28.06600
C  50.07400 16.79300 28.86400
C  51.31300 17.30400 28.26100
C  51.43500 16.63800 27.06000
C  50.23400 15.85300 26.86400
C  52.02700 18.43900 28.84600
C  52.59400 16.82200 26.02100
O  52.57200 16.24600 24.92100
C  53.77500 17.62800 26.32400
N  47.72000 14.33500 26.24900
C  48.61800 14.50200 25.33900
C  48.34600 13.78800 23.98400
C  46.98100 13.19800 24.23800
C  46.76100 13.43900 25.72000
C  48.47400 14.74000 22.81000
C  46.79200 11.71500 23.80200
C  47.67100 10.64300 24.50900
N  45.93900 13.98400 28.60000
C  45.21400 13.14900 27.75900
C  44.01300 12.64200 28.39100
C  44.10700 13.22900 29.76500
C  45.27300 14.05200 29.73400
C  42.93100 11.91100 27.59100
C  43.52400 13.31300 31.08100
O  42.48600 12.96800 31.57000
C  44.47000 14.18800 31.89600
C  43.69800 15.46900 32.23300
O  43.54300 16.36400 31.44600
O  43.27800 15.49400 33.46900
C  42.51700 16.62500 33.97400
H  50.09300 17.89500 30.63900
H  50.56100 15.23800 24.86200
H  45.01800 12.29700 25.81400
H  46.18400 16.27800 33.27900
H  48.85900 17.10700 32.85800
H  47.47400 19.08100 31.18300
H  48.13900 19.22000 32.85000
H  46.54400 18.51800 32.61600
H  48.87800 14.85900 33.43500
H  47.45000 13.99500 33.33500
H  46.99400 14.45900 35.50200
H  46.89600 16.11300 35.26700
H  51.75200 19.38200 28.37300
H  53.10000 18.38800 28.65800
H  52.04900 18.37500 29.93400
H  54.22400 17.90800 25.37200
H  54.34100 17.16700 27.13400
H  53.39300 18.62400 26.55100
H  49.07800 12.98700 23.88300
H  46.20900 13.71400 23.66600
H  47.87800 14.49700 21.93100
H  49.53600 14.76100 22.56300
H  48.19700 15.72500 23.18500
H  46.99000 11.74300 22.73100
H  45.71900 11.54900 23.89000
H  48.20500 10.99300 25.39300
H  48.41800 10.23300 23.82900
H  46.97500 9.89300 24.88600
H  42.75000 10.91500 27.99400
H  43.06300 11.77400 26.51800
H  42.00000 12.46400 27.71800
H  44.56400 13.54100 32.76800
H  41.77900 16.31700 34.71500
H  42.04300 17.09300 33.11200
H  43.21800 17.30800 34.45300

