158

Mg 47.59100 25.05200 28.28100
C  48.59800 27.19500 30.96700
C  46.81000 22.60400 30.71800
C  47.35300 22.79300 25.77500
C  48.84200 27.37000 25.92900
N  47.78300 24.90400 30.57600
C  48.00000 26.01500 31.41100
C  47.60100 25.65600 32.83500
C  47.09100 24.19900 32.72000
C  47.24300 23.83300 31.26200
C  47.86200 23.23200 33.61100
C  46.61000 26.61700 33.48400
C  47.01400 27.22200 34.87400
H  45.88300 27.50500 35.87400
N  47.01500 23.01900 28.22700
C  46.74100 22.19600 29.36300
C  46.07900 21.03800 28.78700
C  46.19400 21.06400 27.36400
C  46.86600 22.32000 27.06000
C  45.38700 19.93700 29.65900
C  45.63800 20.13600 26.33600
O  45.68900 20.38100 25.13100
C  45.06200 18.76800 26.73700
N  48.21100 25.00700 26.17400
C  47.94200 23.97400 25.34200
C  48.27400 24.29100 23.86100
C  48.57800 25.78000 23.93600
C  48.51500 26.06600 25.44100
C  49.27300 23.32600 23.31000
C  47.68500 26.67600 23.02900
C  46.19000 26.56100 23.18500
N  48.57800 26.85200 28.33400
C  48.86100 27.70600 27.32200
C  49.40500 28.89200 27.94900
C  49.19200 28.76000 29.29800
C  48.86100 27.45000 29.51000
C  50.05800 30.07700 27.32400
C  49.31300 29.47100 30.60400
O  49.72900 30.63300 30.83600
C  48.96900 28.43700 31.74600
C  50.19700 28.30100 32.63500
O  51.30000 28.03700 32.26000
O  49.82200 28.56300 33.89600
C  50.91700 28.62800 34.88600
H  46.53700 21.80300 31.40800
H  47.15000 22.08400 24.97000
H  49.05500 28.20500 25.25700
H  48.48000 25.68100 33.47900
H  46.02700 24.17400 32.95400
H  48.47100 22.58700 32.97700
H  47.13200 22.60500 34.12200
H  48.55000 23.61100 34.36600
H  45.61700 26.20700 33.66800
H  46.52700 27.48000 32.82400
H  47.45900 28.18100 34.60700
H  47.76400 26.54600 35.28300
H  45.67400 18.90700 29.44300
H  44.32900 20.06900 29.43200
H  45.73900 20.07600 30.68100
H  44.50400 18.29100 25.93000
H  44.36700 19.03600 27.53300
H  45.83400 18.17000 27.22100
H  47.36300 24.12300 23.28700
H  49.56900 25.92200 23.50300
H  49.88400 23.82500 22.55800
H  48.69900 22.53000 22.83500
H  49.91300 22.92600 24.09600
H  47.88000 26.38700 21.99600
H  48.02000 27.70200 23.18000
H  45.89700 27.59500 23.36900
H  45.92700 26.04500 24.10900
H  45.65200 26.20100 22.30800
H  50.11500 29.87600 26.25400
H  51.10500 30.20100 27.60100
H  49.61500 31.05000 27.53600
H  48.11200 28.70700 32.36200
H  50.62600 28.57800 35.93600
H  51.34200 29.61100 34.68500
H  51.67800 27.86500 34.72400
Mg 5.70500 52.41400 41.89900
C  5.00800 48.99300 41.82800
C  8.62600 51.84300 40.20400
C  6.02500 55.65700 41.53400
C  2.31300 52.93300 42.95200
N  6.64400 50.62100 40.92600
C  6.26700 49.35000 41.20600
C  7.30700 48.38500 40.54400
C  8.63500 49.33500 40.70000
C  7.93900 50.68300 40.54300
C  9.42500 49.21900 42.01400
C  7.06300 47.96100 38.98800
C  6.03000 48.75100 38.25000
H  5.67700 48.24700 36.89200
N  7.25100 53.61000 41.12800
C  8.36200 53.17200 40.50700
C  9.20900 54.28400 40.21000
C  8.45000 55.48500 40.58200
C  7.20400 54.94900 41.07400
C  10.50100 54.18200 39.41400
C  8.94600 56.92200 40.49500
O  10.10700 57.15900 40.13800
C  8.06000 58.11100 40.85900
N  4.24700 54.09200 41.99300
C  4.77500 55.35700 41.95900
C  3.81600 56.35900 42.57800
C  2.55800 55.49000 42.90500
C  2.99100 54.09400 42.50800
C  4.40000 57.11700 43.80700
C  1.28300 55.95500 42.16400
C  0.08300 56.32000 43.04300
N  3.94000 51.23600 42.43900
C  2.68000 51.57900 42.94700
C  2.07100 50.32300 43.42300
C  2.93400 49.24900 42.96100
C  4.07600 49.89800 42.32300
C  0.79400 50.16000 44.12800
C  3.08100 47.87200 42.81800
O  2.33400 46.98200 43.17500
C  4.42400 47.61200 42.09300
C  4.09600 46.73300 40.88600
O  3.37500 47.05400 39.94000
O  4.67500 45.47100 40.99700
C  4.62300 44.68100 39.80200
H  9.62900 51.60700 39.84200
H  6.25100 56.72300 41.45500
H  1.41800 53.21500 43.51000
H  7.57800 47.51400 41.14100
H  9.32300 49.13400 39.87900
H  8.99200 48.37700 42.55400
H  9.36800 50.21700 42.45000
H  10.50000 49.11400 41.87000
H  7.00500 46.87300 38.95200
H  7.97400 48.09600 38.40400
H  6.26800 49.81300 38.19200
H  5.10000 48.64300 38.80900
H  10.17200 53.83000 38.43600
H  11.13900 53.38600 39.79900
H  11.05800 55.10200 39.23500
H  8.47800 59.11000 40.73500
H  7.77500 57.98300 41.90400
H  7.10800 58.22200 40.34100
H  3.69500 57.12300 41.81000
H  2.34800 55.59700 43.96900
H  5.41400 56.87000 44.12200
H  3.72800 57.02100 44.65900
H  4.51200 58.17400 43.56500
H  0.99800 55.17100 41.46300
H  1.55100 56.88900 41.67100
H  0.43400 56.74800 43.98300
H  -0.55700 55.44300 43.13200
H  -0.60300 57.02000 42.56700
H  0.74300 49.13500 44.49700
H  -0.10200 50.30200 43.52400
H  1.01500 50.79900 44.98300
H  5.14400 47.15100 42.76900
H  5.68600 44.54300 39.60500
H  4.20500 45.06400 38.87100
H  4.18800 43.70500 40.01700

