158

Mg 16.61700 -1.48700 28.51100
C  15.32500 0.60500 30.79900
C  18.47100 -3.08800 31.00700
C  18.17500 -3.13400 26.10900
C  15.03800 0.56200 25.98200
N  16.91000 -1.23600 30.62600
C  16.25400 -0.33100 31.38800
C  16.49500 -0.47300 32.90500
C  17.67200 -1.53200 32.89400
C  17.67200 -2.00800 31.39700
C  18.98200 -0.93000 33.46700
C  15.18700 -0.87100 33.72100
C  15.07800 -0.30600 35.15700
H  16.32300 0.06000 36.00900
N  18.02600 -3.00100 28.56000
C  18.70900 -3.54100 29.67700
C  19.60500 -4.54400 29.19400
C  19.48500 -4.57400 27.75900
C  18.49200 -3.53800 27.41500
C  20.41700 -5.29100 30.22200
C  20.39400 -5.26800 26.71900
O  20.10000 -5.37500 25.53400
C  21.60400 -6.04000 27.18500
N  16.78900 -1.18100 26.38200
C  17.44900 -2.03500 25.61600
C  17.30000 -1.71300 24.12600
C  16.11900 -0.64200 24.12100
C  15.94800 -0.39700 25.61100
C  18.65000 -1.34100 23.37200
C  14.89300 -1.02000 23.26900
C  13.83800 -1.80500 24.05100
N  15.22600 0.06700 28.36800
C  14.65100 0.79900 27.33700
C  13.67500 1.70300 27.88600
C  13.93900 1.75500 29.22800
C  14.82600 0.71600 29.48400
C  12.95600 2.67200 27.11300
C  13.66500 2.42900 30.53300
O  13.01500 3.44300 30.81500
C  14.52200 1.65100 31.53400
C  15.49300 2.62500 32.20500
O  16.63100 2.98100 31.82300
O  14.94600 3.08700 33.32000
C  15.67200 3.95600 34.24100
H  19.07900 -3.38200 31.86500
H  18.66000 -3.73200 25.33400
H  14.50900 1.18100 25.25500
H  16.63300 0.54000 33.28200
H  17.50200 -2.42600 33.49300
H  19.26500 -1.56700 34.30500
H  18.79000 0.06800 33.86200
H  19.74800 -0.96100 32.69300
H  15.14500 -1.93700 33.94500
H  14.25200 -0.71500 33.18200
H  14.57300 -1.10400 35.70200
H  14.39700 0.54500 35.13600
H  20.13300 -6.33900 30.13100
H  20.19700 -5.00600 31.25100
H  21.45900 -5.01100 30.06500
H  22.12500 -5.53100 27.99500
H  22.29400 -6.22400 26.36100
H  21.27000 -7.01200 27.54800
H  16.91000 -2.64500 23.71600
H  16.57700 0.21100 23.62000
H  19.36600 -1.24800 24.18900
H  18.40700 -0.50900 22.71100
H  18.91700 -2.10200 22.63900
H  15.01200 -1.34700 22.23600
H  14.42900 -0.03600 23.19400
H  13.08200 -1.07800 24.34700
H  14.28900 -2.17900 24.97000
H  13.44400 -2.58500 23.40000
H  12.54200 2.19400 26.22500
H  13.63700 3.40900 26.68800
H  12.11500 3.13800 27.62800
H  13.79500 1.28800 32.26000
H  15.63700 4.97200 33.84900
H  16.71300 3.64600 34.33800
H  15.21200 3.99300 35.22900
Mg 7.49300 52.95800 40.90700
C  6.95300 49.43500 40.87200
C  10.67100 52.22400 39.66500
C  7.98400 56.21300 40.51300
C  4.14900 53.48800 41.49700
N  8.63000 51.05800 40.32800
C  8.20700 49.74800 40.41200
C  9.29000 48.79400 39.88500
C  10.54500 49.68800 39.92600
C  9.88000 51.11600 39.85800
C  11.38400 49.44100 41.17700
C  9.05400 48.24500 38.48600
C  8.54200 49.20900 37.41800
H  8.03200 48.53200 36.14900
N  9.10700 54.10000 40.15000
C  10.32100 53.53200 39.84100
C  11.19600 54.68700 39.50700
C  10.47200 55.91300 39.82100
C  9.11800 55.41200 40.11700
C  12.60800 54.54100 38.90400
C  11.04800 57.29000 39.72000
O  12.06400 57.53200 39.04400
C  10.42600 58.43400 40.38700
N  6.17600 54.71000 40.76100
C  6.66100 55.93400 40.86700
C  5.65800 56.91400 41.47500
C  4.41800 56.00300 41.47400
C  4.89400 54.65400 41.28600
C  6.07500 57.48700 42.80400
C  3.32800 56.34000 40.34700
C  2.33900 57.38700 40.71100
N  5.86200 51.79300 41.15900
C  4.57800 52.12900 41.53500
C  3.82100 50.93000 41.82800
C  4.71800 49.83600 41.54900
C  5.95200 50.40800 41.17100
C  2.31300 50.84400 42.14300
C  4.82900 48.40600 41.54600
O  3.91400 47.66600 41.85600
C  6.35500 48.06000 41.12800
C  6.16400 47.19200 39.92800
O  5.83600 47.55400 38.86800
O  6.67400 45.88900 40.15400
C  6.56500 44.89600 39.08100
H  11.69500 52.02400 39.34400
H  8.06700 57.29400 40.64100
H  3.12300 53.60700 41.85300
H  9.32300 47.96600 40.59300
H  11.23900 49.64000 39.08700
H  12.39500 49.26200 40.81200
H  11.26200 48.45600 41.62600
H  11.35000 50.27300 41.88000
H  8.56400 47.27600 38.39300
H  10.08900 48.05300 38.20100
H  9.30400 49.94200 37.15100
H  7.75200 49.84300 37.82200
H  12.82400 55.02700 37.95300
H  12.93600 53.50200 38.88500
H  13.32300 55.02900 39.56600
H  9.68500 58.97500 39.79800
H  11.23800 59.12300 40.61800
H  9.94900 58.11700 41.31500
H  5.61400 57.74700 40.77400
H  3.97500 56.03300 42.47000
H  6.95800 56.94700 43.14800
H  5.30800 57.46900 43.57700
H  6.29000 58.55100 42.70600
H  2.82700 55.48800 39.88700
H  3.96300 56.84800 39.62100
H  2.20400 57.38100 41.79300
H  1.41200 57.33200 40.14000
H  2.64900 58.37300 40.36500
H  2.32700 50.57700 43.20000
H  1.84600 50.07000 41.53400
H  1.93400 51.86400 42.08700
H  6.85000 47.48900 41.91300
H  7.23000 45.08700 38.23800
H  5.52400 44.74900 38.79200
H  6.89400 43.95300 39.51800

