158

Mg 8.80700 3.39800 27.87800
C  10.21800 1.72200 30.68400
C  7.02400 5.43000 29.82600
C  7.42700 4.70100 25.07300
C  10.04800 0.64200 25.94800
N  8.56500 3.50000 29.95100
C  9.36300 2.80600 30.96100
C  9.08200 3.44200 32.36800
C  7.81300 4.35700 32.05200
C  7.80400 4.47700 30.53500
C  6.48500 3.71500 32.48000
C  10.34600 4.25700 32.84700
C  11.20600 3.59200 33.99400
H  11.27000 4.31800 35.34600
N  7.40900 4.90100 27.47100
C  6.81100 5.63700 28.45000
C  6.09100 6.76000 27.84100
C  6.25400 6.58800 26.44000
C  7.03900 5.31700 26.25200
C  5.25600 7.73000 28.64800
C  5.58400 7.43500 25.25900
O  5.85600 7.26600 24.04900
C  4.77800 8.60800 25.66700
N  8.53700 2.65100 25.82600
C  8.02400 3.47800 24.82600
C  8.37200 2.88600 23.44000
C  9.25000 1.61800 23.74500
C  9.30400 1.58000 25.24600
C  7.02100 2.51900 22.66200
C  10.76400 1.74400 23.27100
C  11.60000 0.39500 22.94000
N  9.93500 1.59400 28.18200
C  10.29600 0.63100 27.32300
C  11.18800 -0.34800 27.90500
C  11.18000 -0.01200 29.27600
C  10.37000 1.18300 29.37100
C  11.90100 -1.46600 27.21500
C  11.63300 -0.25800 30.60100
O  12.47400 -1.08700 30.96100
C  10.94000 0.78500 31.62500
C  10.05400 0.03500 32.62400
O  8.95800 -0.41400 32.35900
O  10.71800 -0.07200 33.79800
C  9.97000 -0.51400 35.01700
H  6.66100 6.12600 30.58500
H  7.06500 5.14300 24.14300
H  10.52400 -0.14800 25.36300
H  8.84800 2.58500 33.00000
H  7.91300 5.27400 32.63300
H  5.86200 3.36200 31.65800
H  5.94900 4.50800 33.00000
H  6.70900 2.94800 33.22100
H  10.08600 5.24500 33.22600
H  10.96600 4.43300 31.96800
H  12.26700 3.55700 33.74800
H  10.85500 2.57200 34.14800
H  5.73700 8.70400 28.73700
H  5.14400 7.50900 29.71000
H  4.22500 7.77900 28.29800
H  3.85200 8.47900 26.22700
H  4.69100 9.23900 24.78300
H  5.47900 9.17700 26.27900
H  8.93100 3.57300 22.80300
H  8.84400 0.65300 23.44100
H  6.15100 2.75700 23.27300
H  6.90400 1.43900 22.57200
H  6.98000 2.82100 21.61600
H  11.30500 2.33000 24.01300
H  10.75600 2.32000 22.34600
H  10.89700 -0.43100 23.04800
H  12.29400 0.23300 23.76500
H  12.07800 0.42100 21.96100
H  12.77500 -0.96800 26.79500
H  11.27900 -1.93700 26.45400
H  12.17600 -2.09000 28.06600
H  11.64200 1.37200 32.21800
H  9.86400 0.29000 35.74400
H  10.51400 -1.38400 35.38600
H  8.99500 -0.88600 34.70300
Mg 47.59800 16.49300 28.77900
C  45.45200 16.28300 31.67000
C  49.81500 18.26400 30.86900
C  49.31200 17.49700 26.07200
C  45.11300 15.06800 26.90500
N  47.50900 17.29000 30.99500
C  46.62100 17.02700 31.98900
C  47.15800 17.46300 33.33500
C  48.45200 18.22000 32.93300
C  48.62100 17.83900 31.49500
C  48.37300 19.74400 33.17700
C  47.43300 16.31400 34.30300
C  46.87700 16.45400 35.70700
H  46.78900 17.83100 36.32900
N  49.40600 17.59500 28.50600
C  50.16600 18.21300 29.48800
C  51.45100 18.62600 28.97700
C  51.33900 18.45300 27.53100
C  49.96200 17.82000 27.30600
C  52.63500 19.13500 29.74000
C  52.36500 18.75000 26.43200
O  52.27800 18.53600 25.24400
C  53.63300 19.32800 26.99400
N  47.41200 16.06500 26.83400
C  48.09000 16.80700 25.88700
C  47.50200 16.55000 24.50700
C  46.33400 15.61100 24.73400
C  46.22600 15.60900 26.25700
C  47.41700 17.80500 23.58700
C  46.45100 14.16500 24.06600
C  47.17700 13.12300 25.01200
N  45.77000 15.64500 29.21700
C  44.90100 15.08000 28.32000
C  43.75800 14.69900 29.06600
C  44.03600 15.02000 30.42800
C  45.19000 15.71400 30.44000
C  42.42500 14.22700 28.48600
C  43.31800 15.04300 31.71800
O  42.25000 14.60300 32.15400
C  44.39700 15.79400 32.62400
C  43.69400 16.87200 33.26100
O  43.75500 18.00300 32.83400
O  42.88700 16.39600 34.28300
C  42.02400 17.35000 34.99800
H  50.52400 18.69300 31.57900
H  49.92800 17.87000 25.25100
H  44.27600 14.78900 26.26200
H  46.40600 18.16100 33.70400
H  49.31600 17.88700 33.50800
H  49.27800 20.22600 33.54700
H  47.69400 20.06800 33.96600
H  48.06800 20.24600 32.25900
H  48.47300 15.98900 34.31100
H  46.90200 15.46300 33.87500
H  47.38900 15.72800 36.33900
H  45.84600 16.10800 35.62600
H  53.57800 18.59000 29.70200
H  52.38700 18.96700 30.78800
H  52.71400 20.22000 29.81200
H  53.43400 20.20600 27.60700
H  54.26100 19.58800 26.14100
H  54.18900 18.54300 27.50600
H  48.22300 15.88900 24.02600
H  45.43000 16.08300 24.35000
H  47.99500 17.71000 22.66800
H  47.74900 18.75500 24.00400
H  46.38100 17.91100 23.26400
H  47.14600 14.20300 23.22700
H  45.52100 13.72500 23.70700
H  46.48800 12.62800 25.69600
H  47.90800 13.63100 25.64200
H  47.68800 12.46300 24.31000
H  42.32800 13.16500 28.26500
H  42.24100 14.86800 27.62400
H  41.63700 14.45300 29.20500
H  44.82800 15.15500 33.39500
H  41.91800 16.84400 35.95800
H  41.04900 17.64000 34.60500
H  42.61400 18.25400 35.15100

