158

Mg 3.00300 -1.53100 43.55300
C  6.43600 -0.87800 43.25600
C  2.44900 1.06400 41.22500
C  -0.23300 -2.44000 43.22800
C  3.61100 -4.47800 45.27800
N  4.33000 -0.14300 42.33700
C  5.64100 -0.05100 42.41900
C  6.16900 0.88500 41.35100
C  4.92000 1.74200 40.90400
C  3.80900 0.84200 41.53100
C  4.88600 3.22600 41.34200
C  6.83300 0.06900 40.17900
C  8.30200 0.44300 39.82300
H  8.44500 1.11100 38.49200
N  1.30600 -0.77600 42.47800
C  1.31100 0.37500 41.66100
C  -0.04100 0.66400 41.22100
C  -0.90700 -0.38500 41.67200
C  0.04600 -1.28700 42.43800
C  -0.44400 1.86900 40.49700
C  -2.44800 -0.50400 41.51200
O  -3.10800 0.49900 41.15700
C  -3.32700 -1.71700 41.86800
N  1.88600 -3.34000 43.98900
C  0.57700 -3.37100 43.94700
C  -0.02500 -4.55100 44.64200
C  1.23300 -5.20900 45.25400
C  2.34300 -4.25900 44.80400
C  -1.19200 -4.13100 45.59800
C  1.42800 -6.69400 44.90300
C  1.40600 -7.63300 46.05700
N  4.65700 -2.49200 44.19000
C  4.78800 -3.70800 44.87600
C  6.22500 -3.83400 45.23000
C  6.82900 -2.69000 44.57500
C  5.89600 -1.97400 43.95100
C  6.92500 -4.91800 45.96400
C  8.12300 -2.13200 44.38200
O  9.25100 -2.46600 44.76000
C  7.93400 -0.89200 43.48900
C  8.26500 0.32300 44.25100
O  7.97300 0.51100 45.37200
O  8.96800 1.21100 43.41900
C  8.89300 2.58700 43.84500
H  2.37500 1.99200 40.65300
H  -1.25700 -2.81800 43.25000
H  3.81100 -5.39200 45.84100
H  6.81800 1.55200 41.91800
H  4.90100 1.69600 39.81500
H  5.04800 3.93300 40.52800
H  5.59200 3.40700 42.15300
H  3.94000 3.42300 41.84600
H  6.26100 0.19500 39.25900
H  6.90100 -0.97400 40.48800
H  8.92600 -0.45200 39.82700
H  8.68300 1.08400 40.61800
H  -1.12700 2.50800 41.05800
H  -0.78500 1.57600 39.50400
H  0.37800 2.53500 40.23500
H  -4.36900 -1.53400 41.60600
H  -3.25800 -1.77500 42.95400
H  -2.91700 -2.63900 41.45700
H  -0.49700 -5.03200 43.78500
H  1.12700 -5.12300 46.33500
H  -1.04600 -3.06300 45.76300
H  -1.15000 -4.82500 46.43800
H  -2.12000 -4.29400 45.05000
H  2.44700 -6.81300 44.53400
H  0.79200 -7.11500 44.12400
H  0.78400 -8.51000 45.88000
H  1.03000 -7.19500 46.98100
H  2.40300 -7.99700 46.30400
H  7.72800 -5.34100 45.36000
H  6.26500 -5.78000 46.05900
H  7.13900 -4.55400 46.96900
H  8.57700 -1.03100 42.62000
H  8.90400 3.21700 42.95500
H  9.71400 2.88900 44.49400
H  7.91600 2.71300 44.31300
Mg 0.53800 42.92900 26.77000
C  3.00500 42.93700 29.37900
C  -1.81500 42.32200 29.08800
C  -1.48100 41.79900 24.35500
C  3.27500 42.87900 24.46600
N  0.69700 42.45900 29.02300
C  1.68100 42.72500 29.91900
C  1.12500 42.84100 31.30500
C  -0.33200 42.34400 31.13200
C  -0.52400 42.38700 29.61800
C  -0.58100 40.92200 31.83100
C  1.25200 44.34700 31.91800
C  0.85700 44.42000 33.46000
H  0.70800 43.08600 34.21900
N  -1.43100 42.27500 26.75800
C  -2.28700 42.14000 27.77100
C  -3.60000 41.86800 27.31900
C  -3.51600 41.59300 25.90300
C  -2.03900 41.81500 25.60900
C  -4.82600 41.95200 28.33000
C  -4.63700 41.34400 24.95300
O  -4.44100 41.04900 23.75900
C  -6.03300 41.30300 25.37100
N  0.84600 42.53600 24.70700
C  -0.20100 42.03500 23.92700
C  0.23400 41.99600 22.40700
C  1.70700 42.48000 22.48700
C  2.00600 42.65900 23.97000
C  0.08900 40.68800 21.58800
C  2.01200 43.82300 21.68200
C  1.79700 45.15100 22.37200
N  2.64900 43.03800 26.84800
C  3.60300 43.08500 25.81200
C  4.90100 43.37900 26.38900
C  4.75500 43.24600 27.80300
C  3.31400 43.02700 27.99300
C  6.18300 43.67900 25.66400
C  5.47400 43.27700 29.08300
O  6.66100 43.31000 29.29500
C  4.27400 43.27200 30.09500
C  4.60800 42.24000 31.03000
O  5.04400 41.17200 30.67100
O  4.61800 42.67800 32.29200
C  5.30700 41.84500 33.24200
H  -2.60500 42.22800 29.83600
H  -2.09400 41.52500 23.49400
H  4.05000 43.06300 23.71900
H  1.78000 42.17600 31.86700
H  -0.94100 43.14800 31.54500
H  -1.40300 41.20900 32.48700
H  0.22200 40.53400 32.45700
H  -0.86300 40.18600 31.07800
H  0.58300 44.97000 31.32400
H  2.26900 44.72200 31.80000
H  0.00300 45.07500 33.63600
H  1.76100 44.75500 33.96900
H  -5.82300 41.86800 27.89700
H  -4.77600 42.83200 28.97200
H  -4.76600 41.07200 28.97100
H  -6.62600 41.32800 24.45600
H  -6.30300 42.20300 25.92400
H  -6.18900 40.30700 25.78500
H  -0.38100 42.74600 21.90900
H  2.36900 41.73100 22.05100
H  -0.34500 40.93800 20.62000
H  -0.53400 39.92900 22.06200
H  1.06700 40.24600 21.40200
H  1.38400 43.86500 20.79200
H  2.99600 43.84900 21.21300
H  2.69300 45.73000 22.59700
H  1.14800 45.06800 23.24300
H  1.09900 45.68800 21.73000
H  6.90100 44.14700 26.33800
H  6.00000 44.37100 24.84200
H  6.43400 42.74100 25.17000
H  4.22800 44.22200 30.62700
H  5.18300 42.28900 34.23000
H  6.37200 41.93000 33.02900
H  4.88100 40.84500 33.15800

