158

Mg 47.56200 25.18600 28.37700
C  48.49700 27.53000 30.79200
C  46.68800 23.05500 31.01200
C  46.96400 22.86600 26.16300
C  48.68800 27.26400 25.87300
N  47.56500 25.36300 30.57700
C  47.96300 26.38900 31.34000
C  47.67400 26.22200 32.83500
C  47.10300 24.72800 32.85600
C  47.10800 24.36600 31.35200
C  47.87700 23.78000 33.70800
C  46.78500 27.29400 33.45900
C  46.02000 26.83200 34.68200
H  45.88100 27.80500 35.88000
N  46.88600 23.29700 28.53800
C  46.55700 22.61900 29.64800
C  45.98300 21.32600 29.29100
C  46.15900 21.16200 27.88100
C  46.66800 22.48100 27.47400
C  45.38100 20.35400 30.33300
C  45.85800 19.91800 27.06600
O  46.14700 19.84400 25.86100
C  45.30200 18.70900 27.62800
N  47.76900 25.12100 26.25700
C  47.38400 24.04900 25.56900
C  47.80900 24.24300 24.07500
C  48.02100 25.80200 23.93200
C  48.10500 26.13400 25.44800
C  49.07900 23.36200 23.87000
C  46.97400 26.54800 23.07800
C  47.10300 26.63400 21.51200
N  48.36500 27.04300 28.33900
C  48.84700 27.70600 27.23100
C  49.48300 28.84100 27.73600
C  49.39400 28.86500 29.13000
C  48.65600 27.74600 29.40800
C  50.21800 29.83800 26.87600
C  49.67100 29.56800 30.35900
O  50.23400 30.67500 30.53700
C  49.09800 28.68100 31.51600
C  50.35300 28.21200 32.23300
O  51.12100 27.34400 31.86600
O  50.49700 28.86600 33.41100
C  51.58800 28.50800 34.30400
H  46.35700 22.54000 31.91600
H  46.88600 22.07400 25.41500
H  48.90800 27.96500 25.06600
H  48.68100 26.33900 33.23500
H  46.05300 24.70100 33.14700
H  48.25800 22.94100 33.12500
H  47.25500 23.40400 34.52000
H  48.70900 24.27600 34.20700
H  46.04600 27.64900 32.74100
H  47.39000 28.15300 33.74900
H  46.45500 25.93600 35.12400
H  44.97100 26.67900 34.43000
H  45.91300 19.40300 30.31600
H  44.32300 20.22400 30.10500
H  45.44300 20.77900 31.33500
H  45.75000 18.26000 28.51400
H  45.35300 17.95500 26.84200
H  44.29200 19.09800 27.75400
H  47.05400 23.91300 23.36200
H  48.99900 26.09200 23.54900
H  49.99400 23.94000 23.74000
H  48.82400 22.76300 22.99600
H  49.37400 22.69400 24.67900
H  47.02200 27.55100 23.50100
H  46.00400 26.19100 23.42500
H  47.79500 25.89800 21.10300
H  47.41200 27.66800 21.35800
H  46.17000 26.29000 21.06500
H  49.60400 30.73600 26.80400
H  50.45700 29.53800 25.85600
H  51.17400 30.05600 27.35200
H  48.28300 29.17500 32.04500
H  51.24200 27.60700 34.81000
H  51.64100 29.32400 35.02500
H  52.56300 28.32200 33.85300
Mg 16.68600 51.58700 26.81000
C  18.72100 49.62900 28.92900
C  14.52100 51.94100 29.37700
C  14.72600 52.99800 24.60900
C  18.97100 50.54700 24.20000
N  16.75900 51.06600 28.92900
C  17.71600 50.28900 29.55400
C  17.47800 50.29100 31.09100
C  15.94300 50.73400 31.14600
C  15.66500 51.27000 29.70800
C  15.01200 49.68800 31.77900
C  18.47100 51.28400 31.76400
C  18.77000 50.97200 33.20200
H  17.84700 51.49300 34.19200
N  14.88300 52.45300 27.04000
C  14.20600 52.59200 28.14600
C  13.06100 53.38600 27.92300
C  13.02400 53.59300 26.46000
C  14.24600 53.03600 25.98200
C  12.01800 53.77600 29.04500
C  11.97600 54.20500 25.54500
O  12.08900 54.26000 24.33400
C  10.77300 54.79300 26.11800
N  16.87700 51.77100 24.71700
C  15.87000 52.43200 24.06600
C  16.26300 52.51300 22.57800
C  17.65200 51.85700 22.50600
C  17.84900 51.36800 23.95000
C  15.12400 51.98600 21.68900
C  18.87900 52.84800 22.18400
C  19.60800 52.52200 20.87400
N  18.45700 50.37700 26.51400
C  19.27500 50.05300 25.45800
C  20.34400 49.23200 25.85700
C  20.18400 49.03800 27.19900
C  19.00300 49.81000 27.57800
C  21.46100 48.65200 24.94600
C  20.74100 48.35400 28.33800
O  21.65900 47.57400 28.37700
C  19.84100 48.89700 29.55900
C  19.51900 47.79400 30.43800
O  18.77200 46.88600 30.18800
O  20.16200 47.94700 31.64700
C  19.78700 46.97700 32.72100
H  13.93900 52.16400 30.27400
H  14.09600 53.48500 23.86200
H  19.60600 50.40600 23.32300
H  17.57700 49.30200 31.53800
H  15.82800 51.60900 31.78600
H  14.01300 50.04500 32.03000
H  15.48000 49.35800 32.70700
H  14.99100 48.85100 31.08200
H  18.02800 52.28000 31.79900
H  19.46300 51.31100 31.31500
H  19.79400 51.24200 33.45900
H  18.86400 49.91400 33.44700
H  11.71000 54.80800 28.87500
H  12.59900 53.82600 29.96600
H  11.13600 53.13600 29.08400
H  10.32000 54.02200 26.74300
H  10.15500 55.11600 25.28000
H  10.99700 55.64400 26.76100
H  16.39600 53.59400 22.63000
H  17.69000 50.98500 21.85400
H  14.43000 52.80100 21.48200
H  14.57200 51.14500 22.11100
H  15.54900 51.58100 20.77100
H  19.59900 52.94800 22.99700
H  18.43100 53.83900 22.11100
H  19.34400 51.54200 20.47700
H  20.68900 52.49300 21.00900
H  19.34900 53.31800 20.17600
H  21.63300 49.48500 24.26400
H  21.18100 47.75800 24.38900
H  22.34300 48.51300 25.57300
H  20.50300 49.62700 30.02300
H  19.83000 47.51200 33.67000
H  20.48200 46.13900 32.78000
H  18.81300 46.49600 32.63300

