158

Mg 9.23700 3.96200 27.86100
C  10.71000 2.24100 30.66100
C  7.26000 5.58800 30.00200
C  8.08100 5.25800 25.17700
C  10.93200 1.39100 25.83400
N  8.94400 3.65000 30.06500
C  9.78000 3.15300 31.05800
C  9.46400 3.67900 32.42700
C  8.23500 4.65300 32.19000
C  8.08000 4.62200 30.60500
C  6.91200 4.37600 32.96600
C  10.68800 4.31400 33.18600
C  10.31600 5.16600 34.45400
H  11.27600 5.03600 35.58900
N  7.86200 5.39900 27.58200
C  7.09400 5.91100 28.56800
C  6.29900 6.92600 27.99600
C  6.57000 6.99600 26.58600
C  7.52200 5.90900 26.37200
C  5.33800 7.83100 28.78400
C  6.13400 8.04200 25.55500
O  6.50900 8.10400 24.36100
C  5.26600 9.09400 25.96000
N  9.44900 3.42400 25.83400
C  8.93800 4.24800 24.84500
C  9.35800 3.78900 23.41700
C  9.90100 2.38900 23.67700
C  10.16200 2.40600 25.19100
C  8.28800 3.74400 22.26100
C  10.91300 1.81300 22.73200
C  10.31900 0.77600 21.83500
N  10.42400 2.12200 28.14300
C  11.07200 1.27600 27.22400
C  11.96800 0.34000 27.93500
C  11.86000 0.71700 29.25600
C  10.99300 1.78300 29.32200
C  12.79800 -0.76300 27.31800
C  12.24600 0.37500 30.64100
O  12.97300 -0.51100 31.03200
C  11.56700 1.44200 31.59000
C  10.75800 0.62000 32.54900
O  9.81300 -0.13000 32.29400
O  11.15900 0.88100 33.86400
C  10.37500 0.41700 35.00500
H  6.75000 6.31200 30.64000
H  7.63100 5.88700 24.40600
H  11.53400 0.73200 25.20600
H  9.19300 2.78900 32.99400
H  8.63600 5.65400 32.34700
H  6.00900 4.44400 32.35900
H  6.74400 5.25900 33.58200
H  6.94700 3.42700 33.50200
H  11.24100 4.96200 32.50600
H  11.34200 3.49100 33.47300
H  9.25200 5.11900 34.68400
H  10.51200 6.21300 34.22100
H  5.65200 8.86300 28.62600
H  5.39300 7.71400 29.86600
H  4.32800 7.57500 28.46300
H  4.26900 8.70300 26.16300
H  5.08900 9.75600 25.11200
H  5.57400 9.65100 26.84400
H  10.17600 4.44100 23.11200
H  9.03900 1.72200 23.66600
H  8.60300 4.51500 21.55800
H  7.33700 3.93500 22.76000
H  8.14100 2.79300 21.74800
H  11.71200 1.25800 23.22300
H  11.39000 2.58300 22.12700
H  10.63700 1.16300 20.86700
H  9.24300 0.61800 21.91500
H  10.84000 -0.16300 22.01700
H  12.88300 -1.62300 27.98200
H  13.80300 -0.46300 27.02100
H  12.23900 -1.16200 26.47100
H  12.28400 2.04900 32.14100
H  9.32300 0.64000 34.82700
H  10.49700 1.11300 35.83500
H  10.65700 -0.56900 35.37400
Mg -10.68300 18.20000 40.31200
C  -7.13600 17.93000 40.20100
C  -10.28600 21.38200 39.32800
C  -13.96700 18.20700 39.68500
C  -10.83700 14.65400 40.40800
N  -8.82200 19.53000 39.73800
C  -7.52400 19.23800 39.91300
C  -6.62500 20.38800 39.35300
C  -7.73500 21.53500 39.36700
C  -9.07300 20.81500 39.52200
C  -7.44400 22.63400 40.50100
C  -6.00600 20.10900 37.87800
C  -4.41600 19.90100 37.85200
H  -3.98000 18.73800 36.99700
N  -11.96200 19.62100 39.77700
C  -11.64300 20.89300 39.46500
C  -12.83200 21.73800 39.31300
C  -13.94900 20.84100 39.41000
C  -13.32600 19.44300 39.56900
C  -12.85500 23.15500 39.25200
C  -15.43200 21.23700 39.18100
O  -15.71500 22.42600 38.96400
C  -16.54300 20.29400 39.26000
N  -12.29600 16.64100 40.09800
C  -13.59100 16.94000 39.91800
C  -14.47300 15.64200 40.00000
C  -13.37700 14.50900 40.24900
C  -12.06900 15.31600 40.28600
C  -15.55500 15.66900 41.07700
C  -13.46700 13.32200 39.34500
C  -13.69600 11.94300 40.10800
N  -9.31500 16.57500 40.36000
C  -9.51500 15.21500 40.40100
C  -8.24000 14.50500 40.56000
C  -7.29900 15.56400 40.57300
C  -8.00600 16.76200 40.33900
C  -8.01500 13.06000 40.68600
C  -5.81400 15.85800 40.61700
O  -4.89300 14.99600 40.65200
C  -5.72200 17.43200 40.47500
C  -5.16700 18.10300 41.73300
O  -4.56600 19.16500 41.69800
O  -5.49700 17.40100 42.86900
C  -5.27200 18.10200 44.17500
H  -10.25000 22.36800 38.85900
H  -15.05800 18.20000 39.63800
H  -10.92200 13.56800 40.47600
H  -5.78700 20.62500 40.00900
H  -7.77600 22.10600 38.44000
H  -6.56400 22.33000 41.06800
H  -8.27900 22.62300 41.20200
H  -7.25300 23.62900 40.10000
H  -6.23600 20.99100 37.28000
H  -6.56700 19.30300 37.40700
H  -4.08500 19.62400 38.85300
H  -3.97400 20.77100 37.36600
H  -13.32200 23.75500 38.47000
H  -11.80600 23.45400 39.26300
H  -13.38200 23.43300 40.16400
H  -16.48900 19.66700 38.37000
H  -17.50400 20.77200 39.07100
H  -16.42100 19.67500 40.15000
H  -14.93800 15.60800 39.01500
H  -13.46600 14.07100 41.24300
H  -15.89400 16.67800 41.31300
H  -15.34500 15.21200 42.04300
H  -16.39000 15.13700 40.62100
H  -12.52700 13.19200 38.80800
H  -14.29100 13.50700 38.65600
H  -14.11900 12.08000 41.10400
H  -12.70700 11.48900 40.15600
H  -14.34500 11.34900 39.46400
H  -8.50000 12.72200 41.60200
H  -6.96700 12.78300 40.79400
H  -8.38100 12.56600 39.78600
H  -5.03200 17.68600 39.67000
H  -6.17000 18.40200 44.71400
H  -4.53200 18.89600 44.07600
H  -4.71200 17.33100 44.70500

