158

Mg 26.12700 0.55300 28.84800
C  28.01100 0.16200 31.67000
C  23.39500 1.18800 30.80700
C  24.16800 0.74300 26.09100
C  28.65400 -0.96900 26.87600
N  25.79400 0.62300 31.00400
C  26.75100 0.61200 31.97500
C  26.10200 0.71900 33.37900
C  24.56400 0.84300 33.08400
C  24.58700 0.91400 31.58000
C  23.72500 -0.31200 33.61600
C  26.64500 1.96700 34.20500
C  26.63800 1.77600 35.68100
H  26.26700 2.97400 36.64000
N  24.09200 1.08700 28.45500
C  23.13100 1.34100 29.44500
C  21.88100 1.71700 28.79400
C  22.05700 1.49400 27.37400
C  23.48000 1.13200 27.25500
C  20.55800 2.11700 29.42600
C  21.08100 1.53500 26.21400
O  21.34600 1.50600 25.05000
C  19.62900 1.83500 26.52800
N  26.23900 -0.29800 26.81200
C  25.37400 0.06800 25.81200
C  25.81000 -0.42200 24.40900
C  27.25200 -0.83700 24.70900
C  27.43000 -0.61000 26.21500
C  24.91200 -1.56000 23.83700
C  28.35300 -0.19800 23.80300
C  28.90200 1.13700 24.22300
N  28.00000 -0.25300 29.12100
C  28.90500 -0.83700 28.29700
C  30.08400 -1.01700 29.07500
C  29.85300 -0.63900 30.40800
C  28.53400 -0.22300 30.41000
C  31.40500 -1.44300 28.54200
C  30.40900 -0.50700 31.69300
O  31.53000 -0.69400 32.10700
C  29.25300 0.06300 32.61100
C  28.89900 -0.98100 33.58900
O  28.08900 -1.89300 33.49200
O  29.70900 -0.69400 34.70600
C  29.40800 -1.47100 35.90300
H  22.50400 1.34700 31.41800
H  23.66200 0.77300 25.12400
H  29.52300 -1.42300 26.39500
H  26.41000 -0.17900 33.91600
H  24.16700 1.82000 33.35700
H  23.29400 -0.89600 32.80300
H  22.83400 -0.02200 34.17200
H  24.23400 -0.99700 34.29400
H  26.00800 2.83300 34.02500
H  27.66800 2.21600 33.92500
H  27.58100 1.31900 35.98400
H  25.78800 1.10000 35.77600
H  19.87100 1.27100 29.41500
H  19.99700 2.90400 28.92200
H  20.68900 2.43300 30.46100
H  18.86600 1.80500 25.75000
H  19.62000 2.86800 26.87800
H  19.31700 1.05900 27.22700
H  25.64800 0.38200 23.69200
H  27.44300 -1.90600 24.61900
H  24.97200 -2.35800 24.57600
H  25.11100 -2.03600 22.87700
H  23.89300 -1.17300 23.84900
H  27.97500 -0.20000 22.78100
H  29.23900 -0.82100 23.92700
H  28.27600 1.58900 24.99200
H  28.93000 1.73900 23.31500
H  29.97000 1.07200 24.42900
H  32.10500 -1.82500 29.28500
H  31.92600 -0.62200 28.05000
H  31.37000 -2.18400 27.74400
H  29.55900 1.02100 33.03300
H  28.52200 -1.04600 36.37400
H  30.27100 -1.41900 36.56600
H  29.21700 -2.54200 35.83400
Mg -12.58400 38.16300 42.09700
C  -10.40700 35.64100 40.92900
C  -10.39200 40.56800 41.25400
C  -15.04800 40.48000 42.67900
C  -14.87400 35.50000 42.89100
N  -10.66000 38.13500 41.09200
C  -9.91700 36.98300 40.74300
C  -8.56600 37.37100 40.22700
C  -8.51700 38.93600 40.65000
C  -9.95300 39.23800 40.94800
C  -7.60200 39.25000 41.83100
C  -8.42300 37.10600 38.73500
C  -7.25300 36.18800 38.23200
H  -6.44200 36.75900 37.02800
N  -12.66300 40.28600 42.05100
C  -11.60400 41.03600 41.73900
C  -12.10700 42.43500 41.67700
C  -13.44600 42.45500 42.13800
C  -13.77700 41.01500 42.28800
C  -11.13300 43.60300 41.26000
C  -14.35500 43.72300 42.26300
O  -13.84700 44.82100 41.91100
C  -15.78400 43.73600 42.69500
N  -14.74800 37.99300 42.80400
C  -15.46800 39.16600 42.90000
C  -16.92000 38.80100 43.17400
C  -16.84200 37.21600 43.28500
C  -15.45400 36.80200 42.90300
C  -17.63500 39.50500 44.30500
C  -17.99500 36.58900 42.40900
C  -19.41400 36.64300 42.81600
N  -12.73800 36.05600 41.99200
C  -13.69000 35.14000 42.35400
C  -13.16600 33.80300 42.33100
C  -11.90100 33.92600 41.68000
C  -11.69200 35.33500 41.49900
C  -13.80300 32.58100 42.93600
C  -10.79500 33.21000 41.12900
O  -10.62400 32.00000 41.09300
C  -9.76600 34.27500 40.66100
C  -8.50500 34.08900 41.43000
O  -8.37600 34.28500 42.60000
O  -7.57700 33.52000 40.64800
C  -6.27700 33.30900 41.30300
H  -9.65600 41.37400 41.20200
H  -15.85400 41.20900 42.78800
H  -15.63200 34.74100 43.09700
H  -7.84600 36.88800 40.88800
H  -8.27400 39.67100 39.88200
H  -6.63400 38.78400 41.64400
H  -8.04700 38.69000 42.65300
H  -7.49100 40.29700 42.11200
H  -8.39500 38.12200 38.34200
H  -9.37600 36.65800 38.45200
H  -7.60800 35.22300 37.87100
H  -6.48800 35.91900 38.96100
H  -11.35600 44.50700 41.82700
H  -11.35400 43.84500 40.22000
H  -10.10100 43.27500 41.38600
H  -16.51400 43.20800 42.08200
H  -16.10700 44.77200 42.80400
H  -15.77300 43.25400 43.67200
H  -17.51000 39.11400 42.31200
H  -16.91000 36.88200 44.32000
H  -17.04800 40.40100 44.51100
H  -17.64500 38.84500 45.17200
H  -18.61900 39.83900 43.97600
H  -17.79700 35.52000 42.33200
H  -17.85100 36.96100 41.39500
H  -20.09600 36.56100 41.97000
H  -19.52600 37.45500 43.53500
H  -19.65200 35.74000 43.37800
H  -13.18300 31.69800 42.78100
H  -14.69600 32.32800 42.36400
H  -13.92400 32.75300 44.00500
H  -9.61200 34.07600 39.60100
H  -6.05100 34.21100 41.87100
H  -5.49200 33.10800 40.57400
H  -6.33600 32.45600 41.97900

