158

Mg 2.10500 -1.84600 44.69800
C  5.38100 -0.66600 44.38500
C  0.99000 0.92100 43.03000
C  -0.82300 -3.45600 44.16300
C  3.48200 -4.94400 45.79400
N  3.10500 -0.22500 43.72500
C  4.39400 0.15600 43.80000
C  4.54900 1.59900 43.31800
C  3.15900 2.12000 43.35100
C  2.37400 0.84500 43.31600
C  2.65400 2.91400 44.55800
C  5.35500 1.71400 41.96200
C  6.88800 2.06900 41.99100
H  7.82300 1.40500 41.08200
N  0.32200 -1.38000 43.69800
C  0.05300 -0.10600 43.11600
C  -1.23900 -0.11200 42.54700
C  -1.78700 -1.41200 42.87100
C  -0.74200 -2.15100 43.58500
C  -1.74600 1.09500 41.77600
C  -3.25200 -1.81000 42.59200
O  -3.98300 -1.14900 41.86300
C  -3.92000 -2.96400 43.27000
N  1.39300 -4.05800 44.72400
C  0.12300 -4.37400 44.65200
C  -0.09200 -5.87100 45.03200
C  1.32000 -6.36300 45.53100
C  2.11000 -5.01400 45.35300
C  -1.09500 -6.11300 46.14100
C  1.86600 -7.54100 44.73800
C  2.53700 -8.75600 45.41600
N  4.03500 -2.60400 45.26700
C  4.41800 -3.86000 45.65400
C  5.89500 -3.90300 45.86800
C  6.30700 -2.57800 45.46900
C  5.15100 -1.93500 44.98000
C  6.70500 -5.03700 46.21400
C  7.44400 -1.63800 45.28200
O  8.63800 -1.80100 45.48200
C  6.81300 -0.37400 44.72200
C  7.01000 0.74000 45.85300
O  6.15600 1.09800 46.66700
O  8.08500 1.40900 45.47500
C  8.16200 2.78500 46.05500
H  0.60900 1.86400 42.63300
H  -1.76100 -3.99700 44.02100
H  3.86900 -5.92000 46.09700
H  5.11500 2.05600 44.13000
H  3.05000 2.65100 42.40500
H  1.79400 3.51700 44.26600
H  3.43300 3.56400 44.95500
H  2.33400 2.23600 45.34900
H  4.88600 2.57300 41.48200
H  5.21500 0.74700 41.47700
H  7.30100 1.96400 42.99400
H  7.02600 3.12400 41.75200
H  -1.35400 1.01300 40.76200
H  -1.50400 2.03400 42.27400
H  -2.83200 1.07900 41.68700
H  -3.62100 -3.87000 42.74200
H  -5.00500 -2.87300 43.22700
H  -3.61100 -2.93400 44.31500
H  -0.39600 -6.39500 44.12600
H  1.29100 -6.59600 46.59500
H  -0.74800 -6.93700 46.76300
H  -2.02500 -6.47000 45.69900
H  -1.22600 -5.15600 46.64600
H  2.61100 -7.17200 44.03300
H  1.06000 -7.92700 44.11400
H  2.08400 -8.83000 46.40400
H  3.62700 -8.73300 45.43800
H  2.25600 -9.66400 44.88100
H  6.57900 -5.72100 45.37400
H  6.25500 -5.35200 47.15500
H  7.77600 -4.85600 46.30700
H  7.36000 0.02600 43.86700
H  9.20800 3.01700 45.85400
H  7.82000 3.00900 47.06600
H  7.53000 3.32800 45.35300
Mg 16.47000 -2.02300 27.93100
C  15.43600 0.17300 30.56900
C  18.59300 -3.55500 30.14900
C  17.92700 -3.43500 25.23800
C  14.90600 0.37100 25.79600
N  16.97100 -1.62600 30.05800
C  16.35800 -0.78100 30.95100
C  16.91800 -0.93300 32.38700
C  18.10200 -1.98100 32.15000
C  17.87800 -2.49000 30.70800
C  19.61600 -1.64300 32.41900
C  15.80700 -1.36800 33.33600
C  15.89800 -0.84600 34.77000
H  17.12800 -0.04500 35.15100
N  17.95400 -3.41700 27.71500
C  18.58500 -4.03500 28.74900
C  19.22700 -5.25000 28.17200
C  19.21800 -5.15200 26.76500
C  18.37200 -3.96400 26.45700
C  19.89100 -6.34700 29.01400
C  19.76600 -6.09500 25.66100
O  19.56300 -5.85200 24.52000
C  20.55800 -7.30700 26.04100
N  16.31900 -1.66400 25.87500
C  17.03800 -2.32400 24.90000
C  16.79800 -1.78300 23.47100
C  15.64900 -0.73800 23.65800
C  15.67800 -0.63900 25.25900
C  18.07800 -1.23500 22.68300
C  14.25700 -1.14300 23.02900
C  14.13500 -0.88500 21.50900
N  15.18900 -0.23400 28.06800
C  14.59400 0.58900 27.11300
C  13.74700 1.58100 27.75900
C  14.08100 1.38900 29.09300
C  14.97700 0.34100 29.22500
C  12.97900 2.63500 27.12000
C  13.90200 2.03600 30.32700
O  13.28300 3.04200 30.58900
C  14.67700 1.08400 31.41900
C  15.34900 2.00800 32.32100
O  16.36600 2.64000 32.15100
O  14.46200 2.29200 33.38500
C  14.69200 3.50200 34.09300
H  19.17600 -4.14300 30.86100
H  18.20500 -3.97300 24.32900
H  14.48000 1.10200 25.10500
H  17.28800 0.08800 32.48200
H  17.88300 -2.84600 32.77700
H  20.23800 -1.86300 31.55100
H  19.95000 -2.26300 33.25000
H  19.51100 -0.62600 32.79600
H  15.76000 -2.45400 33.42400
H  14.86300 -1.07100 32.87800
H  15.80500 -1.73300 35.39600
H  14.94300 -0.38900 35.02800
H  19.45900 -7.29600 28.69600
H  19.62300 -6.14100 30.05000
H  20.97900 -6.36900 28.94700
H  21.47700 -7.01100 26.54600
H  20.82600 -7.87000 25.14700
H  20.11700 -7.98000 26.77600
H  16.48600 -2.59300 22.81200
H  15.97000 0.23000 23.27500
H  19.03100 -1.39000 23.18900
H  17.97500 -0.16100 22.53000
H  18.12400 -1.57100 21.64700
H  13.42200 -0.70000 23.57100
H  14.11600 -2.21900 23.13200
H  13.30500 -0.21800 21.28000
H  13.84200 -1.87100 21.14700
H  15.03000 -0.49800 21.02200
H  13.45600 3.03800 26.22600
H  13.08800 3.45800 27.82500
H  11.91600 2.43600 26.98700
H  13.92600 0.62100 32.05900
H  15.50200 3.40500 34.81600
H  13.87600 3.83900 34.73100
H  14.91100 4.34000 33.43100

