158

Mg 30.93200 59.94700 40.57500
C  27.92700 58.46300 39.22200
C  32.65500 57.29700 39.06700
C  33.73500 61.51600 41.08800
C  29.01600 62.80200 41.37400
N  30.32500 58.12300 39.22900
C  29.08600 57.65300 38.91600
C  29.12200 56.38800 38.00800
C  30.64900 56.02100 38.15600
C  31.30600 57.21600 38.90700
C  31.06500 54.66000 38.79500
C  28.61200 56.70600 36.55200
C  27.62000 55.73800 35.91200
H  26.62200 56.28900 34.85000
N  32.87200 59.45800 40.31600
C  33.40100 58.32400 39.74100
C  34.83300 58.30100 39.82600
C  35.26000 59.49200 40.45800
C  33.91500 60.18100 40.65300
C  35.61800 57.25000 39.07500
C  36.76500 59.99900 40.81400
O  37.78100 59.37500 40.52800
C  36.98800 61.24300 41.64700
N  31.24500 61.86900 41.19400
C  32.59800 62.26800 41.29400
C  32.58500 63.80700 41.55600
C  31.10700 64.12500 41.90400
C  30.40100 62.87900 41.41800
C  33.71800 64.22000 42.60300
C  30.59200 65.49300 41.24200
C  29.73200 66.35900 42.16900
N  28.84900 60.57300 40.28600
C  28.23300 61.72600 40.77100
C  26.73500 61.60300 40.55800
C  26.65200 60.36200 39.88500
C  27.91200 59.74600 39.80300
C  25.71900 62.66400 40.74900
C  25.70400 59.46500 39.15700
O  24.55500 59.70000 38.77900
C  26.51500 58.18900 38.85400
C  25.92800 57.06500 39.57200
O  26.28900 56.64900 40.64200
O  24.92100 56.51400 38.82100
C  24.34500 55.23300 39.23200
H  33.27500 56.54800 38.56900
H  34.62600 62.14200 41.01100
H  28.52200 63.75500 41.57400
H  28.60200 55.58200 38.52500
H  31.05800 56.01600 37.14600
H  31.58700 54.08400 38.03100
H  30.26600 53.98800 39.11000
H  31.74800 54.70700 39.64400
H  29.45100 56.65700 35.85700
H  28.27100 57.73700 36.46200
H  27.06500 55.18700 36.67100
H  28.26100 54.97300 35.47300
H  35.53200 57.38500 37.99700
H  35.17500 56.28400 39.31700
H  36.66600 57.12700 39.35000
H  37.79900 61.18100 42.37200
H  36.10200 61.38700 42.26500
H  37.03900 62.11700 40.99800
H  32.89700 64.11900 40.55900
H  31.03100 64.23600 42.98500
H  34.12100 63.34400 43.11100
H  33.27400 64.84500 43.37900
H  34.54400 64.78900 42.17800
H  30.13900 65.25900 40.27800
H  31.44400 66.15400 41.08600
H  30.18700 67.32700 42.37600
H  29.44200 66.01600 43.16200
H  28.81600 66.62000 41.63800
H  25.94800 63.28700 41.61400
H  24.75500 62.19300 40.94400
H  25.79200 63.26400 39.84200
H  26.37100 58.01000 37.78900
H  23.32000 55.28400 39.60100
H  24.91100 54.67800 39.97900
H  24.36100 54.60300 38.34300
Mg -8.63800 40.59300 42.52300
C  -7.65700 37.20000 41.82300
C  -5.83300 41.60900 40.66500
C  -9.85100 43.75500 42.70800
C  -11.77600 39.34900 43.53800
N  -7.03200 39.49400 41.40100
C  -6.73100 38.12800 41.32500
C  -5.36000 37.86800 40.67000
C  -4.73400 39.29400 40.60200
C  -5.91400 40.21200 40.89500
C  -3.59100 39.48700 41.58200
C  -5.45200 37.21700 39.29700
C  -4.69700 35.89000 38.93900
H  -4.05800 35.95500 37.56900
N  -7.92100 42.51400 41.83400
C  -6.74600 42.68200 41.14000
C  -6.53100 44.14800 41.11600
C  -7.64100 44.74400 41.76000
C  -8.51800 43.72000 42.07500
C  -5.31500 44.75300 40.50000
C  -7.76000 46.28700 41.95900
O  -6.93100 47.01800 41.48800
C  -8.89000 46.90500 42.77700
N  -10.54300 41.46100 43.09900
C  -10.76400 42.80100 43.13800
C  -12.22500 43.10100 43.50800
C  -12.81000 41.71400 43.77500
C  -11.65500 40.76800 43.41400
C  -12.37900 44.13000 44.67600
C  -14.08900 41.36300 42.85800
C  -15.24400 40.64600 43.65700
N  -9.50200 38.72700 42.88100
C  -10.78900 38.34900 43.21100
C  -10.82900 36.95200 43.28600
C  -9.64400 36.46000 42.71500
C  -8.82100 37.56900 42.51600
C  -11.93900 36.14700 43.82400
C  -8.98800 35.22300 42.46000
O  -9.38600 34.10200 42.67400
C  -7.64300 35.69300 41.77700
C  -6.43400 35.19800 42.47300
O  -6.05300 35.51000 43.60200
O  -5.80400 34.23000 41.68600
C  -4.55100 33.59700 42.20800
H  -4.93200 41.84300 40.09400
H  -10.19300 44.78000 42.86700
H  -12.75800 38.96300 43.81800
H  -4.91900 37.19300 41.40400
H  -4.25300 39.60200 39.67400
H  -3.69300 40.34000 42.25300
H  -2.72500 39.82700 41.01300
H  -3.22000 38.56600 42.03100
H  -5.21600 38.03700 38.61900
H  -6.49900 36.92900 39.19400
H  -5.50000 35.15700 39.02400
H  -3.90100 35.69700 39.65800
H  -5.52100 45.08800 39.48300
H  -4.55700 43.97200 40.45300
H  -4.97400 45.58800 41.11200
H  -8.89500 47.98600 42.92100
H  -8.90200 46.38800 43.73700
H  -9.81600 46.55700 42.32000
H  -12.81800 43.54000 42.70500
H  -12.98200 41.58800 44.84400
H  -12.89000 45.00700 44.27900
H  -11.40100 44.52600 44.94700
H  -13.05200 43.64000 45.38000
H  -13.88000 40.66300 42.04900
H  -14.48500 42.29100 42.44500
H  -15.41800 39.61800 43.33900
H  -16.20300 41.16200 43.62400
H  -14.82500 40.63600 44.66300
H  -11.54800 35.21400 44.22800
H  -12.67000 35.94300 43.04200
H  -12.61300 36.65500 44.51500
H  -7.60500 35.35600 40.74100
H  -4.00600 33.13200 41.38600
H  -4.90300 32.94400 43.00700
H  -3.91500 34.35200 42.67000

