158

Mg 35.58800 2.15800 29.90600
C  33.25300 3.08100 32.29700
C  37.95700 2.03600 32.41700
C  37.98000 1.43100 27.57300
C  33.25000 2.62400 27.43900
N  35.63000 2.67800 32.01600
C  34.48800 2.84700 32.86000
C  34.86900 2.69400 34.36500
C  36.42100 2.63700 34.33700
C  36.71000 2.43200 32.83000
C  37.18500 3.80900 34.97800
C  34.16500 1.44500 35.06500
C  33.63900 1.71700 36.46000
H  34.31900 2.73300 37.34000
N  37.71800 1.76300 29.98900
C  38.47800 1.79400 31.06500
C  39.88000 1.42700 30.70800
C  39.87700 1.19600 29.30500
C  38.46200 1.45500 28.87200
C  40.97800 1.49100 31.73400
C  41.14300 0.92000 28.34900
O  41.05500 0.69700 27.13900
C  42.48200 0.80300 28.94000
N  35.63100 2.08000 27.83100
C  36.76000 1.77600 27.04400
C  36.36600 1.80600 25.57300
C  34.88200 2.11200 25.57100
C  34.50800 2.22600 27.03800
C  37.22100 2.75300 24.79800
C  33.96100 1.04100 24.85300
C  33.35200 -0.22200 25.61700
N  33.60000 2.67700 29.86100
C  32.78300 2.78000 28.78500
C  31.51400 3.13200 29.27300
C  31.60600 3.24600 30.67700
C  32.91700 3.00200 30.93000
C  30.37900 3.65000 28.49000
C  30.93800 3.64000 31.81800
O  29.76500 3.91500 32.04600
C  32.00000 3.43800 32.97300
C  32.15300 4.78300 33.68900
O  32.39800 5.82700 33.18400
O  31.95900 4.70500 35.02100
C  32.19000 6.01500 35.71500
H  38.79100 2.03900 33.12200
H  38.74400 1.17300 26.83700
H  32.46000 2.81300 26.70900
H  34.53100 3.57700 34.90700
H  36.78300 1.74300 34.84500
H  37.94700 3.51100 35.69800
H  36.51900 4.40200 35.60500
H  37.60400 4.43600 34.19000
H  34.81200 0.57600 35.18400
H  33.33700 1.07800 34.45800
H  33.60300 0.80800 37.06000
H  32.61500 2.04900 36.29300
H  41.74300 0.71600 31.67600
H  40.62400 1.48400 32.76500
H  41.44200 2.47400 31.65400
H  42.58400 1.80200 29.36400
H  43.22400 0.66400 28.15400
H  42.57000 -0.01700 29.65400
H  36.69600 0.85100 25.16400
H  34.61400 3.07100 25.12800
H  36.73400 3.26800 23.97000
H  38.10200 2.21500 24.44700
H  37.57900 3.53500 25.46700
H  34.40800 0.80600 23.88700
H  33.02500 1.55800 24.64400
H  33.87000 -0.30900 26.57200
H  33.56900 -1.15600 25.09700
H  32.26500 -0.15800 25.65400
H  30.54000 3.68000 27.41200
H  30.17500 4.69000 28.74300
H  29.46800 3.05600 28.56500
H  31.60600 2.77100 33.73900
H  31.38600 6.74900 35.75900
H  33.07900 6.54900 35.38000
H  32.39700 5.85000 36.77200
Mg 48.57600 45.23800 43.35600
C  45.39400 45.60200 41.81000
C  49.13000 42.61800 41.11900
C  51.94600 45.32000 43.90200
C  48.16100 48.47300 44.61700
N  47.39700 44.33300 41.63500
C  46.14800 44.60000 41.20200
C  45.69500 43.65700 40.12300
C  46.74200 42.51800 40.14500
C  47.88700 43.18400 41.02600
C  46.31500 41.15600 40.65900
C  45.47500 44.28400 38.65200
C  44.10100 43.90700 37.98900
H  44.24300 43.18000 36.65900
N  50.23100 43.95200 42.83300
C  50.20700 42.98300 41.94300
C  51.50200 42.28200 41.95200
C  52.36300 43.04100 42.80300
C  51.51700 44.15400 43.27900
C  51.78100 41.06000 41.16100
C  53.84500 42.73000 43.06700
O  54.36600 41.77100 42.52700
C  54.71100 43.63100 43.99100
N  49.87000 46.63500 44.16700
C  51.22200 46.43700 44.40000
C  51.83100 47.58300 45.07100
C  50.59300 48.59100 45.37500
C  49.49400 47.87400 44.63100
C  52.75700 47.37400 46.26000
C  50.84100 50.09400 45.10900
C  51.98700 50.68900 45.85800
N  47.03200 46.67700 43.46600
C  47.00300 47.92600 44.01000
C  45.62800 48.41000 44.04000
C  44.94900 47.51600 43.16300
C  45.84300 46.47400 42.84500
C  45.18300 49.61700 44.82500
C  43.72300 47.23200 42.60100
O  42.68500 47.84200 42.65300
C  43.93100 46.01400 41.67200
C  42.90400 45.03100 42.06800
O  41.77900 44.86700 41.50600
O  43.23600 44.49700 43.34800
C  42.19800 43.85700 44.17500
H  49.18800 41.77500 40.42700
H  52.99800 45.30800 44.19200
H  47.99000 49.49800 44.95400
H  44.74500 43.31400 40.53300
H  47.09600 42.39900 39.12100
H  46.32400 40.38300 39.89100
H  45.25300 41.20200 40.90000
H  46.82200 40.75900 41.53900
H  46.30800 44.26200 37.94900
H  45.42200 45.36000 38.82000
H  43.56800 44.82200 37.73100
H  43.45200 43.28300 38.60400
H  50.94000 40.54400 40.69700
H  52.24200 40.34300 41.83900
H  52.55300 41.35600 40.45100
H  54.25000 43.74000 44.97300
H  54.86800 44.60300 43.52400
H  55.64600 43.08200 44.10400
H  52.42500 47.98400 44.25000
H  50.35300 48.48400 46.43200
H  53.49200 48.17800 46.28900
H  53.48500 46.56400 46.21200
H  52.27700 47.42200 47.23700
H  49.99700 50.75600 45.30400
H  51.02500 50.23100 44.04300
H  51.72200 51.71100 46.12900
H  52.89000 50.92400 45.29400
H  52.32100 50.03600 46.66400
H  45.93500 49.86600 45.57400
H  44.22200 49.37100 45.27500
H  45.09200 50.50900 44.20500
H  43.67900 46.33800 40.66200
H  42.51200 42.83700 44.39500
H  41.20200 43.82200 43.73500
H  42.11100 44.43400 45.09600

