158

Mg 16.38500 51.79100 26.15600
C  17.92800 49.99000 28.74500
C  14.02000 52.93100 28.36800
C  14.77200 53.08600 23.51500
C  18.63600 50.18900 23.94900
N  16.10300 51.63400 28.35300
C  16.91500 50.89300 29.20400
C  16.62700 51.26100 30.69500
C  15.24700 52.00100 30.51800
C  15.05900 52.14500 29.02400
C  14.10300 51.26200 31.21200
C  17.78900 52.19800 31.28700
C  17.90600 52.43500 32.78800
H  16.97900 51.63400 33.76600
N  14.58400 52.83300 25.96200
C  13.80100 53.27200 27.00700
C  12.80300 54.16500 26.45900
C  12.92500 54.02700 25.01000
C  14.14700 53.33700 24.76600
C  11.77300 54.88400 27.36600
C  12.03500 54.62100 23.97100
O  12.28000 54.54500 22.78300
C  10.83500 55.37800 24.38800
N  16.45800 51.37800 23.81800
C  15.84600 52.28600 23.09700
C  16.70700 52.59700 21.82700
C  17.93600 51.60500 21.94800
C  17.66400 51.01400 23.29200
C  16.04700 52.47200 20.46200
C  19.31800 52.40300 21.84900
C  20.44100 51.74000 20.95500
N  17.86500 50.30700 26.24500
C  18.71000 49.74100 25.28800
C  19.69400 48.83200 25.82600
C  19.39300 48.88200 27.22900
C  18.31400 49.74300 27.38400
C  20.80600 48.16800 25.08000
C  19.82500 48.51000 28.55500
O  20.88400 48.03900 28.93000
C  18.82700 49.16800 29.60400
C  18.19300 48.08800 30.41100
O  17.55500 47.16700 29.94500
O  18.70400 48.13100 31.75100
C  18.41000 46.95500 32.59400
H  13.45600 53.37900 29.18900
H  14.51900 53.86200 22.79000
H  19.45300 49.92800 23.27400
H  16.50400 50.32000 31.23100
H  15.21800 52.98700 30.98200
H  14.39200 50.32200 31.68100
H  13.42900 50.92700 30.42300
H  13.64400 51.93400 31.93700
H  17.54900 53.22800 31.02200
H  18.78100 51.93200 30.92100
H  17.85600 53.50000 33.01500
H  18.89100 52.09400 33.10500
H  10.73800 54.76500 27.04700
H  12.07400 55.92600 27.47900
H  11.78900 54.50700 28.38800
H  10.21500 54.74600 25.02400
H  10.29100 55.75400 23.52100
H  11.24200 56.26800 24.86800
H  17.05000 53.62700 21.92800
H  17.82900 50.79700 21.22500
H  15.00600 52.15200 20.50100
H  16.47700 51.79900 19.71900
H  16.05800 53.47500 20.03700
H  19.70000 52.48300 22.86700
H  19.23400 53.46400 21.61400
H  20.89600 52.43400 20.24900
H  20.16100 50.86400 20.36900
H  21.13500 51.26800 21.65000
H  21.36600 48.81900 24.40800
H  20.47300 47.26600 24.56800
H  21.53400 47.91600 25.85100
H  19.52000 49.72400 30.23600
H  17.34200 46.73800 32.56700
H  18.90600 47.02100 33.56200
H  18.96200 46.13700 32.13300
Mg 9.38900 48.18700 26.05600
C  7.03600 48.59100 28.70400
C  11.71300 49.44600 28.00200
C  11.36600 47.83700 23.41600
C  6.51000 48.06600 23.84100
N  9.39400 48.88700 28.17100
C  8.37700 48.78100 29.08900
C  8.95500 49.04500 30.49200
C  10.34400 49.71700 30.16500
C  10.51100 49.46000 28.65800
C  10.41100 51.30200 30.41400
C  8.95200 47.85400 31.49900
C  8.79700 48.27800 32.98500
H  8.64600 47.09200 33.95000
N  11.30700 48.50400 25.73600
C  12.12200 48.97400 26.70400
C  13.46000 48.88000 26.14400
C  13.37300 48.32600 24.83000
C  11.99900 48.15700 24.65600
C  14.64800 49.28700 26.92600
C  14.46300 47.77800 23.94000
O  14.26600 47.15200 22.88900
C  15.90800 47.87500 24.34600
N  9.02200 47.98600 23.87800
C  9.98200 47.79500 23.07400
C  9.44700 47.48100 21.62400
C  7.96000 47.89600 21.76000
C  7.79500 47.99700 23.28200
C  10.23400 48.13700 20.41400
C  6.93100 46.84100 21.14500
C  5.76700 47.52300 20.41400
N  7.28400 48.29500 26.19700
C  6.25300 48.20300 25.19800
C  4.94900 48.36200 25.84600
C  5.28500 48.46700 27.17400
C  6.65400 48.42600 27.33900
C  3.64400 48.34500 25.19900
C  4.63800 48.64000 28.48900
O  3.46700 48.68200 28.69000
C  5.79400 48.76100 29.50400
C  5.53600 47.64900 30.46100
O  5.92200 46.52000 30.20500
O  4.80800 47.99200 31.53800
C  4.58900 47.03100 32.65600
H  12.54000 49.80100 28.61900
H  11.90300 47.77600 22.46800
H  5.64200 48.06700 23.17800
H  8.43400 49.88900 30.94400
H  11.23800 49.36500 30.67900
H  9.40500 51.72100 30.39500
H  10.99200 51.69500 29.58000
H  11.02300 51.56200 31.27700
H  9.86100 47.26100 31.39800
H  8.14800 47.17700 31.20900
H  7.87100 48.85200 33.00500
H  9.64900 48.87300 33.31400
H  14.48200 49.67600 27.93100
H  15.11200 50.00700 26.25100
H  15.23500 48.37600 27.04600
H  16.21300 47.10400 25.05300
H  16.01000 48.83700 24.84800
H  16.46900 47.99600 23.41900
H  9.43800 46.39200 21.56500
H  7.85600 48.92300 21.40900
H  10.91100 48.87000 20.85300
H  9.71500 48.55600 19.55300
H  10.79300 47.43800 19.79200
H  6.53700 46.15300 21.89300
H  7.54400 46.33100 20.40200
H  5.71000 47.35800 19.33900
H  5.79300 48.60700 20.52800
H  4.91700 47.01100 20.86700
H  3.57800 49.18100 24.50200
H  2.92200 48.68300 25.94100
H  3.30700 47.38400 24.81200
H  5.79800 49.74000 29.98200
H  3.65200 47.36300 33.10400
H  5.26300 47.20000 33.49600
H  4.71000 45.98200 32.38400

