158

Mg 17.11800 -1.52100 27.75000
C  16.21200 0.90900 30.15400
C  18.73200 -3.21000 30.27100
C  18.71800 -3.38200 25.39000
C  15.91000 0.56800 25.33000
N  17.38000 -1.11900 29.96400
C  16.75600 -0.20200 30.71600
C  17.09700 -0.40100 32.18700
C  18.25700 -1.43300 32.10500
C  18.11700 -2.00300 30.68000
C  19.68100 -0.91800 32.50200
C  15.85200 -0.90300 33.00900
C  15.86100 -0.63100 34.53200
H  17.03700 0.23800 35.11200
N  18.35800 -3.13100 27.81600
C  18.86700 -3.72100 28.94300
C  19.61400 -4.90700 28.57600
C  19.80000 -4.88400 27.21600
C  18.91200 -3.84000 26.71400
C  20.17700 -5.89600 29.58000
C  20.63200 -5.77500 26.34700
O  20.67100 -5.75700 25.12900
C  21.40400 -6.94200 26.97300
N  17.40800 -1.29500 25.68400
C  18.00500 -2.29500 24.87700
C  17.85600 -1.97100 23.38400
C  16.95500 -0.66300 23.32600
C  16.74200 -0.44300 24.83500
C  19.23800 -1.74200 22.74000
C  15.55700 -0.78500 22.60100
C  15.42100 0.29400 21.56600
N  16.17000 0.35600 27.68000
C  15.53200 0.96200 26.65400
C  14.76100 2.09400 27.02100
C  15.14500 2.16600 28.40800
C  15.96500 1.08500 28.75300
C  13.94500 3.01200 26.16000
C  14.90500 2.92000 29.63200
O  14.24000 3.96100 29.80700
C  15.56500 2.09700 30.81500
C  16.52300 2.91900 31.65700
O  17.59100 3.31600 31.23200
O  15.98500 3.24400 32.90800
C  16.62700 4.32600 33.69900
H  19.26200 -3.69200 31.09500
H  19.05600 -3.94000 24.51400
H  15.42200 1.18200 24.57100
H  17.54700 0.50100 32.60100
H  17.93100 -2.20700 32.80000
H  20.06600 -1.35800 33.42200
H  19.69100 0.16200 32.64700
H  20.36000 -1.20000 31.69600
H  15.66100 -1.94900 32.76900
H  15.01100 -0.33900 32.60500
H  15.98600 -1.59700 35.02000
H  14.93400 -0.15600 34.85600
H  19.89000 -5.60900 30.59200
H  21.25300 -6.00800 29.45300
H  19.67100 -6.85300 29.45300
H  22.12300 -6.49600 27.66000
H  22.15700 -7.38900 26.32400
H  20.77900 -7.69100 27.46200
H  17.47200 -2.87300 22.90800
H  17.68400 0.08400 23.01100
H  19.68300 -0.76100 22.90600
H  19.05800 -1.87100 21.67200
H  20.00100 -2.48200 22.98400
H  14.69700 -0.70300 23.26600
H  15.42600 -1.78900 22.19500
H  14.63900 0.99600 21.85400
H  15.16500 -0.25400 20.65900
H  16.25500 0.93400 21.27600
H  12.90200 2.69700 26.13400
H  14.24100 2.93400 25.11400
H  14.12900 4.06000 26.39800
H  14.74600 1.75200 31.44700
H  17.64900 3.99900 33.89100
H  16.34200 4.40100 34.74900
H  16.61700 5.31300 33.23600
Mg -5.52700 24.83900 25.53400
C  -3.90000 26.20400 28.39100
C  -7.25700 22.68900 27.81300
C  -6.98600 23.48000 22.85800
C  -3.44000 26.80000 23.49400
N  -5.41900 24.34000 27.76900
C  -4.84700 25.21000 28.66300
C  -5.22700 24.79800 30.10300
C  -5.99700 23.41500 29.93100
C  -6.25800 23.47300 28.41500
C  -5.24600 22.05200 30.36600
C  -6.17900 25.91900 30.68400
C  -6.20000 26.14100 32.19100
H  -5.38900 25.11700 33.00000
N  -7.02400 23.37400 25.41700
C  -7.70800 22.71400 26.41600
C  -8.83900 21.93600 25.76600
C  -8.72900 22.18600 24.39100
C  -7.61000 23.03900 24.15400
C  -9.83400 21.15300 26.59300
C  -9.75200 21.57300 23.29100
O  -9.56100 21.83100 22.11200
C  -10.92000 20.76800 23.62200
N  -5.32500 25.06400 23.51000
C  -5.93200 24.27900 22.53600
C  -5.28000 24.39200 21.19200
C  -4.22200 25.54800 21.36700
C  -4.30800 25.85700 22.91300
C  -4.87700 23.03700 20.56500
C  -4.45700 26.80000 20.43200
C  -3.99800 26.62100 19.00200
N  -3.95000 26.19600 25.76300
C  -3.23700 26.96200 24.87200
C  -2.36900 27.88000 25.62400
C  -2.64500 27.63300 27.00100
C  -3.56700 26.63400 27.05800
C  -1.39300 28.90400 24.98700
C  -2.26300 28.10300 28.29300
O  -1.44400 28.99500 28.65500
C  -3.04200 27.09800 29.32800
C  -2.08300 26.36600 30.17800
O  -1.43400 25.41700 29.83800
O  -1.99800 26.89600 31.44100
C  -1.23900 26.10800 32.33700
H  -7.96600 22.14700 28.44200
H  -7.47900 23.09200 21.96400
H  -2.76100 27.35900 22.84700
H  -4.34900 24.54000 30.69500
H  -6.96700 23.42300 30.42900
H  -6.01600 21.39200 30.76400
H  -4.48000 22.25400 31.11400
H  -4.75500 21.57600 29.51600
H  -7.22600 25.74000 30.44000
H  -5.83400 26.89100 30.33200
H  -7.18000 26.22800 32.66000
H  -5.67900 27.08200 32.37300
H  -10.84100 21.10600 26.17800
H  -9.88100 21.72600 27.51900
H  -9.46300 20.15400 26.82300
H  -11.54000 20.54800 22.75300
H  -11.59900 21.39300 24.20100
H  -10.59600 19.84400 24.10200
H  -6.09300 24.72300 20.54700
H  -3.22200 25.17900 21.13600
H  -5.58400 22.26200 20.86300
H  -3.85500 22.73400 20.78900
H  -4.91700 23.03700 19.47600
H  -3.83200 27.58200 20.86300
H  -5.50500 27.09900 20.45600
H  -3.05300 27.16400 18.98300
H  -4.59100 27.10600 18.22700
H  -3.82500 25.56700 18.78500
H  -1.96800 29.46800 24.25300
H  -0.45000 28.59800 24.53300
H  -1.08700 29.67500 25.69500
H  -3.67600 27.68400 29.99300
H  -0.19300 26.03100 32.04100
H  -1.68800 25.12200 32.21600
H  -1.38600 26.21400 33.41200

