158

Mg 24.63400 -5.23900 45.99400
C  26.61200 -3.02600 43.99900
C  22.06000 -4.67300 43.56900
C  23.04100 -7.87000 47.07900
C  27.57000 -6.30100 47.60800
N  24.41700 -4.03000 44.06300
C  25.31300 -3.12300 43.61100
C  24.74500 -2.39400 42.35700
C  23.22600 -2.73000 42.42600
C  23.22900 -3.91500 43.35800
C  22.16100 -1.66200 42.88400
C  25.40400 -2.81600 40.96300
C  25.63800 -1.60100 40.04000
H  25.77000 -1.92700 38.53400
N  22.73700 -6.08000 45.54100
C  21.75900 -5.57100 44.58200
C  20.55900 -6.35200 44.72800
C  20.81300 -7.27900 45.80800
C  22.26000 -7.14500 46.19200
C  19.38800 -6.14500 43.85700
C  19.85600 -8.31800 46.39100
O  18.70000 -8.24700 46.06400
C  20.16000 -9.33800 47.47100
N  25.26100 -6.90500 47.15600
C  24.37300 -7.84200 47.50200
C  25.05800 -8.95700 48.24500
C  26.32400 -8.22800 48.84600
C  26.44700 -7.07800 47.79500
C  24.19100 -9.59200 49.31000
C  27.60900 -9.06700 49.10700
C  28.26500 -9.08700 50.51700
N  26.57700 -4.69200 45.97900
C  27.67700 -5.20100 46.74000
C  28.83400 -4.48900 46.35100
C  28.47300 -3.58000 45.36100
C  27.08600 -3.79000 45.12400
C  30.13500 -4.79400 46.90700
C  28.95400 -2.50800 44.47400
O  30.07500 -2.00800 44.37900
C  27.71900 -2.11600 43.60000
C  27.33400 -0.69900 43.88100
O  26.65800 -0.37700 44.87200
O  27.83200 0.14600 42.97300
C  27.24700 1.42300 43.03500
H  21.26800 -4.42200 42.86000
H  22.64400 -8.79700 47.49700
H  28.54000 -6.46800 48.08100
H  24.82900 -1.32800 42.56700
H  22.88900 -3.09600 41.45700
H  21.82500 -1.16400 41.97400
H  22.74400 -0.99000 43.51300
H  21.43100 -2.16600 43.51700
H  24.82000 -3.64400 40.56400
H  26.38000 -3.24700 41.18700
H  26.54200 -1.10500 40.39400
H  24.80500 -0.91000 40.17100
H  18.54600 -6.77800 44.13200
H  19.67200 -6.42200 42.84100
H  18.99800 -5.12900 43.92500
H  19.26000 -9.93500 47.61700
H  20.51800 -8.87000 48.38800
H  20.95000 -9.99500 47.10800
H  25.44500 -9.67800 47.52600
H  26.03000 -7.76600 49.78800
H  23.91700 -10.53500 48.83500
H  23.36300 -8.93300 49.57000
H  24.72800 -9.74800 50.24600
H  28.39600 -8.79500 48.40400
H  27.27600 -10.07300 48.85100
H  29.25200 -9.54700 50.49600
H  27.60700 -9.59100 51.22400
H  28.44600 -8.06100 50.83900
H  30.15100 -4.47200 47.94800
H  30.81400 -4.25400 46.24800
H  30.39000 -5.85300 46.93400
H  27.96300 -2.19700 42.54100
H  26.16800 1.42000 42.88600
H  27.64200 2.00400 42.20100
H  27.47200 1.89900 43.99000
Mg 27.03300 49.90100 26.79500
C  24.96900 50.97500 29.49300
C  29.56400 49.42700 29.09700
C  29.11300 49.37200 24.25200
C  24.52800 51.17500 24.62200
N  27.22300 50.19300 28.99800
C  26.23700 50.48500 29.82800
C  26.72000 50.37400 31.25800
C  28.21100 49.95200 31.20100
C  28.38300 49.82700 29.64600
C  29.26800 50.81800 31.96200
C  25.77500 49.49800 32.17000
C  25.28500 50.05200 33.51600
H  26.20000 49.91200 34.77000
N  28.99600 49.29600 26.68600
C  29.81800 49.08100 27.74300
C  31.05300 48.51700 27.24700
C  30.99700 48.53500 25.81000
C  29.65500 49.08100 25.50800
C  32.07700 47.84600 28.21000
C  32.05600 48.16600 24.78900
O  31.97500 48.16800 23.56000
C  33.36000 47.74600 25.27300
N  26.87500 50.33200 24.82300
C  27.89200 49.91200 23.94300
C  27.45000 50.21400 22.54000
C  25.94600 50.46300 22.65500
C  25.73000 50.74400 24.10900
C  28.26300 51.44000 22.04700
C  24.97700 49.42600 22.10400
C  25.32900 47.95200 22.44300
N  25.11000 50.81700 26.96300
C  24.26600 51.33600 26.01600
C  23.12200 51.94700 26.61500
C  23.31600 51.83100 27.97300
C  24.56300 51.22100 28.17100
C  21.94000 52.51500 25.96300
C  22.71600 52.15700 29.23900
O  21.64900 52.65100 29.56000
C  23.81900 51.69900 30.26300
C  24.31800 52.87300 31.03700
O  25.11900 53.77500 30.67600
O  23.57000 52.96300 32.17900
C  24.04000 53.96300 33.17000
H  30.44000 49.23100 29.71800
H  29.70100 48.93200 23.44400
H  23.72000 51.48800 23.95700
H  26.70100 51.41100 31.59500
H  28.38600 48.92400 31.51600
H  29.73800 51.41200 31.17800
H  29.91900 50.12600 32.49600
H  28.77100 51.41200 32.72900
H  26.21900 48.51200 32.30600
H  24.85400 49.40800 31.59400
H  24.29900 49.64300 33.73700
H  25.07600 51.11700 33.41100
H  32.34000 46.86000 27.82700
H  31.72400 47.91500 29.23900
H  33.00700 48.35200 27.94900
H  33.76000 48.58100 25.84900
H  34.02900 47.44200 24.46800
H  33.39400 46.80200 25.81600
H  27.82700 49.53600 21.77500
H  25.68400 51.38400 22.13400
H  29.09400 51.73000 22.69000
H  27.64200 52.33500 22.07100
H  28.78800 51.33400 21.09700
H  24.99800 49.59500 21.02800
H  23.98000 49.49700 22.53800
H  26.07100 47.75300 23.21600
H  25.74100 47.53500 21.52400
H  24.44800 47.36400 22.70000
H  21.87500 52.09500 24.96000
H  22.15600 53.58200 26.02100
H  21.04100 52.35900 26.55900
H  23.38700 50.99700 30.97500
H  24.98600 53.62400 33.59200
H  23.31400 53.86800 33.97700
H  24.02200 54.98800 32.80000

