158

Mg 17.76300 -1.93700 28.31700
C  16.61800 0.01100 31.18400
C  19.46000 -3.77400 30.44500
C  19.24800 -3.16200 25.51500
C  16.20900 0.59200 26.36200
N  18.13000 -1.77300 30.64700
C  17.48700 -1.03700 31.53200
C  17.82900 -1.42600 32.91000
C  18.95100 -2.61700 32.69200
C  18.84300 -2.76800 31.14300
C  20.49300 -2.30600 33.04300
C  16.64400 -1.68500 33.88100
C  16.46000 -0.72800 35.15000
H  17.69600 -0.09900 35.74000
N  19.14100 -3.39500 28.02200
C  19.63700 -4.12200 29.06600
C  20.46100 -5.22800 28.51800
C  20.47700 -4.97000 27.05400
C  19.59800 -3.78100 26.73500
C  21.02100 -6.32300 29.35400
C  21.28100 -5.70300 26.01700
O  21.24300 -5.35000 24.79600
C  22.00300 -6.89600 26.42100
N  17.90600 -1.29200 26.22000
C  18.54400 -2.03000 25.27900
C  18.33200 -1.37700 23.91300
C  17.32200 -0.24400 24.20800
C  17.06900 -0.33100 25.67900
C  19.59300 -1.10200 23.09100
C  16.11100 0.01200 23.38900
C  16.20900 1.04200 22.29000
N  16.51400 -0.18500 28.62100
C  15.82800 0.65500 27.75900
C  14.99100 1.63900 28.38700
C  15.31600 1.45000 29.73200
C  16.24600 0.35700 29.82300
C  14.10200 2.67700 27.67000
C  15.03400 1.81100 31.06300
O  14.15200 2.57100 31.41100
C  15.80600 0.99400 32.06000
C  16.63300 1.90100 32.84100
O  17.79400 2.25000 32.64800
O  15.86800 2.46200 33.81900
C  16.37600 3.53200 34.63400
H  19.92300 -4.44300 31.17400
H  19.55700 -3.57900 24.55400
H  15.58700 1.32600 25.84600
H  18.42400 -0.66800 33.41900
H  18.60000 -3.55200 33.12900
H  21.11100 -1.98700 32.20400
H  20.92500 -3.23000 33.42600
H  20.56800 -1.58900 33.86100
H  16.88100 -2.68800 34.23600
H  15.73800 -1.64400 33.27600
H  16.14100 -1.55200 35.78900
H  15.67400 -0.01300 34.90800
H  20.56300 -7.29700 29.18300
H  20.86500 -6.19500 30.42500
H  22.11100 -6.30500 29.38200
H  21.42800 -7.69400 26.89000
H  22.67300 -6.50700 27.18800
H  22.40800 -7.33100 25.50700
H  17.98400 -2.18400 23.26900
H  17.80000 0.73200 24.13300
H  19.55900 -0.07700 22.72100
H  19.67400 -1.69900 22.18300
H  20.47600 -1.33300 23.68700
H  15.26100 0.22500 24.03700
H  15.91400 -0.95800 22.93300
H  17.13900 1.60200 22.18900
H  15.43400 1.77400 22.51300
H  16.01700 0.52000 21.35200
H  13.98600 2.44400 26.61100
H  14.43600 3.70200 27.82900
H  13.15200 2.61300 28.20100
H  15.10600 0.41300 32.66000
H  16.31800 4.52100 34.18000
H  17.43700 3.42100 34.85800
H  15.79200 3.56700 35.55300
Mg 40.69900 8.15300 30.13300
C  42.42300 9.25800 32.82500
C  38.28900 6.70000 32.33200
C  39.02600 6.83300 27.47900
C  43.19900 9.03600 27.99800
N  40.63000 7.65900 32.35200
C  41.31700 8.52500 33.25100
C  40.79100 8.45800 34.66100
C  39.71000 7.27300 34.52500
C  39.45400 7.23900 32.97400
C  40.23100 5.90800 34.92000
C  40.15000 9.85700 34.98000
C  39.70000 9.92100 36.41700
H  40.09800 11.09700 37.24700
N  38.88300 7.03200 29.87100
C  38.06700 6.64900 30.91200
C  36.82600 6.10200 30.26000
C  37.06600 6.14000 28.86100
C  38.37700 6.63000 28.67200
C  35.76400 5.38500 30.99600
C  36.21700 5.62000 27.74700
O  36.60900 5.41200 26.61100
C  34.80800 5.45900 27.92900
N  41.07100 7.79400 28.06600
C  40.20800 7.35700 27.13800
C  40.64600 7.54200 25.66300
C  42.08100 8.16400 25.90900
C  42.13000 8.32700 27.43100
C  40.59600 6.27700 24.76000
C  42.28100 9.49200 25.10700
C  41.89500 10.89000 25.82900
N  42.47200 8.94900 30.36400
C  43.35000 9.39800 29.36000
C  44.37000 10.24300 30.06100
C  44.04500 10.10700 31.41300
C  42.90900 9.33000 31.55300
C  45.49600 10.99400 29.44600
C  44.51600 10.52200 32.70400
O  45.47500 11.25900 32.90800
C  43.42900 10.07300 33.70900
C  44.17100 9.22900 34.63700
O  44.74800 8.22200 34.31300
O  44.19900 9.82800 35.88700
C  45.10400 9.08800 36.78500
H  37.44600 6.49300 32.99400
H  38.39300 6.54300 26.63800
H  43.96300 9.57700 27.43600
H  41.65400 8.29000 35.30600
H  38.81800 7.40600 35.13800
H  39.63700 5.59200 35.77800
H  41.30000 5.97500 35.11900
H  40.11900 5.20800 34.09200
H  39.29700 9.97400 34.31200
H  40.81500 10.70600 34.82400
H  40.11200 9.03800 36.90500
H  38.62100 9.78100 36.48100
H  35.93900 5.27400 32.06600
H  35.42500 4.40700 30.65700
H  34.88300 6.01900 31.09600
H  34.35300 6.44400 28.02600
H  34.63500 4.82200 28.79700
H  34.33600 5.04400 27.03900
H  40.04600 8.30600 25.16800
H  42.83300 7.43800 25.59800
H  41.58100 6.29700 24.29200
H  39.78100 6.31400 24.03700
H  40.60900 5.37600 25.37200
H  41.59400 9.44800 24.26200
H  43.30300 9.57400 24.73600
H  42.85400 11.31800 26.12200
H  41.40600 10.81200 26.80000
H  41.43800 11.56900 25.10900
H  45.31900 11.10600 28.37700
H  46.41800 10.51000 29.76900
H  45.44300 11.96000 29.94800
H  43.02500 11.03000 34.04000
H  45.12200 7.99800 36.78500
H  44.73100 9.23500 37.79800
H  46.15300 9.33400 36.62200

