158

Mg 48.98800 34.94600 26.70400
C  47.01400 33.50100 29.23000
C  49.16400 37.88700 28.53900
C  50.18900 36.57400 23.96200
C  47.73700 32.27300 24.55500
N  48.08100 35.64500 28.67300
C  47.51100 34.80200 29.56800
C  47.69900 35.41800 30.98700
C  47.86800 36.88700 30.59300
C  48.40400 36.81300 29.18800
C  46.62000 37.75800 30.84000
C  48.95300 34.76200 31.69700
C  48.81200 34.21500 33.14900
H  47.82500 34.87700 34.19500
N  49.78300 36.84000 26.40500
C  49.79100 37.90300 27.30400
C  50.47700 38.98900 26.68700
C  50.85200 38.63600 25.36100
C  50.33900 37.30100 25.16000
C  50.59600 40.40600 27.29600
C  51.45400 39.48000 24.26400
O  51.63000 39.01100 23.21700
C  51.95200 40.85800 24.57200
N  48.74900 34.64200 24.57100
C  49.42000 35.43900 23.68300
C  49.18800 34.82800 22.26700
C  48.75400 33.39800 22.53200
C  48.34200 33.41000 23.96500
C  48.17500 35.75200 21.46300
C  49.92500 32.36200 22.38000
C  50.12800 31.94600 20.88200
N  47.76400 33.12300 26.85600
C  47.40500 32.13100 25.90900
C  46.63200 31.17900 26.57700
C  46.39500 31.62100 27.87600
C  47.04500 32.84700 27.97600
C  46.15400 29.93300 25.97600
C  45.79600 31.40700 29.16300
O  45.10800 30.51100 29.61200
C  46.12900 32.63100 30.07900
C  46.79800 31.99400 31.26500
O  47.87000 31.40800 31.33100
O  45.94600 32.02400 32.34100
C  46.17700 31.17500 33.51500
H  49.20200 38.71800 29.24700
H  50.78700 36.90700 23.11100
H  47.50100 31.43300 23.89800
H  46.79400 35.42100 31.59500
H  48.54100 37.38100 31.29400
H  47.03200 38.68500 31.23900
H  45.87300 37.23000 31.43200
H  46.17700 38.11200 29.90900
H  49.68000 35.56700 31.59100
H  49.18000 33.86700 31.11800
H  49.81000 34.30300 33.57900
H  48.50100 33.17400 33.22900
H  51.61000 40.80200 27.23400
H  50.23500 40.52100 28.31800
H  49.84700 40.97100 26.74100
H  52.83800 40.74200 25.19600
H  51.19800 41.57000 24.90900
H  52.41000 41.25900 23.66800
H  50.12800 34.92200 21.72300
H  48.00200 33.19600 21.77000
H  48.09000 36.70400 21.98800
H  47.20000 35.28800 21.31600
H  48.45100 35.84700 20.41300
H  49.66800 31.48400 22.97100
H  50.82600 32.82800 22.77900
H  49.38100 32.33600 20.19100
H  50.05000 30.85900 20.90300
H  51.17800 32.18900 20.71800
H  45.20300 29.53300 26.33000
H  46.87600 29.15100 26.21200
H  46.14700 30.07600 24.89600
H  45.17000 33.05600 30.37300
H  45.57200 31.44700 34.38000
H  47.22300 31.21200 33.81800
H  45.92300 30.15200 33.23900
Mg 29.95800 58.48900 41.68700
C  27.14800 56.80700 40.19800
C  31.96800 56.46700 39.82800
C  32.45100 60.60800 42.20500
C  27.70700 60.88800 42.91000
N  29.49900 56.81100 40.17300
C  28.38000 56.33700 39.62300
C  28.62700 55.12500 38.70200
C  30.19700 54.99700 38.69700
C  30.58100 56.19400 39.61900
C  30.73400 53.67400 39.23500
C  27.96800 55.30600 37.32000
C  28.64300 54.54900 36.12800
H  27.74400 54.35200 34.94700
N  31.93600 58.46300 41.27200
C  32.58000 57.48100 40.53200
C  34.00300 57.74400 40.45300
C  34.20600 58.91400 41.26600
C  32.84000 59.36900 41.61900
C  35.04400 56.98800 39.63800
C  35.52700 59.53100 41.69800
O  36.55100 59.02400 41.22700
C  35.63000 60.65200 42.71900
N  30.07000 60.55200 42.46400
C  31.22500 61.13500 42.63500
C  31.02500 62.54700 43.21800
C  29.47000 62.73800 43.24800
C  29.03700 61.30600 42.88100
C  31.73100 62.75500 44.55200
C  28.92800 63.76200 42.20700
C  27.43600 64.08700 42.41300
N  27.91600 58.75700 41.72200
C  27.10400 59.73000 42.27000
C  25.71300 59.39500 42.11700
C  25.73300 58.24200 41.27500
C  27.06700 57.90800 41.05500
C  24.43400 60.08000 42.58800
C  24.82400 57.25600 40.65500
O  23.59400 57.24600 40.67700
C  25.65000 56.35900 39.86600
C  25.51800 54.94900 40.40400
O  25.75700 54.45800 41.50700
O  25.03100 54.17400 39.33800
C  24.71800 52.78200 39.65900
H  32.57700 55.69500 39.35400
H  33.29900 61.27300 42.38200
H  27.01900 61.63700 43.30800
H  28.22400 54.20800 39.13200
H  30.67700 55.11900 37.72600
H  29.90900 52.97100 39.35100
H  31.12300 53.81100 40.24400
H  31.52400 53.37400 38.54700
H  27.94100 56.35700 37.03400
H  26.91700 55.02500 37.39600
H  28.96400 53.57600 36.49900
H  29.53900 55.10700 35.85600
H  35.28500 57.67700 38.82800
H  34.62700 56.13800 39.09900
H  35.87400 56.73400 40.29800
H  36.69200 60.65700 42.96400
H  34.94200 60.44200 43.53800
H  35.27300 61.57600 42.26400
H  31.52500 63.17700 42.48200
H  29.16000 62.96400 44.26900
H  32.45800 63.56400 44.48100
H  32.22400 61.81400 44.79200
H  31.05900 62.94500 45.38900
H  29.01900 63.13900 41.31700
H  29.48200 64.69300 42.08400
H  26.80100 63.39900 41.85500
H  27.11900 65.07700 42.08600
H  27.18200 63.91600 43.45900
H  24.63200 61.14300 42.45300
H  24.55600 59.82200 43.64000
H  23.50700 59.73200 42.13300
H  25.41100 56.51700 38.81500
H  25.58000 52.11500 39.67900
H  24.20500 52.36400 38.79300
H  24.17100 52.62600 40.58900

