158

Mg 52.70200 25.09500 45.21600
C  49.71700 26.77100 44.07900
C  51.20600 22.15800 44.02900
C  55.53700 23.58300 45.70800
C  53.75400 27.99200 46.67200
N  50.71200 24.63500 43.95400
C  49.68400 25.40600 43.76700
C  48.41100 24.64400 43.33200
C  48.94300 23.16700 43.49000
C  50.39800 23.33500 43.86300
C  48.05800 22.39300 44.53100
C  47.86400 24.95200 41.87800
C  48.93100 25.41600 40.96300
H  48.50300 25.56900 39.47100
N  53.34900 23.12100 44.84800
C  52.54700 22.07600 44.53300
C  53.46400 20.93500 44.40300
C  54.76300 21.29100 44.85000
C  54.56400 22.68900 45.28400
C  53.08100 19.65000 43.80300
C  55.95700 20.46900 44.66900
O  55.83000 19.24700 44.35300
C  57.38000 20.95200 44.95600
N  54.45800 25.70400 45.96700
C  55.55100 24.95500 45.99900
C  56.74600 25.71700 46.52300
C  56.10400 27.01500 47.03900
C  54.66300 26.95500 46.50700
C  57.50700 24.91700 47.64200
C  56.79600 28.39500 46.62900
C  57.38600 29.25600 47.77900
N  51.91700 27.04900 45.36900
C  52.45800 28.09000 46.08900
C  51.44700 29.20000 46.06900
C  50.36200 28.65100 45.30100
C  50.71500 27.36600 44.81900
C  51.61600 30.56100 46.75200
C  49.06900 29.01000 44.80800
O  48.38700 30.04900 44.90800
C  48.60700 27.80700 43.98400
C  48.33800 28.40500 42.70400
O  49.12300 29.07200 42.05900
O  47.11600 27.97100 42.29100
C  46.60000 28.65200 41.10700
H  50.70400 21.18900 43.97700
H  56.50800 23.16100 45.97500
H  53.98400 28.94200 47.15800
H  47.69300 24.87600 44.11900
H  48.88400 22.76400 42.47900
H  47.91800 22.84300 45.51400
H  48.66100 21.50800 44.73400
H  47.02200 22.23100 44.23300
H  47.02500 25.64800 41.88400
H  47.63700 23.97600 41.45000
H  49.79700 24.76700 41.09500
H  49.34300 26.37300 41.28400
H  52.01100 19.52000 43.96700
H  53.53300 18.83200 44.36400
H  53.29400 19.54200 42.73900
H  57.59700 21.85800 44.39100
H  58.12300 20.20500 44.67600
H  57.56200 21.24000 45.99100
H  57.45400 25.79400 45.69800
H  56.02400 27.06200 48.12500
H  58.43200 24.66100 47.12600
H  57.03400 24.02000 48.04300
H  57.85000 25.52000 48.48300
H  56.32300 29.03000 45.87900
H  57.74800 28.08700 46.19700
H  57.71700 28.61400 48.59500
H  56.60200 29.99100 47.96600
H  58.31900 29.69200 47.42400
H  50.57100 30.82600 46.91000
H  52.06800 31.21200 46.00400
H  52.22900 30.32800 47.62300
H  47.61500 27.50200 44.31900
H  46.26000 29.63000 41.44900
H  45.71600 28.24800 40.61500
H  47.36800 28.71100 40.33600
Mg 7.34300 57.67900 41.58600
C  6.44400 54.29200 41.51100
C  10.42900 56.70100 40.20300
C  8.04300 60.86200 41.04200
C  4.18400 58.46800 42.57500
N  8.37600 55.65000 40.86600
C  7.77100 54.42600 41.03500
C  8.69600 53.35900 40.54000
C  10.08000 54.08300 40.42500
C  9.67500 55.55800 40.51300
C  11.10000 53.69500 41.44500
C  8.28700 52.64700 39.19700
C  8.53200 51.14100 39.03800
H  8.74200 50.49600 37.68400
N  8.97900 58.67100 40.70900
C  10.11300 58.08900 40.24400
C  11.00300 59.08700 39.75400
C  10.44300 60.36900 39.92800
C  9.09900 59.97700 40.61200
C  12.38000 58.74500 39.26500
C  11.04000 61.70200 39.49500
O  12.20200 61.85000 39.18500
C  10.10500 62.82500 39.60400
N  6.18500 59.44300 41.71000
C  6.78300 60.63800 41.52300
C  5.82600 61.79800 42.09300
C  4.63700 60.97200 42.66000
C  5.01000 59.53900 42.30900
C  6.46200 62.79400 43.16500
C  3.28200 61.49500 42.17000
C  2.17400 61.84000 43.22900
N  5.59500 56.64900 42.00600
C  4.39900 57.06700 42.44300
C  3.57700 55.91900 42.85000
C  4.33600 54.80900 42.37900
C  5.53900 55.30100 41.99800
C  2.22800 55.93800 43.40800
C  4.32700 53.35300 42.31600
O  3.58800 52.43400 42.61900
C  5.69300 53.01500 41.63400
C  5.22000 52.24500 40.39200
O  4.79500 52.70800 39.35700
O  5.44000 50.89900 40.67200
C  4.97100 49.90300 39.64600
H  11.39000 56.37700 39.79900
H  8.25200 61.93100 40.95600
H  3.18400 58.77700 42.88500
H  8.90300 52.58000 41.27400
H  10.56700 53.96500 39.45700
H  11.12500 52.71000 41.91000
H  11.09500 54.44700 42.23400
H  12.11600 53.77700 41.05900
H  8.84900 53.14100 38.40400
H  7.24400 52.82100 38.93400
H  7.62500 50.67000 39.41600
H  9.36900 50.83000 39.66200
H  12.51200 57.81900 38.70500
H  13.06000 58.90300 40.10200
H  12.77300 59.51500 38.60100
H  9.80400 62.98200 40.64000
H  9.19900 62.43300 39.14200
H  10.48500 63.75700 39.18700
H  5.45000 62.35900 41.23700
H  4.60900 60.94700 43.74900
H  6.33000 63.80600 42.78100
H  7.52600 62.61000 43.31100
H  5.94900 62.85300 44.12500
H  2.74100 60.73300 41.61000
H  3.37900 62.42600 41.61000
H  1.37800 62.39100 42.72700
H  2.42300 62.46300 44.08900
H  1.74800 60.93700 43.66600
H  1.45900 56.43300 42.81500
H  2.25600 56.49000 44.34800
H  1.94400 54.89500 43.55200
H  6.22300 52.30600 42.27000
H  5.83200 49.26800 39.43800
H  4.74300 50.35700 38.68100
H  4.08500 49.41400 40.05000

