158

Mg 25.26000 0.72300 29.74200
C  27.27400 0.65700 32.64400
C  22.42500 0.92700 31.76900
C  23.45100 0.17600 26.92900
C  28.15900 -0.00900 27.83900
N  24.93700 0.71700 32.05400
C  25.92400 0.71000 33.05600
C  25.25100 0.83700 34.46900
C  23.70800 0.87200 34.05900
C  23.67400 0.82800 32.52400
C  22.81400 -0.25800 34.71300
C  25.76600 2.10300 35.37900
C  26.40500 1.83600 36.68100
H  26.26700 2.95600 37.74600
N  23.26700 0.69100 29.41300
C  22.23600 0.81400 30.30000
C  21.03000 1.04700 29.58700
C  21.26300 0.84100 28.24600
C  22.74300 0.59300 28.11500
C  19.69400 1.26600 30.18900
C  20.25700 0.75300 27.12000
O  20.56200 0.37900 25.99300
C  18.93400 1.21000 27.31100
N  25.75900 0.23700 27.77600
C  24.78900 -0.01500 26.82500
C  25.37900 -0.26800 25.45100
C  26.86700 -0.42400 25.81000
C  26.97400 0.02900 27.21400
C  24.64300 -1.32700 24.53900
C  27.71900 0.50200 24.86400
C  27.97800 1.97800 25.22800
N  27.36800 0.50800 30.11500
C  28.40400 0.15000 29.21000
C  29.61200 0.03900 30.07200
C  29.19200 0.26200 31.34700
C  27.84800 0.52600 31.36200
C  31.02000 -0.18900 29.55600
C  29.72300 0.42800 32.65700
O  30.91000 0.41000 33.01900
C  28.50700 0.77200 33.54900
C  28.41400 -0.30800 34.61800
O  27.67000 -1.30200 34.48800
O  29.25800 0.01600 35.62400
C  29.26200 -0.98500 36.76500
H  21.51500 0.94700 32.37300
H  22.83900 0.11700 26.02600
H  29.08100 0.01500 27.25500
H  25.59800 0.01200 35.09000
H  23.34400 1.85400 34.36100
H  21.93900 0.10300 35.25400
H  23.34600 -0.93300 35.38300
H  22.41600 -0.91400 33.93900
H  24.93800 2.74000 35.68900
H  26.35400 2.84000 34.83200
H  27.46200 1.57400 36.65100
H  25.94100 0.95800 37.13100
H  19.15000 2.18400 29.96600
H  19.85500 1.23400 31.26600
H  19.07500 0.39600 29.97000
H  18.50800 1.34000 26.31700
H  18.95500 2.22000 27.72000
H  18.20100 0.61600 27.85700
H  25.27700 0.65700 24.88500
H  27.21700 -1.45400 25.74800
H  25.33200 -2.12000 24.24600
H  24.27700 -0.81400 23.65000
H  23.86100 -1.82100 25.11500
H  27.36600 0.44200 23.83500
H  28.69300 0.01300 24.84900
H  27.49000 2.32300 26.13900
H  27.49100 2.49200 24.40000
H  29.05500 2.14600 25.22100
H  31.36800 0.71200 29.05200
H  30.99900 -1.07700 28.92500
H  31.73900 -0.38200 30.35200
H  28.55000 1.73900 34.05000
H  29.34600 -2.03900 36.49800
H  28.28000 -0.85900 37.22200
H  30.06900 -0.95200 37.49700
Mg 0.90000 42.91000 26.30300
C  2.77300 43.29300 29.39000
C  -1.78900 41.98800 28.25700
C  -0.72800 42.43600 23.49900
C  3.75600 43.62400 24.53700
N  0.65000 42.59600 28.60400
C  1.48500 42.79400 29.67200
C  0.74400 42.86000 30.97400
C  -0.74200 42.24700 30.59300
C  -0.61100 42.27900 29.02800
C  -0.92300 40.78900 31.18500
C  0.72200 44.19900 31.72100
C  1.05000 44.20000 33.21400
H  0.64300 43.00600 34.05700
N  -1.01900 42.38700 25.92600
C  -2.02100 41.94000 26.86400
C  -3.08200 41.37200 26.17500
C  -2.84500 41.47600 24.75100
C  -1.46600 42.13100 24.63100
C  -4.27300 40.73800 26.90000
C  -3.81700 41.18300 23.58900
O  -3.45000 41.33400 22.42600
C  -5.20200 40.56700 23.73600
N  1.49000 43.00200 24.22600
C  0.59400 42.90500 23.24400
C  1.21500 43.11100 21.85500
C  2.60100 43.65900 22.20100
C  2.63200 43.52200 23.78900
C  1.20900 41.75300 21.03300
C  2.95000 45.06800 21.63400
C  3.92200 45.15100 20.39000
N  2.85900 43.33300 26.79700
C  3.93900 43.57300 25.96800
C  5.14200 43.84300 26.71300
C  4.71200 43.71600 28.07400
C  3.28600 43.44500 28.02300
C  6.50400 44.33400 26.15400
C  5.16700 43.76600 29.43300
O  6.31400 43.98600 29.90100
C  3.92800 43.41600 30.28200
C  4.18800 42.21600 31.04700
O  4.03100 41.04500 30.61700
O  4.65900 42.63900 32.32200
C  4.70500 41.59600 33.33500
H  -2.58600 41.58900 28.88900
H  -1.20500 42.22400 22.54000
H  4.65400 43.90700 23.98400
H  1.23300 42.16900 31.66200
H  -1.49800 42.92100 30.99600
H  -1.67100 40.95500 31.96000
H  0.05700 40.54200 31.59500
H  -1.27700 40.04700 30.47000
H  -0.23700 44.71100 31.64800
H  1.52700 44.82400 31.33400
H  0.40900 44.98800 33.60900
H  2.12400 44.36400 33.29500
H  -5.19200 40.72100 26.31500
H  -4.31600 40.92000 27.97400
H  -3.99000 39.68800 26.82400
H  -5.06500 39.61600 24.25200
H  -5.68800 40.29200 22.79900
H  -5.91500 41.10600 24.35900
H  0.57800 43.85300 21.37400
H  3.43000 43.05700 21.82900
H  0.44800 41.66000 20.25900
H  1.12400 40.85800 21.64900
H  2.22300 41.57400 20.67600
H  3.33200 45.67700 22.45400
H  2.01400 45.53900 21.33400
H  3.42200 45.55600 19.51000
H  4.52900 44.27800 20.14900
H  4.60500 45.99600 20.47000
H  6.33100 44.91200 25.24600
H  7.01400 43.44100 25.79200
H  7.08200 44.73000 26.98900
H  3.69100 44.26000 30.93000
H  5.72400 41.21800 33.25400
H  4.16200 40.68300 33.09200
H  4.46100 41.96900 34.33000

