158

Mg 35.27900 1.15600 28.74400
C  33.16200 2.77900 30.96700
C  37.73700 1.39000 31.22400
C  37.62800 0.45100 26.46500
C  32.94300 1.57200 26.19500
N  35.44500 1.95700 30.92500
C  34.37900 2.53500 31.57500
C  34.64900 2.62300 33.06500
C  36.23000 2.45500 33.03100
C  36.50000 1.82300 31.66900
C  36.81200 3.91800 33.25200
C  33.84000 1.42500 33.87600
C  33.10300 1.93400 35.15600
H  33.92100 2.92200 36.02100
N  37.42500 0.78100 28.84000
C  38.18700 0.89100 29.97000
C  39.46100 0.34200 29.65100
C  39.56100 0.11900 28.22000
C  38.20700 0.53300 27.73500
C  40.49800 0.20800 30.68800
C  40.73300 -0.43500 27.40700
O  40.65500 -0.69100 26.18900
C  41.99000 -0.69300 28.20700
N  35.31800 1.13000 26.59500
C  36.35600 0.62300 25.90100
C  36.02000 0.51700 24.44500
C  34.50400 0.59200 24.39200
C  34.18900 1.07100 25.77700
C  36.73800 1.58500 23.51500
C  33.78700 -0.78000 24.21400
C  32.81000 -0.78500 22.98200
N  33.46300 1.98000 28.56800
C  32.56200 1.97700 27.52300
C  31.32700 2.54300 27.93000
C  31.48600 2.82100 29.32000
C  32.77500 2.45100 29.65200
C  30.19300 2.66500 27.00500
C  30.84900 3.35500 30.47100
O  29.78000 3.75400 30.67300
C  31.86200 3.27800 31.61700
C  32.01000 4.48600 32.49800
O  32.86100 5.33800 32.42100
O  31.07800 4.39300 33.50800
C  31.27800 5.39600 34.58100
H  38.46300 1.48000 32.03400
H  38.30600 -0.01100 25.74500
H  32.09700 1.40200 25.52700
H  34.35400 3.59300 33.46300
H  36.69500 1.84300 33.80300
H  36.05100 4.60500 33.62200
H  37.09100 4.32700 32.28100
H  37.66100 3.94800 33.93500
H  34.62700 0.71700 34.13400
H  33.11500 1.00900 33.17600
H  32.75100 1.06900 35.71800
H  32.23800 2.48800 34.79000
H  41.18900 -0.62300 30.55200
H  40.04500 -0.17400 31.60300
H  40.97100 1.18600 30.78100
H  42.71700 -1.00100 27.45600
H  41.71500 -1.55600 28.81500
H  42.40000 0.18300 28.70800
H  36.38900 -0.44300 24.08200
H  34.15500 1.34000 23.67900
H  36.06700 2.29800 23.03700
H  37.28400 1.17500 22.66500
H  37.49200 2.26400 23.91300
H  33.23400 -1.07400 25.10600
H  34.45000 -1.63200 24.05900
H  33.15500 -1.38600 22.14100
H  32.61600 0.24700 22.69200
H  31.91200 -1.26100 23.37700
H  30.30100 3.62800 26.50700
H  29.28600 2.68000 27.60900
H  30.10600 1.77900 26.37700
H  31.54100 2.48600 32.29400
H  30.93000 6.35500 34.19600
H  32.31900 5.32300 34.89500
H  30.66300 5.14000 35.44300
Mg -1.69500 34.75700 26.06400
C  -3.06100 32.91600 28.69400
C  -0.10300 36.76200 28.42100
C  -0.58600 36.64300 23.61400
C  -3.36100 32.71100 23.79600
N  -1.67200 34.86400 28.26200
C  -2.13700 33.87900 29.14500
C  -1.94100 34.32500 30.60300
C  -1.30000 35.75500 30.42100
C  -0.90000 35.74800 28.98400
C  -2.29900 36.91600 30.64300
C  -1.08800 33.37000 31.48700
C  -1.77200 32.56100 32.58900
H  -1.07900 32.19700 33.90100
N  -0.51300 36.52200 26.01800
C  0.14200 37.07300 27.04700
C  0.86600 38.18700 26.53300
C  0.85200 38.18600 25.13700
C  -0.13800 37.10000 24.83700
C  1.59500 39.06400 27.45400
C  1.58500 39.08800 24.10700
O  1.43100 38.99300 22.87600
C  2.73500 40.05300 24.53900
N  -2.11600 34.80200 23.99900
C  -1.48200 35.66500 23.15500
C  -1.60300 35.23900 21.68400
C  -2.36500 33.90600 21.77100
C  -2.59200 33.72200 23.33500
C  -2.19900 36.35800 20.80600
C  -1.74400 32.70900 21.03500
C  -0.50700 32.11500 21.68200
N  -3.12300 33.22600 26.16300
C  -3.73100 32.50900 25.18300
C  -4.55300 31.54300 25.80600
C  -4.36500 31.61200 27.22500
C  -3.48400 32.68800 27.34900
C  -5.37200 30.49600 25.14500
C  -4.68100 31.09600 28.52400
O  -5.48200 30.22200 28.80400
C  -3.96700 31.97600 29.64200
C  -4.99200 32.82900 30.38500
O  -5.63900 33.78800 29.93300
O  -5.19200 32.38200 31.62000
C  -6.34900 33.09100 32.29900
H  0.48700 37.33700 29.13800
H  -0.18800 37.12300 22.71700
H  -3.72300 32.02200 23.03000
H  -2.89600 34.53600 31.08300
H  -0.39600 35.83600 31.02300
H  -1.83300 37.77900 31.12100
H  -3.18500 36.58000 31.18200
H  -2.81400 37.28600 29.75700
H  -0.15100 33.78600 31.85700
H  -0.70200 32.60100 30.81800
H  -1.95300 31.58800 32.13300
H  -2.70600 33.05500 32.85700
H  2.61900 39.09600 27.08200
H  1.60200 38.76600 28.50300
H  1.22200 40.08900 27.45200
H  2.59000 40.67200 25.42500
H  3.02700 40.57200 23.62700
H  3.44500 39.27000 24.80500
H  -0.60800 35.04700 21.28200
H  -3.41100 33.99000 21.47900
H  -2.14900 37.31200 21.33100
H  -3.27400 36.29700 20.63700
H  -1.77900 36.56100 19.82100
H  -1.33200 32.91300 20.04600
H  -2.49000 31.91700 20.97300
H  -0.60800 31.03100 21.63600
H  -0.27000 32.34600 22.72000
H  0.36800 32.29600 21.05600
H  -5.21400 29.49000 25.53400
H  -5.13900 30.54500 24.08200
H  -6.37400 30.84100 25.40200
H  -3.46300 31.28700 30.31900
H  -6.04300 34.03800 32.74500
H  -6.62900 32.40000 33.09400
H  -7.28200 33.19500 31.74600

