158

Mg 46.16400 44.93000 43.81500
C  42.73600 44.70800 43.17500
C  46.45400 41.54300 43.14200
C  49.51700 45.29200 43.52100
C  45.89700 48.48900 43.74700
N  44.76300 43.38900 43.08700
C  43.37300 43.46800 42.94500
C  42.79600 42.11400 42.75700
C  43.97600 41.15400 43.04200
C  45.13600 42.07300 43.19400
C  43.71600 40.31200 44.33500
C  41.95500 41.88800 41.37600
C  42.31900 42.61500 40.06900
H  42.48800 41.80200 38.84700
N  47.78900 43.55200 43.40200
C  47.69100 42.19900 43.10300
C  48.94700 41.59300 42.96200
C  49.88000 42.62800 43.15200
C  49.11300 43.88800 43.38800
C  49.18400 40.12600 42.65700
C  51.33200 42.48600 42.98400
O  51.84000 41.46200 42.63000
C  52.18600 43.73800 43.16700
N  47.55200 46.60100 43.93100
C  48.85900 46.45200 43.74100
C  49.66800 47.76900 43.70300
C  48.51300 48.82500 43.80200
C  47.23100 47.94600 43.73300
C  50.83500 47.81100 44.72300
C  48.43200 50.00700 42.73000
C  48.34700 51.42800 43.29500
N  44.67300 46.29800 43.75600
C  44.70300 47.75900 43.72700
C  43.28400 48.20900 43.85000
C  42.58200 47.03100 43.63500
C  43.43400 45.92400 43.55000
C  42.84300 49.65200 43.85600
C  41.16300 46.59600 43.43300
O  40.19000 47.28000 43.30200
C  41.22500 45.03800 43.18000
C  40.42500 44.26500 44.23900
O  39.45000 43.58700 44.06300
O  41.21300 44.33700 45.36000
C  40.95900 43.27800 46.34800
H  46.55000 40.46700 42.98500
H  50.56500 45.52000 43.31300
H  45.78300 49.57400 43.78100
H  42.13400 42.16400 43.62200
H  44.23800 40.49200 42.21700
H  44.13900 39.31700 44.47000
H  42.63300 40.28800 44.45600
H  44.14500 40.85300 45.17900
H  40.87900 41.91200 41.54400
H  41.91400 40.81100 41.21400
H  43.30200 43.08300 40.11100
H  41.59700 43.40600 39.86500
H  50.19400 39.72500 42.57300
H  48.51000 39.58200 41.99600
H  49.13600 39.78600 43.69200
H  52.06900 44.17600 44.15800
H  52.02600 44.37500 42.29700
H  53.20900 43.37300 43.07800
H  50.18600 47.82700 42.74600
H  48.56100 49.27300 44.79400
H  50.61600 48.69800 45.31800
H  51.72100 47.79000 44.08800
H  50.86200 46.87700 45.28600
H  47.58300 49.79600 42.08000
H  49.40500 49.89600 42.25100
H  49.18700 52.00700 42.90900
H  48.41800 51.37400 44.38100
H  47.39800 51.89800 43.03500
H  41.77500 49.69800 43.64600
H  43.39000 50.31700 43.18700
H  42.99400 49.99100 44.88100
H  40.79500 44.76400 42.21700
H  40.09700 42.63700 46.16100
H  40.81000 43.67500 47.35200
H  41.80800 42.61900 46.53000
Mg -2.85200 34.93600 26.40600
C  -3.86200 33.43400 29.25900
C  -1.19900 37.27400 28.42800
C  -1.83100 36.60400 23.58100
C  -4.73100 32.80400 24.59600
N  -2.42800 35.15100 28.58700
C  -2.95500 34.41300 29.56800
C  -2.39400 34.75500 30.90600
C  -1.64200 36.12800 30.58100
C  -1.80600 36.23000 29.10200
C  -2.25600 37.38700 31.33600
C  -1.55700 33.60800 31.60000
C  -1.95500 33.10200 32.97200
H  -0.91400 33.35000 34.04400
N  -1.69700 36.63500 26.05800
C  -1.10000 37.45400 27.00100
C  -0.45100 38.60100 26.32400
C  -0.56200 38.41600 24.91100
C  -1.44200 37.15700 24.81700
C  0.29500 39.58900 27.07700
C  -0.05200 39.19400 23.74900
O  -0.36200 38.98000 22.58100
C  1.00900 40.23500 24.09200
N  -3.29500 34.81000 24.37500
C  -2.71900 35.51500 23.36600
C  -3.10900 34.90400 21.95100
C  -3.71600 33.53400 22.33900
C  -3.95400 33.70300 23.85300
C  -3.97100 35.84300 21.05400
C  -2.75400 32.39600 22.08700
C  -3.32900 31.21100 21.30500
N  -4.10500 33.39100 26.81700
C  -4.78400 32.57000 25.99200
C  -5.32200 31.47600 26.75800
C  -5.05000 31.83100 28.06000
C  -4.20600 32.95200 28.00900
C  -6.24100 30.41000 26.25700
C  -5.23200 31.41100 29.39700
O  -5.93500 30.49600 29.84500
C  -4.43000 32.45800 30.22400
C  -5.44900 33.08900 31.09000
O  -6.43400 33.75700 30.71600
O  -5.25700 32.69100 32.36100
C  -6.03900 33.35900 33.35600
H  -0.66300 37.97900 29.06600
H  -1.50600 36.97200 22.60600
H  -5.28400 32.00300 24.09900
H  -3.24800 34.93800 31.55800
H  -0.56800 36.02000 30.73200
H  -1.34900 37.98600 31.41000
H  -2.65400 37.24200 32.34000
H  -2.94500 37.95200 30.70700
H  -0.55900 34.03000 31.72600
H  -1.48500 32.78200 30.89200
H  -2.22100 32.04800 32.89600
H  -2.85900 33.63500 33.26600
H  1.30000 39.41900 26.69000
H  0.13900 39.53300 28.15400
H  0.06200 40.62600 26.83600
H  1.36400 40.48900 23.09400
H  1.86900 39.79400 24.59600
H  0.69500 41.08500 24.69800
H  -2.16600 34.79800 21.41500
H  -4.55200 33.19100 21.73000
H  -4.88300 35.26600 20.90000
H  -3.44000 35.99500 20.11500
H  -4.07500 36.86000 21.43200
H  -2.29400 32.11300 23.03400
H  -1.93900 32.77700 21.47200
H  -3.31500 30.40800 22.04200
H  -2.69200 30.87000 20.48900
H  -4.38100 31.26600 21.02300
H  -5.84000 29.40400 26.37900
H  -6.39300 30.56800 25.18900
H  -7.21700 30.46200 26.74000
H  -3.75800 31.90200 30.87700
H  -6.41800 34.32800 33.03200
H  -5.31900 33.50800 34.16000
H  -6.83900 32.71400 33.72100

