158

Mg 17.37600 -1.03900 28.41300
C  16.11200 0.97200 31.03200
C  18.89600 -2.86000 30.85400
C  18.82300 -2.74600 25.97700
C  15.62500 0.98300 26.16000
N  17.67000 -0.78100 30.71400
C  16.96200 -0.01600 31.55300
C  17.26900 -0.32200 33.04800
C  18.27600 -1.49900 32.91500
C  18.32400 -1.72900 31.34800
C  19.69400 -1.23500 33.50300
C  15.94900 -0.59100 33.87900
C  15.69600 0.16700 35.18400
H  16.75300 0.07500 36.24000
N  18.77200 -2.58100 28.40500
C  19.15600 -3.22600 29.51700
C  19.92300 -4.44900 29.13400
C  19.87000 -4.44600 27.70000
C  19.12800 -3.26700 27.29100
C  20.41000 -5.40400 30.13300
C  20.49500 -5.38500 26.67000
O  20.28500 -5.22000 25.46900
C  21.39600 -6.62200 27.11000
N  17.25600 -0.87100 26.40700
C  17.98700 -1.67400 25.58200
C  17.77600 -1.27500 24.09100
C  16.66600 -0.24300 24.19200
C  16.40400 -0.06800 25.63200
C  19.08900 -0.82900 23.39800
C  15.28000 -0.39900 23.48300
C  14.28400 -1.35600 24.11600
N  16.11600 0.61000 28.43600
C  15.52300 1.33100 27.49600
C  14.83500 2.43700 27.99900
C  14.86400 2.25400 29.44900
C  15.78100 1.18000 29.65900
C  14.10600 3.45900 27.19700
C  14.38600 2.77900 30.65200
O  13.46600 3.58400 30.88800
C  15.26900 2.03400 31.73700
C  16.14500 3.09200 32.33700
O  17.25100 3.43400 31.91300
O  15.59100 3.49500 33.59400
C  16.46900 4.42400 34.27400
H  19.29900 -3.49900 31.64200
H  19.17900 -3.15500 25.02900
H  15.12900 1.64300 25.44600
H  17.70800 0.53700 33.55600
H  17.96900 -2.39500 33.45400
H  19.75600 -1.85700 34.39500
H  19.86200 -0.20200 33.80800
H  20.47000 -1.57700 32.81900
H  16.00200 -1.58400 34.32400
H  15.03700 -0.66500 33.28700
H  14.84400 -0.40300 35.55500
H  15.36500 1.18800 34.99500
H  21.49400 -5.44100 30.02400
H  19.97300 -6.36600 29.86600
H  20.21300 -5.15700 31.17600
H  20.83000 -7.20800 27.83400
H  22.26900 -6.28700 27.67100
H  21.58800 -7.19200 26.20100
H  17.41900 -2.20900 23.65800
H  17.05700 0.72500 23.87800
H  19.16200 0.20800 23.06900
H  19.28900 -1.48500 22.55100
H  19.80200 -0.97100 24.21000
H  15.52700 -0.52300 22.42900
H  14.81400 0.58300 23.56500
H  13.58400 -0.74400 24.68500
H  14.68600 -1.96500 24.92500
H  13.75300 -1.85100 23.30300
H  13.02000 3.36400 27.22100
H  14.30700 3.39100 26.12800
H  14.28600 4.45800 27.59500
H  14.56700 1.70200 32.50200
H  16.48200 5.42300 33.83700
H  17.49200 4.05300 34.33600
H  16.14000 4.52000 35.30900
Mg -10.07700 40.00000 39.48800
C  -8.83100 36.92000 38.38400
C  -7.09500 41.39400 38.82400
C  -11.63800 42.91700 39.52700
C  -13.26800 38.29700 40.02900
N  -8.15000 39.24000 38.67900
C  -7.92600 37.99900 38.22500
C  -6.52200 38.02700 37.62800
C  -5.78500 39.23100 38.34700
C  -7.07800 40.00700 38.67300
C  -4.94500 38.94000 39.56600
C  -6.59800 38.11700 36.07900
C  -5.97900 36.97600 35.22300
H  -6.93200 36.33000 34.21700
N  -9.39700 41.96600 39.27500
C  -8.15600 42.30800 38.99100
C  -8.09400 43.78200 38.88900
C  -9.40400 44.27700 39.15500
C  -10.22600 43.04200 39.39700
C  -6.75800 44.54400 38.84700
C  -9.75400 45.72800 39.28000
O  -8.95500 46.60100 39.03500
C  -11.12400 46.18000 39.67300
N  -12.16900 40.54100 39.93500
C  -12.46200 41.84800 39.75400
C  -13.99600 41.97700 39.80200
C  -14.52400 40.56700 40.19400
C  -13.26900 39.74100 40.07700
C  -14.44100 43.15200 40.65300
C  -15.66700 40.07100 39.26900
C  -17.03100 40.74500 39.34400
N  -10.89800 37.93500 39.43100
C  -12.15800 37.41100 39.64700
C  -12.12000 36.04600 39.45700
C  -10.81200 35.73200 38.98700
C  -10.12700 36.95300 39.02400
C  -13.31300 35.09900 39.69300
C  -9.92900 34.73800 38.39600
O  -10.05200 33.53000 38.13100
C  -8.60800 35.48000 37.97700
C  -7.47100 34.88700 38.60900
O  -7.29900 34.76400 39.83300
O  -6.55100 34.47300 37.66700
C  -5.41700 33.75400 38.25000
H  -6.12700 41.87700 38.67600
H  -12.22400 43.83800 39.50500
H  -14.22400 37.82400 40.26200
H  -6.06500 37.07100 37.88400
H  -5.09400 39.70400 37.64900
H  -4.94000 37.85300 39.63900
H  -5.31600 39.43800 40.46200
H  -3.91300 39.26800 39.44500
H  -6.15900 39.04400 35.71100
H  -7.65200 38.05300 35.81000
H  -5.51400 36.24400 35.88200
H  -5.09900 37.28800 34.66000
H  -6.81500 45.20400 37.98100
H  -5.95800 43.82700 38.66300
H  -6.56800 45.14800 39.73400
H  -11.15700 47.21700 40.00600
H  -11.40700 45.56900 40.53000
H  -11.77000 45.90900 38.83800
H  -14.31800 42.23600 38.79400
H  -14.88300 40.60700 41.22200
H  -15.12100 42.80700 41.43200
H  -14.94500 43.82600 39.96100
H  -13.67600 43.72800 41.17500
H  -15.83100 39.01100 39.46000
H  -15.30800 40.27400 38.26000
H  -17.15300 41.47600 38.54500
H  -17.04900 41.31400 40.27300
H  -17.80000 39.99000 39.17600
H  -14.19400 35.59700 39.28900
H  -13.40100 35.01700 40.77600
H  -13.20100 34.13600 39.19300
H  -8.42300 35.42500 36.90500
H  -4.76700 34.46800 38.75600
H  -4.87100 33.20400 37.48300
H  -5.63800 33.11700 39.10700

