158

Mg 24.84300 -6.28700 45.39500
C  27.07900 -3.92900 43.70000
C  22.36700 -5.13600 43.32100
C  23.09900 -8.97400 46.28000
C  27.78500 -7.70700 46.78800
N  24.76000 -4.75900 43.60200
C  25.80000 -3.88600 43.20800
C  25.34500 -3.05400 42.04000
C  23.74300 -3.26400 42.14100
C  23.57700 -4.45900 43.06600
C  23.05200 -1.99400 42.67800
C  25.95400 -3.58900 40.60400
C  26.48900 -2.58500 39.60300
H  26.02200 -2.76200 38.14200
N  22.98100 -6.88700 44.92700
C  22.10000 -6.29200 44.03900
C  20.79400 -6.92100 44.12200
C  20.93600 -7.97800 45.12100
C  22.41600 -7.98300 45.48000
C  19.61900 -6.45300 43.24000
C  19.82500 -8.80500 45.54100
O  18.65600 -8.72600 45.11900
C  20.12700 -9.88700 46.45000
N  25.24800 -7.98000 46.52300
C  24.38800 -8.97900 46.76900
C  25.03500 -10.27500 47.32500
C  26.38000 -9.68500 47.82000
C  26.49900 -8.39100 46.90700
C  24.23500 -11.11100 48.32700
C  27.56700 -10.68200 47.56100
C  28.82200 -10.49800 48.39400
N  26.92500 -5.91800 45.38300
C  27.97300 -6.54500 46.07000
C  29.19900 -5.92100 45.79600
C  28.84500 -4.81600 44.92600
C  27.44300 -4.88800 44.66500
C  30.56500 -6.32600 46.34300
C  29.41500 -3.60800 44.32300
O  30.51400 -3.12300 44.46100
C  28.30200 -3.09100 43.33200
C  28.17500 -1.61000 43.60300
O  27.55600 -1.11800 44.49400
O  28.82600 -0.93000 42.60800
C  28.85500 0.55900 42.67900
H  21.46000 -4.72800 42.87100
H  22.59800 -9.92600 46.46800
H  28.65700 -8.29700 47.07800
H  25.64700 -2.03900 42.29900
H  23.36000 -3.51200 41.15100
H  23.80000 -1.20500 42.60800
H  22.61900 -2.07500 43.67400
H  22.24000 -1.68600 42.01900
H  25.21300 -4.18600 40.07200
H  26.68000 -4.33300 40.93100
H  27.57800 -2.58400 39.64400
H  26.11800 -1.61200 39.92600
H  18.75100 -7.11200 43.23600
H  19.98800 -6.41700 42.21500
H  19.19600 -5.47200 43.46100
H  19.26400 -10.36400 46.91400
H  20.71900 -9.50700 47.28200
H  20.54300 -10.74800 45.92500
H  25.12600 -10.93200 46.46000
H  26.27000 -9.41300 48.87000
H  24.67900 -11.13600 49.32200
H  24.09800 -12.10200 47.89300
H  23.24100 -10.69200 48.47900
H  27.95500 -10.42900 46.57400
H  27.14600 -11.68700 47.61000
H  29.17600 -11.38900 48.91200
H  28.64000 -9.74100 49.15700
H  29.66200 -10.08400 47.83600
H  30.81400 -7.35700 46.09500
H  30.52600 -6.20300 47.42600
H  31.28500 -5.58000 46.00700
H  28.61400 -3.06000 42.28800
H  29.85800 0.87600 42.96300
H  28.16400 0.92700 43.43800
H  28.69000 1.06300 41.72700
Mg 6.06200 54.64600 39.71500
C  5.99500 51.12800 39.19800
C  9.43900 54.55600 38.97800
C  6.04800 57.95300 39.43400
C  2.65100 54.59000 39.95200
N  7.50100 53.04000 38.71000
C  7.25000 51.65200 38.82600
C  8.59000 50.85800 38.79300
C  9.65600 51.98000 39.04900
C  8.81100 53.29800 38.89700
C  10.50200 51.81200 40.33200
C  8.82000 50.24100 37.38000
C  8.45800 51.15400 36.21500
H  7.07300 51.08900 35.66000
N  7.56900 56.07500 39.36000
C  8.87500 55.86100 39.09000
C  9.58100 57.14700 38.90600
C  8.61200 58.19500 39.12800
C  7.34400 57.45400 39.32500
C  11.11500 57.27900 38.53900
C  8.91500 59.69900 39.03600
O  10.06000 60.10600 38.74900
C  7.84600 60.73300 39.21400
N  4.50600 56.05200 39.47200
C  4.79700 57.38800 39.48800
C  3.49700 58.18800 39.83100
C  2.53200 57.14300 40.20300
C  3.22400 55.84300 39.71100
C  3.70900 59.12900 40.98900
C  1.12700 57.33600 39.53400
C  -0.08100 57.32600 40.47700
N  4.56800 53.13500 39.66600
C  3.22600 53.27600 39.91700
C  2.67900 52.01100 40.25200
C  3.72000 51.17600 39.98400
C  4.89200 51.90700 39.60100
C  1.27300 51.58400 40.73100
C  4.10300 49.80900 40.06600
O  3.48300 48.88100 40.60100
C  5.58600 49.70400 39.50800
C  5.54900 48.73600 38.38700
O  5.09700 49.02800 37.29400
O  6.02000 47.55700 38.82500
C  5.96200 46.37900 37.89900
H  10.52400 54.53000 38.85400
H  6.02400 59.03200 39.60000
H  1.57000 54.59000 40.11100
H  8.49500 50.18000 39.64000
H  10.35700 51.94300 38.21500
H  11.50000 52.16800 40.07700
H  10.46100 50.77000 40.65000
H  10.06000 52.45200 41.09600
H  8.20400 49.34900 37.26900
H  9.87300 49.97000 37.31800
H  9.22900 50.97300 35.46600
H  8.59900 52.18800 36.53200
H  11.19200 58.06600 37.78800
H  11.52400 56.35800 38.12300
H  11.51400 57.52400 39.52300
H  7.17200 60.71600 38.35700
H  8.33400 61.70600 39.27700
H  7.35700 60.63400 40.18300
H  3.18100 58.76800 38.96300
H  2.51000 56.91800 41.27000
H  3.14100 58.95100 41.90200
H  3.33100 60.05900 40.56200
H  4.74300 59.18500 41.32900
H  1.06800 56.59500 38.73700
H  1.12400 58.36000 39.16300
H  0.17800 57.18400 41.52700
H  -0.70600 56.49900 40.14000
H  -0.51300 58.32600 40.44200
H  1.17900 51.15900 41.73000
H  0.87700 51.00100 39.90000
H  0.67400 52.49500 40.70400
H  6.16100 49.29400 40.33800
H  6.46600 45.59200 38.45900
H  6.46600 46.59700 36.95800
H  4.94700 46.10500 37.61100

