158

Mg 5.87100 54.07000 42.04300
C  4.87700 50.63100 41.85600
C  8.87500 53.12200 40.76700
C  6.41900 57.22200 41.31600
C  2.43600 54.73900 42.92200
N  6.69100 52.11900 41.35000
C  6.15200 50.85200 41.34400
C  7.14800 49.77800 40.83400
C  8.51700 50.49300 41.10100
C  8.03700 52.00800 41.07700
C  9.30000 50.18500 42.37700
C  7.02500 49.40500 39.32600
C  6.11300 50.25200 38.32500
H  6.80400 51.04600 37.27300
N  7.50700 55.06100 41.15600
C  8.68600 54.52000 40.82300
C  9.62900 55.60000 40.49500
C  8.93600 56.80100 40.76800
C  7.56000 56.42400 41.09900
C  11.07500 55.47000 39.87100
C  9.52000 58.22800 40.74100
O  10.75100 58.40800 40.51800
C  8.71500 59.45300 41.04500
N  4.58700 55.70100 41.90300
C  5.13400 56.95800 41.79700
C  4.12200 58.05400 42.16600
C  2.86900 57.18800 42.54400
C  3.38500 55.74400 42.60900
C  4.59000 59.03900 43.33200
C  1.62400 57.34200 41.54800
C  0.20800 57.55100 42.14900
N  3.96500 52.92600 42.38200
C  2.71200 53.36700 42.69100
C  1.91100 52.21500 43.05600
C  2.67600 51.10300 42.62300
C  3.93900 51.63000 42.23200
C  0.57100 52.03800 43.69800
C  2.65200 49.67800 42.49800
O  1.74200 48.88800 42.58200
C  4.10500 49.29800 42.03200
C  4.13500 48.38000 40.89200
O  3.70800 48.56000 39.78800
O  4.74000 47.21000 41.24600
C  4.58000 46.08800 40.27800
H  9.93700 52.87100 40.78700
H  6.57500 58.25400 40.99400
H  1.43600 54.92000 43.32200
H  7.04700 48.85200 41.40000
H  9.21500 50.27200 40.29300
H  9.03100 49.29900 42.95100
H  9.19400 51.04100 43.04400
H  10.35600 50.34000 42.15400
H  6.60100 48.40100 39.30100
H  8.01900 49.30500 38.89100
H  5.53500 50.98700 38.88500
H  5.37600 49.52000 37.99400
H  11.13000 54.69500 39.10700
H  11.66000 55.07200 40.70000
H  11.50900 56.41800 39.55300
H  9.43300 60.26900 41.11300
H  8.22800 59.31200 42.01000
H  7.92500 59.57900 40.30400
H  3.90300 58.75100 41.35700
H  2.47900 57.54000 43.49900
H  4.14200 60.02400 43.20300
H  5.65400 59.24900 43.22500
H  4.20400 58.62300 44.26300
H  1.51700 56.39500 41.01800
H  1.71300 58.08900 40.75900
H  -0.16200 58.52900 41.84400
H  0.03900 57.58600 43.22500
H  -0.48700 56.82600 41.72600
H  0.01200 52.97000 43.77900
H  0.66800 51.52600 44.65500
H  -0.06600 51.31600 43.18600
H  4.55700 48.77100 42.87200
H  5.16300 46.25700 39.37200
H  3.58500 45.98000 39.84600
H  4.89500 45.11600 40.65700
Mg -12.55500 15.90800 41.79500
C  -9.30200 14.52100 41.56300
C  -11.20100 18.85400 40.45900
C  -15.70000 16.99500 41.46300
C  -13.78700 12.68200 42.63500
N  -10.53600 16.48200 40.89000
C  -9.35500 15.79500 40.99700
C  -8.23800 16.58400 40.30500
C  -8.71600 18.02500 40.23600
C  -10.25000 17.81800 40.61400
C  -8.01800 18.98500 41.26800
C  -7.83300 16.06600 38.95700
C  -6.47000 15.38000 38.69900
H  -5.62000 15.94800 37.57300
N  -13.33300 17.66400 41.08400
C  -12.62300 18.76800 40.58500
C  -13.58100 19.82400 40.23100
C  -14.87000 19.34600 40.66900
C  -14.68300 17.95200 41.11100
C  -13.10200 21.10000 39.66200
C  -16.07500 20.27400 40.68600
O  -15.97800 21.45500 40.35600
C  -17.38400 19.88600 41.18100
N  -14.47100 15.02500 42.01800
C  -15.60000 15.63600 41.84700
C  -16.81500 14.73400 42.05400
C  -16.18700 13.37300 42.37200
C  -14.73100 13.69400 42.22300
C  -17.91000 15.24700 43.05300
C  -16.53200 12.14600 41.39400
C  -18.05600 11.66000 41.75300
N  -11.71800 13.99200 42.21100
C  -12.34200 12.78500 42.59300
C  -11.28000 11.72100 42.76500
C  -10.14900 12.36000 42.40500
C  -10.41200 13.72700 42.06100
C  -11.37700 10.27900 43.15200
C  -8.69500 12.16200 42.18800
O  -8.02300 11.15700 42.33800
C  -8.14600 13.54500 41.61300
C  -7.21600 13.99500 42.62100
O  -7.45900 14.49100 43.68200
O  -5.93300 13.79600 42.12100
C  -4.81000 14.31300 42.85500
H  -10.84000 19.84700 40.18300
H  -16.71600 17.32700 41.23900
H  -14.13900 11.68200 42.89900
H  -7.39400 16.53500 40.99200
H  -8.66800 18.55700 39.28600
H  -7.16500 18.40900 41.62800
H  -8.79200 19.12600 42.02200
H  -7.76700 20.01200 41.00500
H  -8.01400 16.83800 38.20900
H  -8.60700 15.33200 38.73400
H  -6.63100 14.31000 38.82300
H  -5.88000 15.57900 39.59400
H  -12.84900 21.80700 40.45300
H  -13.77700 21.56500 38.94300
H  -12.17300 20.99800 39.10200
H  -17.72800 19.05000 40.57300
H  -18.02500 20.76500 41.24700
H  -17.19200 19.55300 42.20100
H  -17.36300 14.66900 41.11400
H  -16.49000 13.07400 43.37500
H  -17.40700 16.10300 43.50200
H  -17.94000 14.43700 43.78200
H  -18.89500 15.40900 42.61400
H  -15.84200 11.33800 41.63700
H  -16.39300 12.26000 40.31900
H  -17.88000 10.64700 42.11400
H  -18.71900 11.70000 40.89000
H  -18.53500 12.24800 42.53600
H  -10.60200 9.79400 42.55900
H  -12.34700 9.79600 43.03100
H  -11.05700 10.27200 44.19400
H  -7.75200 13.27100 40.63400
H  -4.05300 13.65000 42.43700
H  -4.66600 14.13500 43.92100
H  -4.61200 15.36400 42.64000

