158

Mg 46.25300 24.20200 28.73600
C  47.14000 26.28300 31.42200
C  45.25600 21.86800 30.97900
C  46.42200 21.84200 26.28000
C  47.84500 26.52000 26.60800
N  45.93500 24.25200 30.96200
C  46.36100 25.23300 31.86600
C  45.96000 24.83700 33.30600
C  45.55200 23.29400 33.15000
C  45.62200 23.06900 31.59500
C  46.44100 22.35200 33.95300
C  44.83500 25.76200 33.98000
C  45.13700 26.33000 35.40500
H  44.05200 26.26000 36.39700
N  45.76700 22.18700 28.60100
C  45.43100 21.43900 29.64900
C  45.06700 20.08700 29.19200
C  45.29800 20.10800 27.76900
C  45.84700 21.42300 27.48400
C  44.43300 19.02500 30.07400
C  45.01300 19.00500 26.73700
O  45.08000 19.20400 25.50700
C  44.59500 17.70900 27.30400
N  46.88000 24.30100 26.67900
C  46.85500 23.10500 25.94500
C  47.44900 23.35300 24.56000
C  47.79600 24.90100 24.59000
C  47.47200 25.32700 26.02600
C  48.53400 22.44400 24.04100
C  47.11500 25.75500 23.52000
C  47.79800 25.86600 22.11000
N  47.09100 26.04200 28.87400
C  47.66200 26.90300 27.94700
C  48.21200 28.10500 28.52700
C  48.05700 27.88300 29.89500
C  47.34300 26.62800 30.08400
C  48.83200 29.29500 27.79800
C  48.34500 28.44500 31.24200
O  48.88100 29.51900 31.59100
C  47.72600 27.39600 32.28300
C  48.74400 26.92700 33.22000
O  49.50600 26.00100 32.92600
O  48.60900 27.58300 34.42900
C  49.34000 27.07700 35.59400
H  45.01200 21.03800 31.64500
H  46.41300 21.12700 25.45500
H  48.30000 27.20800 25.89200
H  46.86700 24.99700 33.88900
H  44.50200 23.19700 33.42600
H  45.92800 22.31400 34.91400
H  47.49900 22.61400 33.96100
H  46.31400 21.36000 33.51800
H  43.87400 25.24900 34.00800
H  44.85300 26.66200 33.36500
H  45.36000 27.39700 35.40600
H  46.02100 25.81400 35.77900
H  43.41200 18.99900 29.69300
H  44.43200 19.29900 31.12900
H  45.02400 18.11000 30.06100
H  43.70300 17.83100 27.91800
H  45.46000 17.42600 27.90300
H  44.39000 17.04500 26.46400
H  46.64900 23.23000 23.83000
H  48.85600 25.01900 24.36200
H  49.47300 22.97200 23.87700
H  48.20300 21.99300 23.10500
H  48.64000 21.79000 24.90600
H  47.15900 26.77100 23.91200
H  46.09200 25.41200 23.36800
H  48.70000 25.26100 22.02200
H  48.10300 26.87800 21.84300
H  47.02500 25.44100 21.47000
H  48.41600 29.56900 26.82800
H  49.86800 28.99700 27.63800
H  48.81000 30.20400 28.39800
H  46.89100 27.89200 32.77800
H  50.27400 27.63700 35.60100
H  49.64800 26.03100 35.59300
H  48.74500 27.34000 36.46900
Mg 41.17600 40.34400 26.86700
C  40.53100 42.96000 29.18200
C  42.01900 38.29600 29.66300
C  42.06900 38.16300 24.61200
C  40.92600 42.87200 24.24900
N  41.17400 40.55100 29.13300
C  40.83400 41.70400 29.84300
C  40.76500 41.35800 31.39000
C  41.34000 39.87800 31.53700
C  41.54800 39.51900 30.05400
C  42.51600 39.65900 32.46500
C  39.28400 41.51900 32.08400
C  39.01000 40.89400 33.48200
H  38.72000 42.00300 34.59300
N  41.95900 38.43300 27.12900
C  42.16600 37.74800 28.32900
C  42.53700 36.40500 27.94300
C  42.51300 36.34500 26.47300
C  42.19300 37.70600 26.00600
C  42.95600 35.35700 29.00800
C  42.94900 35.28700 25.53900
O  43.02200 35.31100 24.31500
C  43.09700 33.89200 26.11400
N  41.52700 40.55100 24.74200
C  41.73800 39.36900 24.03400
C  41.56700 39.56700 22.49000
C  41.01500 41.03300 22.47500
C  41.18800 41.52100 23.89000
C  42.84700 39.38900 21.61900
C  39.56600 41.21500 21.87600
C  38.28800 41.24600 22.76700
N  40.85100 42.50000 26.74500
C  40.70700 43.31900 25.60200
C  40.40100 44.67600 26.04000
C  40.34700 44.58900 27.44500
C  40.68600 43.25900 27.81700
C  40.23000 45.86100 25.14300
C  40.00400 45.31700 28.64500
O  39.63200 46.42200 28.80600
C  40.14900 44.28100 29.87400
C  41.19500 44.74400 30.83400
O  42.30700 44.99300 30.44900
O  40.73300 44.65900 32.15200
C  41.84300 44.50300 33.07600
H  42.22100 37.62600 30.50200
H  42.31100 37.53100 23.75500
H  40.83000 43.52100 23.37600
H  41.42100 42.05500 31.91000
H  40.52600 39.21800 31.83500
H  43.38300 39.26300 31.93600
H  42.19800 38.99200 33.26700
H  42.87700 40.64900 32.74300
H  38.58500 41.05700 31.38600
H  39.01800 42.57100 31.98400
H  39.89700 40.33000 33.77000
H  38.15700 40.22100 33.39500
H  43.88100 34.83000 28.77300
H  42.16300 34.63800 29.21300
H  43.30100 35.93000 29.86900
H  43.91100 33.93900 26.83700
H  43.24100 33.12400 25.35400
H  42.13500 33.80900 26.62100
H  40.79600 38.87000 22.16100
H  41.69100 41.69000 21.92600
H  43.11600 40.30400 21.09100
H  42.74100 38.66200 20.81300
H  43.70400 39.02000 22.18200
H  39.37200 40.38400 21.19700
H  39.55200 42.02900 21.15200
H  37.60800 40.43200 22.51400
H  37.92200 42.25900 22.60000
H  38.57500 41.12000 23.81100
H  39.81000 46.69800 25.70000
H  39.51100 45.69300 24.34100
H  41.18100 46.21700 24.74600
H  39.15700 44.26600 30.32600
H  42.76700 44.19900 32.58400
H  41.66300 43.78700 33.87800
H  42.02200 45.45000 33.58400

