158

Mg 0.53100 43.52000 25.97200
C  2.50300 43.32400 28.66600
C  -2.26000 42.92900 27.84800
C  -1.45400 43.16100 23.11600
C  3.35400 43.72500 23.89500
N  0.23800 42.96400 27.95400
C  1.15400 43.22500 28.95900
C  0.52800 43.25700 30.37700
C  -0.92500 42.76500 30.13400
C  -1.00100 42.92500 28.53800
C  -1.30600 41.30900 30.53600
C  0.52700 44.65600 31.03200
C  0.76100 44.72400 32.58900
H  0.44100 43.42200 33.38600
N  -1.65400 43.24000 25.53900
C  -2.59300 43.03200 26.50300
C  -3.90900 42.92600 25.93200
C  -3.65500 43.00900 24.53800
C  -2.21900 43.17300 24.31400
C  -5.23200 42.71300 26.64500
C  -4.72800 42.99300 23.34400
O  -4.51100 42.85000 22.15300
C  -6.14100 43.04000 23.65600
N  0.89500 43.30000 23.72700
C  -0.04000 43.18200 22.79200
C  0.54200 42.87200 21.42500
C  2.02500 43.33500 21.67400
C  2.12000 43.53700 23.22900
C  0.29700 41.41400 20.95500
C  2.34000 44.60000 20.81400
C  1.65400 45.93400 21.19000
N  2.68300 43.52800 26.15800
C  3.67800 43.68100 25.24300
C  4.89800 43.67700 25.93700
C  4.49200 43.58600 27.33100
C  3.13600 43.44000 27.37900
C  6.34300 43.80900 25.49700
C  4.94900 43.57100 28.71600
O  6.03100 43.48700 29.16000
C  3.65700 43.54900 29.56000
C  3.91800 42.48200 30.51500
O  3.64200 41.28500 30.34000
O  4.50800 42.96300 31.67000
C  4.72600 42.06400 32.81200
H  -3.06500 42.84600 28.58100
H  -2.16100 43.01600 22.29700
H  4.18800 44.04900 23.27000
H  1.03900 42.55400 31.03500
H  -1.67300 43.47900 30.47700
H  -2.11200 41.47200 31.25200
H  -0.45400 40.80400 30.99100
H  -1.74200 40.76100 29.70100
H  -0.35300 45.21500 30.71500
H  1.42200 45.13900 30.64100
H  0.08000 45.44800 33.03600
H  1.76400 45.07100 32.83800
H  -4.99400 42.74900 27.70800
H  -5.52400 41.75800 26.20800
H  -5.87400 43.55300 26.37600
H  -6.45400 42.17700 24.24300
H  -6.61300 42.93200 22.68000
H  -6.49100 43.95000 24.14300
H  -0.06500 43.51400 20.78600
H  2.74700 42.58400 21.35100
H  -0.23200 41.28000 20.01100
H  -0.44100 40.96600 21.62000
H  1.22300 40.84500 20.87400
H  1.97500 44.39400 19.80800
H  3.40400 44.77900 20.65900
H  2.31500 46.71200 20.80800
H  1.65800 45.97200 22.27900
H  0.61700 45.95500 20.85400
H  6.53900 43.22700 24.59600
H  6.89600 43.38400 26.33400
H  6.51500 44.85800 25.25600
H  3.51000 44.44900 30.15600
H  5.77500 42.06900 33.10800
H  4.32000 41.06400 32.66000
H  4.11400 42.46900 33.61900
Mg -2.66900 34.31300 26.44500
C  -4.46200 33.09200 29.12100
C  -1.80300 37.09400 28.29200
C  -1.04800 35.61100 23.69900
C  -3.79300 31.76400 24.48200
N  -3.13900 34.94100 28.46500
C  -3.70700 34.17000 29.44700
C  -3.49500 34.78100 30.85100
C  -2.99400 36.25400 30.48000
C  -2.53600 36.10500 28.92400
C  -3.99800 37.47500 30.67000
C  -2.46700 33.94200 31.65100
C  -2.51200 34.46100 33.17700
H  -2.72400 33.34400 34.25100
N  -1.60200 36.12900 26.10300
C  -1.45100 37.13800 26.93200
C  -0.73300 38.19800 26.31400
C  -0.43700 37.81700 25.00200
C  -1.05800 36.44300 24.89100
C  -0.37900 39.47100 27.06400
C  0.27200 38.50400 23.88100
O  0.22800 38.02500 22.75700
C  0.94400 39.91400 24.06000
N  -2.55100 33.89000 24.31600
C  -1.73500 34.46700 23.43300
C  -1.72700 33.71500 22.12600
C  -2.56400 32.47900 22.37100
C  -3.01500 32.72600 23.83200
C  -2.27400 34.59000 20.99500
C  -1.73500 31.19900 22.19300
C  -2.49900 30.02600 21.52400
N  -4.06900 32.81800 26.62900
C  -4.33500 31.84700 25.80500
C  -5.22800 30.90800 26.41700
C  -5.33200 31.36300 27.71400
C  -4.56200 32.53100 27.82000
C  -5.94600 29.77800 25.80200
C  -5.87900 31.09300 29.02600
O  -6.59900 30.16300 29.41400
C  -5.28400 32.18400 29.94300
C  -6.44800 32.96800 30.51800
O  -6.91700 33.98600 30.07700
O  -6.95400 32.34800 31.64700
C  -7.88300 33.08300 32.55800
H  -1.47300 37.98100 28.83600
H  -0.35600 35.85800 22.89100
H  -4.05200 30.90600 23.85700
H  -4.47400 34.80800 31.32900
H  -2.13300 36.51500 31.09500
H  -4.80100 37.25700 31.37500
H  -4.20000 37.80900 29.65300
H  -3.42600 38.26800 31.15200
H  -1.52900 33.96300 31.09700
H  -2.76600 32.89400 31.63000
H  -3.27700 35.22300 33.32600
H  -1.58900 34.98500 33.42600
H  -0.84800 39.69300 28.02200
H  -0.48600 40.28000 26.34100
H  0.68300 39.42100 27.30100
H  1.65600 39.80300 24.87800
H  0.06900 40.52800 24.27200
H  1.29100 40.25200 23.08400
H  -0.69300 33.41900 21.94800
H  -3.50500 32.45400 21.82200
H  -3.04200 35.21900 21.44500
H  -2.80100 34.00500 20.24100
H  -1.47900 35.15500 20.51000
H  -1.31800 30.88300 23.14900
H  -0.94900 31.35300 21.45400
H  -3.38800 30.44600 21.05400
H  -2.89800 29.31100 22.24300
H  -1.88100 29.51300 20.78700
H  -6.30100 29.95500 24.78700
H  -6.81400 29.49600 26.39900
H  -5.20600 28.98300 25.70100
H  -4.80300 31.65200 30.76400
H  -8.88300 33.28800 32.17800
H  -7.51000 34.10100 32.67400
H  -7.94100 32.53400 33.49800

