158

Mg -1.68400 17.80300 26.85100
C  -2.64700 15.80800 29.53100
C  -2.67000 20.56500 28.61100
C  -1.00200 19.71500 24.07500
C  -1.68200 14.91300 24.79200
N  -2.63600 18.12400 28.76100
C  -2.69700 17.19100 29.80700
C  -2.95800 17.79400 31.10100
C  -3.40500 19.21100 30.72500
C  -2.90800 19.31900 29.25300
C  -4.92100 19.51000 30.81800
C  -1.76100 17.89100 32.00600
C  -1.95200 17.36100 33.44500
H  -0.70900 17.13600 34.38100
N  -1.69800 19.87200 26.48000
C  -2.16500 20.80300 27.31000
C  -2.15700 22.09300 26.67600
C  -1.42000 21.89700 25.46300
C  -1.26100 20.44700 25.29100
C  -2.74100 23.37000 27.29900
C  -0.95200 23.00900 24.44000
O  -0.35400 22.70700 23.39600
C  -1.00100 24.42000 24.92700
N  -1.40200 17.41600 24.81300
C  -1.06500 18.32300 23.83700
C  -0.98700 17.69500 22.41600
C  -0.76300 16.19400 22.77600
C  -1.31400 16.12200 24.24800
C  -2.16600 18.01000 21.43500
C  0.65800 15.66100 22.76600
C  1.75500 16.63800 23.30000
N  -2.00300 15.77700 27.06300
C  -2.01500 14.76400 26.19900
C  -2.35900 13.50600 26.85700
C  -2.49500 13.87300 28.16700
C  -2.34000 15.26300 28.29100
C  -2.37800 12.14400 26.30300
C  -2.82000 13.34600 29.46300
O  -3.17800 12.19700 29.79400
C  -2.85500 14.59800 30.39800
C  -1.64700 14.31900 31.29700
O  -0.49600 14.62400 30.92200
O  -1.98900 13.84000 32.58800
C  -0.83000 13.68200 33.42500
H  -2.93200 21.39900 29.26500
H  -0.85500 20.37200 23.21500
H  -1.75800 13.96000 24.26300
H  -3.81800 17.21100 31.43100
H  -2.93800 20.06400 31.21800
H  -5.14800 20.42000 30.26200
H  -5.22100 19.58900 31.86300
H  -5.46500 18.70700 30.32100
H  -1.37400 18.90900 32.04000
H  -0.97800 17.35600 31.46700
H  -2.41900 16.37800 33.37100
H  -2.64000 18.05400 33.92800
H  -3.27400 23.96100 26.55400
H  -1.88300 23.99900 27.53900
H  -3.44200 23.22000 28.12000
H  -0.54100 24.47300 25.91400
H  -2.04900 24.70800 25.00700
H  -0.40000 25.04000 24.26200
H  -0.08000 18.11000 21.97700
H  -1.26700 15.49400 22.10900
H  -2.78600 18.78500 21.88600
H  -2.72600 17.12200 21.14300
H  -1.80600 18.35500 20.46600
H  0.88400 15.54600 21.70500
H  0.76200 14.72600 23.31700
H  2.59500 15.99300 23.55400
H  1.46800 17.22900 24.17000
H  2.15100 17.22100 22.46800
H  -1.67000 11.96000 25.49500
H  -3.41100 11.90700 26.05000
H  -2.10700 11.48100 27.12500
H  -3.77700 14.65400 30.97700
H  -0.42300 12.67100 33.42200
H  -1.21400 13.86500 34.42900
H  -0.02600 14.40400 33.28400
Mg 47.03400 24.99800 28.47200
C  48.02700 27.35700 30.82100
C  46.56900 22.71600 31.07600
C  46.15000 22.61100 26.16100
C  48.37500 27.02200 25.96500
N  47.28200 25.10600 30.69900
C  47.48700 26.22900 31.39300
C  47.40900 25.98800 32.90800
C  47.18100 24.41800 32.94300
C  46.94700 24.00400 31.47900
C  48.25200 23.63900 33.71000
C  46.22400 26.75200 33.56900
C  45.56800 26.25800 34.84800
H  45.34100 27.17800 36.03600
N  46.32500 23.00000 28.61500
C  46.15600 22.21400 29.80700
C  45.68500 20.89900 29.48300
C  45.55600 20.83800 28.04200
C  45.97200 22.17600 27.56400
C  45.62800 19.67600 30.48100
C  45.18800 19.60000 27.14600
O  45.26200 19.74600 25.97100
C  44.78200 18.29500 27.72900
N  47.29500 24.84500 26.41000
C  46.74600 23.77800 25.68700
C  46.90200 24.07400 24.19700
C  47.29600 25.55000 24.15900
C  47.73700 25.82100 25.62300
C  47.75900 23.02400 23.53300
C  46.29300 26.65400 23.58400
C  46.77400 27.50900 22.38700
N  47.96300 26.76500 28.33100
C  48.54900 27.44900 27.27200
C  49.13000 28.66600 27.72100
C  48.93000 28.65300 29.07700
C  48.21000 27.53400 29.42400
C  49.77900 29.68500 26.94000
C  49.17500 29.38600 30.21700
O  49.75800 30.39300 30.37700
C  48.48800 28.62400 31.43600
C  49.48900 28.40200 32.52200
O  50.52000 27.77200 32.42800
O  49.18900 29.24800 33.59300
C  50.11800 29.21900 34.75900
H  46.46600 21.98900 31.88500
H  45.84500 21.97500 25.32700
H  48.60800 27.73900 25.17500
H  48.36100 26.17600 33.40600
H  46.26000 24.22100 33.49300
H  49.15100 24.25500 33.73300
H  48.49000 22.75600 33.11800
H  47.97900 23.31300 34.71400
H  45.40900 26.87500 32.85600
H  46.43500 27.81000 33.72800
H  46.16500 25.44900 35.26800
H  44.61300 25.77700 34.63300
H  44.67400 19.15200 30.55200
H  46.00500 20.03000 31.44000
H  46.34600 19.01900 29.99000
H  43.93000 18.38600 28.40300
H  45.62500 17.89000 28.28900
H  44.62900 17.54500 26.95300
H  45.92100 24.01100 23.72700
H  48.19100 25.78100 23.58200
H  48.57000 23.55700 23.03600
H  47.21800 22.42900 22.79800
H  48.16700 22.34100 24.27800
H  45.93200 27.35200 24.34000
H  45.47000 26.10900 23.12100
H  46.08400 27.34500 21.55900
H  47.76000 27.21300 22.02700
H  46.68700 28.53100 22.75500
H  50.50600 29.30400 26.22300
H  50.22900 30.46900 27.54800
H  49.03800 30.22700 26.35100
H  47.64400 29.15500 31.87700
H  49.78400 28.58100 35.57700
H  50.01000 30.18300 35.25400
H  51.14400 29.06800 34.42100

