158

Mg 53.53400 24.66900 44.89500
C  50.88100 26.72500 43.85000
C  51.62900 21.94900 43.90300
C  56.32500 22.82500 45.00100
C  55.26400 27.60200 45.90700
N  51.60600 24.34400 43.89500
C  50.79200 25.37700 43.43800
C  49.64800 24.82700 42.61500
C  49.60000 23.32400 43.16800
C  51.02000 23.16700 43.83700
C  48.49700 23.04000 44.17800
C  50.00200 24.90000 41.14100
C  48.75100 25.07400 40.24300
H  49.14100 25.84900 38.92400
N  53.94100 22.67200 44.26700
C  52.99600 21.66900 44.10000
C  53.66100 20.43100 44.01200
C  55.02500 20.62100 44.31100
C  55.19400 22.13600 44.48600
C  52.92300 19.13800 43.66000
C  56.05300 19.51700 44.48200
O  55.73900 18.35600 44.21600
C  57.46700 19.83900 44.83400
N  55.52500 25.15500 45.47400
C  56.50100 24.20000 45.40300
C  57.86900 24.86700 45.80800
C  57.64400 26.37600 45.74400
C  56.06300 26.39900 45.72800
C  58.43800 24.35500 47.10500
C  58.27500 27.18500 44.49100
C  58.86200 28.56600 44.83600
N  53.00800 26.72100 45.13500
C  53.81300 27.75100 45.67300
C  53.08100 28.98400 45.58100
C  51.88700 28.61900 44.87200
C  52.00400 27.26000 44.51900
C  53.47300 30.31300 46.08700
C  50.62000 29.15000 44.32500
O  50.14300 30.23000 44.37000
C  50.00300 27.86500 43.50800
C  49.80400 28.26200 42.03600
O  50.71200 28.30300 41.25500
O  48.48900 28.64700 41.85400
C  48.23100 29.15100 40.49500
H  50.95300 21.09200 43.87100
H  57.26800 22.28700 45.12100
H  55.75600 28.56900 46.03000
H  48.64300 25.18400 42.84100
H  49.52100 22.59400 42.36400
H  47.95600 23.97300 44.33900
H  48.81100 22.73300 45.17600
H  47.83600 22.26100 43.79700
H  50.46900 23.95300 40.87100
H  50.74200 25.67600 40.94200
H  48.00600 25.62900 40.81400
H  48.23000 24.15200 39.98600
H  53.05200 18.89900 42.60400
H  51.84200 19.21800 43.77500
H  53.26400 18.21000 44.11900
H  58.17600 19.01300 44.77700
H  57.42900 20.13800 45.88100
H  57.98400 20.60100 44.24900
H  58.62600 24.63700 45.05800
H  58.02700 26.94100 46.59400
H  58.84200 25.23600 47.60400
H  59.13900 23.55500 46.86700
H  57.68000 23.81300 47.67100
H  57.48100 27.35600 43.76400
H  59.07200 26.61800 44.01200
H  59.02500 28.79700 45.88800
H  58.16000 29.35400 44.56000
H  59.80900 28.55000 44.29500
H  54.00700 30.84900 45.30200
H  54.10700 30.30300 46.97300
H  52.55100 30.82200 46.36800
H  49.02600 27.62200 43.92600
H  48.91900 29.05000 39.65600
H  48.01600 30.20900 40.64000
H  47.28800 28.71200 40.16600
Mg -5.99000 25.29600 26.42800
C  -4.51500 26.41500 29.33300
C  -7.90400 23.12400 28.35100
C  -6.83300 23.57600 23.66400
C  -3.56200 27.03500 24.62600
N  -6.26400 24.89100 28.56400
C  -5.58900 25.53300 29.61600
C  -6.14700 25.08400 30.99900
C  -6.98400 23.81200 30.65700
C  -7.13500 23.90700 29.11900
C  -6.38900 22.44100 31.21000
C  -6.83900 26.19900 31.80400
C  -6.59400 26.21100 33.32900
H  -5.82400 24.97500 33.91300
N  -7.28400 23.63200 26.04900
C  -7.93200 22.89300 26.97400
C  -8.79800 21.95200 26.29200
C  -8.60900 22.07300 24.87700
C  -7.51400 23.10500 24.81200
C  -9.72100 21.05700 27.00000
C  -9.26200 21.31800 23.77100
O  -8.97900 21.70300 22.62400
C  -10.32600 20.28600 23.96600
N  -5.29000 25.30000 24.45000
C  -5.89100 24.56600 23.44400
C  -5.18600 24.77900 22.15200
C  -4.33700 26.07600 22.37300
C  -4.36100 26.17600 23.90900
C  -4.24600 23.63400 21.72000
C  -5.01800 27.39700 21.84700
C  -4.35100 27.96100 20.60300
N  -4.45300 26.61800 26.82800
C  -3.64900 27.34500 26.00200
C  -2.75700 28.16300 26.79800
C  -3.12900 27.89200 28.11800
C  -4.10000 26.87300 28.05600
C  -1.75300 29.08100 26.27100
C  -2.76000 28.16800 29.48200
O  -1.84200 28.81600 29.97100
C  -3.62500 27.20400 30.32500
C  -2.57500 26.33000 30.95400
O  -1.81100 25.47600 30.49000
O  -2.55300 26.72700 32.30200
C  -1.33200 26.25200 32.97000
H  -8.65100 22.55800 28.91200
H  -7.06200 23.06600 22.72600
H  -2.81200 27.64700 24.12000
H  -5.19400 24.87300 31.48400
H  -7.98500 23.88800 31.08100
H  -7.08500 21.91700 31.86600
H  -5.44600 22.60200 31.73300
H  -6.17300 21.82300 30.33800
H  -7.91300 26.12000 31.63900
H  -6.35800 27.09500 31.40900
H  -7.53200 26.40700 33.84900
H  -5.99700 27.10400 33.51100
H  -9.47100 20.02900 26.74000
H  -10.76300 21.32200 26.81800
H  -9.70000 20.99200 28.08700
H  -10.61100 19.86600 24.93100
H  -10.15000 19.60400 23.13500
H  -11.28200 20.75400 23.73000
H  -5.91900 24.87400 21.35100
H  -3.34700 26.06000 21.91600
H  -3.19800 23.91700 21.81900
H  -4.32500 23.46500 20.64600
H  -4.27100 22.68900 22.26300
H  -5.02100 28.20600 22.57800
H  -6.09900 27.31200 21.73700
H  -4.15800 29.03100 20.67800
H  -4.92400 27.66000 19.72500
H  -3.35100 27.53500 20.51200
H  -1.02700 28.76600 25.52100
H  -1.05500 29.14200 27.10600
H  -1.90900 30.13800 26.05300
H  -4.04800 27.88000 31.06800
H  -1.56200 25.24400 33.31600
H  -1.10800 26.89600 33.82000
H  -0.47100 26.27700 32.30200

