158

Mg 46.13100 2.98800 47.46900
C  43.61500 5.36000 46.74200
C  43.71800 0.55900 47.27800
C  48.59600 0.75100 47.18500
C  48.50700 5.54900 46.98200
N  43.97600 2.97300 46.88500
C  43.08300 4.07800 46.79000
C  41.59000 3.63200 46.72600
C  41.73900 2.13200 47.18200
C  43.27000 1.81700 47.03800
C  40.92100 1.79100 48.46400
C  41.18600 3.74500 45.19800
C  39.88900 4.40300 44.79400
H  39.97800 5.59600 43.87200
N  46.14500 0.89800 47.31900
C  45.09200 0.11200 47.26600
C  45.56000 -1.31300 47.18400
C  46.97900 -1.31100 47.01800
C  47.35100 0.13000 47.16700
C  44.64700 -2.47900 47.36100
C  47.88200 -2.53500 46.77200
O  47.45800 -3.68500 46.73000
C  49.39000 -2.24800 46.61800
N  48.34900 3.12200 47.38000
C  49.05500 2.03900 47.18100
C  50.56200 2.43200 47.16800
C  50.48000 3.92000 46.72100
C  49.02000 4.24700 47.04000
C  51.44400 2.22500 48.41100
C  50.91300 4.25800 45.24600
C  52.38100 3.92300 44.79900
N  46.07600 5.02700 47.03400
C  47.09000 5.94000 46.88300
C  46.53000 7.26800 46.60200
C  45.14700 7.05600 46.61400
C  44.93600 5.67100 46.82000
C  47.28700 8.50000 46.37200
C  43.88200 7.73200 46.53400
O  43.59800 8.88700 46.41100
C  42.80300 6.66900 46.68500
C  41.94800 7.09800 47.84100
O  42.30200 7.31500 49.00400
O  40.69900 7.42700 47.30100
C  39.74700 7.91600 48.27800
H  42.87500 -0.13400 47.31600
H  49.51800 0.16800 47.22500
H  49.23300 6.27100 46.60300
H  40.81900 4.16200 47.28600
H  41.25700 1.40100 46.53300
H  40.43700 2.68300 48.86200
H  41.66100 1.44000 49.18300
H  40.14300 1.04500 48.30300
H  41.03000 2.74100 44.80300
H  42.07800 4.11400 44.69100
H  39.42000 4.88900 45.65000
H  39.14800 3.70300 44.40900
H  43.64600 -2.16000 47.65100
H  45.00100 -3.26600 48.02600
H  44.49500 -2.89600 46.36500
H  49.81600 -1.92900 47.56900
H  49.51200 -1.46400 45.87100
H  49.88300 -3.17100 46.31300
H  51.06800 2.00500 46.30200
H  51.05400 4.42800 47.49600
H  50.86700 2.01800 49.31300
H  52.17900 3.01300 48.57300
H  51.93300 1.28300 48.16400
H  50.63700 5.30500 45.11900
H  50.30300 3.74700 44.50100
H  52.89100 4.85400 44.55300
H  52.31100 3.20500 43.98200
H  52.93000 3.41500 45.59200
H  48.07000 8.60100 47.12400
H  46.65200 9.38500 46.33600
H  47.74200 8.44800 45.38200
H  42.20300 6.71700 45.77600
H  39.61700 7.29900 49.16700
H  38.81100 8.16600 47.77800
H  40.15100 8.89000 48.55500
Mg -0.69100 44.01900 24.87500
C  1.75000 43.24900 27.28600
C  -3.14800 43.25100 27.26800
C  -2.94700 44.55600 22.53200
C  1.80500 44.43300 22.59000
N  -0.66600 43.22300 26.94400
C  0.44000 43.05200 27.74900
C  0.01900 42.93900 29.17600
C  -1.51700 42.65400 29.12200
C  -1.82500 42.99400 27.67000
C  -1.92400 41.23600 29.49100
C  0.30900 44.32500 29.92500
C  1.03100 44.12600 31.32400
H  0.69600 42.81500 32.07100
N  -2.78200 43.96100 24.93200
C  -3.61600 43.62400 25.99400
C  -5.00100 43.79400 25.51500
C  -4.96400 44.20800 24.18400
C  -3.51600 44.26700 23.81100
C  -6.15600 43.51600 26.44700
C  -6.10500 44.50700 23.15000
O  -5.92200 44.86100 21.96100
C  -7.49800 44.44800 23.66400
N  -0.55200 44.40700 22.79800
C  -1.58200 44.52700 22.02200
C  -1.30400 44.76000 20.53000
C  0.28000 44.87900 20.63100
C  0.56700 44.55600 22.08600
C  -1.84600 43.46700 19.71000
C  0.81000 46.26000 20.18600
C  1.14500 47.30700 21.33300
N  1.29000 43.81000 24.88400
C  2.15500 44.00600 23.85800
C  3.54200 43.87500 24.38000
C  3.44300 43.64300 25.72300
C  2.05400 43.57500 25.95200
C  4.83500 44.04800 23.57600
C  4.15600 43.42100 26.93100
O  5.37700 43.29600 27.09400
C  3.05800 43.27400 27.99000
C  3.35000 42.03400 28.75500
O  2.95600 40.93600 28.39900
O  4.30800 42.25000 29.70400
C  4.67200 41.17800 30.65000
H  -3.85900 43.04600 28.07000
H  -3.66000 44.60000 21.70600
H  2.66500 44.54400 21.92600
H  0.48700 42.10600 29.70100
H  -2.06900 43.25600 29.84300
H  -2.59800 40.93900 28.68800
H  -2.34700 41.11900 30.48800
H  -1.11200 40.51500 29.38900
H  -0.61900 44.87900 30.06700
H  0.91500 45.00500 29.32500
H  0.74100 44.91200 32.02200
H  2.10900 44.15100 31.16500
H  -6.78500 42.86000 25.84600
H  -6.64500 44.47600 26.61800
H  -5.93100 43.09400 27.42700
H  -8.23700 44.94500 23.03500
H  -7.55400 44.93000 24.64000
H  -7.76400 43.39600 23.76500
H  -1.77700 45.67300 20.16700
H  0.78700 44.14600 20.00400
H  -1.91900 42.57700 20.33500
H  -1.12700 43.20300 18.93500
H  -2.75600 43.71000 19.16000
H  0.18800 46.77800 19.45500
H  1.76600 46.09200 19.69000
H  1.26600 48.33400 20.98800
H  2.08900 46.86500 21.65300
H  0.43600 47.31700 22.16100
H  4.69600 43.36900 22.73500
H  5.75700 43.71600 24.05300
H  4.85200 45.05900 23.16800
H  3.13200 44.14400 28.64300
H  5.23700 40.39400 30.14500
H  3.77500 40.79900 31.13900
H  5.33900 41.60900 31.39700

