158

Mg 44.89000 4.54800 46.44800
C  42.92300 7.47300 46.84300
C  41.91000 2.90000 45.95700
C  46.72900 1.87100 45.80900
C  47.72100 6.53800 46.62000
N  42.67800 5.22000 46.38400
C  42.07900 6.41600 46.60300
C  40.58200 6.37600 46.57200
C  40.29100 4.82400 46.60200
C  41.72200 4.26500 46.30300
C  39.51900 4.28800 47.78400
C  39.98700 7.28800 45.42200
C  40.45900 7.23600 43.98400
H  39.74800 6.38700 42.94400
N  44.39100 2.64700 45.86600
C  43.08300 2.13400 45.78900
C  43.20800 0.71600 45.54200
C  44.60000 0.37800 45.41300
C  45.29700 1.67000 45.64300
C  41.99700 -0.22100 45.27500
C  45.16100 -1.02700 45.11600
O  44.44200 -2.03600 45.17600
C  46.44400 -1.22200 44.52400
N  46.99600 4.33900 45.91300
C  47.53700 3.09500 45.86900
C  48.98700 3.09900 46.24600
C  49.36000 4.66500 46.14200
C  47.90000 5.24100 46.24900
C  49.35300 2.55700 47.65100
C  49.96500 5.20300 44.79100
C  51.44600 5.79200 44.90600
N  45.32300 6.60600 46.67900
C  46.54400 7.26700 46.78600
C  46.34500 8.64500 47.12400
C  44.92700 8.78600 47.12800
C  44.35000 7.52100 46.84600
C  47.38800 9.76500 47.08600
C  43.85800 9.68800 47.30700
O  43.78500 10.86600 47.42400
C  42.52200 8.82000 47.21200
C  41.76000 8.96000 48.42900
O  41.98800 8.29300 49.42200
O  40.58000 9.69700 48.24000
C  39.59000 9.54700 49.33800
H  40.90700 2.46900 45.96000
H  47.30800 0.95900 45.65300
H  48.64800 7.04800 46.89100
H  40.40300 6.83600 47.54300
H  39.58700 4.57900 45.80600
H  39.24000 4.98200 48.57700
H  40.12300 3.45100 48.13500
H  38.62200 3.68800 47.63600
H  40.02700 8.33900 45.70700
H  38.95500 6.97100 45.57500
H  41.45000 6.78600 43.93300
H  40.35600 8.24900 43.59400
H  41.81800 -0.33100 44.20500
H  41.00900 0.04700 45.65000
H  42.31200 -1.21400 45.59800
H  46.38700 -1.85800 43.64200
H  47.15300 -1.73900 45.17000
H  46.92100 -0.29700 44.20100
H  49.45800 2.51000 45.45800
H  49.85600 5.14200 46.98700
H  48.41000 2.34600 48.15500
H  49.88700 3.29000 48.25500
H  50.02300 1.70100 47.56100
H  49.24700 5.92300 44.39900
H  49.95200 4.45400 43.99900
H  51.53500 6.59400 44.17300
H  52.11600 4.96900 44.65700
H  51.63400 6.15700 45.91600
H  46.94000 10.67400 46.68400
H  48.31500 9.57300 46.54500
H  47.63300 10.06000 48.10600
H  41.83900 9.30600 46.51500
H  38.62900 9.67400 48.83900
H  39.74200 10.30700 50.10500
H  39.59500 8.57100 49.82300
Mg 42.91500 42.21100 25.75800
C  42.07500 44.58200 28.36800
C  43.76500 40.02300 28.29100
C  43.94000 40.12600 23.32900
C  42.31300 44.63200 23.45100
N  42.87400 42.29400 28.13000
C  42.41600 43.32500 28.90600
C  42.49200 42.90700 30.41700
C  43.13800 41.50700 30.34300
C  43.25100 41.20800 28.81200
C  44.47100 41.29000 31.08600
C  41.11400 42.96700 30.99600
C  40.85500 42.27400 32.36100
H  41.25800 43.09200 33.59700
N  43.76500 40.33200 25.78600
C  44.01200 39.57900 26.97700
C  44.46800 38.23900 26.55400
C  44.56700 38.24800 25.08200
C  44.08900 39.59800 24.67600
C  45.00100 37.15700 27.38400
C  44.93700 37.11600 24.13500
O  45.19600 37.31800 23.01800
C  45.16800 35.73100 24.63600
N  43.07900 42.45300 23.71000
C  43.43000 41.35500 22.91000
C  43.28800 41.73300 21.45100
C  42.52200 42.98700 21.51300
C  42.56100 43.38600 23.00200
C  44.66600 41.86000 20.70700
C  41.05600 42.88200 20.95600
C  40.00900 42.34200 22.06000
N  42.50100 44.29100 25.84500
C  42.21300 45.06600 24.79500
C  41.84000 46.37300 25.27100
C  41.70300 46.18900 26.62900
C  42.06900 44.90700 26.95900
C  41.51500 47.45800 24.35200
C  41.29900 46.80400 27.83900
O  40.88800 47.93700 28.06700
C  41.54100 45.80200 29.09500
C  42.58100 46.41200 29.95600
O  43.64400 46.82800 29.49900
O  42.10400 46.62500 31.23200
C  42.95500 47.51700 32.03600
H  44.12400 39.31900 29.04500
H  44.27300 39.46500 22.52600
H  41.94800 45.41500 22.78300
H  43.01800 43.65600 31.00900
H  42.42300 40.80100 30.76600
H  45.23600 41.30800 30.31000
H  44.36100 40.31900 31.57000
H  44.66800 42.17300 31.69300
H  40.41100 42.45300 30.34000
H  40.69600 43.94500 31.23400
H  41.34100 41.30300 32.45700
H  39.78400 42.08800 32.44900
H  45.25100 37.58300 28.35600
H  45.99900 36.81300 27.11200
H  44.41600 36.24500 27.49700
H  44.99200 34.97100 23.87500
H  44.31500 35.50400 25.27600
H  46.16200 35.62700 25.07100
H  42.71500 41.02800 20.84900
H  42.92100 43.76500 20.86100
H  45.36600 41.17300 21.18300
H  45.09500 42.85600 20.81400
H  44.59700 41.65900 19.63800
H  41.01600 42.19300 20.11200
H  40.78300 43.86600 20.57500
H  40.55800 41.66000 22.70900
H  39.31400 41.62800 21.61600
H  39.38600 43.06300 22.58800
H  42.41200 47.80100 23.83600
H  41.17500 48.33600 24.90000
H  40.74800 47.24800 23.60700
H  40.57800 45.58700 29.55700
H  43.47300 46.84500 32.72100
H  42.34700 48.22500 32.60000
H  43.75800 47.94000 31.43300

