158

Mg 36.58100 49.21300 25.55000
C  36.49400 47.24900 28.52700
C  35.25800 51.84700 27.41700
C  36.32200 50.98700 22.68700
C  37.45300 46.36700 23.81400
N  35.88100 49.42000 27.64600
C  36.14700 48.55200 28.70000
C  35.96200 49.29000 30.06300
C  35.31500 50.65400 29.69800
C  35.50800 50.64200 28.18600
C  33.84100 50.86300 30.10300
C  37.32500 49.46400 30.92900
C  37.20200 49.65500 32.48200
H  35.81300 49.70000 33.01000
N  35.93400 51.16200 25.09600
C  35.43400 52.10200 25.99300
C  35.33300 53.35200 25.28800
C  35.65300 53.15800 23.90800
C  36.05900 51.73800 23.84000
C  34.87200 54.55000 26.00100
C  35.80200 54.24000 22.72600
O  36.19600 53.89600 21.64100
C  35.64200 55.72000 22.86500
N  36.66900 48.66100 23.52300
C  36.63700 49.64100 22.50900
C  36.99500 49.03300 21.16500
C  37.57600 47.66700 21.67300
C  37.23200 47.54500 23.04700
C  35.77800 49.14600 20.15300
C  39.10900 47.55300 21.31300
C  40.16600 48.34400 22.06100
N  36.86500 47.14300 26.01700
C  37.24700 46.14200 25.17600
C  37.59900 44.99900 26.04000
C  37.31800 45.38500 27.36800
C  36.82300 46.67000 27.31100
C  38.28400 43.77200 25.66800
C  37.29300 44.89900 28.71900
O  37.74500 43.83800 29.25700
C  36.65100 46.07200 29.51400
C  35.25700 45.80000 30.01600
O  34.28700 45.72500 29.31000
O  35.24200 45.83900 31.39500
C  33.94400 45.37600 31.97300
H  34.87100 52.67000 28.02100
H  36.27500 51.48900 21.71800
H  37.87700 45.41000 23.50500
H  35.30800 48.69000 30.69600
H  35.91000 51.48900 30.06700
H  33.81100 51.78600 30.68300
H  33.50800 50.03100 30.72300
H  33.14800 50.98300 29.27000
H  37.90100 50.29900 30.53100
H  37.92900 48.56500 30.80700
H  37.84900 50.47600 32.79000
H  37.66000 48.79100 32.96400
H  35.63400 55.30600 26.19400
H  34.33500 54.37600 26.93300
H  34.11000 55.06600 25.41700
H  35.16800 56.19100 23.72600
H  35.04100 56.00300 22.00100
H  36.66600 56.08600 22.79300
H  37.86300 49.58100 20.79800
H  37.03400 46.81700 21.25800
H  35.67300 48.17800 19.66400
H  36.03900 49.88800 19.39800
H  34.92400 49.46200 20.75200
H  39.04500 47.74000 20.24100
H  39.27500 46.48000 21.40300
H  39.82100 49.13800 22.72400
H  40.93100 48.75600 21.40200
H  40.71700 47.65100 22.69700
H  38.80100 43.97500 24.73100
H  37.58200 42.94200 25.59000
H  39.14000 43.58100 26.31600
H  37.19200 46.47000 30.37200
H  33.85400 45.71800 33.00400
H  34.02000 44.29200 32.05500
H  33.10300 45.74100 31.38300
Mg 6.20600 53.14800 40.38500
C  6.14200 49.53600 39.81000
C  9.59000 52.99500 39.83500
C  6.12000 56.38500 40.12200
C  2.61900 53.05600 40.53400
N  7.59500 51.45800 39.85400
C  7.47000 50.08600 39.70900
C  8.82300 49.40000 39.42200
C  9.82500 50.49200 39.92200
C  8.96800 51.76900 39.89800
C  10.39400 50.37400 41.33900
C  9.05200 48.93300 37.97600
C  8.70600 50.04500 36.91300
H  7.52600 49.81400 35.97500
N  7.66400 54.51300 40.09600
C  9.01700 54.26000 39.96500
C  9.69300 55.50900 39.94400
C  8.68200 56.55300 40.08000
C  7.43700 55.82300 40.14200
C  11.18300 55.66600 39.75800
C  8.85500 58.09400 40.06600
O  9.93600 58.64200 39.71000
C  7.90300 59.04400 40.66700
N  4.47600 54.51600 40.23100
C  4.80000 55.84200 40.18100
C  3.57600 56.69600 40.12500
C  2.38900 55.63800 40.33300
C  3.14800 54.32200 40.41400
C  3.66100 57.85600 41.27500
C  1.24800 55.76200 39.27200
C  -0.06800 55.00700 39.64100
N  4.68900 51.61000 40.22500
C  3.29300 51.78200 40.36700
C  2.72700 50.50700 40.42800
C  3.76700 49.61400 40.23000
C  4.92900 50.27700 40.07400
C  1.26900 50.23800 40.62200
C  4.08300 48.20700 40.19300
O  3.36900 47.21600 40.36800
C  5.62500 48.09800 39.83600
C  5.84800 47.42000 38.50200
O  5.20900 47.68200 37.51200
O  6.58500 46.24400 38.69800
C  6.80200 45.41000 37.57000
H  10.68100 52.93800 39.86400
H  6.08900 57.47400 40.19500
H  1.54700 53.07800 40.74100
H  8.99800 48.65700 40.19900
H  10.59100 50.71400 39.17800
H  10.16000 49.43200 41.83400
H  10.05200 51.18800 41.97800
H  11.46500 50.51600 41.19300
H  8.46200 48.02900 37.82700
H  10.08700 48.72300 37.70300
H  9.60400 50.44000 36.43800
H  8.37400 50.93600 37.44600
H  11.45300 56.70900 39.59300
H  11.49800 55.07400 38.89900
H  11.65400 55.20300 40.62500
H  8.35000 59.86600 41.22500
H  7.30500 58.56800 41.44300
H  7.13500 59.39400 39.97800
H  3.66800 57.16700 39.14600
H  1.89100 55.86400 41.27600
H  3.30700 58.75500 40.76900
H  4.57300 58.00900 41.85200
H  2.96300 57.71300 42.10000
H  1.65100 55.27000 38.38700
H  1.02200 56.82600 39.20100
H  -0.83900 55.75000 39.84300
H  0.00700 54.63900 40.66500
H  -0.41700 54.28200 38.90600
H  0.71700 51.17600 40.66900
H  1.07700 49.79600 41.60000
H  0.94500 49.66100 39.75600
H  6.02700 47.49700 40.65200
H  5.93300 45.43300 36.91300
H  6.79900 44.36600 37.88300
H  7.67600 45.73700 37.00700

