158

Mg 44.99100 4.60600 47.18700
C  43.25400 7.63900 46.72200
C  42.00800 3.00500 46.41900
C  46.78700 1.80300 46.85800
C  47.93400 6.54300 47.06400
N  42.85400 5.30000 46.55200
C  42.38600 6.55700 46.61400
C  40.88400 6.60700 46.32100
C  40.50400 5.09400 46.33600
C  41.84500 4.40100 46.43200
C  39.54900 4.58200 47.40900
C  40.41700 7.54900 45.18900
C  41.13500 7.70200 43.84800
H  40.30300 7.32800 42.60100
N  44.44200 2.68800 46.78500
C  43.15800 2.18000 46.55800
C  43.20800 0.78300 46.31400
C  44.61500 0.44500 46.47100
C  45.30900 1.69800 46.74400
C  42.07600 -0.04600 45.73300
C  45.15200 -0.97500 46.21900
O  44.39900 -1.89700 46.02700
C  46.67500 -1.29600 46.24700
N  47.09400 4.25700 46.85400
C  47.55300 2.94300 47.05500
C  49.10200 2.88600 47.09300
C  49.43100 4.35800 47.02700
C  48.06600 5.12100 46.93100
C  49.58400 2.08100 48.38500
C  50.38500 4.86800 45.86600
C  51.56800 5.89600 46.17300
N  45.53900 6.70300 47.08700
C  46.75200 7.31000 47.12300
C  46.59400 8.79400 47.21100
C  45.22100 8.95300 47.08000
C  44.62000 7.63400 46.91800
C  47.72900 9.84500 47.23600
C  44.16900 9.92200 46.91300
O  44.23900 11.15600 46.99800
C  42.92200 9.09900 46.67700
C  41.96400 9.39300 47.76600
O  41.72400 8.68200 48.75000
O  41.33700 10.51200 47.47800
C  39.94400 10.41100 47.96100
H  41.07800 2.47000 46.22200
H  47.41600 0.91500 46.94300
H  48.83400 7.14800 47.19100
H  40.43600 7.12000 47.17200
H  40.17500 4.80100 45.33900
H  38.81500 5.27500 47.81900
H  40.16900 4.30600 48.26200
H  38.92800 3.73000 47.13400
H  40.22400 8.56800 45.52200
H  39.44700 7.20700 44.82900
H  42.07200 7.14600 43.79900
H  41.29500 8.77400 43.73100
H  42.38300 -0.50900 44.79500
H  41.20300 0.58900 45.58700
H  41.96900 -0.89200 46.41200
H  46.72700 -2.37600 46.11100
H  47.02600 -1.01600 47.24000
H  47.30000 -0.75100 45.53900
H  49.31300 2.42300 46.12900
H  49.86300 4.74900 47.94800
H  49.37300 1.01200 48.39900
H  49.14200 2.57800 49.24900
H  50.65200 2.26100 48.50500
H  49.83600 5.22200 44.99400
H  50.90900 3.98100 45.51100
H  51.38800 6.75100 45.52200
H  52.52700 5.48700 45.85600
H  51.50400 6.30400 47.18200
H  48.12500 10.19500 46.28300
H  48.46000 9.16000 47.66700
H  47.70600 10.64700 47.97300
H  42.41300 9.41600 45.76700
H  39.37900 11.25300 47.56000
H  39.84100 10.32100 49.04300
H  39.40300 9.56100 47.54600
Mg 41.94600 41.86100 27.59100
C  40.83000 44.30900 29.89100
C  42.80000 39.83800 30.17700
C  43.24100 39.74400 25.35100
C  41.39300 44.28200 25.03300
N  41.69100 42.01800 29.76500
C  41.18800 43.12200 30.53000
C  41.21700 42.75800 32.05900
C  42.07200 41.38600 32.06600
C  42.31000 41.07200 30.62100
C  43.34500 41.54500 32.98300
C  39.79000 42.63900 32.73900
C  39.84100 43.17900 34.15900
H  39.39200 42.17500 35.24700
N  42.88600 40.08700 27.67500
C  43.09600 39.32500 28.84800
C  43.43500 37.93800 28.50900
C  43.55400 37.89900 27.10900
C  43.25300 39.28200 26.60700
C  43.69000 36.88700 29.54900
C  43.82300 36.70100 26.19900
O  43.91900 36.77700 24.97000
C  44.14400 35.33300 26.73500
N  42.27000 42.08400 25.54400
C  42.80800 41.04900 24.83200
C  42.80000 41.25500 23.30300
C  41.93200 42.57100 23.24800
C  41.96000 43.06000 24.68900
C  44.23000 41.36400 22.67400
C  40.48700 42.48400 22.62800
C  39.46000 41.82400 23.59400
N  41.37500 43.95100 27.48000
C  41.06000 44.73800 26.34400
C  40.43500 45.93300 26.78200
C  40.33600 45.82300 28.14900
C  40.96700 44.65600 28.53500
C  40.08200 47.18900 25.99100
C  39.87400 46.45700 29.30700
O  39.23800 47.53100 29.42800
C  40.22100 45.48800 30.51700
C  41.15600 46.16700 31.44900
O  42.36100 46.27200 31.31400
O  40.59000 46.51500 32.68200
C  41.53500 46.99200 33.77000
H  42.97500 39.19700 31.04400
H  43.31900 38.99100 24.56400
H  41.04200 45.01000 24.29900
H  41.71400 43.65300 32.43200
H  41.48900 40.58600 32.52200
H  44.08600 40.78700 32.72900
H  43.03400 41.33600 34.00700
H  43.80700 42.53200 32.96600
H  39.37900 41.62900 32.72400
H  38.93300 43.04300 32.20000
H  39.27400 44.11000 34.17800
H  40.85800 43.40500 34.48200
H  43.20000 35.95400 29.27000
H  43.37200 37.23800 30.53000
H  44.75800 36.67500 29.58500
H  45.05400 35.33800 27.33500
H  44.20700 34.59700 25.93400
H  43.21300 35.07700 27.24100
H  42.26400 40.42100 22.85000
H  42.38200 43.33700 22.61700
H  44.85200 41.93300 23.36500
H  44.15500 41.84400 21.69800
H  44.57200 40.34700 22.48400
H  40.55700 41.96200 21.67300
H  40.21700 43.50700 22.36900
H  39.75000 41.83300 24.64400
H  39.29300 40.80300 23.25200
H  38.50100 42.32600 23.46500
H  39.27400 47.05700 25.27100
H  40.92900 47.31200 25.31600
H  40.00100 48.04200 26.66500
H  39.40300 45.11900 31.13500
H  41.13100 47.62000 34.56400
H  42.41000 47.54400 33.42700
H  41.81200 46.13200 34.38000

