158

Mg 2.35700 -2.03500 45.04700
C  5.69100 -1.05500 44.45100
C  1.32300 0.53800 43.03300
C  -0.68700 -3.30600 45.37300
C  3.70200 -4.97200 46.63100
N  3.41000 -0.52900 43.67800
C  4.77200 -0.24600 43.73600
C  5.10900 0.94000 42.79900
C  3.68400 1.53100 42.51200
C  2.74600 0.45500 43.13700
C  3.35600 2.98500 43.05100
C  5.96400 0.47400 41.55600
C  7.25400 1.32100 41.30600
H  7.93100 1.15100 40.00900
N  0.52600 -1.37600 44.33700
C  0.32500 -0.35700 43.51800
C  -1.04400 -0.37700 43.19800
C  -1.73500 -1.37400 43.96400
C  -0.65400 -2.04900 44.63500
C  -1.58700 0.66300 42.19600
C  -3.17900 -1.71400 43.92700
O  -3.83000 -0.98300 43.24900
C  -3.84200 -2.61300 44.86000
N  1.63800 -3.88800 45.89400
C  0.27300 -4.13400 45.92300
C  0.09700 -5.49300 46.66900
C  1.45500 -6.14000 46.75900
C  2.34100 -4.95400 46.42400
C  -0.70900 -5.26100 48.05800
C  1.76100 -7.41200 45.93400
C  2.64500 -8.49600 46.55600
N  4.25500 -2.87600 45.54000
C  4.61100 -4.08300 46.14000
C  6.07700 -4.10400 46.33700
C  6.52000 -2.90800 45.67500
C  5.42300 -2.22800 45.15800
C  6.92800 -5.17400 46.95200
C  7.69400 -2.23900 45.19600
O  8.89400 -2.50800 45.20900
C  7.16900 -0.93800 44.56000
C  7.51400 0.02000 45.53400
O  7.30200 -0.13400 46.72900
O  7.98600 1.19400 44.90600
C  7.98700 2.43400 45.71300
H  0.82700 1.31200 42.44400
H  -1.71700 -3.64500 45.50300
H  4.00500 -5.83700 47.22500
H  5.58200 1.63600 43.49200
H  3.48200 1.56300 41.44100
H  4.32200 3.38600 43.35900
H  2.63400 2.98400 43.86800
H  2.99400 3.49100 42.15700
H  5.37300 0.31800 40.65400
H  6.33900 -0.51500 41.81800
H  8.00200 1.14300 42.07800
H  6.89800 2.33100 41.50800
H  -1.13800 0.48300 41.21900
H  -1.38600 1.68100 42.53200
H  -2.67400 0.65200 42.11800
H  -3.74200 -3.66400 44.59200
H  -4.89800 -2.35700 44.77700
H  -3.38200 -2.37000 45.81800
H  -0.54200 -6.09400 46.02300
H  1.59400 -6.38000 47.81400
H  -0.97600 -6.12100 48.67100
H  -1.64100 -4.77900 47.76000
H  -0.14700 -4.59700 48.71500
H  2.23100 -7.18300 44.97800
H  0.82200 -7.88500 45.64700
H  3.43100 -8.78000 45.85600
H  2.16100 -9.42800 46.84800
H  3.06100 -8.05500 47.46200
H  7.87800 -4.83700 47.36600
H  7.18400 -5.89600 46.17700
H  6.42700 -5.68400 47.77500
H  7.71300 -0.74500 43.63500
H  9.03300 2.68100 45.89300
H  7.45500 2.29900 46.65500
H  7.45000 3.21400 45.17300
Mg 48.76000 36.30500 27.73000
C  46.60600 34.76800 30.11200
C  49.04700 38.87500 29.82600
C  50.35300 37.82900 25.22800
C  47.88200 33.67700 25.53100
N  48.21500 36.56500 29.93500
C  47.27500 35.83500 30.65100
C  47.15900 36.41300 32.10500
C  47.64500 37.96000 31.89200
C  48.34700 37.80200 30.44900
C  46.47800 39.01800 31.84000
C  48.00100 35.62100 33.12400
C  49.38400 36.13400 33.53400
H  49.47200 36.92100 34.88700
N  49.64300 38.03900 27.57600
C  49.66000 38.96000 28.52700
C  50.46200 40.06600 28.11800
C  50.88000 39.76800 26.79600
C  50.32400 38.46900 26.46500
C  50.96000 41.17000 29.03300
C  51.66800 40.68400 25.85200
O  52.08000 40.26900 24.78800
C  51.85100 42.15600 26.21500
N  48.83600 35.88700 25.56600
C  49.67000 36.67400 24.78600
C  50.15000 35.90400 23.52500
C  49.39000 34.50000 23.62500
C  48.64100 34.64400 24.99300
C  49.99800 36.65200 22.16400
C  50.18400 33.09600 23.65200
C  51.31700 32.94900 22.60600
N  47.65600 34.57600 27.79900
C  47.31100 33.60700 26.75100
C  46.46000 32.64400 27.30000
C  46.20200 33.02600 28.56300
C  46.90200 34.21300 28.83800
C  46.00000 31.38400 26.60400
C  45.39900 32.68300 29.78900
O  44.89700 31.67100 30.16400
C  45.53400 33.88100 30.75200
C  45.80100 33.42300 32.11700
O  46.69600 32.67600 32.48800
O  44.71700 33.71000 32.90900
C  44.71500 33.05800 34.22200
H  49.05100 39.78100 30.43600
H  50.99100 38.22800 24.43700
H  47.58200 32.87000 24.85900
H  46.09800 36.47700 32.34500
H  48.42800 38.30500 32.56800
H  46.10100 39.17600 32.85000
H  45.74200 38.66300 31.11900
H  46.85300 39.97100 31.46700
H  48.12700 34.65000 32.64400
H  47.46600 35.51100 34.06700
H  49.85400 36.75600 32.77200
H  49.99900 35.25500 33.72300
H  50.70500 40.91100 30.06000
H  50.54100 42.11700 28.69500
H  52.03500 41.35200 29.03200
H  52.01000 42.72600 25.29900
H  52.69500 42.30500 26.88900
H  50.89800 42.47600 26.63600
H  51.19600 35.74600 23.78800
H  48.71900 34.38200 22.77400
H  49.51400 37.61200 22.34400
H  49.62400 35.99100 21.38200
H  51.02700 36.80900 21.84000
H  49.51200 32.25300 23.49100
H  50.62200 32.98800 24.64400
H  52.30100 32.96400 23.07500
H  51.17600 33.76700 21.90000
H  51.11800 32.06800 21.99600
H  45.51600 30.73200 27.33200
H  46.80500 30.74900 26.23300
H  45.37000 31.68800 25.76900
H  44.61300 34.46400 30.77900
H  45.27100 33.74900 34.85500
H  45.10200 32.04000 34.24000
H  43.71100 33.15900 34.63400

