158

Mg 41.36700 9.45700 29.76700
C  43.18100 10.61900 32.43500
C  39.17800 7.81400 32.08300
C  39.56500 8.27500 27.30900
C  43.86300 10.32000 27.62500
N  41.27600 9.15900 32.04500
C  42.03100 9.89000 32.88000
C  41.50000 9.90900 34.29500
C  40.56000 8.64000 34.14500
C  40.30100 8.50300 32.63500
C  40.85300 7.23800 34.78000
C  40.82600 11.32000 34.70400
C  40.37300 11.41600 36.20800
H  41.10900 12.41200 37.18700
N  39.57100 8.33400 29.65400
C  38.81800 7.80600 30.69100
C  37.59300 7.24800 30.10600
C  37.58700 7.52200 28.72000
C  38.95700 8.03600 28.51600
C  36.52900 6.59300 30.89100
C  36.52400 7.28000 27.68100
O  36.79700 7.29200 26.47600
C  35.04400 7.10600 28.01900
N  41.72100 9.38000 27.71800
C  40.73200 8.91400 26.89900
C  41.15500 9.00000 25.44200
C  42.58400 9.70500 25.59300
C  42.75900 9.79900 27.03800
C  41.30500 7.50900 24.83800
C  42.62400 10.97900 24.70800
C  43.07400 10.73000 23.29600
N  43.22400 10.28400 29.96000
C  44.13400 10.61700 29.01600
C  45.30400 11.30200 29.65700
C  45.01200 11.35200 31.03500
C  43.72000 10.78700 31.13000
C  46.46600 11.86300 28.90200
C  45.40200 11.77600 32.30000
O  46.42900 12.37000 32.60000
C  44.23600 11.29600 33.31900
C  44.79300 10.34900 34.39900
O  44.97000 9.17000 34.23700
O  45.01600 10.96700 35.60500
C  45.22700 10.08400 36.76600
H  38.31300 7.55400 32.69600
H  38.98900 7.91300 26.45500
H  44.68700 10.64300 26.98500
H  42.27200 9.72400 35.04200
H  39.67000 8.96900 34.68200
H  41.82900 7.27700 35.26300
H  40.94200 6.46600 34.01600
H  40.03500 7.04600 35.47600
H  39.94000 11.32500 34.07000
H  41.52400 12.10600 34.41300
H  40.37200 10.44200 36.69700
H  39.34100 11.76800 36.20300
H  36.80200 6.35800 31.91900
H  36.26000 5.62300 30.47200
H  35.58500 7.13300 30.96300
H  34.91500 6.44500 28.87600
H  34.57000 6.62300 27.16500
H  34.56400 8.07100 28.17900
H  40.46000 9.58200 24.83700
H  43.39500 9.07000 25.23800
H  40.53200 7.21300 24.13000
H  41.25500 6.70400 25.57100
H  42.25200 7.39900 24.30900
H  43.29900 11.78000 25.00800
H  41.61700 11.34200 24.50400
H  42.38700 9.98800 22.88800
H  44.07700 10.30300 23.28100
H  43.03500 11.60500 22.64800
H  46.23600 11.75000 27.84300
H  47.37000 11.35700 29.24200
H  46.57500 12.93900 29.04000
H  43.65800 12.07100 33.82200
H  45.63000 9.09600 36.54600
H  44.24500 9.93800 37.21700
H  46.00200 10.60000 37.33300
Mg 48.73000 45.91200 43.11300
C  45.54700 46.67700 42.12600
C  48.20100 42.60200 41.73300
C  52.12600 45.41600 42.84900
C  49.28400 49.15400 44.00400
N  46.96900 44.75200 42.04200
C  45.82300 45.33600 41.66500
C  44.91000 44.44700 40.83100
C  45.60700 42.98800 41.11000
C  46.99500 43.41000 41.72200
C  44.78200 42.13300 42.16600
C  44.90100 44.96500 39.32700
C  43.51300 44.96500 38.59000
H  43.43800 44.17700 37.25800
N  49.93100 44.15100 42.71200
C  49.51300 42.92900 42.14700
C  50.66000 42.07400 41.96500
C  51.79800 42.85100 42.41200
C  51.35500 44.21300 42.62400
C  50.55800 40.65600 41.44400
C  53.15500 42.29400 42.50300
O  53.35400 41.12400 42.35300
C  54.32000 43.22300 42.94600
N  50.43600 47.15900 43.29200
C  51.70800 46.69000 43.23300
C  52.69500 47.73000 43.63800
C  51.83600 48.87200 44.21300
C  50.43300 48.38500 43.84300
C  53.91800 47.29800 44.59400
C  52.12400 50.30400 43.63800
C  53.58000 50.85500 43.60800
N  47.66600 47.61200 43.14300
C  47.96100 48.87600 43.59600
C  46.79100 49.69000 43.60600
C  45.82000 48.91300 42.96400
C  46.39600 47.60600 42.74800
C  46.75600 51.11400 44.04300
C  44.44400 48.91700 42.41800
O  43.57200 49.76700 42.33200
C  44.27300 47.53300 41.83700
C  42.95100 46.91400 42.25800
O  41.89700 47.09300 41.66700
O  43.08900 46.11200 43.36500
C  41.84000 45.43300 43.88400
H  47.93200 41.57900 41.46600
H  53.19000 45.19100 42.75000
H  49.47100 50.12100 44.47500
H  43.89200 44.62600 41.17600
H  45.79400 42.46500 40.17200
H  45.09700 41.94000 43.19200
H  44.65700 41.20700 41.60500
H  43.77300 42.54500 42.13600
H  45.53500 44.25300 38.79800
H  45.34900 45.95600 39.25100
H  43.23600 46.00200 38.40100
H  42.87900 44.61800 39.40500
H  49.54200 40.29000 41.59400
H  51.33500 40.06900 41.93400
H  50.69500 40.60800 40.36400
H  54.16100 43.73400 43.89500
H  54.59000 43.95900 42.19000
H  55.21000 42.59600 43.00400
H  53.03800 48.14100 42.68900
H  51.84800 48.97800 45.29800
H  54.06500 46.22300 44.69900
H  53.89300 47.76200 45.58000
H  54.76800 47.75100 44.08400
H  51.54700 50.91900 44.32900
H  51.58900 50.53000 42.71500
H  53.86700 51.34800 42.68000
H  54.32000 50.14300 43.97600
H  53.38700 51.70200 44.26600
H  46.04800 51.18300 44.87000
H  46.42600 51.84000 43.30000
H  47.70300 51.37300 44.51800
H  44.27900 47.73600 40.76600
H  41.27400 44.78900 43.21000
H  41.24900 46.15400 44.44900
H  42.21700 44.71800 44.61500

