158

Mg 30.07300 59.48400 39.34400
C  27.09400 58.00000 38.15800
C  31.82000 56.82800 37.99400
C  32.97000 61.13200 39.65300
C  28.18500 62.45900 39.76900
N  29.53000 57.67200 38.16300
C  28.25400 57.26400 37.85100
C  28.21800 55.91900 37.07900
C  29.74400 55.47900 37.34900
C  30.42000 56.74000 37.88600
C  29.96900 54.23600 38.09700
C  27.88500 56.08700 35.48800
C  26.82900 55.14100 34.96800
H  25.89100 55.76900 33.95700
N  32.19500 58.91600 39.03000
C  32.69200 57.84400 38.47700
C  34.16300 57.82200 38.56400
C  34.55500 59.11600 39.18100
C  33.21100 59.79800 39.35000
C  35.00200 56.73900 38.02200
C  35.85900 59.58100 39.46400
O  36.79400 58.79000 39.49200
C  36.19600 61.05300 39.81800
N  30.43000 61.47000 39.71300
C  31.73500 61.92800 39.73700
C  31.84800 63.47400 39.71200
C  30.34800 63.88800 39.98200
C  29.56300 62.56900 39.73800
C  32.85800 63.96500 40.76500
C  29.80800 65.07800 39.17900
C  29.34900 66.32600 39.96100
N  28.01000 60.10900 39.29800
C  27.40000 61.34100 39.45000
C  25.99400 61.21300 39.26200
C  25.81400 59.88500 38.78500
C  27.12600 59.26100 38.71800
C  24.92200 62.31700 39.34000
C  24.78600 58.91900 38.31200
O  23.59300 59.01100 38.08600
C  25.64100 57.56600 37.95100
C  25.34500 56.33200 38.78700
O  25.69200 56.24800 39.97200
O  24.59600 55.38400 38.13600
C  24.21800 54.11400 38.88100
H  32.34900 55.93500 37.65600
H  33.84100 61.79000 39.63200
H  27.55900 63.34400 39.63900
H  27.50400 55.26400 37.57800
H  30.29800 55.46100 36.41000
H  29.04600 53.67000 37.97100
H  30.05500 54.40000 39.17200
H  30.86300 53.72800 37.73500
H  28.85700 55.85100 35.05700
H  27.59400 57.10800 35.23800
H  26.24900 54.70800 35.78200
H  27.25800 54.24400 34.52000
H  34.53800 56.44900 37.07900
H  34.88600 55.87900 38.68200
H  36.03800 57.00100 37.80700
H  37.22100 61.06500 40.18700
H  35.52300 61.16400 40.66800
H  36.00400 61.74100 38.99400
H  32.19200 63.81000 38.73400
H  30.35200 64.12800 41.04500
H  33.26300 63.11300 41.31100
H  32.42500 64.64500 41.50000
H  33.58000 64.62900 40.29100
H  29.00300 64.70200 38.54700
H  30.61000 65.33900 38.48900
H  29.97500 67.19700 39.77000
H  29.40900 66.15000 41.03500
H  28.36100 66.64700 39.62900
H  24.66900 62.49900 38.29600
H  25.32300 63.23400 39.77200
H  24.03500 62.11200 39.94000
H  25.50100 57.31800 36.89900
H  25.05900 53.74100 39.46600
H  23.74900 53.40600 38.19800
H  23.45000 54.36400 39.61200
Mg -9.71700 39.37800 42.43300
C  -8.07600 36.42500 41.50200
C  -7.16000 41.17500 40.92700
C  -11.65100 42.19100 42.46600
C  -12.50500 37.50100 43.43800
N  -7.95000 38.89200 41.18200
C  -7.36100 37.60400 41.10400
C  -6.08500 37.64400 40.19200
C  -5.60600 39.11600 40.54600
C  -6.96900 39.79400 40.85500
C  -4.60300 39.46900 41.65500
C  -6.17100 37.42200 38.64300
C  -5.74200 36.04700 38.15900
H  -4.57000 35.94100 37.10500
N  -9.42400 41.39700 41.88400
C  -8.29100 41.96300 41.33700
C  -8.41700 43.37300 41.23400
C  -9.63300 43.72700 41.83600
C  -10.34400 42.40400 42.09100
C  -7.37300 44.22600 40.63500
C  -10.18300 45.15800 41.96200
O  -9.51900 46.11100 41.49200
C  -11.46800 45.39300 42.69400
N  -11.79800 39.81000 42.87100
C  -12.28900 40.99800 42.78900
C  -13.76100 41.04300 43.37200
C  -14.08800 39.59100 43.69300
C  -12.68200 38.90000 43.43600
C  -14.00900 42.04300 44.51800
C  -15.24200 39.01400 42.84600
C  -14.93800 38.78800 41.31700
N  -10.19300 37.33500 42.66300
C  -11.38500 36.74300 43.06700
C  -11.10400 35.25900 42.95400
C  -9.82900 35.15600 42.42200
C  -9.34100 36.44000 42.15400
C  -11.97800 34.12000 43.40300
C  -8.76800 34.18200 41.98400
O  -8.77000 32.97000 42.01000
C  -7.55700 35.05900 41.41000
C  -6.36800 34.90700 42.33600
O  -5.89900 35.75700 43.13700
O  -5.75700 33.69500 42.13100
C  -4.61700 33.23500 43.01100
H  -6.21800 41.60400 40.58100
H  -12.25900 43.08800 42.59900
H  -13.44000 37.13600 43.86800
H  -5.20000 37.11500 40.54600
H  -5.28900 39.53700 39.59200
H  -4.75400 40.43700 42.13300
H  -3.57800 39.46000 41.28400
H  -4.60900 38.65200 42.37600
H  -5.52700 38.07500 38.05500
H  -7.20800 37.60800 38.36500
H  -6.66800 35.63100 37.76200
H  -5.41000 35.50400 39.04500
H  -6.95700 44.83900 41.43400
H  -7.71500 44.89500 39.84600
H  -6.51200 43.67500 40.25500
H  -12.30000 45.14500 42.03500
H  -11.52100 46.45300 42.94100
H  -11.47400 44.89000 43.66100
H  -14.38100 41.38700 42.54500
H  -14.42300 39.43700 44.71900
H  -14.40400 41.53700 45.40000
H  -14.64700 42.87800 44.22700
H  -13.00700 42.29900 44.86400
H  -16.12900 39.64800 42.85900
H  -15.71800 38.14600 43.30400
H  -13.91900 38.92600 40.95700
H  -15.64100 39.33700 40.69000
H  -15.05400 37.71700 41.15500
H  -11.43600 33.20000 43.18300
H  -12.95600 34.24100 42.93700
H  -12.03000 34.16600 44.49100
H  -7.34200 34.77900 40.37900
H  -4.85600 33.00200 44.04900
H  -3.83500 33.99400 43.05400
H  -4.15900 32.37600 42.52000

