158

Mg 25.95400 0.95000 29.10600
C  27.99900 0.25000 31.96200
C  23.21400 0.81300 31.31500
C  23.94000 0.95100 26.44800
C  28.71400 0.13200 27.09200
N  25.72300 0.55600 31.40200
C  26.68900 0.50700 32.37500
C  26.04900 0.51200 33.76400
C  24.51500 0.43700 33.49600
C  24.45400 0.62000 31.97000
C  23.82700 -0.83500 34.02500
C  26.57700 1.75200 34.56200
C  27.27700 1.47800 35.89300
H  27.29800 2.56700 36.97500
N  23.87900 0.97400 28.85700
C  22.91400 0.79300 29.89700
C  21.63000 0.86800 29.28000
C  21.74100 1.02700 27.87400
C  23.20300 1.02900 27.64400
C  20.30600 0.75300 30.04000
C  20.72300 0.97400 26.81200
O  20.95900 0.98400 25.57200
C  19.31800 0.83400 27.11800
N  26.20700 0.34400 27.11000
C  25.24800 0.62200 26.15500
C  25.82400 0.61200 24.69400
C  27.36800 0.49900 25.02800
C  27.41500 0.23700 26.50200
C  25.28900 -0.58900 23.91400
C  28.34700 1.55200 24.39100
C  29.29600 0.98800 23.34600
N  28.01100 0.42600 29.41600
C  28.97700 0.16400 28.51000
C  30.21300 -0.20400 29.21000
C  29.92200 -0.10000 30.56100
C  28.55000 0.14400 30.64400
C  31.46900 -0.70900 28.65200
C  30.49100 -0.28000 31.93000
O  31.55700 -0.58500 32.34900
C  29.27000 0.10200 32.84700
C  29.16300 -1.08600 33.80900
O  28.57100 -2.14200 33.53000
O  29.60000 -0.77900 35.06300
C  28.95500 -1.65800 36.04800
H  22.37500 0.95700 31.99900
H  23.46500 1.02800 25.46800
H  29.63400 0.02100 26.51600
H  26.36700 -0.41400 34.24200
H  24.02600 1.31600 33.91500
H  22.75100 -0.75800 34.17600
H  24.36800 -1.17500 34.90900
H  23.93500 -1.60000 33.25600
H  25.78400 2.45900 34.80900
H  27.18800 2.36300 33.89800
H  28.30400 1.36800 35.54400
H  26.93300 0.56000 36.36900
H  19.87700 -0.24400 29.94300
H  19.59100 1.50600 29.70700
H  20.47200 0.85400 31.11300
H  19.27300 -0.15400 27.57600
H  18.71400 0.81100 26.21200
H  18.91800 1.61200 27.76900
H  25.42100 1.49700 24.20100
H  27.80400 -0.42500 24.64500
H  24.86800 -0.26300 22.96300
H  24.55300 -1.16000 24.48000
H  26.05700 -1.28500 23.57800
H  28.90200 2.01900 25.20400
H  27.74900 2.32000 23.89900
H  28.72300 0.57100 22.51800
H  29.94200 0.16500 23.65200
H  30.01700 1.71400 22.96900
H  31.65100 -0.47700 27.60300
H  31.37700 -1.79400 28.71300
H  32.22400 -0.31200 29.33000
H  29.48200 1.00200 33.42400
H  29.15500 -1.27400 37.04800
H  29.34300 -2.66900 35.92100
H  27.87100 -1.67800 35.93700
Mg 47.25100 25.48000 27.84100
C  47.98100 27.62900 30.32900
C  46.73100 23.12900 30.34600
C  46.43600 23.13700 25.45700
C  48.45200 27.58500 25.46300
N  47.01000 25.52700 30.16800
C  47.30000 26.58800 30.91800
C  47.19800 26.20200 32.46400
C  46.98000 24.62700 32.46800
C  46.84600 24.40700 30.90900
C  48.21400 23.77000 32.96200
C  46.24300 27.08300 33.26000
C  46.04400 26.38600 34.73700
H  46.23600 27.33600 35.87200
N  46.51000 23.41900 27.91300
C  46.43500 22.66500 29.03100
C  45.89800 21.34100 28.63100
C  45.59800 21.46000 27.22400
C  46.15500 22.73500 26.81300
C  45.67800 20.19500 29.64800
C  44.93700 20.46600 26.32000
O  44.73200 20.77000 25.15000
C  44.72500 19.03000 26.75200
N  47.46700 25.36000 25.72800
C  47.11600 24.29000 24.98600
C  47.34600 24.56800 23.51400
C  47.94300 26.03300 23.52900
C  47.87500 26.39000 24.98300
C  48.18400 23.55600 22.76800
C  47.10500 27.08800 22.67400
C  47.73600 27.61300 21.38000
N  48.15800 27.20200 27.81500
C  48.53300 28.00500 26.77400
C  49.16300 29.20400 27.27600
C  49.02400 29.06100 28.69900
C  48.37400 27.82700 28.97600
C  49.84500 30.18200 26.36000
C  49.26400 29.67500 29.96800
O  49.78000 30.69300 30.30700
C  48.48300 28.87200 31.07600
C  49.39200 28.59200 32.31100
O  50.43500 27.86300 32.16600
O  48.90600 29.34100 33.39900
C  49.60700 29.29100 34.70200
H  46.80700 22.30400 31.05800
H  46.21900 22.37800 24.70200
H  48.92300 28.15700 24.66100
H  48.13900 26.37000 32.98800
H  46.07900 24.31900 32.99900
H  48.05500 22.73800 33.27600
H  48.70000 24.32800 33.76300
H  49.00100 23.68100 32.21300
H  45.30700 27.02200 32.70400
H  46.57500 28.12000 33.21100
H  46.84800 25.65900 34.85500
H  45.03700 25.97100 34.77200
H  46.03400 19.24400 29.25300
H  44.61800 20.00500 29.81500
H  46.17100 20.28800 30.61500
H  44.23200 18.96400 27.72200
H  45.66800 18.48600 26.81000
H  44.06200 18.56100 26.02500
H  46.38700 24.51300 22.99900
H  48.98600 26.18800 23.25300
H  48.71900 22.81900 23.36700
H  48.95100 24.04700 22.16800
H  47.54100 22.98300 22.10000
H  46.78300 27.84900 23.38500
H  46.19300 26.62600 22.29700
H  47.26500 27.02700 20.59100
H  48.74700 27.20600 21.39000
H  47.57000 28.68000 21.23100
H  49.83500 29.99000 25.28700
H  50.90000 30.14900 26.63300
H  49.58200 31.22900 26.51300
H  47.66800 29.52600 31.38700
H  49.26200 30.07100 35.38000
H  50.69300 29.28800 34.61400
H  49.24000 28.33200 35.06900

