158

Mg 48.67300 35.41400 28.25800
C  46.78400 33.82200 30.91000
C  48.44900 38.33400 30.27100
C  49.97900 37.14400 25.86700
C  48.15100 32.56400 26.30600
N  47.80400 35.85900 30.41800
C  47.27000 35.04700 31.34100
C  47.16700 35.70700 32.71100
C  47.26300 37.23600 32.35500
C  47.97600 37.17700 30.87500
C  45.88900 37.99400 32.23200
C  48.14800 35.02700 33.76700
C  49.35800 35.85900 34.17200
H  49.36000 36.41100 35.54000
N  49.34400 37.40500 28.17000
C  49.19800 38.45400 29.09900
C  49.98400 39.51900 28.56500
C  50.38500 39.24600 27.26000
C  49.84600 37.91300 27.01400
C  50.20400 40.79700 29.32000
C  51.20500 39.96900 26.12100
O  51.25400 39.59000 24.93500
C  51.89900 41.17000 26.49700
N  48.99500 34.93100 26.38100
C  49.49100 35.87300 25.52400
C  49.67600 35.26000 24.05400
C  49.38200 33.75700 24.34500
C  48.73600 33.72800 25.74000
C  48.68300 35.92500 23.04000
C  50.67000 32.86000 24.26400
C  51.05400 32.46000 22.79800
N  47.67800 33.57700 28.53100
C  47.70400 32.44000 27.66500
C  47.01200 31.35000 28.32800
C  46.60800 31.87100 29.58500
C  46.95400 33.19500 29.68900
C  46.64800 29.99100 27.75000
C  45.85000 31.57300 30.77300
O  45.11700 30.62500 31.08200
C  45.88400 32.89000 31.55000
C  46.05100 32.63200 32.99900
O  46.90900 31.98300 33.55000
O  44.86800 33.02900 33.63400
C  44.64800 32.67200 35.04100
H  48.31300 39.31200 30.73700
H  50.28300 37.59900 24.92200
H  47.98600 31.64800 25.73600
H  46.21900 35.56200 33.22800
H  47.90700 37.77800 33.04800
H  45.56900 38.22300 33.24800
H  45.22300 37.31900 31.69400
H  46.24500 38.83500 31.63700
H  48.42000 34.07200 33.31800
H  47.63400 34.82500 34.70600
H  49.55500 36.56200 33.36300
H  50.27500 35.27200 34.12100
H  50.70400 40.49100 30.23800
H  49.27300 41.31400 29.55300
H  50.78900 41.56000 28.80700
H  52.59400 41.46800 25.71200
H  52.48200 40.90300 27.37900
H  51.14700 41.94700 26.63700
H  50.68600 35.44600 23.68800
H  48.61900 33.37800 23.66500
H  49.15800 36.25800 22.11700
H  48.17000 36.80700 23.42400
H  47.99000 35.27700 22.50300
H  50.58100 31.99600 24.92300
H  51.43100 33.52800 24.66800
H  50.32500 32.90900 22.12400
H  51.19400 31.39300 22.62600
H  52.06800 32.82200 22.62600
H  47.32300 29.83100 26.90900
H  45.66500 30.11900 27.29800
H  46.52300 29.22000 28.51100
H  44.89700 33.34200 31.45800
H  43.57800 32.65200 35.25100
H  45.12300 33.42400 35.67100
H  45.20500 31.77200 35.30100
Mg 9.93100 47.34000 25.50200
C  7.86200 47.41700 28.34000
C  12.33600 48.62400 27.38400
C  11.80200 47.29100 22.70900
C  7.00800 46.86800 23.62700
N  9.98500 48.15000 27.62300
C  9.15500 47.82600 28.60700
C  9.77900 48.21200 30.00200
C  11.05900 48.98700 29.60200
C  11.11800 48.68700 28.06900
C  11.06400 50.52200 29.93700
C  10.05200 46.95300 30.95100
C  9.88500 47.22600 32.43800
H  10.17900 46.14200 33.50000
N  11.80700 47.71400 25.06600
C  12.74400 48.13500 26.07800
C  14.02800 48.11500 25.49200
C  13.86300 47.87000 24.13100
C  12.46700 47.65600 23.92600
C  15.30900 48.51500 26.20300
C  14.81700 47.88600 23.01000
O  14.43400 47.96000 21.87000
C  16.28600 47.86600 23.25200
N  9.51300 47.03100 23.46500
C  10.46700 47.03900 22.49600
C  9.84900 46.58000 21.11200
C  8.31100 46.60400 21.42200
C  8.24100 46.78000 22.93000
C  10.29100 47.36700 19.87100
C  7.54000 45.34900 20.86500
C  6.62300 45.49600 19.62300
N  7.86400 47.07000 25.83900
C  6.84800 46.91900 25.00200
C  5.62100 46.92100 25.68800
C  6.00800 47.09000 27.03600
C  7.34700 47.11000 27.11000
C  4.30100 46.68700 25.17500
C  5.43500 47.19800 28.35600
O  4.23400 47.18500 28.64400
C  6.68700 47.26600 29.28400
C  6.68800 46.03700 30.08000
O  7.03600 44.97200 29.56800
O  6.15500 46.13000 31.38000
C  5.94200 44.86200 32.07100
H  13.23400 48.89200 27.94500
H  12.22700 47.05400 21.73100
H  6.09100 46.66600 23.06900
H  9.19100 48.96100 30.53200
H  11.93100 48.62700 30.14800
H  10.47900 50.97600 30.73700
H  10.75000 50.97400 28.99600
H  12.08600 50.84400 30.14000
H  10.99300 46.44400 30.74300
H  9.27100 46.26300 30.63100
H  8.83500 47.48100 32.58300
H  10.48300 48.07300 32.77400
H  15.18800 48.65900 27.27600
H  15.74000 49.40300 25.74000
H  16.04800 47.71900 26.11300
H  16.57900 46.92700 23.72100
H  16.49400 48.66400 23.96400
H  16.73500 47.98400 22.26600
H  10.19600 45.56700 20.91200
H  7.89300 47.55800 21.10100
H  11.09200 48.08600 20.04500
H  9.46400 47.85900 19.36000
H  10.83000 46.68200 19.21600
H  6.97300 44.80000 21.61700
H  8.32000 44.66600 20.52700
H  6.27800 46.52800 19.69000
H  5.81400 44.77100 19.70800
H  7.23300 45.39500 18.72500
H  3.67800 46.78400 26.06300
H  4.14700 45.66600 24.82700
H  4.15100 47.47800 24.44000
H  6.63700 48.17800 29.88000
H  5.69800 45.08000 33.11100
H  6.82200 44.21900 32.05500
H  5.11100 44.25900 31.70700

