158

Mg 17.16800 52.58800 26.47700
C  19.01600 50.88800 29.08700
C  14.76300 53.20400 28.95200
C  15.46500 54.31400 24.22600
C  19.37200 51.43200 24.13300
N  16.87900 52.03100 28.77800
C  17.80300 51.46400 29.63900
C  17.35400 51.67600 31.13900
C  15.80900 52.12700 30.94700
C  15.78000 52.39100 29.45800
C  14.76600 51.19800 31.59100
C  18.17600 52.75100 31.81800
C  18.09300 52.89900 33.35900
H  17.11800 52.05800 34.17200
N  15.49400 53.83900 26.64500
C  14.63500 53.90000 27.70800
C  13.48000 54.72900 27.30600
C  13.73200 55.11700 25.93100
C  14.88000 54.40000 25.53600
C  12.30200 54.98900 28.17800
C  12.94900 56.05400 24.98800
O  13.29700 56.44100 23.88600
C  11.79800 56.83600 25.59100
N  17.29000 52.70800 24.42900
C  16.51700 53.56700 23.73600
C  16.74100 53.28100 22.17400
C  18.26500 52.86200 22.23800
C  18.34100 52.27500 23.65000
C  15.88300 52.21800 21.38700
C  19.24000 54.06600 22.12800
C  20.00900 54.16100 20.81400
N  18.80100 51.38000 26.44900
C  19.66200 51.03000 25.43900
C  20.65900 50.21300 25.98400
C  20.51000 50.14100 27.32200
C  19.33900 50.85400 27.64700
C  21.79500 49.52100 25.24500
C  21.12400 49.69100 28.65500
O  22.23000 49.17400 28.85800
C  20.15400 50.28000 29.81000
C  19.84900 49.23000 30.81900
O  19.44800 48.07900 30.58900
O  20.16400 49.64400 32.05900
C  19.75000 48.75700 33.14900
H  13.96100 53.47000 29.64400
H  14.91100 54.72800 23.38200
H  20.01700 50.98900 23.37100
H  17.48700 50.71400 31.63300
H  15.66800 53.04800 31.51400
H  15.18000 50.63300 32.42600
H  14.45700 50.42000 30.89400
H  13.85600 51.75600 31.81100
H  17.93300 53.71800 31.37800
H  19.22600 52.54300 31.61500
H  17.91400 53.94600 33.60200
H  19.05400 52.69500 33.83000
H  11.44700 55.03800 27.50400
H  12.53400 55.94800 28.64200
H  12.14300 54.18200 28.89200
H  10.91400 56.22500 25.77300
H  11.52800 57.56400 24.82600
H  12.16400 57.35400 26.47700
H  16.59200 54.22700 21.65400
H  18.50000 52.09000 21.50600
H  16.60400 51.67000 20.78000
H  15.05000 52.57800 20.78500
H  15.45600 51.49500 22.08200
H  19.90500 54.12300 22.99000
H  18.64100 54.97000 22.23700
H  19.85600 55.22800 20.65200
H  19.68500 53.51600 19.99700
H  21.05900 53.93600 20.99800
H  22.57000 50.28700 25.26200
H  21.54000 49.25800 24.21900
H  22.06100 48.59100 25.74800
H  20.70900 51.07400 30.30900
H  20.56400 48.03600 33.21800
H  18.73300 48.38200 33.03200
H  19.81900 49.42500 34.00800
Mg -1.24200 33.93600 26.76200
C  -3.13900 32.17600 29.28200
C  -0.24000 36.07700 29.17800
C  0.25600 35.63500 24.37300
C  -2.74000 31.81000 24.29500
N  -1.60500 34.04500 28.94900
C  -2.33500 33.22200 29.77600
C  -2.14700 33.68900 31.22500
C  -1.45300 35.04700 31.14900
C  -1.01700 35.07600 29.65300
C  -2.34200 36.23000 31.64500
C  -1.47600 32.65200 32.11000
C  -2.24400 31.90300 33.26000
H  -1.68300 32.17400 34.69200
N  -0.24900 35.66500 26.70700
C  0.19800 36.32100 27.85500
C  1.02600 37.40600 27.44600
C  1.11800 37.38200 26.00000
C  0.40700 36.20300 25.64000
C  1.80000 38.33600 28.44800
C  1.91300 38.32900 25.16000
O  1.89700 38.24000 23.97100
C  2.83000 39.42500 25.81600
N  -1.42200 33.90500 24.58700
C  -0.44700 34.55600 23.93400
C  -0.30200 34.11100 22.48200
C  -1.01000 32.66200 22.58800
C  -1.79900 32.74200 23.90700
C  -1.00200 35.09200 21.49100
C  -0.03200 31.50800 22.55300
C  -0.47700 30.29000 21.64400
N  -2.64200 32.34500 26.70400
C  -3.14300 31.59500 25.63400
C  -4.03900 30.51200 26.16600
C  -4.08200 30.75600 27.59400
C  -3.23400 31.88100 27.86200
C  -4.74800 29.42400 25.37200
C  -4.63900 30.27900 28.81900
O  -5.44600 29.36300 29.03400
C  -3.98600 31.14500 30.00600
C  -5.09700 31.80100 30.69400
O  -5.61600 32.82800 30.29600
O  -5.33900 31.18500 31.90500
C  -6.44600 31.71400 32.69200
H  0.21000 36.71500 29.94100
H  0.90900 36.05900 23.60800
H  -2.97300 30.98700 23.61600
H  -3.14700 33.86700 31.62000
H  -0.50600 35.02400 31.68800
H  -3.32000 35.96600 32.04700
H  -2.41900 37.01100 30.88800
H  -1.78800 36.76700 32.41500
H  -0.63300 33.10200 32.63500
H  -1.11800 31.93800 31.36800
H  -2.30600 30.84200 33.01700
H  -3.23100 32.34300 33.40100
H  2.87500 38.17100 28.51000
H  1.54400 38.19500 29.49800
H  1.63500 39.40600 28.31500
H  2.16700 40.08900 26.37100
H  3.28900 39.95400 24.98100
H  3.65800 39.00500 26.38600
H  0.77600 34.06800 22.32800
H  -1.69800 32.55800 21.74800
H  -1.67900 35.80600 21.96100
H  -1.60700 34.60000 20.72900
H  -0.19100 35.57800 20.94900
H  0.20600 31.19900 23.57100
H  0.86600 31.84300 22.03300
H  -0.57600 29.37600 22.23000
H  0.30900 30.15300 20.90200
H  -1.45900 30.43300 21.19300
H  -4.75100 28.42900 25.81800
H  -4.19300 29.36300 24.43600
H  -5.76100 29.72000 25.09700
H  -3.43900 30.34800 30.50900
H  -6.02900 32.40100 33.43000
H  -6.92700 30.82500 33.10100
H  -7.14800 32.29400 32.09400

