158

Mg 48.71400 35.49100 26.66400
C  46.95200 33.89400 29.18600
C  49.07700 38.22400 28.65200
C  49.94700 37.18500 23.97900
C  47.94400 32.80700 24.63400
N  48.01400 35.93100 28.72900
C  47.51300 35.10000 29.62500
C  47.57900 35.65600 31.04600
C  47.96600 37.11600 30.73300
C  48.43200 37.12700 29.25200
C  46.77800 38.10500 31.12800
C  48.71900 34.88000 31.82800
C  48.77400 34.92100 33.31700
H  47.65700 35.78600 34.01900
N  49.36500 37.42900 26.36100
C  49.54600 38.41600 27.33400
C  50.19300 39.61700 26.78000
C  50.35300 39.41600 25.41400
C  49.81100 37.98700 25.14400
C  50.46900 40.81500 27.67000
C  50.91700 40.30800 24.36600
O  50.95000 39.95500 23.19700
C  51.26300 41.65800 24.69100
N  49.08700 34.99400 24.67500
C  49.64300 35.86300 23.75200
C  49.93900 35.10100 22.47400
C  49.12000 33.75600 22.66200
C  48.74000 33.78900 24.09200
C  49.43500 35.82800 21.09500
C  49.88000 32.39400 22.23100
C  49.52900 31.71200 20.92300
N  47.78300 33.61200 26.85100
C  47.47300 32.66300 25.94000
C  46.69000 31.59000 26.49000
C  46.47000 32.02300 27.87000
C  47.11400 33.31100 27.94500
C  46.03400 30.40400 25.85700
C  45.76600 31.75800 29.08000
O  45.13100 30.77300 29.39700
C  46.01800 32.95200 30.01500
C  46.41700 32.39300 31.33600
O  47.30400 31.59200 31.50100
O  45.55000 32.75500 32.32900
C  45.73500 31.95100 33.52900
H  49.42800 38.93000 29.40800
H  50.31500 37.64000 23.05700
H  47.67600 32.03900 23.90500
H  46.59600 35.62100 31.51600
H  48.90900 37.43800 31.17500
H  45.98400 37.57900 31.65700
H  46.43700 38.61400 30.22600
H  47.34200 38.70000 31.84600
H  49.69400 35.26700 31.53200
H  48.60000 33.84400 31.51000
H  49.79000 35.09000 33.67500
H  48.60400 33.86800 33.54300
H  50.61900 40.52300 28.70900
H  49.61000 41.48500 27.69800
H  51.37800 41.38900 27.48700
H  51.49400 42.14400 23.74300
H  52.06100 41.48900 25.41500
H  50.33700 42.03300 25.12700
H  51.02300 34.98900 22.45900
H  48.14900 33.93200 22.20000
H  48.86800 35.12600 20.48500
H  50.40300 35.96800 20.61300
H  48.88800 36.76200 21.23100
H  49.79400 31.59500 22.96700
H  50.93700 32.64700 22.31000
H  50.27300 32.06900 20.21200
H  48.61800 32.14300 20.50700
H  49.22100 30.66800 20.97300
H  45.21200 30.73800 25.22300
H  45.72200 29.72300 26.64900
H  46.64300 29.84600 25.14600
H  45.08000 33.48100 30.18500
H  46.78500 31.91600 33.81800
H  45.33800 30.95600 33.32800
H  45.12100 32.29000 34.36400
Mg 1.23300 41.52800 25.17900
C  2.27200 42.12300 28.39200
C  -1.73900 40.29400 26.35500
C  0.40800 40.86200 22.06300
C  4.37700 42.74200 23.99500
N  0.35700 41.25900 27.17200
C  0.88500 41.75200 28.31100
C  -0.03000 41.60700 29.56300
C  -1.31500 40.98400 28.85200
C  -0.88900 40.76600 27.41600
C  -2.06500 39.78600 29.51600
C  -0.39500 42.95100 30.24800
C  0.11200 43.10900 31.73000
H  -0.92900 43.14500 32.85600
N  -0.40700 40.71100 24.37800
C  -1.50900 40.25300 24.97100
C  -2.45000 39.76100 23.99800
C  -1.86400 39.95400 22.68000
C  -0.56900 40.55400 22.97900
C  -3.92400 39.29600 24.34600
C  -2.44200 39.65700 21.21300
O  -1.89100 40.14600 20.20500
C  -3.67400 38.85400 20.97700
N  2.21700 41.78000 23.33500
C  1.66300 41.50300 22.19400
C  2.53800 42.06200 20.99900
C  3.69800 42.70800 21.64700
C  3.37300 42.41200 23.10600
C  2.93700 40.88300 20.02500
C  3.71600 44.28700 21.48000
C  3.89000 44.84600 20.05200
N  2.99000 42.09500 25.98300
C  4.17400 42.54800 25.38800
C  5.15100 42.85800 26.39500
C  4.44500 42.70900 27.64500
C  3.15500 42.26900 27.32600
C  6.61100 43.28300 26.13100
C  4.59900 42.64900 29.04600
O  5.59400 42.87700 29.75200
C  3.18100 42.41300 29.65900
C  3.34400 41.22000 30.59600
O  3.48800 40.02400 30.30600
O  3.43000 41.69100 31.88600
C  3.56200 40.77400 33.01900
H  -2.66400 39.79900 26.65800
H  0.15900 40.79100 21.00200
H  5.23200 43.34700 23.68600
H  0.51800 40.98000 30.26700
H  -2.15300 41.67800 28.78600
H  -2.35700 39.10900 28.71400
H  -2.92700 40.15000 30.07500
H  -1.37200 39.18100 30.10200
H  -1.47000 43.12500 30.30800
H  0.04900 43.70800 29.60100
H  0.86300 43.89700 31.67700
H  0.70900 42.20100 31.82100
H  -4.61900 39.36300 23.50900
H  -4.40300 39.84900 25.15400
H  -3.93300 38.25900 24.68000
H  -3.69800 38.05500 21.71700
H  -3.51700 38.45200 19.97600
H  -4.54500 39.50100 21.07800
H  1.93500 42.80200 20.47300
H  4.67700 42.30000 21.39300
H  2.06100 40.82200 19.38000
H  2.99800 39.94700 20.58000
H  3.88700 41.09600 19.53300
H  4.67100 44.56400 21.92700
H  2.80100 44.71400 21.89200
H  3.62800 43.99000 19.43000
H  4.85400 45.30300 19.83200
H  3.20900 45.69300 19.96700
H  6.95100 43.46300 25.11100
H  7.14400 42.41500 26.51900
H  6.86000 44.16100 26.72600
H  2.95800 43.28600 30.27200
H  4.59200 40.69300 33.36600
H  3.10800 39.79200 32.88900
H  2.97400 41.23300 33.81400

