158

Mg 44.03500 42.81700 26.20600
C  42.63800 44.84100 28.66100
C  45.42100 40.82200 28.53000
C  45.71800 41.19400 23.80000
C  43.50600 45.51200 23.88300
N  44.09500 42.91000 28.31700
C  43.37300 43.74500 29.15900
C  43.53500 43.48100 30.65100
C  44.67100 42.39100 30.59300
C  44.87100 42.06700 29.05800
C  46.00600 42.77100 31.26500
C  42.22600 43.19000 31.50000
C  42.16400 42.44600 32.81200
H  41.44500 43.04000 34.01600
N  45.16200 41.08900 26.17300
C  45.59000 40.35700 27.25800
C  46.33100 39.23700 26.79900
C  46.47400 39.37200 25.36600
C  45.76700 40.64800 25.05300
C  46.76100 38.19100 27.78500
C  47.17300 38.45300 24.45200
O  47.24700 38.66300 23.22300
C  47.95900 37.29400 24.98800
N  44.33300 43.24200 24.11000
C  45.09100 42.39600 23.37800
C  45.15000 42.87000 21.88700
C  44.45100 44.21100 21.97000
C  44.09200 44.39100 23.39200
C  46.53800 42.86100 21.23500
C  43.15600 44.27900 21.02700
C  41.82300 43.74700 21.42200
N  43.24100 44.76200 26.20300
C  43.08800 45.71400 25.19900
C  42.24300 46.74000 25.74200
C  41.97400 46.42300 27.06300
C  42.64100 45.21500 27.32200
C  41.64200 47.95600 25.06800
C  41.36900 46.87000 28.25700
O  40.67300 47.86800 28.44700
C  41.81600 45.83000 29.34400
C  42.60700 46.59700 30.31600
O  43.61300 47.29500 30.15600
O  41.81700 46.72800 31.51900
C  42.56100 47.54100 32.60000
H  45.77400 40.07900 29.24900
H  46.19300 40.54400 23.06200
H  43.32400 46.34200 23.19800
H  44.08800 44.37700 30.93200
H  44.21100 41.47000 30.95200
H  45.91300 43.61700 31.94600
H  46.78800 42.97300 30.53200
H  46.34700 41.94800 31.89300
H  41.70300 42.65300 30.70900
H  41.64300 44.10000 31.63700
H  43.15000 42.08800 33.10700
H  41.69600 41.49700 32.55000
H  47.06600 37.23500 27.36000
H  45.96100 37.93300 28.48000
H  47.59500 38.63200 28.33200
H  48.69600 37.78700 25.62200
H  48.52600 37.06000 24.08800
H  47.31500 36.49400 25.35600
H  44.51000 42.25900 21.25000
H  45.17200 44.99800 21.74800
H  46.54300 41.94400 20.64700
H  47.41000 42.60900 21.84000
H  46.71800 43.68100 20.54000
H  43.40400 43.92200 20.02800
H  42.95600 45.34100 20.88400
H  41.90000 43.14200 22.32500
H  41.45100 43.06200 20.66000
H  41.06700 44.53300 21.44700
H  41.43300 47.78800 24.01100
H  42.47900 48.65500 25.08500
H  40.69700 48.19200 25.55800
H  40.93500 45.35500 29.77600
H  42.53500 46.88000 33.46600
H  42.04600 48.47900 32.80500
H  43.62200 47.75300 32.46800
Mg 9.91400 46.77800 25.39200
C  7.50300 47.09000 27.74300
C  12.32600 47.75600 27.51900
C  12.42100 46.40800 22.82300
C  7.54100 46.22200 22.89300
N  9.86300 47.31600 27.37000
C  8.78900 47.34100 28.20500
C  9.23300 47.50700 29.67600
C  10.56400 48.24000 29.38800
C  10.96200 47.86300 27.91400
C  10.66200 49.72600 29.67800
C  9.43200 46.22800 30.57300
C  10.11800 46.51700 31.94600
H  9.44100 45.93300 33.15700
N  12.12700 46.91500 25.25700
C  12.87900 47.33000 26.30800
C  14.27500 47.33200 25.93800
C  14.38100 46.82600 24.59200
C  12.95700 46.66800 24.14700
C  15.39100 47.96600 26.77200
C  15.60800 46.58300 23.74100
O  15.47900 46.22500 22.58500
C  17.02600 46.72400 24.25600
N  10.05500 46.46600 23.20400
C  11.09600 46.45500 22.36800
C  10.73000 46.26500 20.87600
C  9.23000 46.15600 20.94200
C  8.87200 46.27700 22.42900
C  11.37100 47.42400 19.98600
C  8.71800 44.79700 20.41400
C  8.10200 44.79600 19.05000
N  7.88100 46.62500 25.24700
C  7.01600 46.39600 24.21700
C  5.60500 46.35000 24.79500
C  5.78200 46.47000 26.18500
C  7.16700 46.78900 26.37600
C  4.32700 46.17100 24.00500
C  5.07500 46.47600 27.43800
O  3.86000 46.31400 27.73100
C  6.21400 46.87100 28.48200
C  6.35500 45.71600 29.51200
O  6.86100 44.61000 29.34100
O  5.78900 46.13400 30.66300
C  5.54400 45.11500 31.70500
H  12.87400 48.12200 28.38900
H  13.12200 46.36100 21.98700
H  6.75300 45.97800 22.17800
H  8.60800 48.26300 30.15100
H  11.35400 47.77500 29.97900
H  9.85200 50.04900 30.33100
H  10.72600 50.23200 28.71500
H  11.58100 49.86600 30.24700
H  10.07100 45.57000 29.98400
H  8.48500 45.71900 30.75600
H  10.35100 47.57200 32.09000
H  11.09300 46.05100 31.80200
H  15.81300 48.83800 26.27300
H  16.04600 47.14000 27.04900
H  15.08100 48.31700 27.75700
H  17.08600 47.77200 24.55000
H  17.78700 46.45400 23.52300
H  17.16500 46.03500 25.08800
H  11.14900 45.28500 20.64500
H  8.80600 46.91300 20.28200
H  11.78200 48.18000 20.65500
H  10.63100 47.76300 19.26100
H  12.12700 46.92000 19.38400
H  7.98300 44.32300 21.06400
H  9.51500 44.05700 20.35900
H  8.53600 45.54600 18.38900
H  7.01900 44.91500 19.04500
H  8.28000 43.82800 18.58100
H  4.16200 45.09500 23.96200
H  4.68000 46.50500 23.02900
H  3.49800 46.69500 24.48000
H  5.95600 47.73800 29.09000
H  4.50900 45.03500 32.03700
H  6.17600 45.47800 32.51600
H  5.84900 44.09800 31.45800

