158

Mg 26.75500 50.61700 26.21700
C  24.44200 51.53100 28.83500
C  29.07600 49.79600 28.51300
C  28.75500 49.87200 23.70400
C  24.38500 51.77200 23.97700
N  26.76900 50.83500 28.45300
C  25.70400 51.08600 29.28800
C  25.99700 50.72800 30.72000
C  27.50000 50.25700 30.62200
C  27.85400 50.31200 29.07200
C  28.65700 50.96200 31.44900
C  25.01000 49.71000 31.33900
C  24.24800 50.33700 32.57500
H  24.11500 49.49700 33.87100
N  28.68300 50.04100 26.16800
C  29.52100 49.76900 27.21500
C  30.79600 49.31400 26.76600
C  30.82300 49.43900 25.39500
C  29.35700 49.84500 24.98400
C  31.77800 48.76400 27.66000
C  31.98700 49.34300 24.47100
O  31.85300 49.47700 23.29500
C  33.34900 49.14000 25.01000
N  26.53900 50.84200 24.13900
C  27.47700 50.21900 23.29700
C  27.04800 50.27600 21.84800
C  25.63900 50.92500 21.91300
C  25.47300 51.16500 23.43300
C  28.08700 51.12100 21.04200
C  24.61400 50.00200 21.27700
C  24.22600 50.22400 19.81900
N  24.84100 51.56800 26.33600
C  24.07400 51.96500 25.30300
C  22.82700 52.46900 25.82900
C  22.86300 52.33800 27.18200
C  24.11400 51.71800 27.50300
C  21.72500 53.04800 25.08000
C  22.25600 52.55700 28.49900
O  21.11900 53.03400 28.74600
C  23.25000 52.04700 29.61400
C  23.52400 53.10100 30.55900
O  24.35600 53.90800 30.30400
O  22.77500 52.91100 31.71700
C  23.07100 53.78600 32.85300
H  29.59500 49.36900 29.37300
H  29.35500 49.54400 22.85300
H  23.62500 51.91300 23.20500
H  26.12400 51.65700 31.27600
H  27.59100 49.25100 31.03000
H  29.61500 50.98100 30.93000
H  28.79000 50.52600 32.43900
H  28.44900 52.02600 31.56600
H  25.42900 48.88500 31.91500
H  24.31400 49.32400 30.59400
H  23.20600 50.49600 32.29600
H  24.61100 51.31600 32.88900
H  32.31000 47.88800 27.29000
H  31.37500 48.32500 28.57300
H  32.45300 49.56900 27.95400
H  33.93700 49.09400 24.09300
H  33.44900 48.17700 25.51200
H  33.61000 49.94400 25.69800
H  27.06600 49.27100 21.42600
H  25.46200 51.80700 21.29700
H  27.57600 51.91000 20.49000
H  28.64400 50.41100 20.43200
H  28.79600 51.57100 21.73600
H  23.70600 50.10500 21.87100
H  24.96400 48.96900 21.29200
H  24.74900 51.06500 19.36200
H  23.16000 50.44300 19.74600
H  24.61700 49.39300 19.23200
H  20.77600 52.97300 25.61000
H  21.63100 52.69600 24.05200
H  21.91500 54.11900 25.13700
H  22.91500 51.23800 30.26400
H  23.38000 54.78400 32.54400
H  23.82200 53.29300 33.47100
H  22.17400 53.89000 33.46400
Mg 16.77400 51.56400 26.30700
C  18.76400 50.15500 28.75400
C  14.29200 52.01500 28.56900
C  14.76500 52.35000 23.78800
C  19.20600 50.46800 23.88600
N  16.53900 51.12500 28.40900
C  17.53900 50.67400 29.22100
C  17.06500 50.71100 30.71800
C  15.59700 51.15100 30.54300
C  15.41500 51.35100 29.11100
C  14.52300 50.18200 31.13200
C  17.93700 51.64900 31.74900
C  17.86700 51.27600 33.21400
H  16.85900 52.00800 34.16400
N  14.85600 52.30400 26.24700
C  13.99800 52.41400 27.23200
C  12.75500 53.11600 26.75600
C  12.87400 53.19500 25.38000
C  14.16700 52.56100 25.04900
C  11.64400 53.53600 27.62300
C  11.93700 53.77800 24.42800
O  12.11000 53.82400 23.19800
C  10.59900 54.36700 24.90000
N  16.95500 51.40200 24.13200
C  15.94700 51.74300 23.34500
C  16.29800 51.58200 21.85400
C  17.87100 51.46700 21.89700
C  18.04800 51.03100 23.39200
C  15.38700 50.57200 21.11200
C  18.68000 52.72900 21.56000
C  19.72800 52.45800 20.41100
N  18.54400 50.46800 26.23100
C  19.49200 50.28300 25.25600
C  20.68500 49.69100 25.87400
C  20.48300 49.60200 27.22700
C  19.18600 50.15600 27.41400
C  21.88100 49.12300 25.17100
C  21.10400 49.26800 28.47300
O  22.21500 48.86600 28.77900
C  20.00200 49.67300 29.56900
C  19.59300 48.58400 30.35300
O  18.78300 47.77200 30.02300
O  20.19900 48.68800 31.60500
C  19.67700 47.66100 32.51100
H  13.43500 52.13900 29.23400
H  14.17100 52.61300 22.91000
H  20.09800 50.19300 23.32100
H  17.17000 49.66400 31.00300
H  15.33900 52.16800 30.83700
H  13.85700 50.83700 31.69400
H  14.90100 49.58700 31.96400
H  14.09700 49.52300 30.37600
H  17.75100 52.72300 31.72600
H  18.98100 51.47100 31.49000
H  18.91200 51.34900 33.51800
H  17.66200 50.20500 33.19700
H  11.37400 54.59000 27.55600
H  11.74500 53.21400 28.65900
H  10.88400 52.85100 27.24800
H  9.99100 54.59200 24.02400
H  10.84600 55.25600 25.48000
H  10.03500 53.63600 25.47900
H  15.96000 52.50800 21.38900
H  18.16000 50.59100 21.31600
H  14.76200 49.85200 21.64100
H  16.03700 49.95000 20.49600
H  14.81100 51.23300 20.46400
H  19.20200 53.06400 22.45600
H  17.95000 53.48100 21.26200
H  19.35600 52.72400 19.42200
H  19.96300 51.40000 20.29400
H  20.59600 53.08000 20.63200
H  21.66000 48.72800 24.17900
H  22.07700 48.27400 25.82500
H  22.82200 49.67300 25.18900
H  20.40400 50.48400 30.17700
H  20.02300 46.66000 32.25400
H  18.59100 47.66300 32.41500
H  20.00700 47.94900 33.50900

