158

Mg 26.91500 50.28100 26.55500
C  24.68300 51.38200 29.13100
C  29.13300 49.72000 28.89500
C  29.10000 49.69900 24.10300
C  24.60700 51.43600 24.15200
N  26.85000 50.49800 28.80300
C  25.83100 50.80200 29.66200
C  26.14300 50.49900 31.09700
C  27.71100 50.28600 31.02000
C  27.94900 50.12400 29.45600
C  28.67700 51.24700 31.74900
C  25.31300 49.29400 31.63000
C  24.31200 49.64800 32.85300
H  24.24000 48.69700 34.01900
N  28.83200 49.63100 26.52400
C  29.59300 49.36300 27.59500
C  30.92900 49.04800 27.16300
C  30.89600 48.93800 25.76200
C  29.57700 49.43500 25.36000
C  32.05300 48.94000 28.18200
C  32.07800 48.53200 24.88500
O  32.05800 48.89000 23.69400
C  33.31800 47.89000 25.48300
N  26.82100 50.62200 24.42400
C  27.91000 50.23900 23.66600
C  27.44500 50.10700 22.14300
C  25.91000 50.58500 22.09200
C  25.67900 50.74400 23.64000
C  28.41200 50.85300 21.18900
C  24.98700 49.55400 21.39800
C  23.95300 50.12300 20.41100
N  25.03800 51.18100 26.56100
C  24.27200 51.69500 25.48900
C  23.06700 52.31200 26.00000
C  23.11700 52.18200 27.45400
C  24.38200 51.52700 27.71000
C  21.97400 52.95700 25.15600
C  22.55300 52.45600 28.74900
O  21.55500 53.06100 29.04600
C  23.50000 51.83200 29.87200
C  23.89000 52.94500 30.77900
O  24.50700 53.96000 30.52100
O  23.32900 52.67700 32.03300
C  23.83100 53.50900 33.16500
H  29.85400 49.45400 29.67000
H  29.67900 49.37600 23.23500
H  23.81300 51.72200 23.46000
H  25.93200 51.40400 31.66700
H  27.79100 49.31200 31.50300
H  29.31900 51.72100 31.00700
H  29.35300 50.63300 32.34400
H  28.11000 51.95700 32.35100
H  25.97000 48.46400 31.88900
H  24.70500 48.94900 30.79400
H  23.29400 49.62400 32.46500
H  24.39100 50.70000 33.12800
H  32.97800 49.45800 27.92800
H  32.30600 47.88800 28.31600
H  31.79200 49.43500 29.11700
H  33.02400 47.10500 26.17800
H  33.84100 48.60900 26.11300
H  34.00400 47.46700 24.74800
H  27.48100 49.04200 21.91300
H  25.80700 51.59900 21.70500
H  28.91300 50.27900 20.41000
H  29.12600 51.39700 21.80700
H  27.86300 51.62400 20.64700
H  24.32600 49.20500 22.19100
H  25.52400 48.71200 20.96100
H  22.92400 49.80000 20.57000
H  24.09100 49.58000 19.47600
H  23.94800 51.21300 20.37700
H  21.38400 52.25300 24.56900
H  22.41100 53.76100 24.56300
H  21.30800 53.49600 25.82900
H  23.02200 51.08900 30.51100
H  24.27900 54.43600 32.80900
H  24.64700 52.94200 33.61200
H  23.01500 53.68400 33.86600
Mg 6.91500 54.11600 40.90500
C  6.76100 50.38800 41.07800
C  10.22500 53.65600 40.29000
C  6.96800 57.37000 40.17400
C  3.43600 54.08800 41.20000
N  8.34000 52.19400 40.60100
C  8.05800 50.84400 40.66800
C  9.31400 50.03300 40.43100
C  10.47500 51.09300 40.52900
C  9.66400 52.39200 40.47100
C  11.33100 51.00200 41.81400
C  9.20400 49.14300 39.12600
C  9.12500 49.93500 37.80400
H  7.76400 49.96700 37.11200
N  8.39000 55.33600 40.31400
C  9.69400 54.91500 40.14200
C  10.49800 56.09700 39.88500
C  9.63200 57.25500 40.06900
C  8.26500 56.71200 40.21600
C  11.99600 56.01000 39.50300
C  10.11600 58.63000 40.02200
O  11.26500 58.91500 39.71600
C  9.13200 59.73800 40.41400
N  5.40900 55.47400 40.49900
C  5.68100 56.82200 40.21400
C  4.45500 57.60500 40.15800
C  3.27800 56.46800 40.12200
C  4.05600 55.29500 40.73700
C  4.22500 58.45600 41.47400
C  2.87000 56.13500 38.65100
C  1.63600 56.69300 37.96000
N  5.35100 52.62500 41.17200
C  4.06000 52.79900 41.37500
C  3.47400 51.54600 41.84000
C  4.49600 50.59900 41.73200
C  5.65700 51.29100 41.32800
C  2.07500 51.36700 42.38600
C  4.79900 49.18900 41.85100
O  4.06700 48.33900 42.32600
C  6.30300 48.95500 41.33700
C  6.01100 48.11400 40.14000
O  5.22900 48.47400 39.26300
O  6.55500 46.82500 40.19700
C  6.29400 45.92400 39.01600
H  11.23400 53.60000 39.87600
H  6.90000 58.45500 40.07900
H  2.34600 54.13100 41.24100
H  9.26400 49.37300 41.29700
H  11.16600 50.97800 39.69400
H  11.32400 50.02800 42.30300
H  11.14400 51.74600 42.58900
H  12.37700 51.13300 41.53900
H  8.36700 48.44900 39.20100
H  10.07600 48.49200 39.18600
H  9.88300 49.44700 37.19200
H  9.48900 50.93200 38.05300
H  12.02500 55.61100 38.48800
H  12.58200 55.29700 40.08200
H  12.54100 56.95100 39.58300
H  8.59100 60.06100 39.52500
H  9.77000 60.50600 40.85100
H  8.42300 59.45400 41.19200
H  4.46300 58.24700 39.27700
H  2.46100 56.79500 40.76400
H  4.78600 58.06300 42.32200
H  3.14200 58.52200 41.57200
H  4.66500 59.45300 41.45000
H  2.74700 55.05400 38.57300
H  3.66500 56.45100 37.97600
H  1.14400 57.48200 38.52700
H  0.84700 55.94200 37.93100
H  1.88800 57.10700 36.98300
H  1.44300 50.88100 41.64400
H  1.58300 52.33600 42.47700
H  1.99400 50.76300 43.29000
H  6.86800 48.39300 42.08100
H  5.54100 45.24600 39.41800
H  7.10800 45.27400 38.69600
H  5.77900 46.36200 38.16100

