158

Mg 16.75400 -3.27900 28.47800
C  15.42100 -1.26500 31.06000
C  18.73100 -4.74900 30.76900
C  18.41200 -4.79700 25.99100
C  15.04600 -1.27400 26.13100
N  17.08800 -2.89200 30.72500
C  16.34400 -2.19800 31.58000
C  16.75000 -2.51200 33.00000
C  17.95200 -3.44700 32.80700
C  17.92600 -3.73900 31.28600
C  19.35500 -2.97300 33.32200
C  15.55700 -3.07200 33.71700
C  15.15100 -2.44300 35.09200
H  16.13100 -1.39100 35.57100
N  18.22900 -4.66900 28.39100
C  18.96100 -5.11700 29.44700
C  19.83500 -6.19100 29.00300
C  19.67700 -6.30000 27.62300
C  18.70800 -5.22000 27.26100
C  20.77100 -6.94000 29.98500
C  20.38900 -7.21000 26.70000
O  20.30900 -7.07200 25.47400
C  21.15900 -8.31100 27.20100
N  16.86100 -2.89000 26.34700
C  17.64100 -3.68800 25.58500
C  17.56200 -3.22900 24.09700
C  16.37500 -2.26300 24.11700
C  16.04800 -2.15500 25.60000
C  18.83500 -2.69800 23.38000
C  15.10100 -2.58700 23.28200
C  14.72700 -1.73100 22.05500
N  15.48200 -1.68400 28.58100
C  14.80400 -1.02600 27.51600
C  13.89500 -0.05500 28.06700
C  14.13800 -0.06700 29.44900
C  15.06100 -1.11600 29.73500
C  12.96000 0.88200 27.30600
C  13.74200 0.49300 30.69900
O  12.95700 1.39000 30.93900
C  14.60700 -0.17800 31.78700
C  15.39200 0.85200 32.54400
O  16.59200 1.02900 32.54200
O  14.55700 1.48400 33.34100
C  15.13100 2.52100 34.18400
H  19.33600 -5.32000 31.47600
H  18.91600 -5.32700 25.18000
H  14.26000 -0.79100 25.54700
H  17.20700 -1.63400 33.45700
H  17.73700 -4.45900 33.15100
H  20.07000 -3.03700 32.50200
H  19.74000 -3.61200 34.11700
H  19.39600 -1.99200 33.79500
H  15.72400 -4.14400 33.82900
H  14.70300 -2.85500 33.07500
H  15.05500 -3.23200 35.83800
H  14.19300 -1.96200 34.89300
H  20.97400 -7.95400 29.64100
H  20.42400 -7.04300 31.01300
H  21.71900 -6.40100 30.01600
H  20.37200 -8.84100 27.73800
H  21.96500 -7.85100 27.77200
H  21.58900 -8.97900 26.45300
H  17.23500 -4.08100 23.50100
H  16.75700 -1.27700 23.85300
H  19.69600 -2.81200 24.03800
H  18.78400 -1.63000 23.16900
H  19.07600 -3.21900 22.45300
H  14.22300 -2.58500 23.92800
H  15.23100 -3.60200 22.90800
H  13.72600 -1.31100 22.15700
H  14.64300 -2.36900 21.17500
H  15.37000 -0.87400 21.85600
H  12.34300 0.20600 26.71500
H  13.46200 1.47200 26.53900
H  12.35700 1.46100 28.00500
H  13.92800 -0.59800 32.53000
H  15.32100 3.27600 33.42100
H  16.07900 2.28400 34.66600
H  14.43200 2.74800 34.98900
Mg 24.96700 0.53300 30.47100
C  26.93700 0.59900 33.42000
C  22.17500 0.54800 32.42900
C  23.05100 0.09900 27.65500
C  27.77100 -0.15800 28.67300
N  24.61200 0.78900 32.67400
C  25.54900 0.78300 33.68500
C  24.88900 1.08100 35.08500
C  23.38000 0.85900 34.66700
C  23.31700 0.67000 33.12200
C  22.70200 -0.39500 35.40500
C  25.13100 2.52200 35.63100
C  26.14200 2.71500 36.71500
H  25.64200 3.46700 37.97400
N  22.88000 0.33600 30.13400
C  21.90200 0.42600 31.02500
C  20.62900 0.19800 30.44300
C  20.80300 0.11600 29.03600
C  22.30200 0.19900 28.88600
C  19.32300 0.33000 31.19100
C  19.79500 0.02500 27.89700
O  20.16300 -0.12800 26.77900
C  18.27700 -0.04300 28.21600
N  25.35300 -0.00100 28.42900
C  24.42600 0.02100 27.45600
C  25.08500 -0.01700 26.08200
C  26.61900 -0.03100 26.42100
C  26.59500 0.00200 27.93600
C  24.59400 -1.15700 25.26000
C  27.37500 1.21100 25.78500
C  28.70000 0.88600 25.00000
N  27.01100 0.35100 30.85100
C  27.98100 0.03100 30.00600
C  29.19900 0.04800 30.74600
C  28.89900 0.25200 32.09200
C  27.51600 0.37400 32.13500
C  30.52500 -0.38400 30.18900
C  29.43800 0.39300 33.48200
O  30.56800 0.32500 33.98800
C  28.17100 0.65400 34.38200
C  28.06800 -0.45600 35.44000
O  27.44200 -1.53200 35.34900
O  28.88700 -0.17200 36.49500
C  28.68200 -0.96900 37.67900
H  21.29500 0.53200 33.07500
H  22.46500 -0.01700 26.74200
H  28.68400 -0.33500 28.10100
H  25.14600 0.24400 35.73400
H  22.70500 1.68600 34.88800
H  22.48600 -1.10400 34.60500
H  21.72500 -0.12100 35.80400
H  23.26900 -0.78000 36.25200
H  24.13900 2.90100 35.87700
H  25.50400 3.09300 34.78100
H  26.90300 3.39600 36.33700
H  26.65400 1.77500 36.92100
H  18.73100 1.11900 30.72800
H  19.42700 0.47300 32.26700
H  18.76500 -0.58700 31.00100
H  17.95600 0.92600 28.59800
H  18.07000 -0.88100 28.88200
H  17.69200 -0.30200 27.33300
H  24.73300 0.88600 25.58400
H  27.16100 -0.91500 26.08600
H  25.47900 -1.65200 24.86100
H  23.96200 -0.83400 24.43300
H  24.05300 -1.89800 25.84800
H  27.76500 1.81600 26.60400
H  26.73600 1.95700 25.31300
H  28.75400 1.47700 24.08600
H  28.51500 -0.12200 24.63100
H  29.56000 1.00200 25.66000
H  31.04900 0.52400 29.88900
H  30.46800 -1.00800 29.29700
H  31.10000 -0.97100 30.90500
H  28.25100 1.68000 34.74200
H  27.74100 -0.70700 38.16200
H  29.53400 -0.87500 38.35300
H  28.63400 -2.03700 37.46800

