158

Mg 48.85500 44.75400 42.57100
C  45.64500 45.38100 41.56200
C  48.69000 41.63100 41.17500
C  52.16900 44.54900 42.92600
C  49.19500 48.28700 43.39800
N  47.43600 43.75100 41.44200
C  46.11100 44.10400 41.23000
C  45.40700 43.13600 40.28900
C  46.23200 41.84600 40.48500
C  47.53200 42.38600 41.16300
C  45.53400 40.79700 41.32000
C  45.37100 43.67400 38.82900
C  44.06900 43.58200 38.12400
H  44.08300 42.90000 36.73700
N  50.21100 43.27700 42.21500
C  49.97800 42.02000 41.62100
C  51.20400 41.32200 41.63400
C  52.17000 42.13300 42.24100
C  51.51700 43.41500 42.50100
C  51.29800 39.90900 40.98300
C  53.63500 41.74600 42.51700
O  54.14800 40.68700 42.18900
C  54.58800 42.58400 43.45600
N  50.45600 46.26100 43.10100
C  51.73500 45.85400 43.13900
C  52.63200 46.94300 43.61000
C  51.72700 48.19100 43.52300
C  50.38500 47.60700 43.28000
C  53.20100 46.69300 45.06300
C  52.07600 49.02800 42.20700
C  52.58500 50.44900 42.56200
N  47.68400 46.46900 42.51700
C  47.91000 47.79200 42.95200
C  46.67900 48.54400 42.86900
C  45.76700 47.58500 42.39700
C  46.42800 46.37600 42.10100
C  46.38500 49.99500 43.35800
C  44.33700 47.35100 42.11600
O  43.40900 48.15200 42.23300
C  44.20100 45.85600 41.55000
C  43.34900 44.96500 42.39500
O  42.18500 44.62000 42.19600
O  44.04200 44.43600 43.40300
C  43.48600 43.27100 44.11600
H  48.61300 40.60200 40.81900
H  53.23400 44.45600 43.14900
H  49.20300 49.35100 43.64100
H  44.45700 42.90500 40.77200
H  46.58600 41.41700 39.54800
H  46.22900 40.45600 42.08800
H  45.21400 39.94400 40.72200
H  44.70100 41.21000 41.88900
H  46.04600 43.10000 38.19300
H  45.61300 44.72400 38.66900
H  43.54700 44.53800 38.10200
H  43.35800 42.94800 38.65400
H  52.03900 39.34900 41.55400
H  51.59900 39.76400 39.94600
H  50.32600 39.44400 41.14400
H  53.95300 42.96200 44.25700
H  55.02300 43.27400 42.73300
H  55.31100 41.84900 43.80900
H  53.47100 46.97100 42.91500
H  51.69700 48.68200 44.49500
H  52.58300 47.06600 45.88000
H  54.18700 47.15100 44.98200
H  53.19700 45.61000 45.18400
H  51.19400 49.11100 41.57100
H  52.83200 48.47000 41.65500
H  53.60300 50.50700 42.17600
H  52.59400 50.70000 43.62300
H  51.92900 51.18700 42.10100
H  45.29900 50.08300 43.39700
H  46.70900 50.79000 42.68600
H  46.80300 50.08100 44.36100
H  43.75200 45.97100 40.56300
H  42.93100 42.53100 43.53900
H  42.82000 43.55800 44.93000
H  44.37200 42.73300 44.45400
Mg -10.07700 40.00000 39.48800
C  -8.83100 36.92000 38.38400
C  -7.09500 41.39400 38.82400
C  -11.63800 42.91700 39.52700
C  -13.26800 38.29700 40.02900
N  -8.15000 39.24000 38.67900
C  -7.92600 37.99900 38.22500
C  -6.52200 38.02700 37.62800
C  -5.78500 39.23100 38.34700
C  -7.07800 40.00700 38.67300
C  -4.94500 38.94000 39.56600
C  -6.59800 38.11700 36.07900
C  -5.97900 36.97600 35.22300
H  -6.93200 36.33000 34.21700
N  -9.39700 41.96600 39.27500
C  -8.15600 42.30800 38.99100
C  -8.09400 43.78200 38.88900
C  -9.40400 44.27700 39.15500
C  -10.22600 43.04200 39.39700
C  -6.75800 44.54400 38.84700
C  -9.75400 45.72800 39.28000
O  -8.95500 46.60100 39.03500
C  -11.12400 46.18000 39.67300
N  -12.16900 40.54100 39.93500
C  -12.46200 41.84800 39.75400
C  -13.99600 41.97700 39.80200
C  -14.52400 40.56700 40.19400
C  -13.26900 39.74100 40.07700
C  -14.44100 43.15200 40.65300
C  -15.66700 40.07100 39.26900
C  -17.03100 40.74500 39.34400
N  -10.89800 37.93500 39.43100
C  -12.15800 37.41100 39.64700
C  -12.12000 36.04600 39.45700
C  -10.81200 35.73200 38.98700
C  -10.12700 36.95300 39.02400
C  -13.31300 35.09900 39.69300
C  -9.92900 34.73800 38.39600
O  -10.05200 33.53000 38.13100
C  -8.60800 35.48000 37.97700
C  -7.47100 34.88700 38.60900
O  -7.29900 34.76400 39.83300
O  -6.55100 34.47300 37.66700
C  -5.41700 33.75400 38.25000
H  -6.12700 41.87700 38.67600
H  -12.22400 43.83800 39.50500
H  -14.22400 37.82400 40.26200
H  -6.06500 37.07100 37.88400
H  -5.09400 39.70400 37.64900
H  -4.94000 37.85300 39.63900
H  -5.31600 39.43800 40.46200
H  -3.91300 39.26800 39.44500
H  -6.15900 39.04400 35.71100
H  -7.65200 38.05300 35.81000
H  -5.51400 36.24400 35.88200
H  -5.09900 37.28800 34.66000
H  -6.81500 45.20400 37.98100
H  -5.95800 43.82700 38.66300
H  -6.56800 45.14800 39.73400
H  -11.15700 47.21700 40.00600
H  -11.40700 45.56900 40.53000
H  -11.77000 45.90900 38.83800
H  -14.31800 42.23600 38.79400
H  -14.88300 40.60700 41.22200
H  -15.12100 42.80700 41.43200
H  -14.94500 43.82600 39.96100
H  -13.67600 43.72800 41.17500
H  -15.83100 39.01100 39.46000
H  -15.30800 40.27400 38.26000
H  -17.15300 41.47600 38.54500
H  -17.04900 41.31400 40.27300
H  -17.80000 39.99000 39.17600
H  -14.19400 35.59700 39.28900
H  -13.40100 35.01700 40.77600
H  -13.20100 34.13600 39.19300
H  -8.42300 35.42500 36.90500
H  -4.76700 34.46800 38.75600
H  -4.87100 33.20400 37.48300
H  -5.63800 33.11700 39.10700

