158

Mg 24.34000 -5.47600 46.00700
C  26.59000 -3.17400 44.41300
C  21.96400 -4.41900 43.67800
C  22.24800 -7.82000 47.02400
C  26.97100 -6.88000 47.72100
N  24.38600 -4.12400 44.08300
C  25.33500 -3.16900 43.84700
C  24.85700 -2.18700 42.76600
C  23.30700 -2.34500 42.89600
C  23.18600 -3.71700 43.65200
C  22.58600 -1.13200 43.60800
C  25.49100 -2.44600 41.32800
C  26.10300 -1.29300 40.50700
H  25.78200 -1.39200 38.99900
N  22.44400 -6.13400 45.37900
C  21.65800 -5.58600 44.43900
C  20.39000 -6.36700 44.30700
C  20.35900 -7.28700 45.30800
C  21.73200 -7.17000 45.88700
C  19.38600 -5.88600 43.34100
C  19.18400 -8.25400 45.69700
O  18.15300 -8.24900 45.02300
C  19.21300 -9.05800 46.91800
N  24.52400 -7.15700 47.16500
C  23.50500 -7.94000 47.58800
C  24.03400 -9.07100 48.49000
C  25.47000 -8.66400 48.81800
C  25.69700 -7.51800 47.83900
C  23.22200 -9.47300 49.77000
C  26.53800 -9.84000 48.82900
C  27.35700 -9.84800 50.14000
N  26.32700 -5.13600 46.10200
C  27.27900 -5.74300 46.89500
C  28.57600 -5.04100 46.75700
C  28.29900 -3.97400 45.78600
C  26.97800 -4.15400 45.41600
C  29.78300 -5.43000 47.46000
C  28.88700 -2.76600 45.15600
O  29.99900 -2.24200 45.31400
C  27.76500 -2.22500 44.08100
C  27.45400 -0.82700 44.36900
O  26.68800 -0.32000 45.16200
O  28.28700 -0.03700 43.56100
C  28.29300 1.36100 43.92400
H  21.12600 -3.95400 43.15400
H  21.60700 -8.53500 47.54400
H  27.74900 -7.42000 48.26500
H  25.18100 -1.20800 43.11700
H  22.81100 -2.51200 41.94000
H  23.32000 -0.33200 43.70600
H  22.23300 -1.49500 44.57300
H  21.73800 -0.71400 43.06500
H  24.75900 -2.96700 40.71100
H  26.35100 -3.08700 41.51900
H  27.18900 -1.34200 40.42400
H  25.76700 -0.33600 40.90700
H  18.68400 -5.21100 43.83100
H  18.83400 -6.77100 43.02600
H  19.75200 -5.48000 42.39900
H  18.27200 -9.56700 47.12700
H  19.39600 -8.36900 47.74200
H  20.04000 -9.75800 46.79500
H  24.09000 -9.91200 47.79900
H  25.38900 -8.24400 49.82000
H  22.35600 -8.81100 49.77700
H  23.83000 -9.49600 50.67400
H  22.73800 -10.41500 49.51100
H  27.23500 -9.81200 47.99100
H  25.98400 -10.77600 48.89000
H  28.43200 -9.81900 49.96300
H  27.12000 -10.62100 50.87100
H  27.27300 -8.85400 50.57900
H  29.57000 -5.44800 48.52900
H  30.53400 -4.71500 47.12500
H  30.02700 -6.47400 47.26100
H  28.15300 -2.35800 43.07100
H  28.30000 1.56500 44.99500
H  27.42100 1.91200 43.57300
H  29.20200 1.81200 43.52600
Mg 17.65800 0.03500 27.88700
C  16.27700 1.93900 30.37100
C  19.43700 -1.78400 30.07100
C  19.10500 -1.69500 25.30400
C  15.89100 2.00300 25.55000
N  17.99800 0.13300 29.89800
C  17.19600 0.90100 30.74300
C  17.62200 0.67800 32.21600
C  18.81000 -0.32900 32.14500
C  18.77800 -0.72800 30.65500
C  20.22600 0.23500 32.67000
C  16.39600 0.18000 33.06800
C  16.61000 0.14500 34.55400
H  17.85000 0.73100 35.23600
N  19.00200 -1.49100 27.71800
C  19.51200 -2.24900 28.80500
C  20.28000 -3.37200 28.40700
C  20.22700 -3.35100 26.95000
C  19.45900 -2.12100 26.57100
C  20.97600 -4.43900 29.35400
C  20.89100 -4.27500 25.95500
O  20.79900 -4.24900 24.68800
C  21.72500 -5.39900 26.54200
N  17.51100 0.14800 25.76500
C  18.29800 -0.61200 24.91500
C  18.07600 -0.21100 23.46400
C  16.89500 0.81400 23.58700
C  16.74100 0.96700 25.05100
C  19.47000 0.29700 22.88900
C  15.60500 0.55900 22.74900
C  14.32300 0.07400 23.40000
N  16.38200 1.65100 27.94000
C  15.80800 2.38400 26.91200
C  14.88000 3.32900 27.46000
C  15.06400 3.28600 28.83700
C  15.97200 2.19700 28.99900
C  14.11000 4.21200 26.70500
C  14.83300 3.84900 30.11500
O  14.13300 4.80000 30.48900
C  15.46900 2.96800 31.14600
C  16.23800 3.81800 32.05500
O  17.22600 4.37700 31.73400
O  15.72700 3.81400 33.37300
C  16.36800 4.77000 34.35400
H  20.06000 -2.38500 30.73600
H  19.48400 -2.20100 24.41400
H  15.25100 2.52900 24.83800
H  17.93500 1.62900 32.64600
H  18.54700 -1.15500 32.80600
H  20.73400 -0.49500 33.30100
H  20.09600 1.22900 33.09900
H  20.77300 0.47800 31.75900
H  16.27500 -0.84900 32.72800
H  15.51700 0.75100 32.76800
H  16.52200 -0.87800 34.92000
H  15.74400 0.62500 35.01100
H  20.85600 -4.24700 30.42000
H  22.06000 -4.51000 29.26500
H  20.64100 -5.47600 29.37000
H  22.09100 -5.96200 25.68400
H  21.04600 -5.96800 27.17700
H  22.54100 -5.13400 27.21400
H  17.88600 -1.13800 22.92300
H  17.17400 1.82400 23.28400
H  20.11400 0.55900 23.72800
H  19.39700 1.09700 22.15200
H  19.98800 -0.49100 22.34300
H  15.85200 -0.07200 21.89600
H  15.36600 1.53400 22.32300
H  13.67000 -0.38000 22.65400
H  13.85600 0.94100 23.86800
H  14.55700 -0.63400 24.19400
H  13.52100 3.47100 26.16400
H  14.76100 4.81200 26.06900
H  13.55600 4.93500 27.30400
H  14.71300 2.56600 31.82100
H  16.64900 5.68400 33.83200
H  17.18400 4.24000 34.84500
H  15.65300 4.98700 35.14800

