158

Mg 24.50500 -5.74000 45.75700
C  27.00900 -3.49900 44.27600
C  22.28600 -4.41700 43.60100
C  22.69900 -8.48000 46.14000
C  27.30900 -7.34400 47.20900
N  24.70500 -4.26600 44.02600
C  25.76000 -3.43900 43.64200
C  25.32500 -2.42500 42.53100
C  23.75100 -2.61000 42.56400
C  23.57600 -3.91700 43.36400
C  22.98100 -1.39300 43.12000
C  26.00500 -2.76800 41.18800
C  26.32400 -1.46500 40.36900
H  25.78100 -1.37100 38.95000
N  22.63100 -6.28300 45.17000
C  21.81100 -5.52600 44.31600
C  20.55700 -6.23900 44.08100
C  20.72900 -7.52300 44.71900
C  22.09600 -7.48600 45.34300
C  19.41900 -5.71600 43.26300
C  19.70700 -8.65000 44.67700
O  18.59700 -8.52300 44.18500
C  20.05800 -10.08100 44.93500
N  24.99100 -7.66000 46.57200
C  24.01900 -8.55500 46.69300
C  24.48600 -9.79000 47.55900
C  25.92500 -9.36400 48.02000
C  26.13300 -8.04200 47.24100
C  23.56200 -10.22900 48.70000
C  27.07900 -10.39300 47.72900
C  27.75500 -10.90400 48.95800
N  26.68800 -5.40500 45.98700
C  27.64700 -6.15400 46.63200
C  28.92300 -5.40100 46.68700
C  28.63900 -4.34300 45.74500
C  27.30300 -4.47800 45.26900
C  30.30500 -5.74500 47.28500
C  29.31500 -3.32000 45.05100
O  30.50200 -3.04800 45.11600
C  28.22500 -2.61100 44.08700
C  27.98600 -1.17100 44.58900
O  27.88700 -0.79500 45.75300
O  28.06200 -0.31100 43.50600
C  27.99600 1.12000 43.82700
H  21.48600 -3.95500 43.01800
H  22.01300 -9.28700 46.40300
H  28.15800 -7.68700 47.80300
H  25.48600 -1.38400 42.81400
H  23.41700 -2.94200 41.58200
H  23.59500 -0.50200 42.99300
H  22.77300 -1.57400 44.17500
H  22.05000 -1.11800 42.62400
H  25.36600 -3.41500 40.58800
H  26.87300 -3.41200 41.32900
H  27.39500 -1.27100 40.43400
H  25.94000 -0.60800 40.92300
H  19.64900 -6.14600 42.28800
H  19.41100 -4.62700 43.21400
H  18.45300 -6.05100 43.64200
H  19.44300 -10.74900 44.33100
H  19.89400 -10.31900 45.98600
H  21.08600 -10.21700 44.59900
H  24.57700 -10.62900 46.87000
H  26.03300 -9.02900 49.05100
H  22.86600 -11.03100 48.45400
H  22.88200 -9.38700 48.82600
H  24.16000 -10.43500 49.58700
H  27.75100 -9.93900 47.00100
H  26.69700 -11.24500 47.16800
H  27.57200 -10.30000 49.84700
H  28.80900 -10.94900 48.68200
H  27.47500 -11.88600 49.33800
H  30.14100 -5.95100 48.34300
H  30.99300 -4.91800 47.11000
H  30.68900 -6.65700 46.82800
H  28.60800 -2.56200 43.06800
H  27.98300 1.78800 42.96600
H  28.91200 1.45200 44.31600
H  27.13800 1.46500 44.40400
Mg 35.44300 49.75600 25.65400
C  36.03300 47.87100 28.51600
C  34.27500 52.25800 27.82600
C  34.46700 51.52300 23.16900
C  36.24200 46.87000 23.64200
N  35.16800 49.99100 27.95200
C  35.54300 49.13200 28.92400
C  35.41300 49.68400 30.37300
C  34.61300 51.08700 30.11100
C  34.65700 51.08500 28.52800
C  33.16800 51.04000 30.64800
C  36.73200 49.91500 31.08700
C  36.90100 49.11500 32.43800
H  36.72800 49.92700 33.68500
N  34.71200 51.71300 25.50000
C  34.35100 52.59400 26.44900
C  34.03400 53.87800 25.83600
C  33.94500 53.67700 24.46300
C  34.33000 52.21100 24.33600
C  33.79700 55.12300 26.66800
C  33.59700 54.65300 23.33200
O  33.42000 54.24300 22.19900
C  33.55600 56.16600 23.57000
N  35.41000 49.26500 23.74300
C  34.88000 50.21500 22.89500
C  34.77400 49.62800 21.41800
C  35.47600 48.20600 21.59000
C  35.67700 48.04200 23.10800
C  33.35600 49.54900 20.82900
C  36.88100 48.03400 20.84000
C  37.48600 46.56700 20.54500
N  36.05100 47.79300 25.94600
C  36.40100 46.75700 25.05500
C  36.83900 45.56600 25.86100
C  36.74500 45.97700 27.17800
C  36.35100 47.34100 27.20900
C  37.38100 44.33800 25.19000
C  37.01500 45.58900 28.54600
O  37.44100 44.46900 28.93100
C  36.58000 46.81200 29.45500
C  35.54700 46.34700 30.45000
O  34.31800 46.44100 30.32100
O  36.10000 45.85500 31.54300
C  35.22500 45.55200 32.68500
H  33.94700 53.06300 28.48700
H  34.20100 52.06300 22.25800
H  36.60800 46.06700 23.00000
H  34.77100 49.03900 30.97300
H  35.12000 51.98800 30.45700
H  32.82400 51.78500 31.36600
H  32.79100 50.12500 31.10500
H  32.61000 51.17600 29.72200
H  36.63900 50.94000 31.44600
H  37.64600 49.70800 30.53100
H  37.89300 48.66400 32.41900
H  36.16000 48.31500 32.43400
H  34.42500 55.93000 26.29100
H  34.10100 55.06500 27.71300
H  32.75400 55.33500 26.43200
H  34.37900 56.43100 24.23300
H  32.57500 56.31400 24.02200
H  33.51400 56.65000 22.59400
H  35.37900 50.21900 20.73100
H  34.75300 47.42000 21.37000
H  33.45500 49.95800 19.82300
H  32.72300 50.26200 21.35700
H  32.88600 48.56600 20.86900
H  37.56900 48.40400 21.60100
H  36.92700 48.70600 19.98400
H  37.98700 46.48000 19.58100
H  36.58500 45.95300 20.55000
H  38.29200 46.34100 21.24200
H  38.47100 44.32100 25.18800
H  36.86400 44.27600 24.23300
H  37.19000 43.51800 25.88300
H  37.43800 47.19100 30.01000
H  35.66700 45.96300 33.59300
H  35.06300 44.53500 33.04000
H  34.23400 46.00100 32.75300

