158

Mg 29.52700 57.90800 41.28300
C  26.76500 56.21800 40.01400
C  31.42300 55.37700 39.92800
C  32.14900 59.85800 41.73600
C  27.40600 60.46000 42.37800
N  29.13600 55.96000 40.06500
C  27.96500 55.62500 39.57900
C  28.04600 54.29200 38.83400
C  29.53300 53.81900 39.29000
C  30.07800 55.09400 39.76000
C  29.59100 52.67600 40.42000
C  27.93300 54.41400 37.24400
C  26.56600 53.99200 36.61600
H  26.00700 54.77300 35.40400
N  31.53500 57.61700 41.01400
C  32.10800 56.57800 40.36800
C  33.55100 56.75900 40.26700
C  33.79900 58.04200 40.91900
C  32.47500 58.59500 41.34800
C  34.43600 55.79400 39.65400
C  35.21100 58.67000 40.98900
O  36.19700 58.19200 40.42100
C  35.43400 59.89900 41.79000
N  29.78700 60.06300 41.82700
C  31.02100 60.57100 42.04300
C  30.97400 62.04900 42.59300
C  29.41700 62.14100 42.94100
C  28.78500 60.79800 42.39900
C  31.88600 62.36400 43.78600
C  28.71100 63.46800 42.49700
C  27.92200 64.28500 43.57900
N  27.47800 58.33900 41.27500
C  26.72100 59.36700 41.80600
C  25.33600 59.04500 41.67900
C  25.33400 57.88000 40.98300
C  26.63500 57.43100 40.74300
C  24.14300 59.74400 42.21200
C  24.43100 56.86900 40.38500
O  23.22300 56.80700 40.37200
C  25.27400 55.69000 39.82800
C  24.98500 54.45100 40.60500
O  25.12100 54.28500 41.81400
O  24.70300 53.43200 39.71200
C  24.61300 52.07700 40.23900
H  32.00300 54.57100 39.47400
H  33.09800 60.38400 41.85100
H  26.71500 61.18500 42.81400
H  27.35600 53.56400 39.26100
H  30.16200 53.51500 38.45300
H  29.86600 52.97300 41.43200
H  30.31000 51.95400 40.03400
H  28.60700 52.20900 40.46700
H  28.81400 53.99100 36.76300
H  27.97100 55.48200 37.03000
H  25.77400 53.91400 37.36100
H  26.69600 53.02000 36.14000
H  34.04100 55.18700 38.83900
H  34.79200 55.06800 40.38400
H  35.35400 56.31900 39.38800
H  35.10300 60.79400 41.26300
H  36.49900 60.03400 41.97900
H  34.99600 59.79400 42.78300
H  31.11200 62.73800 41.76100
H  29.34300 62.00800 44.02000
H  31.29400 62.70800 44.63300
H  32.67400 63.08600 43.57300
H  32.44100 61.45500 44.02000
H  27.97600 63.21200 41.73500
H  29.40900 64.16600 42.03600
H  28.04600 63.71400 44.50000
H  26.90500 64.40800 43.20700
H  28.40600 65.25700 43.67200
H  24.03300 60.77800 41.88400
H  24.28300 59.89600 43.28300
H  23.21200 59.22600 41.98200
H  25.05000 55.53100 38.77300
H  24.93700 51.92700 41.26900
H  25.11200 51.50600 39.45600
H  23.59100 51.72200 40.10800
Mg 0.39500 44.07100 25.86300
C  1.94600 44.27600 28.89600
C  -2.52300 43.13100 27.47300
C  -1.02900 43.33600 22.80000
C  3.41200 44.67800 24.24100
N  -0.16600 43.67600 27.87300
C  0.62500 43.86600 28.97200
C  -0.21900 43.82000 30.28700
C  -1.58400 43.15000 29.81700
C  -1.42800 43.34500 28.27600
C  -1.83500 41.67200 30.30500
C  -0.38200 45.22700 31.06500
C  -0.01100 45.30700 32.55900
H  0.02800 44.04000 33.41800
N  -1.57300 43.52200 25.25000
C  -2.57500 43.23100 26.04500
C  -3.71700 43.03900 25.20300
C  -3.29900 43.14800 23.83400
C  -1.91400 43.28400 23.93300
C  -5.05800 42.60700 25.73800
C  -4.06400 42.98500 22.50900
O  -3.55100 42.95900 21.39500
C  -5.57300 42.82200 22.56600
N  1.04500 44.08100 23.87300
C  0.28600 43.71300 22.80300
C  1.17500 43.62400 21.56100
C  2.45200 44.43500 21.89900
C  2.31700 44.35800 23.43300
C  1.34300 42.10600 21.08900
C  2.58300 45.82200 21.17800
C  3.81000 46.10100 20.20300
N  2.30500 44.36000 26.41200
C  3.40100 44.65400 25.69800
C  4.49800 44.85300 26.56700
C  4.02200 44.63100 27.87800
C  2.69500 44.44500 27.73400
C  5.96700 45.13900 26.11500
C  4.34400 44.62600 29.31400
O  5.38400 44.78800 29.93400
C  2.97500 44.37000 30.04400
C  3.20700 43.11000 30.82800
O  3.09700 42.01800 30.29300
O  3.71400 43.41300 32.06800
C  4.19600 42.24800 32.85600
H  -3.44700 42.77900 27.93700
H  -1.34100 43.10100 21.78000
H  4.42000 44.73200 23.82500
H  0.25200 43.10400 30.96000
H  -2.45200 43.72400 30.13900
H  -1.00600 41.45500 30.97900
H  -1.83100 41.01200 29.43800
H  -2.82500 41.69900 30.75900
H  -1.36100 45.66800 30.87800
H  0.27900 45.93700 30.56700
H  -0.76100 45.86700 33.11800
H  0.89500 45.90900 32.63200
H  -4.96100 42.19500 26.74200
H  -5.65000 41.94300 25.10700
H  -5.63000 43.48400 26.04200
H  -6.10300 43.28400 23.39900
H  -5.64100 41.75000 22.74800
H  -6.06600 42.99500 21.60900
H  0.65200 44.12400 20.74600
H  3.33300 43.82700 21.69300
H  2.39600 41.92500 20.87400
H  0.69900 41.79400 20.26700
H  1.15800 41.43300 21.92700
H  2.71300 46.52300 22.00400
H  1.72000 45.92000 20.52000
H  4.59000 46.60000 20.77800
H  3.58000 46.63300 19.28000
H  4.10600 45.12900 19.80900
H  5.93200 45.90500 25.34100
H  6.21600 44.15700 25.71300
H  6.63300 45.34700 26.95300
H  2.86000 45.28100 30.63100
H  5.24800 41.96900 32.79400
H  3.70600 41.31100 32.59100
H  3.91900 42.36900 33.90300

