158

Mg 48.40200 14.95800 28.06800
C  46.02300 14.81100 30.75900
C  50.54100 16.74400 30.14200
C  50.39800 15.11900 25.53500
C  45.92400 13.27600 26.13200
N  48.28900 15.72500 30.10000
C  47.26800 15.49400 30.96600
C  47.57900 15.99500 32.36700
C  48.85200 16.83800 32.11500
C  49.29400 16.42900 30.67600
C  48.67100 18.34300 32.34700
C  47.82300 14.71200 33.26600
C  47.26000 14.86600 34.67600
H  47.08900 16.28500 35.30400
N  50.28400 15.82200 27.82000
C  51.03600 16.49800 28.79800
C  52.37600 16.76600 28.22500
C  52.28400 16.46300 26.85200
C  50.98000 15.75000 26.69600
C  53.43600 17.57800 29.00400
C  53.20900 16.67100 25.67100
O  52.98000 16.30900 24.52500
C  54.53200 17.45200 25.88300
N  48.19100 14.25400 26.17300
C  49.14300 14.50000 25.26500
C  48.81400 13.94700 23.79800
C  47.47600 13.08900 24.14200
C  47.18300 13.55000 25.58300
C  48.64400 15.02900 22.72100
C  47.67900 11.56200 24.00200
C  48.13600 10.71600 25.22000
N  46.34800 14.32100 28.27000
C  45.54300 13.61700 27.43300
C  44.27200 13.31600 28.08300
C  44.43500 13.74800 29.42200
C  45.73400 14.27800 29.45900
C  43.09500 12.51800 27.55200
C  43.80100 13.71500 30.68900
O  42.66300 13.34100 31.04500
C  44.80600 14.37700 31.63900
C  44.11400 15.54400 32.26300
O  44.09100 16.67100 31.78200
O  43.57500 15.15800 33.47000
C  42.97500 16.22100 34.18400
H  51.19400 17.13000 30.92700
H  51.01900 15.07700 24.63800
H  45.19200 12.89600 25.41700
H  46.77200 16.65500 32.68600
H  49.68500 16.49600 32.73000
H  47.88500 18.65100 33.03700
H  48.65800 18.86200 31.38900
H  49.56600 18.73100 32.83400
H  48.88500 14.54100 33.44400
H  47.40500 13.79200 32.85800
H  47.84500 14.33400 35.42700
H  46.27200 14.41200 34.74400
H  53.46500 18.56200 28.53600
H  54.40500 17.09600 29.13500
H  53.03900 17.71700 30.01000
H  54.98700 17.18600 26.83700
H  54.27900 18.51000 25.96600
H  55.23600 17.30600 25.06500
H  49.53700 13.21700 23.43500
H  46.63200 13.36100 23.50900
H  49.45100 14.96100 21.99100
H  48.57900 16.03700 23.13000
H  47.69800 14.90000 22.19500
H  48.47200 11.40000 23.27200
H  46.75500 11.12100 23.62700
H  48.79200 9.90200 24.91400
H  47.30700 10.16500 25.66500
H  48.48100 11.44500 25.95400
H  43.35400 11.47300 27.37900
H  42.89500 13.02100 26.60600
H  42.23500 12.62500 28.21300
H  45.14300 13.60700 32.33300
H  43.49900 17.17500 34.11800
H  42.79000 15.99600 35.23400
H  42.00800 16.30700 33.68900
Mg 29.92000 58.53000 39.11400
C  27.14500 56.58100 38.12100
C  32.00600 55.92100 38.24800
C  32.54200 60.64000 39.03500
C  27.72100 61.29700 39.32400
N  29.61100 56.55700 38.25000
C  28.42900 55.95600 37.86000
C  28.74000 54.57800 37.24000
C  30.19400 54.34500 37.59500
C  30.64400 55.67600 38.07600
C  30.43600 53.19500 38.61400
C  28.49700 54.60500 35.68400
C  27.44400 53.73600 35.00200
H  26.62900 54.31000 33.87500
N  32.04500 58.36000 38.83400
C  32.66600 57.15100 38.51000
C  34.04700 57.43500 38.23000
C  34.30200 58.79500 38.62900
C  32.94500 59.35000 38.79900
C  35.15200 56.43000 37.83300
C  35.63600 59.49000 38.74600
O  36.65200 59.01600 38.28700
C  35.69800 60.80000 39.44300
N  30.09100 60.66400 39.12200
C  31.31000 61.29100 39.15100
C  31.20500 62.72900 39.10800
C  29.71300 63.05700 39.45000
C  29.12000 61.62200 39.20400
C  32.17600 63.43800 40.09100
C  29.01400 64.22700 38.53900
C  29.13100 65.60400 39.26800
N  27.85100 58.95700 38.88700
C  27.10500 60.09600 39.12800
C  25.67300 59.77100 39.08300
C  25.63800 58.42700 38.64600
C  26.93600 57.95500 38.55900
C  24.53000 60.69200 39.13500
C  24.81300 57.33400 38.22600
O  23.60400 57.23300 38.19300
C  25.75500 56.04700 37.93800
C  25.44100 54.91000 38.85200
O  25.33300 54.98500 40.08800
O  25.33800 53.77300 38.15400
C  25.09000 52.52800 38.90500
H  32.58600 55.05800 37.91200
H  33.33700 61.38400 38.96100
H  27.04400 62.15400 39.29200
H  28.02300 53.85300 37.62400
H  30.81300 54.08000 36.73800
H  31.37300 52.67900 38.40400
H  29.59800 52.50000 38.66000
H  30.53600 53.65500 39.59700
H  29.39000 54.28400 35.14700
H  28.42900 55.64900 35.37800
H  26.69300 53.30400 35.66400
H  27.92500 52.89900 34.49600
H  35.59500 56.70200 36.87500
H  35.00300 55.35100 37.82600
H  35.91600 56.63800 38.58200
H  36.64200 60.95600 39.96400
H  34.94800 60.91000 40.22700
H  35.51600 61.56500 38.68800
H  31.42500 63.09600 38.10600
H  29.43600 63.37900 40.45400
H  33.07000 62.94700 40.47400
H  31.75700 64.04800 40.89100
H  32.77000 64.12000 39.48300
H  28.05200 64.01600 38.07100
H  29.71900 64.36200 37.71900
H  29.68100 66.28700 38.62100
H  29.64700 65.50100 40.22300
H  28.21100 66.15000 39.47800
H  23.93600 60.68700 38.22100
H  24.85500 61.71000 39.35100
H  23.71600 60.36700 39.78200
H  25.57100 55.70400 36.92000
H  24.41500 52.05200 38.19400
H  24.66200 52.70100 39.89200
H  26.06900 52.05100 38.95700

