158

Mg 44.64900 4.57900 47.79300
C  42.38700 7.22900 47.22600
C  42.10500 2.32100 47.90700
C  47.00000 2.07100 47.56600
C  47.26700 6.85900 47.05700
N  42.54400 4.80300 47.76200
C  41.83800 5.94200 47.36200
C  40.33800 5.66500 47.32700
C  40.25800 4.10500 47.59600
C  41.71900 3.70200 47.83900
C  39.22800 3.58400 48.67600
C  39.78600 5.98000 45.86800
C  38.78300 7.14700 45.86900
H  38.66400 8.12000 44.70500
N  44.58700 2.44300 47.62600
C  43.38300 1.76100 47.88700
C  43.69800 0.34600 47.98600
C  45.10500 0.23200 47.77100
C  45.64700 1.59100 47.63400
C  42.58600 -0.69400 48.00400
C  45.96100 -1.02700 47.74800
O  45.37000 -2.12400 47.87400
C  47.37400 -1.05600 47.44000
N  46.78800 4.49500 47.14400
C  47.51500 3.30200 47.26900
C  48.99800 3.50700 47.04500
C  49.08100 5.11700 47.08400
C  47.63100 5.52700 47.09200
C  49.93400 2.88000 48.11100
C  49.99300 5.85000 46.01100
C  51.35000 6.39300 46.49300
N  44.81900 6.68500 47.34300
C  45.93500 7.38600 47.09300
C  45.59000 8.78000 46.81200
C  44.17300 8.81400 46.93200
C  43.75800 7.48800 47.21900
C  46.60000 9.87100 46.52100
C  42.89500 9.60500 46.95800
O  42.73000 10.86600 46.88600
C  41.69800 8.55600 47.05400
C  40.78300 8.81100 48.21300
O  40.79000 8.28900 49.34900
O  39.94300 9.86200 47.95800
C  38.84000 10.14100 48.87200
H  41.18000 1.74600 47.98300
H  47.83700 1.37100 47.50600
H  48.01300 7.65500 47.00500
H  39.78100 6.19300 48.10100
H  40.03200 3.54800 46.68700
H  38.41200 4.29500 48.80500
H  39.73300 3.40300 49.62400
H  38.77600 2.64600 48.35500
H  39.30400 5.05500 45.55100
H  40.56300 6.26400 45.15800
H  38.78800 7.76300 46.76800
H  37.84300 6.59600 45.89300
H  41.53900 -0.43200 47.85000
H  42.62200 -1.32800 48.89000
H  42.80100 -1.39600 47.19900
H  47.57000 -0.61700 46.46100
H  47.72800 -2.08600 47.40000
H  47.87700 -0.55400 48.26700
H  49.19700 3.18800 46.02100
H  49.37200 5.42900 48.08700
H  49.38300 2.19400 48.75400
H  50.32000 3.60800 48.82500
H  50.76500 2.28300 47.73400
H  49.40400 6.64200 45.54700
H  50.26700 5.15600 45.21700
H  51.28600 7.47800 46.41100
H  52.14200 5.97500 45.87100
H  51.50400 6.08600 47.52700
H  47.09300 10.22900 47.42500
H  46.23100 10.77400 46.03400
H  47.45800 9.52400 45.94500
H  41.13700 8.56600 46.11900
H  38.73700 11.22400 48.94300
H  38.78900 9.75300 49.89000
H  37.97800 9.79500 48.30300
Mg 6.41700 55.52700 40.85100
C  5.06500 52.19800 40.48800
C  9.27400 54.45800 39.43500
C  7.52900 58.74200 40.82200
C  3.29100 56.58200 41.76200
N  6.91200 53.66800 39.79000
C  6.32000 52.41500 39.87800
C  7.10900 51.46400 39.01900
C  8.56100 51.98400 39.22900
C  8.25100 53.44600 39.55400
C  9.53900 51.40900 40.28700
C  6.55800 51.75500 37.57300
C  6.52500 50.45700 36.71700
H  6.09200 50.77800 35.28600
N  8.21100 56.50100 40.28900
C  9.25200 55.83800 39.71100
C  10.31700 56.82300 39.45100
C  9.91800 58.09300 39.98300
C  8.51200 57.84700 40.35000
C  11.69000 56.45500 38.91700
C  10.68700 59.39100 40.17100
O  11.80600 59.45200 39.69800
C  10.17700 60.60600 40.90000
N  5.54900 57.47600 41.12200
C  6.20700 58.61400 41.26000
C  5.23800 59.79900 41.60200
C  3.84300 59.09500 41.81500
C  4.24600 57.63600 41.58300
C  5.68400 60.51600 42.82300
C  2.67400 59.61200 40.91800
C  1.49900 60.35200 41.66700
N  4.42300 54.62100 41.09400
C  3.32000 55.16900 41.54500
C  2.34400 54.13300 41.67500
C  2.87300 52.92000 41.31100
C  4.21300 53.24100 40.99400
C  0.85400 54.41800 42.03400
C  2.79900 51.45200 41.16700
O  1.92700 50.66000 41.48900
C  4.26500 50.96200 40.66900
C  4.26200 50.04600 39.54000
O  3.60700 50.24500 38.53700
O  4.91900 48.91800 39.77400
C  4.76000 47.84600 38.80500
H  10.26200 54.12600 39.10900
H  7.84900 59.78600 40.81700
H  2.35400 57.05600 42.06200
H  6.92800 50.42800 39.30400
H  9.00500 51.90800 38.23600
H  9.14500 50.55200 40.83200
H  9.76400 52.20200 41.00100
H  10.48700 51.26900 39.76700
H  7.15500 52.53400 37.09900
H  5.54900 52.16400 37.63200
H  5.92700 49.62800 37.09700
H  7.55500 50.10300 36.76600
H  12.07600 57.33400 38.40100
H  11.46100 55.73800 38.12900
H  12.41300 56.06500 39.63400
H  10.95900 61.30500 41.19600
H  9.77800 60.24200 41.84700
H  9.37200 61.05900 40.32000
H  5.18800 60.51500 40.78200
H  3.50200 59.18900 42.84600
H  4.89400 60.93800 43.44300
H  6.22100 61.41300 42.51500
H  6.29000 59.90600 43.49300
H  2.27100 58.77300 40.35100
H  3.00000 60.26300 40.10700
H  1.11800 61.17200 41.05800
H  1.89700 60.73200 42.60800
H  0.66000 59.69100 41.88900
H  0.74100 55.13300 42.84800
H  0.44900 53.50900 42.47900
H  0.19500 54.63500 41.19400
H  4.53300 50.44100 41.58800
H  5.77100 47.55100 38.52500
H  4.37200 48.24900 37.86900
H  4.06000 47.17100 39.29700

