158

Mg 47.88500 15.87200 28.76400
C  45.95300 15.31300 31.73400
C  50.15400 17.52000 30.47000
C  49.62500 15.98700 25.95000
C  45.28800 14.10700 27.00300
N  48.00100 16.37400 30.83000
C  47.13900 16.12900 31.89300
C  47.67500 16.70300 33.22700
C  48.90300 17.57700 32.75500
C  49.02300 17.17400 31.22700
C  48.74100 19.06400 32.92500
C  47.90300 15.76500 34.41000
C  47.49300 16.18100 35.81300
H  47.55000 17.68100 36.15100
N  49.63200 16.53700 28.30100
C  50.50100 17.12300 29.14800
C  51.78000 17.40500 28.53400
C  51.67000 16.92600 27.20600
C  50.27800 16.43600 27.09500
C  53.02400 17.91700 29.32200
C  52.80100 16.83400 26.07600
O  52.47800 16.33100 25.02300
C  54.25600 17.34000 26.37700
N  47.47900 15.23900 26.73400
C  48.35800 15.51100 25.76000
C  47.89400 14.88200 24.41700
C  46.46100 14.38300 24.75000
C  46.38400 14.53900 26.26900
C  47.96200 15.87800 23.20300
C  46.19200 12.90000 24.25900
C  46.68400 11.71100 25.15500
N  46.01800 14.93200 29.18100
C  45.06400 14.39200 28.38500
C  43.90300 13.97500 29.21700
C  44.26800 14.32700 30.53300
C  45.54700 14.88600 30.47400
C  42.69600 13.32200 28.80100
C  43.77100 14.25000 31.91300
O  42.82900 13.84700 32.49100
C  44.88500 15.00200 32.74300
C  44.13600 16.06100 33.37300
O  43.65500 17.09600 32.82300
O  43.86000 15.67800 34.68100
C  42.93500 16.49800 35.50000
H  50.79600 18.27800 30.92300
H  50.26700 16.08700 25.07200
H  44.53000 13.59600 26.40500
H  46.83800 17.35100 33.48600
H  49.76200 17.33500 33.38000
H  49.33100 19.37700 33.78700
H  47.71000 19.28900 33.19700
H  49.04000 19.68500 32.08100
H  48.95600 15.48500 34.38000
H  47.41600 14.81800 34.17800
H  48.20400 15.73800 36.51000
H  46.47900 15.81800 35.97800
H  53.78700 17.15000 29.19200
H  52.79600 17.93200 30.38800
H  53.31000 18.92500 29.02200
H  54.24000 18.38000 26.70300
H  54.75700 17.25800 25.41200
H  54.67600 16.66400 27.12200
H  48.48500 13.98800 24.22000
H  45.68400 14.97100 24.26100
H  46.99800 16.07700 22.73300
H  48.57900 15.39500 22.44500
H  48.48300 16.78200 23.51700
H  46.73200 12.76200 23.32300
H  45.12100 12.70400 24.20900
H  47.06700 10.84400 24.61500
H  45.76400 11.39800 25.64900
H  47.36600 12.10400 25.90900
H  41.92200 13.54900 29.53300
H  42.77500 12.23700 28.73400
H  42.44800 13.64100 27.78900
H  45.24900 14.27400 33.46700
H  42.35800 15.89300 36.20100
H  42.10700 16.91400 34.92600
H  43.38100 17.35300 36.00900
Mg -9.40200 40.14400 39.79500
C  -8.66400 36.89000 39.26900
C  -6.01000 40.93400 38.87500
C  -10.28600 43.54100 39.25500
C  -12.72200 39.35100 40.07800
N  -7.53300 39.04500 39.18800
C  -7.54000 37.66200 39.09500
C  -6.08000 37.21400 38.68700
C  -5.25000 38.48700 39.01900
C  -6.32800 39.55400 39.01700
C  -4.45900 38.57300 40.42000
C  -6.07700 36.72500 37.20700
C  -6.22400 37.80500 36.08300
H  -7.42700 37.58600 35.21300
N  -8.31000 41.98500 39.21100
C  -6.91400 42.06500 38.95000
C  -6.66300 43.41000 38.59700
C  -7.93200 44.10400 38.43900
C  -8.89900 43.20400 39.00400
C  -5.25700 43.92700 38.18500
C  -8.11700 45.58900 37.90800
O  -7.16400 46.20300 37.62600
C  -9.42300 46.20500 37.60700
N  -11.20400 41.29500 39.63900
C  -11.31000 42.63300 39.65100
C  -12.77800 43.05600 40.09800
C  -13.41300 41.79600 40.47900
C  -12.40600 40.75600 40.07500
C  -12.75700 44.32400 41.13800
C  -14.87400 41.56700 39.89200
C  -15.78600 40.62800 40.69100
N  -10.56800 38.44900 39.78800
C  -11.85000 38.25500 39.94300
C  -12.20700 36.85100 39.81500
C  -10.96900 36.25700 39.56900
C  -10.01500 37.30200 39.51600
C  -13.62000 36.24200 39.90200
C  -10.34200 35.03200 39.21900
O  -10.79200 33.89800 39.10100
C  -8.84300 35.36000 38.87900
C  -7.95100 34.45400 39.71900
O  -8.04700 34.12500 40.88500
O  -6.90700 34.01100 38.87900
C  -5.83900 33.20900 39.43300
H  -4.95800 41.21000 38.77400
H  -10.54900 44.59900 39.30900
H  -13.77800 39.19900 40.31400
H  -5.85700 36.37200 39.34300
H  -4.58000 38.79900 38.21800
H  -3.41300 38.83800 40.26500
H  -4.62500 37.74000 41.10400
H  -4.87400 39.44200 40.93100
H  -6.92700 36.06500 37.03400
H  -5.22500 36.09200 36.95900
H  -5.35000 37.68500 35.44200
H  -6.39600 38.75300 36.59200
H  -4.90600 44.75800 38.79800
H  -5.25700 44.39700 37.20100
H  -4.52400 43.12100 38.14300
H  -9.75400 46.76100 38.48400
H  -10.12400 45.41200 37.34900
H  -9.44600 46.92900 36.79200
H  -13.25000 43.40500 39.17900
H  -13.39200 41.71100 41.56500
H  -13.41500 44.17200 41.99400
H  -12.96600 45.26000 40.62000
H  -11.74000 44.35200 41.52900
H  -14.60300 41.12700 38.93200
H  -15.26600 42.57900 39.78300
H  -16.74200 41.10300 40.91300
H  -15.25500 40.30100 41.58500
H  -16.02100 39.79100 40.03300
H  -13.61800 35.24600 40.34500
H  -13.99300 36.22200 38.87800
H  -14.18900 36.88000 40.57800
H  -8.79000 35.07900 37.82700
H  -6.19000 32.18100 39.34400
H  -5.54200 33.48500 40.44500
H  -4.95900 33.21100 38.79000

