158

Mg 9.25500 4.12100 27.94400
C  10.28400 2.45100 30.89400
C  7.46300 6.29700 29.91600
C  8.06500 5.34800 25.20300
C  11.16100 1.75600 26.09900
N  8.75400 4.19300 30.09700
C  9.41100 3.51400 31.15700
C  9.00700 4.08000 32.58800
C  8.06000 5.26800 32.17100
C  8.06500 5.27000 30.61300
C  6.60000 5.35200 32.76700
C  10.29700 4.38300 33.38500
C  10.12800 5.26500 34.63400
H  10.70600 4.78600 35.93700
N  8.04100 5.70700 27.57400
C  7.34800 6.49700 28.47800
C  6.42600 7.38900 27.83700
C  6.66200 7.16000 26.43100
C  7.62200 6.02100 26.32400
C  5.37300 8.29000 28.56400
C  6.13200 7.89600 25.28100
O  6.23800 7.62700 24.08900
C  5.39900 9.19700 25.63100
N  9.56500 3.54700 25.97600
C  8.94400 4.32400 25.08600
C  9.29600 3.82300 23.66000
C  10.53300 2.84500 23.90400
C  10.43700 2.71100 25.39300
C  8.05600 3.09800 23.03500
C  11.86400 3.54000 23.51000
C  12.84200 2.60600 22.79100
N  10.41100 2.36500 28.35700
C  11.08900 1.51200 27.45700
C  11.61600 0.47000 28.23300
C  11.42100 0.83100 29.55000
C  10.67400 1.98400 29.63100
C  12.34800 -0.68700 27.59200
C  11.80800 0.47400 30.88700
O  12.47000 -0.47200 31.29000
C  11.07500 1.55100 31.81500
C  10.22100 0.90100 32.81000
O  9.08600 0.46400 32.62500
O  10.91700 0.77800 33.99200
C  10.31000 -0.05300 34.98300
H  6.97200 7.11200 30.45200
H  7.66500 5.77000 24.27900
H  11.71500 0.97700 25.57300
H  8.44400 3.23400 32.98500
H  8.43900 6.23800 32.49300
H  6.21500 4.34100 32.63400
H  5.97400 6.16600 32.40300
H  6.59200 5.37700 33.85600
H  10.82900 4.98300 32.64600
H  10.76400 3.43900 33.66500
H  9.08300 5.53700 34.77900
H  10.65700 6.19800 34.44000
H  5.40500 7.93500 29.59400
H  4.39700 8.08600 28.12200
H  5.54100 9.36500 28.51300
H  4.37200 8.96200 25.91100
H  5.45600 9.78300 24.71400
H  5.88500 9.62000 26.51000
H  9.61700 4.62700 22.99900
H  10.41600 1.86800 23.43500
H  7.16200 3.15300 23.65600
H  8.38300 2.08200 22.81300
H  7.79000 3.56900 22.08900
H  12.47700 4.00100 24.28500
H  11.59300 4.35700 22.84100
H  13.54600 2.45100 23.60900
H  13.40500 2.99200 21.94100
H  12.37700 1.69500 22.41500
H  12.22100 -1.50600 28.29900
H  13.43300 -0.61600 27.66300
H  11.87100 -0.87100 26.62900
H  11.87100 2.10600 32.31200
H  9.74300 0.64000 35.60600
H  11.09100 -0.49600 35.60000
H  9.68200 -0.87800 34.64700
Mg 39.99700 40.74400 26.79300
C  39.59100 43.03500 29.27300
C  41.18500 38.45100 29.22800
C  40.70700 38.55600 24.29900
C  39.09600 43.10100 24.37800
N  40.26300 40.73200 28.96900
C  39.73700 41.70800 29.78100
C  39.68200 41.19800 31.17700
C  40.44100 39.85100 31.14900
C  40.67300 39.66100 29.66200
C  41.83200 39.71100 31.83200
C  38.29100 41.19400 32.05100
C  38.49200 42.05500 33.37700
H  37.82800 41.48900 34.60900
N  40.76900 38.86000 26.81400
C  41.24500 38.09900 27.85500
C  41.72600 36.79300 27.47500
C  41.55100 36.80400 26.06000
C  40.90800 38.10400 25.67200
C  42.35600 35.72100 28.45400
C  41.73200 35.61900 25.05800
O  41.30600 35.70300 23.88700
C  42.36200 34.41400 25.46500
N  39.95000 40.77400 24.64200
C  40.19700 39.74300 23.83700
C  40.05100 40.07300 22.31800
C  39.26800 41.44300 22.49000
C  39.40400 41.83700 23.94800
C  41.47300 40.18200 21.49500
C  37.81600 41.31800 21.95500
C  36.83900 40.67800 22.94500
N  39.49900 42.66500 26.72800
C  39.21500 43.57100 25.68500
C  39.05100 44.91900 26.23400
C  39.23200 44.75200 27.62100
C  39.42100 43.33900 27.88200
C  38.81900 46.19200 25.49100
C  39.15800 45.45300 28.82300
O  38.88200 46.63100 29.04600
C  39.35700 44.31700 30.02400
C  40.55000 44.87000 30.86000
O  41.73000 44.82500 30.53600
O  40.08300 45.13000 32.05100
C  40.88700 45.68200 33.09500
H  41.49500 37.72000 29.97800
H  41.14000 37.92300 23.52100
H  38.76300 43.86000 23.66700
H  40.34900 41.92500 31.64100
H  39.74200 39.06800 31.44200
H  41.86400 40.42800 32.65100
H  42.69300 39.88800 31.18800
H  41.97500 38.74600 32.31900
H  37.96700 40.17400 32.25900
H  37.54700 41.61400 31.37400
H  38.05900 43.02200 33.12000
H  39.56900 42.08400 33.54600
H  41.88300 34.75500 28.28000
H  42.12900 35.90400 29.50500
H  43.42800 35.64700 28.27000
H  42.61300 33.72200 24.66100
H  41.65400 33.76500 25.98100
H  43.26700 34.52600 26.06100
H  39.51100 39.24100 21.86600
H  39.75700 42.26600 21.96900
H  41.60400 41.23500 21.24400
H  41.40000 39.69000 20.52500
H  42.39200 39.92100 22.01800
H  37.79000 40.73900 21.03200
H  37.51800 42.29400 21.57200
H  37.15900 40.37600 23.94200
H  36.39000 39.79200 22.49700
H  36.02300 41.39000 23.06900
H  37.73900 46.25300 25.35700
H  39.33100 46.20700 24.52900
H  39.12300 47.01600 26.13600
H  38.45100 44.11400 30.59400
H  41.91000 45.84700 32.75700
H  40.87700 44.79500 33.72700
H  40.38400 46.56300 33.49200

