158

Mg -0.71700 17.40400 27.48100
C  -1.74200 15.18300 29.97600
C  -1.83000 20.01600 29.43000
C  -0.46600 19.39600 24.77300
C  -0.20700 14.64200 25.35000
N  -1.71900 17.60100 29.53000
C  -1.83100 16.50500 30.44100
C  -2.26700 17.01000 31.82100
C  -2.52800 18.59500 31.56100
C  -1.94600 18.77700 30.12200
C  -3.94500 19.07700 31.91300
C  -1.22600 16.67300 32.91800
C  -1.14800 17.63800 34.19200
H  0.02000 17.39000 35.21700
N  -1.07800 19.45000 27.17100
C  -1.49900 20.37500 28.09300
C  -1.62100 21.73900 27.44200
C  -1.25100 21.49300 26.10700
C  -0.83400 20.10800 25.96400
C  -2.09900 23.01300 28.15000
C  -1.18400 22.53000 25.05900
O  -0.74500 22.26100 23.95000
C  -1.80800 23.82100 25.24900
N  -0.38700 17.03400 25.35400
C  -0.20300 18.06200 24.53900
C  -0.01700 17.57000 23.07000
C  0.41400 16.06500 23.35800
C  -0.05600 15.89100 24.77200
C  -1.26700 17.59600 22.17400
C  1.99300 15.81900 23.18200
C  2.97800 16.53000 24.13300
N  -0.97500 15.34800 27.58000
C  -0.61300 14.32100 26.66600
C  -0.85500 13.05900 27.26300
C  -1.20700 13.30600 28.55800
C  -1.40000 14.73600 28.69400
C  -0.58300 11.75100 26.57100
C  -1.52200 12.74000 29.77800
O  -1.58200 11.53800 30.04600
C  -1.89600 13.88100 30.80900
C  -0.93700 13.74900 31.82300
O  0.24300 14.13500 31.83700
O  -1.58000 13.21000 32.94300
C  -0.81900 12.86100 34.15700
H  -2.18700 20.92300 29.92200
H  -0.56600 19.99700 23.86600
H  0.01400 13.79300 24.70000
H  -3.20100 16.49100 32.03900
H  -1.96500 19.17300 32.29300
H  -4.25200 19.87900 31.24100
H  -4.09100 19.41300 32.94000
H  -4.65400 18.27000 31.73100
H  -0.24100 16.46200 32.50100
H  -1.47800 15.79400 33.51200
H  -2.14200 17.69300 34.63700
H  -0.86100 18.59500 33.75600
H  -1.59400 23.94800 27.90500
H  -1.83900 22.87200 29.20000
H  -3.18000 23.08400 28.02900
H  -1.85900 24.19500 24.22700
H  -1.06100 24.34200 25.84800
H  -2.78400 23.80200 25.73200
H  0.78100 18.15700 22.61600
H  0.01500 15.36500 22.62500
H  -1.96100 16.77300 22.34500
H  -0.93700 17.42000 21.15000
H  -1.70500 18.56200 22.42500
H  2.19400 16.06300 22.13900
H  2.12100 14.74000 23.25700
H  2.63100 17.34600 24.76700
H  3.80800 16.93800 23.55600
H  3.38100 15.79300 24.82800
H  -0.05200 11.81900 25.62100
H  -1.53200 11.23300 26.43400
H  -0.04800 11.10700 27.26900
H  -2.89900 13.59800 31.12800
H  -0.98200 13.58900 34.95200
H  0.25000 12.84400 33.94700
H  -1.15100 11.86300 34.44300
Mg 7.42200 54.57800 41.45700
C  6.69400 51.22700 41.18400
C  10.59900 53.98200 40.35600
C  7.78000 57.99000 41.05600
C  4.04300 55.21800 42.00600
N  8.53800 52.75200 40.97100
C  8.01400 51.46100 40.81500
C  9.06200 50.45900 40.29400
C  10.35100 51.32200 40.38900
C  9.78200 52.76200 40.61600
C  11.45000 50.78100 41.33500
C  8.79200 49.89200 38.88400
C  8.35400 50.87600 37.75200
H  9.04600 50.76400 36.41200
N  8.97000 55.76200 40.69300
C  10.22000 55.31000 40.41900
C  11.07600 56.47300 40.28700
C  10.21200 57.61700 40.36000
C  8.95100 57.16900 40.78200
C  12.54800 56.38800 39.91900
C  10.67900 59.01800 40.12500
O  11.85400 59.21000 39.93100
C  9.71800 60.13300 40.07100
N  6.07100 56.27500 41.31000
C  6.47200 57.57200 41.32800
C  5.38100 58.62200 41.47300
C  4.15500 57.69300 41.70500
C  4.79300 56.30500 41.68500
C  5.74100 59.67800 42.57600
C  2.99600 57.95600 40.66500
C  3.26100 57.62900 39.14400
N  5.75900 53.52900 41.77900
C  4.44400 53.87200 42.05700
C  3.65000 52.71200 42.40000
C  4.56800 51.65800 42.07800
C  5.75200 52.21500 41.62400
C  2.16900 52.46200 42.77300
C  4.66200 50.19700 42.07400
O  3.88600 49.37600 42.53500
C  6.07900 49.88300 41.41200
C  5.84800 49.01600 40.20800
O  5.62200 49.46200 39.11600
O  5.72700 47.66300 40.52400
C  5.17400 46.86400 39.41300
H  11.62800 53.67800 40.15600
H  7.81000 59.07100 41.21000
H  2.97100 55.38100 42.13900
H  9.17400 49.67800 41.04700
H  10.83100 51.36900 39.41100
H  11.24300 49.73200 41.55000
H  11.42500 51.29600 42.29500
H  12.39400 50.95700 40.81900
H  8.00900 49.13500 38.92600
H  9.70700 49.32900 38.69800
H  8.34100 51.89500 38.13800
H  7.32700 50.55900 37.57500
H  12.85500 55.55900 39.28200
H  13.23600 56.43500 40.76300
H  12.86000 57.29100 39.39500
H  10.09000 60.97200 39.48300
H  9.30600 60.41600 41.03900
H  8.79600 59.84100 39.56800
H  5.26200 59.06900 40.48600
H  3.78200 57.78500 42.72500
H  6.68900 59.57200 43.10500
H  4.98200 59.57800 43.35200
H  5.68000 60.63000 42.04900
H  2.74300 59.01500 40.71400
H  2.14600 57.35600 40.99100
H  3.87000 56.79900 38.78800
H  3.27300 58.51600 38.51000
H  2.26400 57.28100 38.87700
H  1.58700 52.40200 41.85300
H  1.69400 53.26700 43.33400
H  1.92500 51.52400 43.27300
H  6.73800 49.43600 42.15500
H  5.63100 47.05600 38.44200
H  4.10800 47.04600 39.27200
H  5.26600 45.78200 39.51300

