158

Mg 24.29100 -4.36100 46.24700
C  26.24300 -1.92500 44.79900
C  21.60400 -3.50000 44.09300
C  22.72800 -7.36100 47.03200
C  27.06600 -5.39500 48.25500
N  23.96300 -2.77700 44.74000
C  24.89200 -2.05200 44.18100
C  24.41200 -1.21800 43.02700
C  22.86500 -1.41500 43.11800
C  22.77600 -2.67200 44.11800
C  21.93700 -0.18900 43.57400
C  25.10500 -1.59300 41.63200
C  25.64000 -0.45000 40.74500
H  25.40200 -0.59300 39.26600
N  22.38300 -5.19100 45.82400
C  21.46300 -4.67700 44.86200
C  20.28700 -5.62200 44.81000
C  20.57500 -6.72200 45.67600
C  21.92000 -6.45700 46.27800
C  19.07600 -5.20000 43.93300
C  19.57900 -7.87200 45.99900
O  18.51500 -7.86700 45.41300
C  19.91700 -8.97600 46.91100
N  24.83300 -6.14300 47.49300
C  23.98000 -7.18000 47.65500
C  24.68200 -8.30700 48.46200
C  25.87400 -7.53900 49.19400
C  26.03800 -6.33000 48.22300
C  23.70700 -9.16000 49.44000
C  27.15800 -8.33700 49.45100
C  27.48700 -8.80000 50.90300
N  26.27300 -3.87400 46.44600
C  27.26600 -4.31800 47.36100
C  28.44900 -3.51300 47.18200
C  28.14800 -2.61000 46.14700
C  26.77500 -2.84100 45.78100
C  29.68500 -3.54600 47.99900
C  28.65300 -1.54200 45.36100
O  29.77700 -1.06000 45.34300
C  27.41500 -1.07700 44.43400
C  27.09700 0.42700 44.56600
O  26.92900 1.15500 45.51700
O  27.21300 0.97800 43.24300
C  27.34400 2.47400 43.10200
H  20.91400 -3.04200 43.38100
H  22.26900 -8.34000 47.18400
H  27.85100 -5.61400 48.98100
H  24.59800 -0.15000 43.13900
H  22.58800 -1.81800 42.14400
H  21.31500 0.18500 42.76100
H  22.58900 0.68300 43.59800
H  21.46500 -0.30100 44.55000
H  24.38300 -2.02900 40.94200
H  25.89300 -2.26300 41.97600
H  26.71600 -0.35000 40.89300
H  25.11000 0.42500 41.12100
H  19.01300 -4.11200 43.89800
H  18.20300 -5.69900 44.35300
H  19.24700 -5.54100 42.91200
H  20.69900 -9.48300 46.34600
H  19.08600 -9.67100 47.02800
H  20.33700 -8.83100 47.90600
H  25.07800 -9.01600 47.73500
H  25.49900 -7.10100 50.11900
H  22.70100 -8.74100 49.45500
H  23.96800 -9.08500 50.49600
H  23.66500 -10.20200 49.12300
H  27.97100 -7.75800 49.01400
H  27.09700 -9.18100 48.76400
H  27.42700 -9.88100 50.77700
H  26.65800 -8.43500 51.51000
H  28.49800 -8.57400 51.23900
H  29.51100 -3.99200 48.97800
H  29.94800 -2.49600 48.13400
H  30.44800 -4.08500 47.43800
H  27.71700 -1.19900 43.39400
H  27.74700 2.88700 44.02700
H  26.37900 2.90000 42.82600
H  28.03800 2.64600 42.27900
Mg 6.30800 53.66000 41.72900
C  5.08900 50.28400 41.36100
C  9.39100 52.66800 40.74000
C  7.06200 56.90800 41.31000
C  2.93500 54.53600 42.21300
N  7.07600 51.74100 40.99000
C  6.45900 50.45800 40.97700
C  7.48700 49.34300 40.73000
C  8.81100 50.12100 40.73600
C  8.43400 51.63100 40.76900
C  9.81900 49.68000 41.81700
C  7.33100 48.56700 39.38500
C  6.87000 49.21100 38.13100
H  6.30300 48.33900 36.99500
N  8.08300 54.66900 41.13900
C  9.23600 54.09700 40.81400
C  10.21300 55.12400 40.64700
C  9.53700 56.37800 40.78600
C  8.14500 56.03000 41.06800
C  11.77200 54.90700 40.57900
C  10.20400 57.76200 40.75200
O  11.41800 57.88400 40.61700
C  9.44800 59.01600 41.05900
N  5.19100 55.44500 41.74800
C  5.72200 56.66900 41.59000
C  4.74500 57.86400 41.78400
C  3.44000 57.03700 42.15700
C  3.85200 55.57500 41.99300
C  5.03900 58.83500 42.91600
C  2.32500 57.36100 41.18800
C  0.92300 57.47100 41.91100
N  4.38900 52.61200 41.92600
C  3.14400 53.10200 42.20700
C  2.23400 52.03500 42.58200
C  3.00200 50.87100 42.22100
C  4.25900 51.32200 41.74600
C  0.87600 52.19100 43.08700
C  2.90500 49.41500 42.18900
O  2.06900 48.59400 42.46600
C  4.34200 49.04100 41.57900
C  4.29000 48.16900 40.39600
O  3.86800 48.51000 39.32000
O  4.61700 46.95300 40.82400
C  4.44300 45.90300 39.87900
H  10.38000 52.30500 40.45700
H  7.20400 57.98500 41.42600
H  1.95800 54.78900 42.63000
H  7.41700 48.65400 41.57100
H  9.46100 50.00600 39.86900
H  9.56500 48.67000 42.14000
H  9.71800 50.41000 42.61900
H  10.81400 49.72600 41.37500
H  6.78400 47.64500 39.58300
H  8.32700 48.21000 39.12500
H  7.71700 49.75700 37.71400
H  6.18800 50.00400 38.44000
H  12.16700 55.19600 41.55300
H  12.20800 55.53000 39.79800
H  12.09600 53.88800 40.36700
H  9.99400 59.92200 40.79500
H  9.10100 58.91200 42.08700
H  8.54800 59.15800 40.46200
H  4.67100 58.32800 40.80100
H  3.12900 57.20100 43.18900
H  5.70300 58.19900 43.50200
H  4.11000 59.08100 43.43000
H  5.53400 59.76300 42.62900
H  2.29000 56.55600 40.45400
H  2.47900 58.28800 40.63600
H  0.14000 56.96000 41.35100
H  0.74900 58.54200 41.81300
H  0.89300 57.32800 42.99200
H  0.56200 51.16000 43.25000
H  0.37800 52.81400 42.34400
H  0.83900 52.67300 44.06300
H  5.01400 48.48500 42.23200
H  4.64500 44.89300 40.23600
H  4.99300 45.99800 38.94300
H  3.38200 45.82000 39.64500

