158

Mg 40.54800 8.16800 29.49900
C  42.82400 9.63100 31.99000
C  38.67600 7.00600 32.03700
C  38.92400 6.33600 27.22900
C  43.13500 8.89200 27.11700
N  40.84900 8.24200 31.70300
C  41.65600 8.98900 32.50200
C  41.12900 9.08000 33.91300
C  39.89800 8.11100 33.89300
C  39.79800 7.69800 32.44000
C  39.80000 6.99300 34.88400
C  40.81800 10.55000 34.31400
C  39.79700 10.65800 35.49800
H  40.09000 11.82900 36.41300
N  38.85400 7.06100 29.60300
C  38.23600 6.64400 30.75800
C  37.08500 5.90300 30.41400
C  37.06200 5.75100 28.98800
C  38.29000 6.37900 28.53700
C  36.08400 5.49600 31.46200
C  36.17100 5.07400 28.08800
O  36.38200 4.96100 26.89200
C  34.92200 4.55500 28.58800
N  41.05300 7.60200 27.48800
C  40.18700 6.87600 26.70300
C  40.57600 6.87400 25.20800
C  41.65900 8.03100 25.20900
C  41.99300 8.24200 26.67000
C  41.07500 5.45300 24.70800
C  41.26600 9.40700 24.58800
C  40.09500 10.12700 25.15900
N  42.57600 8.99100 29.54900
C  43.39800 9.19900 28.41500
C  44.58200 9.90700 28.94900
C  44.41000 10.05000 30.35500
C  43.14600 9.57200 30.61600
C  45.81500 10.25100 28.15000
C  44.95200 10.66000 31.62900
O  45.91800 11.38200 31.80300
C  43.91600 10.40200 32.69500
C  44.41400 9.67300 33.83200
O  44.90800 8.58500 33.76600
O  44.08400 10.39600 34.92900
C  44.08200 9.66800 36.19400
H  38.09800 6.56600 32.85300
H  38.30700 5.78800 26.51400
H  43.89000 9.23300 26.40600
H  41.87200 8.80600 34.66200
H  38.97000 8.64100 34.11000
H  40.73500 6.97200 35.44400
H  39.66100 6.09300 34.28600
H  38.93900 6.99800 35.55200
H  40.29100 10.88100 33.42000
H  41.75400 11.09200 34.44600
H  39.58300 9.75900 36.07600
H  38.89000 10.89700 34.94200
H  35.03800 5.63300 31.19000
H  36.22500 5.85900 32.48000
H  36.29700 4.44000 31.62900
H  35.14100 3.79300 29.33600
H  34.35000 3.92400 27.90800
H  34.39500 5.38800 29.05100
H  39.75700 7.16100 24.54800
H  42.59600 7.73100 24.73900
H  42.16200 5.48700 24.62500
H  40.66800 4.99400 23.80700
H  40.90600 4.75700 25.53000
H  41.08600 9.26300 23.52300
H  42.11300 10.09000 24.52100
H  40.43700 11.14100 25.36600
H  39.84300 9.66100 26.11200
H  39.21200 10.10700 24.52100
H  46.68300 9.59700 28.22900
H  46.15800 11.04600 28.81300
H  45.74700 10.53600 27.10000
H  43.67100 11.41900 33.00100
H  44.91100 9.98600 36.82600
H  44.03400 8.58500 36.08200
H  43.09200 9.75200 36.64100
Mg 34.49000 49.41000 25.47400
C  34.65800 47.63800 28.58000
C  33.17200 52.07800 27.18400
C  34.01000 50.74200 22.52100
C  34.98400 46.31900 23.83800
N  33.94200 49.75600 27.58800
C  34.23700 48.93400 28.71600
C  34.04300 49.65800 30.03400
C  33.38200 51.01500 29.58000
C  33.50600 50.97100 28.05800
C  31.95200 51.29600 30.10500
C  35.24200 49.79300 31.02600
C  35.05300 49.42600 32.53700
H  33.55500 49.58600 33.11700
N  33.75300 51.20100 24.95000
C  33.21900 52.16200 25.77700
C  32.71500 53.25000 24.96600
C  33.12200 52.96200 23.60500
C  33.68700 51.59200 23.67000
C  31.69000 54.20700 25.55200
C  32.83200 53.76500 22.32400
O  33.25300 53.43100 21.22300
C  31.89400 54.96800 22.44600
N  34.40200 48.60000 23.40600
C  34.24300 49.39400 22.35500
C  34.44800 48.73400 20.94600
C  34.79300 47.28700 21.47400
C  34.74300 47.38200 23.01500
C  33.28500 48.72500 19.92800
C  36.22800 46.93900 21.05900
C  37.47400 47.55900 21.78600
N  34.86300 47.37600 26.02900
C  35.01700 46.20600 25.26900
C  35.22000 45.08800 26.12300
C  35.07400 45.55400 27.41200
C  34.86900 46.95800 27.30400
C  35.60500 43.66800 25.65700
C  35.17000 45.21500 28.81700
O  35.35900 44.15100 29.40400
C  34.81000 46.51000 29.58700
C  33.51700 46.16100 30.33300
O  32.42700 46.15400 29.79000
O  33.75200 45.74500 31.62500
C  32.52800 45.61700 32.44500
H  32.78100 52.94600 27.71800
H  33.84600 51.30800 21.60100
H  35.18800 45.31200 23.46700
H  33.28300 49.00500 30.46300
H  33.97400 51.79400 30.06100
H  31.47100 50.36600 30.40600
H  31.26400 51.75700 29.39700
H  31.95200 51.86600 31.03400
H  35.55800 50.83600 31.03200
H  36.00100 49.15600 30.57200
H  35.64900 50.14100 33.10400
H  35.47100 48.47800 32.87500
H  30.82400 54.47800 24.94900
H  32.13400 55.13200 25.92100
H  31.24200 53.79300 26.45500
H  32.26700 55.60600 23.24700
H  30.89100 54.55700 22.56500
H  32.01600 55.52200 21.51600
H  35.30000 49.15600 20.41300
H  34.10000 46.46800 21.28000
H  32.36500 49.05800 20.40700
H  33.25900 47.73100 19.48100
H  33.51700 49.31400 19.04100
H  36.42500 47.14600 20.00700
H  36.18200 45.85800 21.18500
H  37.27500 48.61200 21.98600
H  38.32100 47.51600 21.10200
H  37.69500 47.02600 22.71100
H  36.45300 43.30500 26.23800
H  35.87200 43.61900 24.60100
H  34.80300 42.97400 25.90900
H  35.51900 46.62900 30.40600
H  32.24200 44.56500 32.46900
H  31.70000 46.25300 32.13300
H  32.77100 45.87500 33.47600

