158

Mg 35.10700 2.59300 29.81100
C  32.73900 3.69600 32.29100
C  37.56300 2.95300 32.14200
C  37.42400 2.16500 27.30300
C  32.56400 3.05800 27.42800
N  35.11100 3.40900 31.87400
C  34.09000 3.65600 32.74300
C  34.45900 3.66900 34.24300
C  36.03400 3.64200 34.09800
C  36.29800 3.35900 32.60200
C  36.68400 4.96400 34.57500
C  33.94100 2.36600 34.92900
C  33.83100 2.34900 36.50600
H  34.41800 3.55800 37.25300
N  37.15300 2.38200 29.71700
C  38.00700 2.54200 30.84400
C  39.36200 2.18400 30.34300
C  39.34200 1.95600 28.93400
C  37.92200 2.21700 28.60200
C  40.51300 2.29100 31.26800
C  40.50800 1.71600 27.98200
O  40.40300 1.67700 26.74700
C  41.93600 1.57000 28.50400
N  34.94500 2.52100 27.65100
C  36.05700 2.31700 26.86300
C  35.67700 2.40400 25.34100
C  34.14200 2.57500 25.42700
C  33.81400 2.77700 26.92900
C  36.30800 3.59300 24.49000
C  33.34400 1.39700 24.90700
C  33.69000 -0.01800 25.31700
N  33.02800 3.21600 29.81300
C  32.16000 3.30000 28.75900
C  30.82800 3.70900 29.29300
C  31.07800 3.83200 30.70600
C  32.37600 3.46900 30.97400
C  29.70200 3.97700 28.35500
C  30.35400 4.09700 31.92100
O  29.25900 4.59100 32.14700
C  31.40500 3.93100 33.04100
C  31.53700 5.10200 33.90100
O  31.84300 6.24700 33.61400
O  31.02600 4.80800 35.19800
C  30.96300 5.79400 36.24900
H  38.32600 3.08700 32.91100
H  38.11500 1.93800 26.48800
H  31.74000 3.09600 26.71400
H  34.07000 4.56000 34.73500
H  36.51200 2.88500 34.71900
H  36.94500 5.51500 33.67100
H  37.53300 4.94800 35.25900
H  35.96100 5.67500 34.97500
H  34.58800 1.56800 34.56500
H  32.94200 2.09500 34.58600
H  34.26500 1.38300 36.76100
H  32.80100 2.21600 36.83800
H  41.26500 2.94900 30.83300
H  40.87000 1.27300 31.42200
H  40.24600 2.73500 32.22700
H  42.06800 1.39500 29.57100
H  42.48600 2.43800 28.13700
H  42.23600 0.71900 27.89200
H  35.88300 1.42300 24.91300
H  33.88400 3.43900 24.81500
H  36.66400 3.18900 23.54200
H  37.12500 3.98000 25.10000
H  35.60600 4.38800 24.24200
H  33.46100 1.50000 23.82800
H  32.26200 1.51500 24.96900
H  34.05000 -0.59200 24.46300
H  32.76400 -0.46300 25.68200
H  34.46900 0.05100 26.07600
H  29.07800 3.08400 28.32600
H  29.89400 4.23000 27.31300
H  29.13800 4.84900 28.68600
H  31.01500 3.05600 33.56100
H  30.02900 6.35100 36.17200
H  31.84300 6.43700 36.25500
H  30.99100 5.19700 37.16100
Mg 50.21800 45.22800 41.49300
C  46.88000 45.85100 40.34800
C  50.14200 42.31300 39.64300
C  53.46900 45.22700 41.65000
C  50.34800 48.74700 42.24700
N  48.79400 44.30800 40.04700
C  47.45900 44.70900 39.84600
C  46.82900 43.77400 38.76200
C  47.71100 42.50600 38.81200
C  48.99400 43.04100 39.52700
C  47.06500 41.24000 39.42600
C  46.77600 44.41600 37.33500
C  45.40700 44.46100 36.58200
H  45.33600 44.37800 34.99700
N  51.56100 43.81000 40.91100
C  51.37900 42.66200 40.20000
C  52.58300 41.85400 40.27200
C  53.57600 42.56500 41.03900
C  52.86800 44.00300 41.20700
C  52.60500 40.47900 39.64900
C  54.94500 42.09300 41.48100
O  55.33400 40.97200 41.14400
C  55.79400 42.94800 42.31400
N  51.68500 46.77700 41.76200
C  52.99100 46.46300 41.86600
C  53.89400 47.61100 42.27300
C  52.83600 48.71300 42.67600
C  51.53200 48.03900 42.19400
C  54.97300 47.34400 43.33700
C  53.08200 50.01300 41.88600
C  52.64800 50.02800 40.38800
N  48.89000 46.90700 41.63700
C  49.06700 48.24900 41.92100
C  47.81400 48.93900 41.83000
C  46.94200 48.01600 41.29900
C  47.59500 46.82000 41.11100
C  47.50300 50.31300 42.21300
C  45.56000 47.84900 40.89000
O  44.63100 48.62000 40.81900
C  45.45000 46.44200 40.22100
C  44.56000 45.52300 40.94900
O  43.96000 44.60500 40.43200
O  44.30800 45.88900 42.25800
C  42.97500 45.47300 42.78200
H  49.98400 41.35700 39.13900
H  54.54100 45.02500 41.60100
H  50.44600 49.74100 42.68700
H  45.88100 43.41900 39.16700
H  48.00500 42.15600 37.82300
H  47.77500 40.62200 39.97600
H  46.70400 40.67400 38.56700
H  46.25000 41.48800 40.10500
H  47.34100 43.80100 36.63500
H  47.17900 45.42800 37.35500
H  44.96100 45.39900 36.91400
H  44.72500 43.68400 36.92800
H  51.57200 40.16000 39.78400
H  53.33200 39.72900 39.96000
H  52.80000 40.60700 38.58400
H  55.19000 43.49900 43.03500
H  56.41100 43.51500 41.61700
H  56.44500 42.28200 42.88000
H  54.44400 47.91200 41.38200
H  52.81200 48.88300 43.75200
H  55.06000 48.12200 44.09600
H  55.89800 47.38400 42.76200
H  54.90500 46.34300 43.76400
H  54.15600 50.19500 41.92200
H  52.58600 50.85200 42.37400
H  53.45200 50.51400 39.83500
H  51.70200 50.55300 40.26200
H  52.56800 48.99500 40.05000
H  47.39800 50.99900 41.37200
H  48.28000 50.62200 42.91100
H  46.51900 50.38800 42.67600
H  45.15100 46.53000 39.17700
H  43.19200 45.06900 43.77100
H  42.32700 44.77300 42.25400
H  42.50100 46.41600 43.05200

