158

Mg 0.14000 43.03300 26.46200
C  2.87000 42.89700 28.75700
C  -1.94200 42.64000 29.01300
C  -2.23200 42.94300 24.07200
C  2.55900 43.23100 23.87100
N  0.43400 42.80200 28.55400
C  1.62500 42.81300 29.27300
C  1.27000 42.73200 30.79400
C  -0.18200 42.19200 30.85000
C  -0.60500 42.51300 29.41000
C  -0.34700 40.62700 31.18600
C  1.45500 44.20400 31.48100
C  2.17400 44.13700 32.82800
H  1.71100 43.00900 33.78600
N  -1.80100 42.86400 26.56300
C  -2.52900 42.77900 27.71800
C  -3.91100 42.74500 27.34000
C  -4.06200 42.84600 25.91200
C  -2.68700 42.84300 25.45100
C  -5.02900 42.59800 28.33400
C  -5.30700 43.02200 25.01000
O  -5.32900 43.15000 23.73500
C  -6.62400 43.13200 25.70500
N  0.15200 43.08300 24.23100
C  -0.96100 42.98600 23.46900
C  -0.64700 42.86100 21.93400
C  0.91800 43.18600 21.94700
C  1.23800 43.27900 23.43700
C  -1.01800 41.48400 21.26100
C  1.40800 44.28000 21.05700
C  1.07800 45.67000 21.53700
N  2.28500 43.13500 26.28500
C  3.13500 43.20100 25.14000
C  4.50000 43.31900 25.58900
C  4.46800 43.07700 27.00100
C  3.08900 43.02200 27.35800
C  5.72600 43.33100 24.75600
C  5.24000 42.90500 28.16500
O  6.47900 42.83700 28.22000
C  4.28100 42.85100 29.39700
C  4.67200 41.67900 30.19300
O  4.34000 40.50800 29.92600
O  5.31500 42.03300 31.34600
C  5.66500 40.97300 32.27400
H  -2.58500 42.58300 29.89400
H  -3.03100 43.13200 23.35200
H  3.30700 43.07700 23.09100
H  1.95900 42.07900 31.33100
H  -0.68000 42.77800 31.62300
H  -0.72300 40.39400 32.18200
H  0.61500 40.11300 31.19700
H  -0.88900 40.08500 30.41100
H  0.54100 44.76800 31.66700
H  1.93100 44.86300 30.75500
H  2.13600 45.12100 33.29600
H  3.21000 43.93800 32.55400
H  -5.64100 41.75500 28.01300
H  -5.60700 43.52200 28.32600
H  -4.55800 42.43900 29.30500
H  -7.37300 43.47300 24.99100
H  -6.63400 43.97800 26.39200
H  -6.91300 42.28900 26.33400
H  -1.11300 43.66300 21.36100
H  1.40800 42.29700 21.54900
H  -0.28500 40.67800 21.21700
H  -1.41700 41.85600 20.31700
H  -1.84400 41.11300 21.86700
H  1.06500 44.16200 20.03000
H  2.49600 44.20900 21.07700
H  0.95700 46.28100 20.64200
H  1.85300 46.07700 22.18600
H  0.27200 45.60800 22.26800
H  5.47700 42.89600 23.78800
H  6.43700 42.65600 25.23300
H  6.19800 44.30000 24.59800
H  4.45200 43.72400 30.02700
H  6.18300 40.12100 31.83200
H  4.70200 40.68100 32.69200
H  6.19400 41.27000 33.18000
Mg -6.21100 25.21500 26.30700
C  -4.74300 27.10400 28.99900
C  -7.59600 23.07000 28.49300
C  -7.38900 23.42600 23.67200
C  -4.26400 27.21500 24.11600
N  -6.19300 25.19500 28.45300
C  -5.49300 25.98800 29.38700
C  -5.66900 25.45300 30.84900
C  -6.22700 23.97000 30.61700
C  -6.76000 24.11100 29.11000
C  -5.19600 22.92600 30.94600
C  -6.59300 26.37800 31.76200
C  -6.02700 26.86000 33.11900
H  -6.25700 26.04300 34.36900
N  -7.53800 23.67200 26.11800
C  -8.01400 22.94800 27.16900
C  -8.96800 21.94100 26.67200
C  -8.92700 22.02400 25.24200
C  -7.95500 23.09900 24.92000
C  -9.89200 21.23400 27.62300
C  -9.60500 21.18800 24.17600
O  -9.56400 21.50900 22.96900
C  -10.36800 19.99300 24.72100
N  -5.81000 25.27400 24.23800
C  -6.48900 24.45500 23.32900
C  -6.23000 24.91500 21.90000
C  -5.46100 26.24300 21.92300
C  -5.18600 26.27800 23.53400
C  -5.59800 23.79500 21.05800
C  -6.08000 27.46500 21.28000
C  -5.28300 28.14400 20.07500
N  -4.69000 26.79600 26.48100
C  -4.03200 27.48700 25.50600
C  -3.40100 28.65000 26.07700
C  -3.57600 28.49100 27.44900
C  -4.40700 27.39000 27.65500
C  -2.69800 29.74500 25.29900
C  -3.30200 29.12700 28.75500
O  -2.69700 30.15100 29.15500
C  -3.99300 28.14100 29.80200
C  -2.85800 27.42700 30.40900
O  -1.98600 26.89300 29.77500
O  -2.76800 27.69700 31.74700
C  -1.50800 27.40600 32.43500
H  -8.00200 22.35400 29.21100
H  -7.71600 22.91000 22.76600
H  -3.77200 27.89100 23.41400
H  -4.73000 25.41800 31.40100
H  -7.06300 23.82600 31.30100
H  -4.34600 23.31700 31.50600
H  -4.92300 22.39400 30.03500
H  -5.62000 22.19600 31.63500
H  -7.42200 25.79800 32.16700
H  -7.03700 27.18500 31.17900
H  -6.35900 27.88700 33.26500
H  -4.95200 26.74500 32.97700
H  -10.90400 21.00900 27.28500
H  -10.05200 21.69700 28.59600
H  -9.48900 20.26300 27.91100
H  -9.71500 19.45600 25.40900
H  -10.67400 19.36100 23.88700
H  -11.27300 20.27100 25.26100
H  -7.20800 25.02500 21.43200
H  -4.48300 26.02900 21.49200
H  -5.06800 23.07300 21.67800
H  -4.80400 24.20500 20.43300
H  -6.37100 23.34400 20.43600
H  -6.07700 28.23400 22.05300
H  -7.03800 27.15900 20.86100
H  -6.07100 28.02600 19.33100
H  -4.43500 27.58600 19.67800
H  -5.16300 29.21000 20.26500
H  -3.42100 30.53400 25.09500
H  -2.27300 29.44600 24.34100
H  -1.81700 30.06800 25.85500
H  -4.48600 28.47400 30.71500
H  -0.64600 27.99700 32.12500
H  -1.35800 26.34200 32.25400
H  -1.68400 27.60500 33.49200

