158

Mg 8.01100 3.47700 28.17000
C  9.36200 1.99500 30.95800
C  6.23900 5.64300 30.33900
C  6.20100 4.69200 25.62400
C  9.26700 0.97700 26.16400
N  7.67600 3.65800 30.43900
C  8.57800 3.06500 31.35100
C  8.40100 3.66200 32.77400
C  7.28200 4.75600 32.50900
C  7.00300 4.67000 30.97100
C  5.98500 4.44500 33.26900
C  9.69400 4.15000 33.45600
C  9.94900 3.61100 34.90900
H  10.25500 4.59200 36.01900
N  6.56200 5.02900 27.95700
C  6.00800 5.73700 28.95600
C  5.09200 6.68400 28.43700
C  5.10200 6.49700 27.04600
C  6.02800 5.42700 26.78300
C  4.08500 7.47800 29.29100
C  4.25600 7.14700 26.01300
O  4.27200 6.82900 24.81500
C  3.31500 8.21000 26.40100
N  7.68200 2.92300 26.23400
C  7.04400 3.65800 25.35100
C  7.17700 3.07700 23.97900
C  8.42600 2.15500 24.11600
C  8.43600 1.94700 25.61300
C  5.87500 2.46800 23.39600
C  9.72500 2.75100 23.59000
C  10.65600 3.49100 24.57100
N  9.20300 1.90700 28.46700
C  9.62300 0.98600 27.58000
C  10.48100 -0.04000 28.23000
C  10.48500 0.35200 29.56400
C  9.61200 1.53500 29.69100
C  11.23700 -1.23000 27.59300
C  10.94000 0.06900 30.92400
O  11.64100 -0.91600 31.31900
C  10.15600 1.05000 31.84900
C  9.20200 0.34300 32.78200
O  8.12100 -0.11900 32.50900
O  9.89000 0.32600 34.04900
C  9.00500 -0.25400 35.09700
H  5.66800 6.33600 30.96000
H  5.66500 5.10600 24.76700
H  9.87100 0.24600 25.62200
H  8.01000 2.86600 33.40800
H  7.70600 5.73800 32.71800
H  5.22100 4.12900 32.55900
H  5.63600 5.45200 33.49600
H  6.05800 3.91700 34.21900
H  9.70300 5.24000 33.47800
H  10.50700 3.88100 32.78100
H  10.81900 2.95600 34.87900
H  9.12100 3.01300 35.28900
H  4.37800 8.50000 29.05200
H  4.04500 7.32300 30.36900
H  3.13300 7.12400 28.89500
H  2.43500 7.71900 26.81500
H  3.07100 8.71800 25.46800
H  3.77400 8.99100 27.00900
H  7.34000 3.96100 23.36300
H  8.27000 1.21800 23.58100
H  5.99800 1.44200 23.05100
H  5.58400 3.10200 22.55800
H  5.12000 2.53700 24.17900
H  9.37100 3.53800 22.92300
H  10.28700 2.06500 22.95700
H  11.54800 2.90800 24.80100
H  10.10000 3.71500 25.48200
H  11.00900 4.43800 24.16400
H  10.47900 -1.91100 27.20500
H  11.85000 -1.72900 28.34300
H  11.90600 -1.01700 26.75900
H  10.92300 1.61400 32.38000
H  9.71400 -0.40900 35.91000
H  8.51400 -1.19200 34.83700
H  8.30600 0.51000 35.43800
Mg 48.61800 35.17200 27.44500
C  46.65600 33.87200 30.06900
C  49.30100 37.92100 29.34600
C  50.37800 36.28500 24.84700
C  47.55200 32.34600 25.49600
N  48.14900 35.70700 29.48900
C  47.40100 35.01100 30.42400
C  47.74500 35.58800 31.80600
C  47.94400 37.09400 31.46800
C  48.49500 36.95000 29.99100
C  46.80400 38.19100 31.64900
C  48.94500 34.78600 32.54900
C  48.98500 34.64900 34.09700
H  48.11800 35.56700 34.87300
N  49.56200 36.92100 27.10000
C  49.77600 37.88800 28.03000
C  50.64300 38.88600 27.40600
C  51.08600 38.39000 26.12300
C  50.36600 37.13300 25.97900
C  50.98100 40.25800 28.02600
C  52.16500 38.92300 25.22000
O  52.43900 38.40300 24.17700
C  52.97800 40.15500 25.63800
N  48.80100 34.45100 25.47600
C  49.63400 35.10700 24.62400
C  49.84200 34.37300 23.32500
C  48.92000 33.01900 23.51200
C  48.38400 33.29200 24.93700
C  49.34000 35.33100 22.24100
C  49.84200 31.65600 23.31900
C  49.50800 30.80600 22.06400
N  47.38300 33.50400 27.64700
C  47.05700 32.41900 26.84000
C  46.21100 31.52700 27.48900
C  46.04800 32.11100 28.75000
C  46.77700 33.27200 28.78100
C  45.60800 30.24600 26.98700
C  45.33000 31.89300 29.99500
O  44.49100 31.07500 30.27200
C  45.79400 33.01200 30.96700
C  46.56100 32.33200 32.06200
O  47.57000 31.66100 31.99900
O  45.72300 32.40600 33.16000
C  46.07400 31.48300 34.19500
H  49.57600 38.80700 29.92300
H  50.98000 36.60600 23.99400
H  47.23900 31.41500 25.01800
H  46.88100 35.53700 32.47000
H  48.75400 37.47600 32.08900
H  46.30000 38.42600 30.71100
H  47.07800 39.10200 32.18100
H  45.98500 37.75900 32.22400
H  49.89600 35.22200 32.24500
H  48.89000 33.77900 32.13500
H  49.99600 34.65100 34.50500
H  48.65800 33.63900 34.34300
H  50.18000 40.51900 28.71800
H  50.87900 40.92700 27.17100
H  51.89500 40.43500 28.59300
H  53.83100 40.21900 24.96200
H  53.20100 40.06500 26.70100
H  52.27800 40.96800 25.44800
H  50.90300 34.12900 23.29600
H  48.07100 33.17300 22.84600
H  48.64600 36.08600 22.61100
H  48.87000 34.84900 21.38400
H  50.15200 35.92300 21.82000
H  49.87700 30.93400 24.13400
H  50.84900 31.99900 23.08400
H  49.26400 29.82500 22.47200
H  50.37900 30.70100 21.41800
H  48.65100 31.22800 21.53900
H  45.39900 30.23700 25.91800
H  44.72000 30.02100 27.57700
H  46.37100 29.51100 27.24600
H  45.09900 33.71100 31.43100
H  45.51400 31.61800 35.12000
H  47.08500 31.55800 34.59500
H  46.01200 30.44200 33.87700

