158

Mg 36.00300 1.97200 31.12700
C  33.61600 3.14900 33.44500
C  38.25300 1.89200 33.61600
C  38.17700 1.24900 28.78500
C  33.57000 2.68000 28.66300
N  35.94400 2.62300 33.28300
C  34.86800 2.87500 34.05600
C  35.13800 2.89900 35.56400
C  36.70400 2.67900 35.50900
C  37.01900 2.34600 34.04000
C  37.50300 3.72500 36.35400
C  34.21700 1.88200 36.40800
C  33.84000 2.28600 37.88100
H  34.68500 3.38300 38.52900
N  37.97800 1.56800 31.13300
C  38.77700 1.54300 32.28300
C  40.14000 1.07200 31.83800
C  40.07100 0.83600 30.42700
C  38.67600 1.23500 30.06800
C  41.31300 1.00500 32.82900
C  41.15300 0.25300 29.55800
O  40.88100 0.01700 28.40200
C  42.63200 -0.03700 30.12200
N  35.88500 1.88000 29.00400
C  36.94500 1.51300 28.22100
C  36.55300 1.26200 26.73600
C  35.00300 1.68300 26.75600
C  34.73100 2.08300 28.24000
C  37.48300 2.04100 25.79000
C  33.93300 0.74100 26.08600
C  33.39000 -0.31200 27.03700
N  33.98100 2.79000 31.06300
C  33.17500 2.97400 29.96300
C  31.89500 3.57200 30.37900
C  31.96800 3.61100 31.80100
C  33.27800 3.16500 32.08700
C  30.70700 3.73600 29.58700
C  31.31900 3.86600 33.06000
O  30.20700 4.28400 33.19000
C  32.38900 3.65000 34.19600
C  32.51500 4.95200 34.94300
O  33.21700 5.90500 34.60600
O  31.78400 5.01200 36.07000
C  31.59300 6.31400 36.74600
H  38.92800 1.73300 34.45900
H  38.83000 0.88800 27.98800
H  32.81200 2.89200 27.90600
H  34.92600 3.91100 35.90800
H  36.84600 1.70400 35.97700
H  38.09600 3.07200 36.99500
H  36.80800 4.27500 36.98900
H  38.10400 4.37600 35.72000
H  34.74300 0.93000 36.33700
H  33.24200 1.70700 35.95500
H  34.05900 1.41200 38.49500
H  32.79000 2.57100 37.81900
H  42.25100 1.44700 32.49400
H  41.47300 -0.03200 33.12200
H  41.03700 1.51700 33.75100
H  43.21400 -0.43200 29.29000
H  42.62600 -0.73800 30.95700
H  43.04700 0.94100 30.36800
H  36.74600 0.21900 26.48500
H  34.92400 2.60200 26.17600
H  36.85000 2.37900 24.97000
H  38.22000 1.28100 25.53000
H  37.89300 2.90400 26.31400
H  34.45500 0.24900 25.26500
H  33.14000 1.40700 25.74800
H  33.89700 -0.30500 28.00300
H  33.43100 -1.28200 26.54000
H  32.35800 0.02900 27.12000
H  30.40200 2.78400 29.15300
H  30.76400 4.57800 28.89700
H  29.88000 4.01500 30.24000
H  31.96200 2.97200 34.93600
H  31.62000 7.22700 36.15100
H  32.33400 6.51900 37.51900
H  30.62600 6.34700 37.24700
Mg 28.17400 56.54800 40.24200
C  25.99800 53.85200 39.55300
C  30.71600 54.57600 39.11100
C  30.10700 59.41000 39.76500
C  25.41000 58.60100 40.63200
N  28.22900 54.47900 39.23800
C  27.29100 53.53800 39.16300
C  27.81200 52.22000 38.54000
C  29.38100 52.37900 38.81300
C  29.49700 53.90700 39.04500
C  29.99500 51.54600 40.03200
C  27.39100 52.10800 37.00900
C  27.08200 53.35500 36.15000
H  27.30500 53.33400 34.70100
N  30.14900 56.94600 39.69100
C  31.02900 55.93500 39.31700
C  32.36100 56.56600 39.08000
C  32.21100 57.99300 39.29400
C  30.80600 58.19700 39.58900
C  33.54700 55.77700 38.57200
C  33.27800 59.05500 39.05600
O  34.34400 58.75400 38.58400
C  33.14600 60.44800 39.39800
N  27.86900 58.62200 40.23100
C  28.80800 59.62700 39.99800
C  28.20700 60.99300 40.13800
C  26.71900 60.73000 40.13300
C  26.62300 59.19800 40.38100
C  28.78800 61.81800 41.30400
C  25.91800 61.02000 38.78400
C  24.88000 62.16500 38.64000
N  26.09400 56.28300 40.20500
C  25.14000 57.23600 40.52400
C  23.86400 56.45700 40.77400
C  24.13600 55.13900 40.33900
C  25.51800 55.12500 40.01800
C  22.52700 56.95400 41.27300
C  23.67600 53.80000 40.13600
O  22.54500 53.35000 40.26900
C  24.82900 52.98800 39.60800
C  24.97300 51.83700 40.51900
O  24.49700 50.71300 40.44200
O  25.88200 52.11000 41.51800
C  26.19800 51.01700 42.48100
H  31.57000 53.92100 38.92400
H  30.62800 60.35500 39.60200
H  24.53000 59.23700 40.75000
H  27.44200 51.36200 39.10200
H  29.97400 52.08700 37.94700
H  29.97100 50.47100 39.85800
H  29.62000 51.79600 41.02500
H  31.06900 51.71700 39.96500
H  26.52500 51.44800 36.94900
H  28.20600 51.53600 36.56600
H  27.56000 54.21800 36.61400
H  26.01600 53.55700 36.25200
H  34.18100 56.26100 37.82900
H  33.23100 54.85800 38.07700
H  34.19700 55.56600 39.42100
H  32.83200 60.48200 40.44200
H  32.46700 60.94000 38.70100
H  34.03600 61.07100 39.31100
H  28.40300 61.56800 39.23300
H  26.24100 61.34500 40.89600
H  28.95900 62.85800 41.02200
H  29.68400 61.27400 41.60300
H  28.06800 61.58500 42.08700
H  25.34700 60.12300 38.54500
H  26.59900 61.13800 37.94100
H  24.76800 62.72300 39.56900
H  23.90500 61.77300 38.34900
H  25.35400 62.87100 37.95800
H  21.79800 56.93300 40.46200
H  22.75800 57.97400 41.58000
H  22.27100 56.28400 42.09300
H  24.71900 52.47300 38.65400
H  25.38200 50.96400 43.20200
H  27.16900 51.34400 42.85300
H  26.36600 50.02900 42.05300

