158

Mg 46.67400 35.16100 28.73500
C  45.08800 33.07000 31.19500
C  46.90300 37.54500 31.17200
C  47.65200 37.31200 26.39500
C  45.87200 32.74500 26.41900
N  46.26000 35.20000 30.98300
C  45.58600 34.22000 31.76000
C  45.45900 34.66400 33.19000
C  45.69200 36.21400 33.06700
C  46.34800 36.30600 31.67100
C  44.42800 37.00400 33.23000
C  46.48200 34.03900 34.16600
C  45.86900 33.89100 35.63600
H  46.14100 35.01200 36.63500
N  47.55800 37.11900 28.78900
C  47.59600 37.88900 29.94000
C  48.18700 39.16700 29.54400
C  48.29500 39.14300 28.11800
C  47.86600 37.79700 27.68300
C  48.38000 40.31100 30.53500
C  48.76800 40.20400 27.18000
O  48.83000 40.03700 25.97700
C  49.29800 41.54900 27.72600
N  46.61700 35.15200 26.66600
C  47.16900 36.11200 25.89500
C  46.87200 35.87500 24.37400
C  46.36400 34.34600 24.42000
C  46.29800 34.05000 25.98600
C  45.92600 36.96700 23.78200
C  47.32900 33.37400 23.60800
C  46.78500 32.45900 22.51800
N  45.84300 33.19700 28.74600
C  45.60200 32.36700 27.70500
C  45.01500 31.11100 28.16800
C  44.76400 31.37300 29.52500
C  45.25400 32.65500 29.82000
C  44.64300 29.89500 27.41900
C  44.18600 30.74400 30.69800
O  43.79000 29.62500 30.91200
C  44.20300 31.91900 31.77000
C  44.70500 31.39200 33.02500
O  45.63100 30.62000 33.23400
O  43.77600 31.74100 34.00200
C  43.85200 31.03200 35.27900
H  46.71700 38.31400 31.92400
H  47.91500 38.05200 25.63700
H  45.68400 32.03100 25.61500
H  44.48500 34.49500 33.64900
H  46.30800 36.63400 33.86100
H  43.58500 36.42100 33.59900
H  44.06800 37.35400 32.26300
H  44.63300 37.87700 33.85000
H  47.32100 34.73400 34.20500
H  46.83800 33.08300 33.78300
H  46.25100 33.01100 36.15500
H  44.79400 33.72000 35.58100
H  48.15100 41.32800 30.21500
H  49.43400 40.35800 30.80900
H  47.77100 40.20800 31.43300
H  49.93000 42.10400 27.03200
H  49.83000 41.39000 28.66400
H  48.41600 42.18500 27.80800
H  47.82100 35.92700 23.84000
H  45.35500 34.34800 24.00700
H  45.60600 37.71800 24.50400
H  45.05000 36.50500 23.32500
H  46.48300 37.50700 23.01700
H  47.86000 32.81800 24.38100
H  47.99700 34.02500 23.04400
H  45.78300 32.10000 22.75300
H  47.55300 31.68500 22.49500
H  46.84300 33.11300 21.64700
H  43.66800 30.05300 26.95900
H  44.54300 29.09300 28.15000
H  45.40000 29.57300 26.70400
H  43.22800 32.38500 31.91000
H  42.83000 31.21800 35.60700
H  44.55300 31.43700 36.00900
H  43.98200 29.94900 35.29600
Mg -9.26600 18.43000 42.54400
C  -5.84600 18.10700 42.65200
C  -8.92800 21.79400 41.59100
C  -12.58700 18.52100 41.62100
C  -9.57700 14.95500 42.72400
N  -7.64900 19.78100 42.03700
C  -6.29500 19.38100 42.16000
C  -5.37900 20.62800 42.10700
C  -6.39200 21.81600 42.16000
C  -7.73700 21.08400 41.86900
C  -6.43200 22.60700 43.48900
C  -4.58100 20.75900 40.76600
C  -5.35800 20.83000 39.44900
H  -4.90700 19.99300 38.25300
N  -10.58500 20.02000 41.83300
C  -10.27100 21.29600 41.50600
C  -11.44800 21.99000 41.06600
C  -12.52600 21.05900 41.10800
C  -11.95400 19.78800 41.55900
C  -11.43600 23.51200 40.69200
C  -13.93900 21.35400 40.54000
O  -14.18700 22.46800 40.03900
C  -15.01600 20.33000 40.41600
N  -10.87600 16.90300 42.16100
C  -12.15300 17.23600 41.92100
C  -13.13300 15.97900 41.91600
C  -12.13600 14.81100 42.36900
C  -10.78600 15.56000 42.53100
C  -14.40700 16.20000 42.75400
C  -12.04600 13.50400 41.47300
C  -12.51600 12.17700 42.19700
N  -8.00400 16.80600 42.66800
C  -8.26800 15.46800 42.88600
C  -7.04300 14.73700 43.12000
C  -6.07300 15.73900 43.12200
C  -6.71900 16.98000 42.87100
C  -6.88900 13.23200 43.29000
C  -4.64900 16.01000 43.18000
O  -3.67200 15.24300 43.19400
C  -4.45600 17.60300 43.03300
C  -3.82900 18.11400 44.25300
O  -2.70400 18.46000 44.38300
O  -4.68600 17.98100 45.32700
C  -4.10600 18.53000 46.62000
H  -8.74400 22.84700 41.36400
H  -13.64000 18.55200 41.33400
H  -9.69500 13.93200 43.09000
H  -4.76000 20.56300 43.00200
H  -6.19400 22.54100 41.37100
H  -5.67900 22.15900 44.13800
H  -7.34700 22.42600 44.05200
H  -6.27600 23.66900 43.29900
H  -3.78600 20.01400 40.72600
H  -4.09000 21.72700 40.85600
H  -5.39800 21.87600 39.14500
H  -6.29700 20.35300 39.73200
H  -11.87100 23.70500 39.71100
H  -10.41500 23.87300 40.81600
H  -12.09100 24.04300 41.38200
H  -15.33600 20.02800 41.41300
H  -14.65200 19.49200 39.82100
H  -15.82300 20.74500 39.81300
H  -13.47000 15.79100 40.89600
H  -12.49400 14.46500 43.33800
H  -14.56700 17.19700 43.16400
H  -14.33900 15.43000 43.52300
H  -15.25200 16.07500 42.07700
H  -10.98500 13.48100 41.22400
H  -12.69700 13.70900 40.62300
H  -12.90100 11.46000 41.47100
H  -13.35100 12.40300 42.86000
H  -11.80600 11.64800 42.83300
H  -6.31500 12.81700 42.46200
H  -7.84700 12.71200 43.30900
H  -6.41900 12.93700 44.22800
H  -3.72400 17.86600 42.26900
H  -3.14100 18.09300 46.87800
H  -4.83100 18.44800 47.43000
H  -3.94600 19.60500 46.53800

