158

Mg 17.09000 -1.15200 28.35200
C  15.86100 0.71200 31.10300
C  18.96400 -2.97900 30.48600
C  18.46600 -2.56900 25.67200
C  15.41100 1.13300 26.22900
N  17.43400 -1.01900 30.60200
C  16.70500 -0.29600 31.50200
C  17.19700 -0.61100 32.88600
C  18.36800 -1.66000 32.68500
C  18.25600 -1.91400 31.17800
C  19.85800 -1.18600 33.12600
C  15.96700 -0.98400 33.83000
C  15.86400 -0.32400 35.24400
H  17.16900 0.15200 35.91100
N  18.42000 -2.66500 28.06200
C  19.06800 -3.35800 29.07700
C  19.75300 -4.49000 28.50600
C  19.71100 -4.31900 27.07400
C  18.83700 -3.19200 26.86100
C  20.49900 -5.51900 29.39700
C  20.34100 -5.12100 26.00100
O  20.28400 -4.80500 24.83000
C  21.18400 -6.33200 26.24300
N  16.91200 -0.78900 26.27800
C  17.67400 -1.44300 25.35000
C  17.42300 -0.98200 23.96400
C  16.21500 0.00800 24.13400
C  16.12700 0.10500 25.61200
C  18.69700 -0.38800 23.26500
C  14.91200 -0.40000 23.40100
C  13.80700 -0.94600 24.29900
N  15.87700 0.53300 28.53200
C  15.28800 1.41600 27.58700
C  14.47900 2.42600 28.27600
C  14.70800 2.08300 29.64300
C  15.61400 0.98500 29.72600
C  13.71600 3.54000 27.53000
C  14.30300 2.46100 30.94100
O  13.55800 3.39600 31.30700
C  15.22000 1.77000 31.98900
C  16.17900 2.82900 32.53800
O  17.18900 3.18300 32.00300
O  15.69900 3.34800 33.68800
C  16.72100 4.06100 34.53300
H  19.61600 -3.63900 31.06200
H  18.75300 -2.93600 24.68500
H  14.85700 1.72400 25.49700
H  17.63900 0.28800 33.31800
H  18.21300 -2.55100 33.29300
H  20.26800 -1.98800 33.73900
H  19.85300 -0.25000 33.68500
H  20.43300 -1.12100 32.20200
H  16.08200 -2.05300 34.00700
H  15.04100 -0.79100 33.28800
H  15.33000 -1.05200 35.85600
H  15.22500 0.54300 35.07900
H  19.89000 -5.75500 30.27000
H  21.33900 -4.91200 29.73400
H  20.85000 -6.44000 28.93100
H  20.67100 -7.05500 26.87800
H  22.04500 -5.87800 26.73400
H  21.49800 -6.81600 25.31800
H  17.19800 -1.91600 23.45000
H  16.62500 0.94700 23.76400
H  19.45900 -0.14400 24.00400
H  18.48900 0.54000 22.73200
H  19.13800 -1.12800 22.59800
H  15.09200 -1.01600 22.52000
H  14.50600 0.51300 22.96600
H  13.28800 -0.07400 24.69700
H  14.19400 -1.65300 25.03300
H  13.09600 -1.40800 23.61400
H  12.66900 3.30300 27.71400
H  13.92700 3.56600 26.46100
H  13.93000 4.53700 27.91700
H  14.63500 1.32300 32.79200
H  16.97800 4.97300 33.99500
H  17.68800 3.55800 34.56200
H  16.36600 4.22100 35.55100
Mg -9.63200 40.99900 39.58600
C  -9.02100 37.61500 38.54100
C  -6.29400 41.65800 39.07600
C  -10.57500 44.07500 39.49200
C  -13.22200 39.97600 39.36500
N  -7.86000 39.76400 38.90800
C  -7.88100 38.46000 38.50800
C  -6.51900 38.14700 37.91200
C  -5.53700 39.18500 38.64400
C  -6.61100 40.26800 38.90200
C  -4.83400 38.78600 39.96200
C  -6.42300 38.31100 36.31400
C  -5.95800 37.08200 35.54500
H  -6.89500 36.53400 34.47100
N  -8.54500 42.67200 39.42200
C  -7.19200 42.72200 39.24600
C  -6.93700 44.15400 39.09900
C  -8.06700 44.87000 39.24500
C  -9.17000 43.89000 39.37600
C  -5.54400 44.60000 38.91600
C  -8.10000 46.41200 39.27700
O  -7.08500 47.12900 39.17800
C  -9.36500 47.24200 39.52700
N  -11.66200 41.84100 39.61300
C  -11.67900 43.22600 39.66500
C  -13.12300 43.77000 39.75500
C  -13.88600 42.45000 39.45200
C  -12.87200 41.30600 39.52100
C  -13.48200 44.41600 41.09600
C  -14.65300 42.51200 38.07100
C  -16.07700 42.02100 38.10200
N  -10.93000 39.14500 39.33000
C  -12.22900 38.96100 39.23200
C  -12.49100 37.53300 39.05900
C  -11.24300 36.95700 38.70800
C  -10.31000 38.00900 38.90400
C  -13.88600 36.93600 39.38000
C  -10.52200 35.74700 38.33200
O  -10.89300 34.59700 38.20800
C  -9.06400 36.16100 38.22500
C  -8.24300 35.26800 39.15100
O  -8.41100 35.12100 40.35700
O  -7.35300 34.50700 38.43700
C  -6.65700 33.53000 39.22600
H  -5.23700 41.92900 39.02500
H  -10.84500 45.13300 39.51700
H  -14.27100 39.76600 39.14700
H  -6.21000 37.14700 38.21800
H  -4.82500 39.68800 37.99000
H  -5.44600 39.30100 40.70300
H  -3.78700 39.04000 40.12900
H  -5.01600 37.73100 40.16800
H  -5.75600 39.15300 36.12900
H  -7.42800 38.55000 35.96500
H  -5.75100 36.21200 36.16800
H  -5.03900 37.34300 35.02000
H  -5.26400 45.65100 38.99900
H  -5.20300 44.51100 37.88400
H  -4.85100 44.02500 39.52900
H  -9.17200 48.30500 39.67200
H  -9.87300 46.78200 40.37500
H  -9.95000 47.23200 38.60700
H  -13.18500 44.47800 38.92900
H  -14.60400 42.34700 40.26600
H  -12.58000 44.77900 41.58800
H  -13.96800 43.69300 41.75200
H  -14.19000 45.22800 40.92900
H  -14.14500 41.94200 37.29300
H  -14.69100 43.58100 37.86000
H  -16.37500 41.32000 38.88100
H  -16.26000 41.64800 37.09400
H  -16.64700 42.92000 38.33700
H  -13.85000 36.04000 40.00000
H  -14.48500 36.64300 38.51800
H  -14.50700 37.67600 39.88500
H  -8.80700 35.97500 37.18300
H  -6.12300 34.06100 40.01400
H  -5.85100 33.03200 38.68700
H  -7.31100 32.80800 39.71600

