158

Mg 28.38800 56.41400 40.56100
C  26.07900 53.62200 39.95200
C  30.89200 54.56900 39.45100
C  30.16000 59.21300 40.50900
C  25.42600 58.37300 40.69900
N  28.41200 54.36200 39.86500
C  27.44700 53.39800 39.72300
C  28.08400 52.16900 39.10300
C  29.62600 52.36800 39.41700
C  29.63500 53.86100 39.57800
C  30.21000 51.67000 40.69600
C  27.66300 51.82000 37.68300
C  27.20300 52.97100 36.78200
H  27.34400 52.74900 35.22600
N  30.25800 56.81000 40.08000
C  31.15600 55.88900 39.62800
C  32.49200 56.56500 39.43600
C  32.34300 57.92200 39.76200
C  30.90200 58.01400 40.18600
C  33.76100 55.83000 39.13100
C  33.41100 58.95700 39.72700
O  34.43200 58.65100 39.11700
C  33.24900 60.35000 40.33900
N  27.83800 58.47800 40.45300
C  28.80700 59.38500 40.68600
C  28.26000 60.76100 40.81900
C  26.69900 60.58300 40.88600
C  26.66100 59.04200 40.61100
C  28.93800 61.49500 42.03100
C  25.88000 61.47300 39.86200
C  25.38900 62.77000 40.41000
N  26.20000 56.14000 40.57700
C  25.16100 56.99800 40.62900
C  23.86400 56.25400 40.65000
C  24.20500 54.96800 40.48900
C  25.58400 54.96300 40.34400
C  22.56300 56.94800 40.86400
C  23.63500 53.68200 40.30900
O  22.50100 53.23300 40.43700
C  24.80700 52.71900 39.86700
C  24.82400 51.51700 40.78200
O  24.50200 50.36900 40.51400
O  25.31700 51.93800 42.01200
C  25.81700 50.79900 42.72600
H  31.72700 53.91500 39.19100
H  30.68400 60.16000 40.64900
H  24.57100 59.04100 40.81800
H  27.83100 51.31700 39.73400
H  30.35500 52.11000 38.64800
H  29.84200 50.64400 40.67900
H  29.79800 52.16500 41.57600
H  31.29800 51.64300 40.74600
H  26.80400 51.15100 37.74100
H  28.41100 51.28400 37.09900
H  27.78900 53.85800 37.02100
H  26.13100 53.07900 36.95200
H  33.86600 55.94800 38.05200
H  33.68600 54.75000 39.25500
H  34.67600 56.14800 39.63000
H  32.70500 60.31500 41.28300
H  32.65900 60.84100 39.56600
H  34.20100 60.85300 40.50900
H  28.47700 61.28600 39.88900
H  26.22800 60.74600 41.85500
H  28.22700 62.00500 42.68200
H  29.64800 62.16700 41.55000
H  29.59100 60.78000 42.53100
H  25.05300 60.93800 39.39400
H  26.58600 61.81500 39.10600
H  25.75900 62.91500 41.42500
H  24.30500 62.85100 40.49400
H  25.81100 63.56200 39.79100
H  22.40000 57.62400 40.02500
H  22.57000 57.51100 41.79800
H  21.87200 56.10700 40.80100
H  24.63800 52.35800 38.85300
H  26.52700 51.11100 43.49200
H  26.42500 50.08800 42.16700
H  25.05000 50.26000 43.28300
Mg 35.47800 48.13200 24.78300
C  36.28000 46.55800 27.87200
C  34.48300 50.91400 26.57700
C  34.41600 49.46500 21.88200
C  36.65400 45.29100 23.20700
N  35.36100 48.63300 27.05600
C  35.74500 47.84700 28.08500
C  35.46700 48.61900 29.37400
C  34.76400 49.95300 29.00300
C  34.88600 49.86600 27.46000
C  33.23400 50.04400 29.40900
C  36.72900 48.88600 30.22700
C  36.73900 48.70500 31.85800
H  35.34800 48.66200 32.50400
N  34.61700 49.95200 24.30100
C  34.33700 51.00200 25.15500
C  33.69200 52.04000 24.47400
C  33.46500 51.61000 23.12700
C  34.20300 50.35300 22.99100
C  33.39300 53.34100 25.10400
C  32.63100 52.23200 22.05400
O  32.45600 51.78400 20.94700
C  31.88500 53.55100 22.37200
N  35.32000 47.42700 22.87200
C  34.98200 48.18400 21.76400
C  35.52200 47.59200 20.48200
C  36.40800 46.40800 20.86200
C  36.21200 46.37100 22.40800
C  34.35100 47.20600 19.48500
C  37.90400 46.30800 20.44800
C  39.09900 46.80700 21.30400
N  36.32300 46.24700 25.35500
C  36.69700 45.17600 24.67900
C  37.11500 44.15300 25.47800
C  36.91200 44.59800 26.83500
C  36.42900 45.91400 26.65600
C  37.73600 42.94500 24.94700
C  37.06300 44.27100 28.23200
O  37.41600 43.25400 28.83300
C  36.44300 45.52300 28.96400
C  35.17200 45.10000 29.59800
O  34.04300 45.34800 29.08300
O  35.42400 44.67900 30.80900
C  34.24800 44.44600 31.62900
H  34.37400 51.85700 27.11700
H  34.10800 49.89600 20.92700
H  37.14500 44.40500 22.79900
H  34.74500 47.96500 29.86400
H  35.22100 50.88700 29.33000
H  33.21400 50.89300 30.09200
H  32.95900 49.15300 29.97400
H  32.65500 50.21000 28.50100
H  37.16300 49.88600 30.19000
H  37.52900 48.22800 29.88900
H  37.22800 49.56700 32.31100
H  37.40400 47.84900 31.97300
H  33.76300 54.13800 24.45900
H  33.85900 53.55800 26.06500
H  32.33500 53.47100 25.32800
H  32.52400 54.42200 22.51600
H  31.27900 53.46800 23.27400
H  31.26600 53.79900 21.50900
H  36.13100 48.37500 20.02900
H  36.01600 45.44100 20.54800
H  34.19400 47.99300 18.74800
H  33.44600 47.14000 20.08800
H  34.67000 46.31900 18.93600
H  37.84100 46.88900 19.52800
H  38.14800 45.29800 20.11700
H  39.59500 47.65300 20.82800
H  39.87700 46.07200 21.51400
H  38.75400 47.25300 22.23700
H  37.86400 42.23900 25.76800
H  38.76300 43.19500 24.68200
H  37.13900 42.62800 24.09200
H  37.08400 45.86900 29.77500
H  33.66600 43.70800 31.07600
H  33.71300 45.39300 31.70200
H  34.47400 44.02700 32.60900

