158

Mg 41.17000 8.65800 29.56800
C  43.14000 10.15600 32.05300
C  39.04100 7.50300 31.71800
C  39.75600 6.96800 26.93100
C  43.66600 9.62800 27.26200
N  41.16700 8.81000 31.59100
C  41.95100 9.50200 32.49200
C  41.39700 9.56300 33.97100
C  40.10500 8.69500 33.80900
C  40.09400 8.27100 32.29000
C  40.06900 7.35200 34.67400
C  41.23800 10.91300 34.59700
C  40.47100 11.09000 35.95100
H  41.32300 11.33100 37.17800
N  39.54400 7.42400 29.38300
C  38.71900 7.11200 30.44100
C  37.55000 6.40000 29.94700
C  37.72900 6.28600 28.50700
C  39.04900 6.93800 28.20500
C  36.38800 5.91100 30.88900
C  36.77200 5.73100 27.48700
O  36.97500 5.75000 26.31400
C  35.53300 5.06500 27.98800
N  41.76500 8.26200 27.41600
C  40.91900 7.67000 26.56000
C  41.46600 7.60800 25.10800
C  42.46300 8.77800 25.19200
C  42.65400 8.89100 26.69000
C  41.87600 6.22500 24.57600
C  42.02200 10.09700 24.36700
C  40.97400 10.99700 25.01100
N  42.98500 9.71200 29.61000
C  43.92200 10.05500 28.59800
C  45.02900 10.73400 29.20800
C  44.74300 10.89400 30.55600
C  43.51300 10.18700 30.76000
C  46.06700 11.40700 28.40500
C  45.23000 11.39800 31.79800
O  46.19100 12.11400 32.09600
C  44.16100 10.95800 32.85800
C  44.79200 10.09200 33.91300
O  45.20100 8.93200 33.72400
O  44.59300 10.64100 35.18200
C  45.13900 9.87900 36.30600
H  38.24200 7.19900 32.39800
H  39.25900 6.47600 26.09200
H  44.40300 9.93900 26.51800
H  42.00700 9.03600 34.70400
H  39.29000 9.36700 34.07900
H  39.15300 7.34100 35.26600
H  40.87100 7.23000 35.40200
H  40.12500 6.55300 33.93500
H  40.70600 11.52800 33.87100
H  42.20700 11.37800 34.78000
H  39.81800 10.24600 36.17300
H  39.92800 12.03300 35.87300
H  35.42700 6.28200 30.53100
H  36.50500 6.20500 31.93300
H  36.25300 4.83100 30.93300
H  35.77400 4.30500 28.73100
H  35.10400 4.52300 27.14400
H  34.80900 5.80400 28.33100
H  40.59100 7.90400 24.53000
H  43.44000 8.51600 24.78400
H  42.89400 6.18700 24.18700
H  41.16500 5.98700 23.78500
H  41.68600 5.50300 25.37000
H  41.64400 9.63500 23.45400
H  42.86500 10.72600 24.08000
H  40.72800 10.66600 26.02000
H  40.08400 11.10000 24.38900
H  41.48300 11.95700 25.09800
H  45.62300 11.64400 27.43800
H  47.00300 10.86100 28.28900
H  46.33500 12.26700 29.01800
H  43.67300 11.80900 33.33300
H  44.39100 9.86400 37.09900
H  45.96500 10.42200 36.76600
H  45.53300 8.89800 36.04100
Mg -10.10800 18.15600 42.96300
C  -6.82500 16.91800 42.75500
C  -8.91500 21.22000 41.80400
C  -13.19900 19.05800 42.62300
C  -11.15000 14.76300 43.38900
N  -8.12200 18.99100 42.36100
C  -6.93500 18.26700 42.44400
C  -5.75100 19.16300 42.05100
C  -6.43400 20.55900 42.09400
C  -7.89800 20.25800 42.00500
C  -6.05100 21.45000 43.25100
C  -5.03900 18.76200 40.72800
C  -5.75800 18.27800 39.49400
H  -5.39200 18.74400 38.06900
N  -10.99300 19.96200 42.30800
C  -10.32100 21.09800 41.96000
C  -11.27600 22.16100 41.83800
C  -12.59300 21.60100 41.92000
C  -12.31800 20.13900 42.27300
C  -10.86600 23.52300 41.54000
C  -13.90100 22.32600 41.76300
O  -13.95200 23.54300 41.60100
C  -15.13600 21.52300 41.89900
N  -11.89100 16.95700 42.70200
C  -13.02600 17.63700 42.83900
C  -14.21100 16.68200 43.00300
C  -13.57700 15.29200 43.16300
C  -12.11300 15.64800 43.02800
C  -15.16200 17.14400 44.19300
C  -14.04400 14.13000 42.17400
C  -14.74100 12.97900 43.00700
N  -9.25000 16.18500 43.09200
C  -9.75100 14.93600 43.30800
C  -8.69800 13.93000 43.38400
C  -7.48600 14.64100 43.15500
C  -7.90400 15.99500 42.98200
C  -8.92000 12.38200 43.68300
C  -6.05200 14.56000 43.06700
O  -5.34100 13.62200 43.22200
C  -5.58400 16.04000 42.73800
C  -4.38400 16.46400 43.56200
O  -3.22200 16.17400 43.34000
O  -4.83300 17.15600 44.68400
C  -3.78400 17.34900 45.71800
H  -8.52100 22.23700 41.76000
H  -14.27300 19.24700 42.68900
H  -11.52600 13.77600 43.66500
H  -5.04300 19.04500 42.87100
H  -6.14600 21.20700 41.26600
H  -5.39100 20.85100 43.87800
H  -6.91700 21.61700 43.89100
H  -5.64400 22.43600 43.02500
H  -4.48500 17.88900 41.07300
H  -4.35900 19.57700 40.47900
H  -6.81400 18.53500 39.58300
H  -5.59800 17.20000 39.52500
H  -9.99900 23.78900 42.14400
H  -11.59900 24.32600 41.61200
H  -10.45900 23.47500 40.53000
H  -15.52200 21.45800 42.91700
H  -15.05100 20.58400 41.35300
H  -15.86200 22.11400 41.34100
H  -14.85500 16.64900 42.12400
H  -13.87800 14.98200 44.16300
H  -14.77800 18.07100 44.61800
H  -15.27600 16.43000 45.00900
H  -16.15100 17.37100 43.79500
H  -13.19700 13.69700 41.64300
H  -14.84500 14.45100 41.50800
H  -15.64300 12.72300 42.45100
H  -15.00300 13.07400 44.06100
H  -14.11500 12.08900 42.93600
H  -9.52500 12.25300 44.58100
H  -7.99900 11.80800 43.79000
H  -9.42600 12.01500 42.79000
H  -5.10100 15.95500 41.76500
H  -2.85600 17.84000 45.42800
H  -3.57100 16.40600 46.22100
H  -4.22900 18.03900 46.43400

