158

Mg 0.14700 7.43700 25.46500
C  1.11200 9.54900 28.13600
C  0.54400 4.75400 27.44100
C  -0.46300 5.57600 22.82700
C  0.60900 10.28100 23.31200
N  0.89900 7.20200 27.58900
C  1.07300 8.15000 28.48800
C  1.23400 7.55600 29.90500
C  1.36300 6.03300 29.57500
C  0.98700 5.94200 28.09700
C  2.81000 5.42400 29.66800
C  -0.05600 7.92200 30.76500
C  -0.46300 7.04800 31.99000
H  0.68400 6.63400 32.98800
N  -0.02900 5.39000 25.21500
C  0.09600 4.42800 26.11400
C  -0.27600 3.14200 25.54300
C  -0.36600 3.40200 24.12000
C  -0.22300 4.83200 24.00500
C  -0.17300 1.88500 26.39900
C  -0.56200 2.33600 22.99100
O  -0.66200 2.67300 21.78200
C  -0.51700 0.83200 23.32900
N  0.05100 7.86300 23.35500
C  -0.46300 6.98600 22.52400
C  -0.74600 7.46600 21.16300
C  -0.51600 9.06200 21.39500
C  0.20500 9.08800 22.73900
C  0.01700 6.97800 19.96400
C  -1.84100 9.86900 21.51200
C  -2.01900 10.80900 20.30300
N  0.72300 9.52700 25.66500
C  0.78700 10.51500 24.67500
C  1.20000 11.73600 25.32400
C  1.32600 11.43700 26.72500
C  1.11700 10.05300 26.82600
C  1.13900 13.08800 24.69000
C  1.66600 11.88200 28.01400
O  1.89500 13.02100 28.38100
C  1.43100 10.69800 29.05400
C  2.65700 10.61800 29.75000
O  3.72800 10.24300 29.32500
O  2.39900 10.82100 31.10800
C  3.44700 10.22300 31.98900
H  0.61000 3.88800 28.10300
H  -0.91100 4.92900 22.07100
H  0.53300 11.14900 22.65400
H  2.13500 7.92400 30.39500
H  0.73100 5.39600 30.19300
H  2.81300 4.46400 30.18300
H  3.36800 6.14300 30.26800
H  3.29800 5.17700 28.72500
H  -0.89300 8.07800 30.08400
H  0.22400 8.88300 31.19500
H  -0.90200 6.16600 31.52500
H  -1.23100 7.67000 32.44900
H  0.31100 1.11900 25.79200
H  -1.18700 1.52100 26.56800
H  0.34500 2.08400 27.33700
H  -0.57500 0.31700 22.36900
H  -1.32200 0.66600 24.04600
H  0.45600 0.62700 23.77500
H  -1.81300 7.39800 20.95200
H  0.16100 9.35300 20.59200
H  0.48300 6.04000 20.26700
H  0.72800 7.70000 19.56300
H  -0.74000 6.75500 19.21200
H  -1.80000 10.42400 22.44900
H  -2.75800 9.28800 21.60600
H  -1.88800 10.14800 19.44700
H  -1.21300 11.52700 20.14900
H  -3.00400 11.27300 20.35400
H  2.14900 13.29600 24.33600
H  0.82700 13.74400 25.50300
H  0.43200 13.10800 23.86100
H  0.52900 10.98000 29.59800
H  4.46300 10.55300 31.77300
H  3.43800 9.13500 32.04200
H  3.36100 10.43100 33.05600
Mg -6.01900 25.33300 26.46600
C  -4.29000 26.74200 29.15900
C  -7.49100 23.16600 28.54100
C  -7.26200 23.96000 23.77000
C  -4.01200 27.51200 24.28700
N  -5.80100 24.92000 28.60900
C  -5.15400 25.67400 29.54200
C  -5.61800 25.36400 31.03100
C  -6.39400 24.02500 30.77800
C  -6.63700 24.01500 29.20500
C  -5.62200 22.74000 31.26700
C  -6.51500 26.50200 31.62600
C  -6.27100 27.00000 33.10500
H  -5.69900 25.90600 34.04400
N  -7.28600 23.74600 26.19500
C  -7.86300 23.00400 27.16900
C  -8.64600 21.97900 26.66000
C  -8.54400 22.20300 25.21700
C  -7.65000 23.35000 24.97400
C  -9.35700 20.88400 27.40500
C  -9.24800 21.49400 24.10600
O  -9.05900 21.78600 22.95600
C  -10.38800 20.46800 24.36500
N  -5.59800 25.61800 24.29200
C  -6.35200 24.97600 23.42000
C  -6.10000 25.42400 21.96000
C  -5.02400 26.55300 22.10300
C  -4.78700 26.60300 23.62100
C  -5.51600 24.32300 21.02400
C  -5.53800 28.02500 21.64000
C  -4.62600 28.85000 20.73300
N  -4.55900 26.85000 26.66100
C  -3.87500 27.63600 25.66400
C  -2.98700 28.62700 26.40800
C  -3.14400 28.27000 27.77900
C  -4.08000 27.23600 27.84300
C  -1.89900 29.58000 25.79300
C  -2.56100 28.57700 29.08900
O  -1.77000 29.44600 29.46500
C  -3.37800 27.52900 30.11700
C  -2.43600 26.69500 30.79700
O  -1.85400 25.77000 30.22300
O  -2.32300 27.17300 32.10600
C  -1.28200 26.57100 33.00300
H  -8.07900 22.52600 29.20200
H  -7.68800 23.44400 22.90700
H  -3.47000 28.24000 23.68000
H  -4.75800 25.13700 31.66200
H  -7.33500 23.91500 31.31600
H  -6.34300 21.92900 31.37600
H  -4.99900 22.79300 32.16000
H  -4.90100 22.51700 30.48100
H  -7.57700 26.27700 31.53600
H  -6.30600 27.35300 30.97800
H  -7.20900 27.28600 33.58000
H  -5.47800 27.74200 33.20500
H  -9.20100 19.86700 27.04500
H  -10.43000 21.03300 27.28400
H  -9.09800 20.87400 28.46400
H  -10.78700 20.07100 23.43300
H  -11.08000 20.92900 25.06900
H  -9.81100 19.65000 24.79700
H  -7.07000 25.85100 21.70400
H  -4.02900 26.35900 21.70300
H  -6.22700 24.25100 20.20200
H  -5.54700 23.31600 21.44000
H  -4.48700 24.48000 20.69900
H  -5.75700 28.66500 22.49400
H  -6.42100 27.80900 21.03800
H  -3.59500 28.52100 20.60500
H  -4.54700 29.73800 21.36000
H  -5.06600 29.03100 19.75200
H  -2.22800 30.61800 25.74700
H  -1.74600 29.27800 24.75700
H  -0.99600 29.53600 26.40200
H  -3.87000 28.08400 30.91600
H  -0.67600 27.31100 33.52500
H  -0.64700 25.88600 32.43900
H  -1.67300 26.06600 33.88600

