158

Mg 40.39600 9.24500 29.76400
C  41.96700 10.85400 32.21000
C  38.17700 7.89900 31.93500
C  38.78200 7.99600 27.10800
C  42.94000 10.22400 27.49100
N  40.22700 9.29900 31.90400
C  40.87700 10.15700 32.70800
C  40.39700 9.98600 34.13300
C  39.26700 8.91600 34.05400
C  39.19000 8.65300 32.54300
C  39.43400 7.58200 34.74600
C  40.04200 11.39500 34.71200
C  39.23200 11.50800 35.96400
H  39.67800 12.41900 37.06100
N  38.66500 8.15300 29.51800
C  37.86700 7.66300 30.61100
C  36.72000 6.96700 30.02000
C  36.84900 7.06200 28.58900
C  38.14400 7.71400 28.38300
C  35.50200 6.46500 30.88300
C  35.82600 6.71600 27.46900
O  36.07700 6.63000 26.27800
C  34.41100 6.41700 27.91600
N  40.91200 9.00500 27.66200
C  40.00700 8.47900 26.78900
C  40.49100 8.52100 25.29000
C  41.97200 9.12300 25.42500
C  41.90800 9.49800 26.92800
C  40.37900 7.27300 24.41100
C  42.28200 10.29000 24.40600
C  41.85200 11.74900 24.62800
N  42.13000 10.25900 29.74000
C  43.05800 10.67300 28.81200
C  44.07500 11.44000 29.42200
C  43.74500 11.50200 30.74400
C  42.51800 10.85200 30.86000
C  45.39200 11.92700 28.73800
C  44.12500 12.05900 32.02800
O  45.10700 12.68300 32.39000
C  42.92600 11.69400 33.09600
C  43.58400 10.95300 34.19300
O  43.99000 9.82100 34.17200
O  43.65500 11.79800 35.24900
C  44.03400 11.14500 36.54400
H  37.58800 7.49800 32.76200
H  38.21200 7.70300 26.22400
H  43.65200 10.64900 26.78100
H  41.24400 9.61100 34.70700
H  38.31600 9.40700 34.26100
H  38.45700 7.39700 35.19100
H  40.24600 7.63300 35.47100
H  39.76800 6.74800 34.12800
H  39.50100 11.90900 33.91700
H  40.95200 11.99300 34.75700
H  39.16000 10.55300 36.48500
H  38.25000 11.89100 35.68800
H  35.69600 6.51100 31.95500
H  35.31000 5.47600 30.46800
H  34.67500 7.13400 30.64700
H  33.96600 7.15900 28.58000
H  34.24300 5.47400 28.43700
H  33.82500 6.44300 26.99700
H  39.84100 9.22500 24.77000
H  42.67000 8.28900 25.49000
H  41.34500 6.77400 24.48600
H  40.18100 7.58500 23.38500
H  39.55600 6.60400 24.66000
H  41.72800 10.08000 23.49100
H  43.35300 10.40000 24.23300
H  41.24700 12.07700 23.78300
H  42.73200 12.39100 24.65200
H  41.22600 11.76900 25.52100
H  46.24000 11.92300 29.42300
H  45.37800 12.94900 28.35900
H  45.64300 11.31700 27.87000
H  42.59200 12.70400 33.33300
H  43.24000 11.34900 37.26300
H  44.98600 11.54100 36.89700
H  44.16400 10.06400 36.58400
Mg 27.26100 51.16800 26.46000
C  24.95800 52.17700 28.91300
C  29.36100 50.27500 29.08500
C  29.30000 50.20000 24.17600
C  25.19200 52.76500 24.13100
N  27.07800 51.04000 28.74000
C  26.07700 51.56500 29.50800
C  26.35300 51.43600 31.01100
C  27.90500 51.03300 31.02800
C  28.17600 50.79300 29.49900
C  28.85600 52.13500 31.71400
C  25.44700 50.31800 31.62000
C  25.20700 50.28900 33.12500
H  26.14300 51.08200 34.05800
N  29.13200 50.41100 26.60900
C  29.78800 50.09200 27.77000
C  31.14400 49.57600 27.35100
C  31.10100 49.39000 25.90600
C  29.84500 50.08200 25.49200
C  32.25700 49.21700 28.32400
C  32.09700 48.75800 25.11100
O  32.06900 48.79800 23.86000
C  33.29100 48.15900 25.70900
N  27.17300 51.44500 24.43400
C  28.11900 50.81500 23.68200
C  27.75300 50.92900 22.18000
C  26.52500 51.90800 22.09400
C  26.27000 52.04100 23.61400
C  28.96600 51.13700 21.23000
C  25.26500 51.37100 21.28800
C  24.49100 50.09800 21.81700
N  25.45800 52.28400 26.44400
C  24.70100 52.74600 25.44500
C  23.44500 53.24500 25.95100
C  23.52200 53.06400 27.31200
C  24.75400 52.47400 27.57900
C  22.27500 53.57100 25.12700
C  22.73300 53.31000 28.45700
O  21.70700 53.91200 28.63300
C  23.66800 52.78500 29.59400
C  24.07600 53.87900 30.37500
O  24.92000 54.72900 30.08000
O  23.45300 53.86300 31.60300
C  23.89100 54.74500 32.67400
H  30.02400 49.98500 29.90300
H  29.94500 49.77800 23.40200
H  24.54500 53.19100 23.36200
H  26.20700 52.41400 31.46700
H  28.18500 50.10100 31.51800
H  29.14000 51.71600 32.68000
H  28.34700 53.05700 31.99700
H  29.68500 52.45100 31.08000
H  25.81900 49.35400 31.27200
H  24.49500 50.46800 31.11200
H  25.34600 49.25200 33.43200
H  24.16000 50.48900 33.35500
H  33.23700 49.67200 28.18000
H  32.50400 48.15800 28.39800
H  31.96100 49.52800 29.32600
H  33.94300 48.91800 26.14000
H  33.80500 47.71300 24.85800
H  32.93200 47.45700 26.46200
H  27.41800 49.94600 21.84700
H  26.83100 52.88700 21.72600
H  28.67700 51.82000 20.43200
H  29.26900 50.24500 20.68300
H  29.87600 51.50900 21.70200
H  25.62000 51.16600 20.27800
H  24.51600 52.13900 21.09300
H  24.47000 49.30100 21.07400
H  23.47600 50.34700 22.12600
H  24.90400 49.68100 22.73600
H  21.32800 53.49300 25.66100
H  22.24200 52.98800 24.20600
H  22.43800 54.57900 24.74600
H  23.21800 52.07000 30.28300
H  24.75900 55.34800 32.41100
H  24.20900 54.01600 33.42000
H  23.20500 55.35200 33.26500

