158

Mg 47.54300 16.74600 28.31100
C  45.83300 16.60800 31.46700
C  49.96500 18.75100 29.96700
C  49.05600 17.16700 25.47400
C  44.91300 15.14100 26.91200
N  47.76100 17.73300 30.44900
C  47.01900 17.33900 31.56700
C  47.55100 18.01800 32.82100
C  48.73200 18.84500 32.22800
C  48.91000 18.39100 30.79100
C  48.48000 20.38100 32.21300
C  47.98200 17.02000 33.93500
C  47.83300 17.59100 35.45100
H  47.91200 19.08900 35.62200
N  49.36100 17.72000 27.79900
C  50.13000 18.51100 28.64200
C  51.31000 18.85100 27.87900
C  51.07000 18.45800 26.47100
C  49.81000 17.68800 26.54300
C  52.50600 19.60700 28.47900
C  51.75500 18.70600 25.24600
O  51.33900 18.27900 24.21800
C  52.92500 19.60200 25.26300
N  47.07000 16.15200 26.46100
C  47.84500 16.46800 25.44100
C  47.19700 15.98200 24.14400
C  46.14000 14.97600 24.63700
C  45.96900 15.52600 26.08700
C  46.71300 17.12600 23.19500
C  46.58500 13.48700 24.67000
C  46.16200 12.71100 23.40500
N  45.68400 16.11000 28.94500
C  44.67500 15.50900 28.21900
C  43.56200 15.16500 29.12000
C  44.01900 15.58000 30.37300
C  45.26400 16.12700 30.25500
C  42.30000 14.32100 28.88400
C  43.72100 15.44800 31.74600
O  42.81900 14.85600 32.31900
C  44.88200 16.12200 32.55900
C  44.29200 17.22900 33.33000
O  43.66100 18.19500 32.94100
O  44.48000 16.96600 34.66000
C  43.92900 17.82200 35.70300
H  50.75300 19.19600 30.57900
H  49.47600 17.26100 24.47000
H  44.10300 14.52200 26.52100
H  46.74800 18.64400 33.21100
H  49.68800 18.66800 32.72200
H  47.62900 20.75500 32.78300
H  48.39900 20.60600 31.15000
H  49.44000 20.73700 32.58800
H  49.06400 16.94900 33.82700
H  47.51300 16.03800 33.87400
H  48.44400 17.04700 36.17100
H  46.82300 17.28200 35.72100
H  53.45200 19.06600 28.48900
H  52.27500 19.90000 29.50400
H  52.57900 20.44500 27.78500
H  53.41800 19.65600 24.29200
H  53.67100 19.13400 25.90500
H  52.69600 20.63200 25.54000
H  47.97200 15.35700 23.69800
H  45.18800 15.11300 24.12500
H  46.27900 16.63200 22.32600
H  47.61700 17.59400 22.80500
H  45.93200 17.68300 23.71400
H  46.39300 13.01800 25.63500
H  47.66200 13.31800 24.65600
H  47.04100 12.16500 23.06300
H  45.75900 13.38000 22.64500
H  45.36400 12.04300 23.73100
H  41.92600 14.33600 27.86000
H  41.54000 14.46800 29.65100
H  42.62000 13.29500 29.06400
H  45.26400 15.28900 33.14900
H  42.90600 17.55800 35.97300
H  43.80600 18.85400 35.37400
H  44.56500 17.85100 36.58700
Mg 35.73200 48.54600 25.03400
C  35.77000 46.74300 28.06300
C  34.26100 51.14600 26.68500
C  35.33200 50.11000 22.10100
C  36.66000 45.52600 23.36900
N  35.07700 48.82100 27.18800
C  35.31000 48.01300 28.24500
C  35.00600 48.78000 29.58500
C  34.20900 50.04800 29.04100
C  34.52800 50.02100 27.57500
C  32.67500 50.03700 29.50200
C  36.28800 49.19400 30.42000
C  36.15500 48.86400 31.90200
H  34.71200 48.72100 32.42900
N  35.03800 50.39800 24.48400
C  34.52700 51.33700 25.30400
C  34.30200 52.59000 24.62100
C  34.61200 52.30300 23.21500
C  35.00000 50.88300 23.24200
C  33.82800 53.88200 25.35800
C  34.67700 53.18500 21.98900
O  35.05200 52.72900 20.88800
C  34.24600 54.61500 21.99900
N  36.03600 47.91000 23.06700
C  35.77000 48.76900 22.00200
C  35.89500 48.00000 20.65000
C  36.61600 46.66200 21.12500
C  36.45300 46.68100 22.61300
C  34.59200 47.76700 19.90800
C  38.04900 46.46100 20.57900
C  39.23400 47.15400 21.18600
N  36.13100 46.51000 25.55200
C  36.44900 45.39300 24.75500
C  36.81400 44.29600 25.62700
C  36.56000 44.80400 26.94100
C  36.10300 46.10200 26.81300
C  37.31500 42.94300 25.19100
C  36.52800 44.41300 28.31000
O  36.87100 43.35200 28.86400
C  36.10700 45.70900 29.16100
C  34.83900 45.23300 29.88900
O  33.71400 45.39900 29.47900
O  35.21100 44.69300 31.14500
C  34.03500 44.37600 32.06700
H  33.60800 51.91300 27.10600
H  35.07700 50.58000 21.14800
H  37.06400 44.67200 22.82100
H  34.36400 48.10300 30.14800
H  34.69400 50.91600 29.48800
H  32.48000 49.08200 29.99100
H  31.95800 50.21400 28.70000
H  32.51800 50.83600 30.22700
H  36.53600 50.24900 30.30400
H  37.06000 48.59700 29.93500
H  36.70000 49.48400 32.61400
H  36.69800 47.92300 31.99300
H  32.76100 53.76900 25.55400
H  33.93300 54.79800 24.77800
H  34.33100 53.95200 26.32300
H  33.17700 54.61200 22.21300
H  34.41800 54.97200 20.98400
H  34.89300 55.20100 22.65100
H  36.54500 48.51100 19.94000
H  36.03600 45.76900 20.88700
H  34.61700 46.86600 19.29500
H  34.40900 48.55300 19.17700
H  33.75000 47.74500 20.60000
H  37.99700 46.55800 19.49500
H  38.27500 45.43400 20.86600
H  39.97300 46.56500 21.72800
H  38.76400 47.85900 21.87300
H  39.65000 47.72400 20.35500
H  38.17600 42.60100 25.76300
H  37.63600 43.07800 24.15800
H  36.55900 42.16200 25.27100
H  36.93000 46.07300 29.77600
H  34.43400 43.88400 32.95400
H  33.18200 43.75500 31.79300
H  33.59000 45.30900 32.41300

