158

Mg 48.95500 35.36100 27.40800
C  46.87300 33.66700 29.87600
C  49.11100 38.02800 29.72800
C  50.26800 36.99000 24.98400
C  48.33300 32.51400 25.44400
N  48.09800 35.75400 29.61700
C  47.37000 34.92800 30.40700
C  47.22900 35.47000 31.87200
C  47.60300 36.97200 31.70700
C  48.37900 36.99000 30.31400
C  46.37800 37.84600 31.71900
C  48.29300 34.60000 32.73800
C  47.94900 34.54000 34.27800
H  47.25700 35.69600 34.99400
N  49.69400 37.17100 27.40900
C  49.68800 38.13600 28.40300
C  50.39000 39.29200 27.93700
C  50.77900 39.01800 26.59900
C  50.32500 37.63500 26.26400
C  50.52800 40.53900 28.73700
C  51.46400 39.97700 25.55900
O  51.64600 39.72300 24.38100
C  51.93900 41.37600 25.95000
N  49.05300 34.91900 25.42600
C  49.66700 35.78700 24.59900
C  49.93900 35.16000 23.26300
C  49.60800 33.65000 23.48400
C  48.96500 33.66000 24.87700
C  49.15300 35.75800 22.09000
C  50.81300 32.65500 23.36400
C  51.32800 32.19600 21.97500
N  47.83300 33.51300 27.55600
C  47.75300 32.49200 26.66900
C  46.91400 31.40900 27.18200
C  46.53500 31.86600 28.40100
C  47.09600 33.13700 28.62900
C  46.45400 30.12600 26.45200
C  45.61100 31.60900 29.58600
O  44.90100 30.68300 29.88800
C  45.81500 32.77700 30.45600
C  45.89000 32.38400 31.89600
O  46.82800 31.67200 32.33000
O  44.89700 32.89100 32.60200
C  44.86900 32.62300 34.03300
H  49.19200 38.95900 30.29500
H  50.48400 37.55700 24.07600
H  48.21100 31.68300 24.74600
H  46.27800 35.44500 32.40500
H  48.26800 37.19000 32.54200
H  46.51800 38.69700 31.05300
H  46.12500 38.20600 32.71600
H  45.46800 37.33800 31.40000
H  49.22100 35.17200 32.71800
H  48.33600 33.59100 32.32900
H  48.81000 34.32200 34.91100
H  47.44100 33.58300 34.39200
H  51.42100 40.74500 29.32700
H  49.73800 40.58700 29.48700
H  50.25600 41.33000 28.03900
H  51.12300 42.07500 26.13000
H  52.72500 41.70900 25.27100
H  52.43000 41.07800 26.87600
H  50.99100 35.26700 22.99700
H  48.81700 33.33900 22.80100
H  48.07700 35.82600 22.25000
H  49.38700 35.14900 21.21700
H  49.60200 36.74100 21.94700
H  50.51600 31.82100 24.00000
H  51.70300 32.94500 23.92300
H  52.28300 32.68300 21.78000
H  50.59700 32.41800 21.19700
H  51.58600 31.13800 21.92900
H  46.58300 29.19300 27.00100
H  46.99500 29.93200 25.52600
H  45.40800 30.37600 26.27700
H  44.94300 33.41900 30.33600
H  44.60700 33.60500 34.42800
H  45.81200 32.27800 34.45700
H  44.03100 31.99200 34.32900
Mg 17.65100 51.06900 26.54400
C  19.42400 50.29400 29.38500
C  15.07700 52.10100 28.40400
C  16.22100 52.10200 23.65300
C  20.17600 49.43900 24.69700
N  17.34700 51.13300 28.70100
C  18.23000 50.85600 29.69800
C  17.61300 51.13800 31.08900
C  16.11900 51.28800 30.62200
C  16.10500 51.50000 29.13200
C  15.10200 50.18500 31.15200
C  18.18700 52.43200 31.80200
C  18.38700 52.37300 33.39300
H  17.56500 51.44500 34.26100
N  16.01100 52.06200 26.12800
C  15.00000 52.41200 27.01200
C  14.03200 53.25300 26.28000
C  14.39800 53.33200 24.92900
C  15.66800 52.50500 24.87100
C  12.91400 53.95200 26.98900
C  13.78500 54.15500 23.85200
O  14.24400 54.29800 22.73900
C  12.53400 54.94600 24.10500
N  18.20200 50.79300 24.47100
C  17.35400 51.28300 23.46700
C  18.00500 51.06100 22.07800
C  19.13600 50.04500 22.51100
C  19.14400 50.06800 23.95100
C  17.06500 50.44100 21.04100
C  20.54900 50.30200 21.85300
C  21.35100 51.57400 22.41300
N  19.42400 50.07700 26.91800
C  20.35300 49.50500 26.05500
C  21.45000 48.90300 26.76100
C  21.12800 49.20500 28.10000
C  19.91300 49.94500 28.14300
C  22.66500 48.15700 26.34600
C  21.59200 49.10500 29.52100
O  22.61300 48.65000 30.03700
C  20.44000 49.75100 30.35100
C  19.84700 48.65100 31.12900
O  18.83500 48.04000 30.77500
O  20.62000 48.41600 32.27600
C  20.07100 47.32600 33.14300
H  14.22800 52.49800 28.96500
H  15.66300 52.36200 22.75100
H  20.97200 48.95200 24.12900
H  17.69800 50.26800 31.74000
H  15.60400 52.18300 30.97000
H  14.24900 50.61800 31.67500
H  15.64000 49.65600 31.93800
H  14.74500 49.44900 30.43200
H  17.45700 53.23100 31.66700
H  19.15100 52.63000 31.33200
H  18.26500 53.34900 33.86200
H  19.44700 52.14600 33.50800
H  11.92100 53.84800 26.55300
H  13.19000 55.00600 27.03600
H  12.84300 53.61300 28.02300
H  11.85200 54.25400 24.59900
H  11.98500 55.21600 23.20200
H  12.77400 55.76400 24.78400
H  18.62400 51.86700 21.68400
H  18.70400 49.06100 22.33200
H  16.88800 51.25100 20.33300
H  16.05900 50.23300 21.40600
H  17.48800 49.55600 20.56600
H  20.45700 50.58300 20.80400
H  20.98500 49.30400 21.81400
H  21.77700 52.10100 21.55900
H  22.05200 51.14500 23.12900
H  20.57700 52.03600 23.02500
H  23.46600 48.89300 26.27300
H  22.39300 47.81200 25.34800
H  22.95300 47.24200 26.86400
H  20.82300 50.45100 31.09400
H  19.17700 47.74400 33.60600
H  20.83700 47.12800 33.89300
H  19.75600 46.42700 32.61300

