158

Mg 1.39700 42.61600 25.83500
C  3.54100 42.74200 28.51200
C  -1.22400 42.40800 28.05900
C  -0.71500 42.31900 23.22200
C  4.06900 42.66000 23.63300
N  1.19900 42.61800 28.06100
C  2.24900 42.67900 28.94100
C  1.66600 42.71700 30.39000
C  0.18800 42.41800 30.26500
C  0.00800 42.53600 28.72400
C  -0.14800 40.98400 30.65500
C  2.06000 44.08600 31.12300
C  2.03600 43.95800 32.63200
H  0.74100 44.00200 33.38800
N  -0.73500 42.60500 25.65100
C  -1.59000 42.44300 26.70400
C  -2.97100 42.31800 26.17300
C  -2.84800 42.35800 24.71800
C  -1.40500 42.38800 24.46400
C  -4.10700 42.01200 27.13000
C  -3.95600 42.38400 23.67600
O  -3.69700 42.35200 22.42200
C  -5.42300 42.37000 24.05500
N  1.57100 42.62900 23.70700
C  0.61400 42.36900 22.86900
C  1.15800 41.99300 21.51800
C  2.60300 42.55000 21.59400
C  2.77600 42.68000 23.07300
C  1.04300 40.45800 21.11100
C  2.90900 43.85500 20.79200
C  2.95700 43.94300 19.29900
N  3.42400 42.67000 25.98800
C  4.38700 42.79000 25.02900
C  5.67100 42.97200 25.62000
C  5.40200 42.87000 27.04900
C  4.01600 42.73400 27.19400
C  7.02400 43.13800 25.08400
C  6.04900 42.78900 28.30000
O  7.20900 42.67400 28.56700
C  4.89700 42.72100 29.35400
C  4.95100 41.49000 30.28000
O  4.71100 40.35900 30.02200
O  5.49300 41.87000 31.45500
C  5.86200 40.74300 32.24700
H  -2.04300 42.41300 28.78100
H  -1.35000 42.07700 22.36700
H  4.89000 42.66300 22.91200
H  2.13900 41.87400 30.89400
H  -0.32600 43.21900 30.79600
H  -0.36700 40.31600 29.82200
H  -1.04300 40.87800 31.26800
H  0.65900 40.53000 31.23000
H  1.19500 44.73600 30.99400
H  2.97000 44.51300 30.70100
H  2.63800 44.79900 32.97600
H  2.64000 43.14700 33.03900
H  -3.97900 41.02700 27.57800
H  -4.99700 41.85300 26.52200
H  -4.19700 42.73900 27.93800
H  -6.05600 42.51800 23.18000
H  -5.52200 43.13100 24.83000
H  -5.84700 41.47900 24.51700
H  0.57400 42.61900 20.84300
H  3.26400 41.77200 21.21100
H  0.69800 40.36700 20.08200
H  0.29800 39.94000 21.71500
H  2.00400 39.95800 21.23300
H  3.95300 44.10200 20.98600
H  2.33800 44.68600 21.20600
H  2.24300 44.68600 18.94500
H  2.71500 42.96400 18.88600
H  3.95100 44.13800 18.89600
H  7.51700 43.77000 25.82200
H  6.99200 43.74100 24.17700
H  7.59700 42.23500 24.87300
H  4.88900 43.67700 29.87700
H  5.08000 40.00400 32.42500
H  6.20400 40.96300 33.25800
H  6.74900 40.30000 31.79500
Mg -2.20600 34.79300 26.34600
C  -3.72600 33.61200 29.32800
C  -0.36900 36.92500 28.40400
C  -0.97000 36.12500 23.67000
C  -4.10800 32.61000 24.41500
N  -2.20900 35.31200 28.57000
C  -2.78500 34.58600 29.60000
C  -2.28800 34.99900 31.01100
C  -1.34000 36.25300 30.68100
C  -1.28400 36.13300 29.12900
C  -2.00400 37.61800 31.13000
C  -1.60300 33.87500 31.82000
C  -1.59800 33.95700 33.34200
H  -2.52700 33.10300 34.15800
N  -0.78100 36.30900 26.02200
C  -0.11200 36.99200 27.02700
C  0.91200 37.81100 26.35800
C  0.78000 37.61900 24.93600
C  -0.40200 36.66500 24.82700
C  1.94100 38.62500 27.09400
C  1.76900 37.97700 23.85700
O  1.67700 37.49900 22.77000
C  3.05500 38.71800 24.24400
N  -2.53600 34.51700 24.36400
C  -1.95100 35.24500 23.37600
C  -2.19500 34.62400 22.03100
C  -2.88400 33.25000 22.25200
C  -3.18200 33.41700 23.76700
C  -2.87100 35.48800 20.94600
C  -2.00100 32.01800 22.00200
C  -2.68600 30.83400 21.18600
N  -3.66600 33.43900 26.72300
C  -4.29000 32.57500 25.86000
C  -5.12000 31.66500 26.63400
C  -4.93200 32.01100 27.95400
C  -4.04000 33.14200 27.99900
C  -6.01200 30.62900 26.07300
C  -5.28200 31.59300 29.32300
O  -5.96600 30.68400 29.78900
C  -4.56400 32.68500 30.21600
C  -5.70000 33.29000 30.88500
O  -6.68000 33.84800 30.41800
O  -5.58200 32.96600 32.19600
C  -6.70000 33.47100 33.08600
H  0.26800 37.47900 29.09600
H  -0.51300 36.53300 22.76600
H  -4.61400 31.84100 23.82800
H  -3.20100 35.22100 31.56300
H  -0.35800 36.13400 31.14000
H  -1.43600 38.00000 31.97800
H  -3.07000 37.47800 31.30900
H  -1.94900 38.39400 30.36600
H  -0.54900 33.87800 31.54000
H  -1.91300 32.87400 31.51900
H  -1.69500 34.97200 33.72700
H  -0.59100 33.68500 33.65800
H  1.80300 38.60400 28.17500
H  1.81400 39.69400 26.92300
H  3.00000 38.42400 26.93000
H  2.87100 39.57600 24.89100
H  3.56300 38.97900 23.31500
H  3.54300 37.92300 24.80800
H  -1.17200 34.45000 21.69800
H  -3.85500 33.29300 21.75800
H  -2.14900 35.83900 20.20900
H  -3.31200 36.38600 21.37800
H  -3.72600 34.95700 20.52600
H  -1.80900 31.58500 22.98300
H  -1.01900 32.22700 21.57800
H  -1.95400 30.03000 21.10900
H  -3.02200 31.19600 20.21500
H  -3.52900 30.49200 21.78600
H  -6.88900 31.20500 25.77800
H  -6.31600 29.89200 26.81700
H  -5.56900 30.17100 25.18900
H  -3.84700 32.24200 30.90700
H  -6.83400 34.53300 32.88200
H  -6.29100 33.48800 34.09700
H  -7.67100 32.98100 33.01300

