158

Mg 3.54600 -0.05600 44.43100
C  6.91900 0.12800 43.96700
C  3.21400 2.72800 42.25300
C  0.16700 -0.62700 43.96200
C  3.81500 -2.97100 46.17000
N  4.95000 1.20000 43.18200
C  6.31900 1.09300 43.14200
C  6.98600 2.09200 42.25300
C  5.76300 3.07600 42.03400
C  4.54200 2.29900 42.54800
C  5.87600 4.47100 42.80000
C  7.64500 1.44400 40.96900
C  8.29700 2.45100 39.99500
H  7.62200 2.72700 38.73800
N  1.93300 1.03900 43.44600
C  2.01200 2.13200 42.62800
C  0.69300 2.48800 42.03800
C  -0.18800 1.53100 42.50200
C  0.63300 0.61800 43.38700
C  0.47800 3.71500 41.20400
C  -1.65700 1.45000 42.18600
O  -2.18900 2.23600 41.41000
C  -2.57800 0.33800 42.74000
N  2.17200 -1.59500 44.98900
C  0.81800 -1.52200 44.71700
C  0.16900 -2.86600 45.18300
C  1.25900 -3.55500 45.96200
C  2.51600 -2.68000 45.70900
C  -1.14200 -2.61000 46.10400
C  1.58500 -5.07000 45.66700
C  0.37400 -5.91500 45.22300
N  5.00400 -1.18100 45.05800
C  4.98900 -2.34800 45.81700
C  6.37200 -2.70200 46.06000
C  7.14700 -1.71300 45.41600
C  6.27000 -0.83600 44.76100
C  6.76700 -3.89700 46.83100
C  8.50300 -1.23900 45.07500
O  9.59400 -1.66600 45.43600
C  8.43400 -0.07400 44.11800
C  9.02300 1.13500 44.84200
O  8.73400 1.56300 45.91600
O  9.86200 1.66500 43.91600
C  10.31000 3.00000 44.29500
H  3.29200 3.67300 41.71100
H  -0.88400 -0.91100 43.87500
H  3.86300 -3.83600 46.83500
H  7.81000 2.55700 42.79500
H  5.64800 3.31800 40.97800
H  6.69600 4.51200 43.51700
H  4.96300 4.65600 43.36500
H  6.05000 5.24900 42.05600
H  6.84400 0.86200 40.51200
H  8.51000 0.83200 41.22300
H  9.34000 2.20400 39.79700
H  8.32700 3.44500 40.44100
H  1.03800 3.59400 40.27700
H  0.97400 4.62700 41.53600
H  -0.53500 3.94500 40.87500
H  -3.60500 0.36800 42.37600
H  -2.63200 0.38600 43.82800
H  -2.24300 -0.67100 42.50000
H  -0.07100 -3.36100 44.24200
H  1.08000 -3.51200 47.03600
H  -1.84500 -3.35000 45.72100
H  -1.49000 -1.58100 46.18600
H  -0.95800 -2.92800 47.13100
H  2.04200 -5.54100 46.53700
H  2.35300 -5.05700 44.89400
H  0.61000 -6.53800 44.36100
H  -0.57400 -5.39300 45.09600
H  0.22300 -6.66300 46.00200
H  7.69200 -3.78900 47.39700
H  6.99300 -4.78300 46.23700
H  5.99100 -4.25600 47.50700
H  8.94800 -0.44600 43.23100
H  10.57400 3.47600 43.35100
H  11.16100 3.11400 44.96700
H  9.58600 3.68500 44.73800
Mg 6.49000 53.92000 41.40100
C  6.09700 50.31800 41.17200
C  9.80500 53.43700 40.25200
C  6.65700 57.23800 40.89100
C  2.97600 54.08100 41.65100
N  7.75700 52.02300 40.52700
C  7.42400 50.75600 40.79500
C  8.64500 49.88500 40.47700
C  9.80300 50.90600 40.54900
C  9.08900 52.24500 40.45600
C  10.91100 50.63100 41.63200
C  8.59400 49.00700 39.20500
C  7.84700 49.75700 37.95400
H  7.20000 48.97600 36.82100
N  8.00000 55.13800 40.69600
C  9.28900 54.79200 40.31500
C  9.95800 55.91600 39.86000
C  9.18300 57.03600 40.14400
C  7.85900 56.52300 40.59200
C  11.33100 55.97300 39.17800
C  9.58800 58.49300 39.82300
O  10.72100 58.76000 39.49700
C  8.74100 59.68000 40.14600
N  4.96900 55.40500 41.17300
C  5.38500 56.75900 41.24200
C  4.18800 57.66700 41.54100
C  3.02100 56.60900 41.87400
C  3.63500 55.30400 41.53300
C  4.38700 58.73300 42.60600
C  1.74000 56.94700 41.22000
C  0.47900 57.07400 42.15600
N  4.76900 52.54000 41.52400
C  3.44100 52.77500 41.69100
C  2.73500 51.49300 41.80500
C  3.75500 50.55000 41.73200
C  4.92900 51.20500 41.46400
C  1.21300 51.21500 42.01600
C  4.07500 49.17500 41.74400
O  3.33900 48.20400 41.90400
C  5.59900 48.89500 41.44200
C  5.49600 48.03100 40.17500
O  5.06900 48.47200 39.10600
O  5.66900 46.69600 40.33600
C  5.22600 45.87700 39.20500
H  10.86800 53.28500 40.05600
H  6.60800 58.32200 40.77100
H  1.91600 54.15800 41.90300
H  8.65900 49.14900 41.28100
H  10.47900 50.84800 39.69700
H  11.01000 51.47500 42.31600
H  11.84800 50.60700 41.07600
H  10.66700 49.75500 42.23200
H  8.03800 48.12100 39.51300
H  9.56900 48.66400 38.86000
H  8.62400 50.24200 37.36300
H  7.20600 50.58700 38.24800
H  11.32400 56.10800 38.09600
H  11.65000 54.93200 39.22600
H  12.00600 56.65000 39.70200
H  7.99900 59.81200 39.35900
H  9.51200 60.44700 40.22100
H  8.29600 59.47600 41.12000
H  3.97000 58.24900 40.64600
H  2.93400 56.53800 42.95800
H  4.32200 59.73600 42.18400
H  5.37000 58.54500 43.03500
H  3.69500 58.75200 43.44800
H  1.47700 56.26300 40.41300
H  1.87000 57.88000 40.67100
H  -0.29900 57.63100 41.63400
H  0.82200 57.53700 43.08200
H  0.05600 56.10100 42.40500
H  1.06500 50.33600 42.64400
H  0.58400 51.10200 41.13400
H  0.65400 52.00700 42.51500
H  6.21300 48.37500 42.17700
H  5.42900 44.84300 39.48700
H  5.73500 46.04700 38.25600
H  4.15000 46.04000 39.16200

