158

Mg 0.93700 7.82000 26.21200
C  1.85200 9.81100 28.88500
C  1.20200 5.03500 28.09200
C  0.19100 6.06800 23.36300
C  0.94000 10.68300 24.14700
N  1.46100 7.48400 28.27600
C  1.63900 8.46100 29.23800
C  1.50600 7.87800 30.62600
C  1.70800 6.34600 30.31500
C  1.48600 6.25500 28.76600
C  3.01300 5.69300 30.79500
C  0.15900 8.17500 31.19200
C  0.01300 7.81600 32.65000
H  1.17200 7.67200 33.55600
N  0.84500 5.81800 25.78700
C  0.97900 4.78500 26.68600
C  0.76200 3.50600 26.02300
C  0.42200 3.83500 24.65500
C  0.42700 5.33800 24.54100
C  1.00400 2.21800 26.82100
C  0.04700 2.84500 23.49600
O  -0.21500 3.21200 22.40500
C  0.00900 1.35700 23.80200
N  0.44600 8.34500 24.09600
C  0.21700 7.39200 23.15900
C  0.26700 8.01200 21.80700
C  0.18100 9.50700 22.10900
C  0.56500 9.54100 23.56000
C  1.55600 7.70100 21.02400
C  -1.28800 10.09400 22.05300
C  -1.32400 11.45300 21.20900
N  1.33300 9.84400 26.42100
C  1.28300 10.84500 25.48700
C  1.66300 12.08000 26.11600
C  1.88500 11.75800 27.43700
C  1.66200 10.37500 27.59300
C  1.75300 13.47200 25.58500
C  2.15000 12.21600 28.78400
O  2.45100 13.38400 29.08400
C  2.01800 11.01300 29.82400
C  3.20800 11.03900 30.67600
O  4.28200 10.57100 30.38400
O  3.03600 11.76600 31.87000
C  3.97400 11.64400 33.02400
H  1.20300 4.20800 28.80500
H  -0.12900 5.49800 22.48800
H  1.06500 11.45800 23.38700
H  2.32200 8.19600 31.27500
H  0.98800 5.64800 30.74200
H  2.77900 4.91100 31.51700
H  3.63600 6.40500 31.33700
H  3.54600 5.18100 29.99300
H  -0.58500 7.59300 30.64900
H  -0.11500 9.18600 30.89100
H  -0.56900 6.89600 32.71600
H  -0.65400 8.51200 33.15900
H  0.07300 1.67900 26.99800
H  1.53100 2.39200 27.75900
H  1.60600 1.59400 26.16000
H  -0.57200 1.32200 24.72300
H  1.02800 1.02900 24.00800
H  -0.26200 0.80000 22.90500
H  -0.59900 7.57500 21.31100
H  0.92100 10.00200 21.48100
H  2.17700 6.88800 21.39800
H  2.11300 8.61100 20.80000
H  1.34100 7.39300 20.00100
H  -1.78600 10.29500 23.00200
H  -1.88900 9.37600 21.49300
H  -0.73300 11.54900 20.29800
H  -0.89500 12.30100 21.74500
H  -2.37800 11.65000 21.01500
H  2.08100 14.13600 26.38400
H  0.88600 13.87000 25.05700
H  2.56800 13.55400 24.86500
H  1.10700 11.19300 30.39400
H  3.37400 11.40600 33.90200
H  4.28300 12.67500 33.19100
H  4.81300 10.99300 32.77800
Mg 6.34800 54.22700 39.46600
C  5.97200 50.79300 39.55500
C  9.66600 53.83800 38.77200
C  6.47300 57.52100 38.72500
C  2.89100 54.51100 39.83900
N  7.60800 52.49100 39.01100
C  7.25800 51.15900 39.15100
C  8.54500 50.27600 38.84200
C  9.66000 51.35700 39.03700
C  8.95800 52.69200 38.91000
C  10.60700 51.28200 40.28700
C  8.60500 49.70200 37.45100
C  8.26800 50.70300 36.35400
H  6.89100 50.57200 35.61000
N  7.87200 55.51200 38.90700
C  9.15300 55.15500 38.70400
C  9.97900 56.31000 38.42600
C  9.06900 57.45200 38.46700
C  7.72400 56.87800 38.68000
C  11.56100 56.32500 38.22200
C  9.34900 58.96100 38.48900
O  10.55500 59.32800 38.42700
C  8.43400 60.10200 38.74700
N  4.83100 55.78200 39.23300
C  5.20800 57.09100 39.00300
C  4.02000 58.05500 39.23800
C  2.80000 57.09800 39.15000
C  3.51600 55.68800 39.41900
C  4.22500 58.73900 40.61800
C  2.11500 57.05900 37.76400
C  0.60000 57.17500 37.82600
N  4.69200 52.91200 39.61800
C  3.38600 53.16300 39.90100
C  2.63500 51.91000 40.10700
C  3.61100 50.92400 39.98600
C  4.82600 51.61500 39.67300
C  1.22400 51.63100 40.58700
C  3.92700 49.50400 40.04300
O  3.18400 48.57800 40.34400
C  5.44300 49.34300 39.76500
C  5.62300 48.44900 38.61600
O  5.25100 48.68400 37.45400
O  6.37300 47.34800 39.03400
C  6.40100 46.29100 38.04700
H  10.73200 53.61000 38.70600
H  6.51400 58.59400 38.52300
H  1.81900 54.48000 40.04300
H  8.76200 49.47900 39.55200
H  10.40600 51.28100 38.24500
H  11.62600 51.63700 40.13200
H  10.64300 50.31800 40.79600
H  10.37400 51.99600 41.07700
H  7.91600 48.86100 37.36600
H  9.60000 49.29700 37.27100
H  9.13400 50.52100 35.71800
H  8.47600 51.74000 36.61800
H  12.03400 57.26700 37.94400
H  11.90900 55.57000 37.51600
H  11.94200 56.08100 39.21300
H  8.00400 60.44500 37.80600
H  9.01400 60.93000 39.15500
H  7.62400 59.90300 39.44900
H  3.99400 58.83300 38.47500
H  2.12800 57.20500 40.00100
H  4.83800 59.63200 40.50200
H  4.77800 57.99900 41.19700
H  3.36000 59.04400 41.20700
H  2.49900 56.17400 37.25800
H  2.45000 57.78700 37.02500
H  0.37300 57.74000 38.73000
H  -0.00700 56.27000 37.84300
H  0.13900 57.61200 36.94000
H  0.96300 50.58400 40.43300
H  0.49600 52.20400 40.01200
H  1.19900 51.81900 41.66000
H  5.99100 48.86100 40.57500
H  6.95600 45.43100 38.42000
H  6.78600 46.71600 37.12000
H  5.46500 45.82800 37.73500

