158

Mg -2.00100 17.36300 26.57700
C  -2.63100 15.25900 29.28000
C  -2.85700 20.03800 28.62600
C  -1.52500 19.34700 23.99900
C  -1.53000 14.55000 24.69700
N  -2.67300 17.51600 28.67000
C  -2.82200 16.59200 29.58100
C  -3.03300 17.14300 30.98600
C  -3.29200 18.69300 30.69000
C  -2.95800 18.79100 29.21700
C  -4.57900 19.32100 31.28000
C  -1.83300 16.96500 32.03800
C  -2.32900 16.59200 33.50000
H  -1.30300 16.61900 34.59400
N  -2.26600 19.43400 26.28200
C  -2.53100 20.37600 27.28100
C  -2.41700 21.67200 26.69400
C  -2.01500 21.55500 25.37600
C  -1.95700 20.03500 25.17300
C  -2.95100 22.92100 27.38700
C  -1.87200 22.60000 24.30100
O  -1.66600 22.33300 23.12000
C  -1.64800 23.99700 24.69500
N  -1.74000 17.01900 24.53000
C  -1.57500 17.98300 23.62900
C  -1.22100 17.38800 22.22700
C  -0.90100 15.90300 22.58100
C  -1.40600 15.78600 24.05300
C  -2.21800 17.68600 21.05300
C  0.53000 15.54600 22.18000
C  1.69100 15.92500 23.14200
N  -2.17600 15.30900 26.81100
C  -1.99800 14.29300 25.94400
C  -2.25500 12.98700 26.57200
C  -2.54700 13.32900 27.92600
C  -2.42900 14.74100 27.98400
C  -2.11100 11.66200 25.88800
C  -2.84800 12.79100 29.23000
O  -2.99800 11.65700 29.62300
C  -2.92300 14.04800 30.14300
C  -1.78700 13.83400 31.05700
O  -0.60600 14.02600 30.79500
O  -2.18000 13.41800 32.30900
C  -1.16600 13.25500 33.29500
H  -3.17500 20.77400 29.36700
H  -1.22300 19.97400 23.15800
H  -1.14500 13.66700 24.18400
H  -3.88500 16.60900 31.40700
H  -2.51200 19.25800 31.20000
H  -5.13400 18.57000 31.84200
H  -5.27600 19.76800 30.57100
H  -4.19300 20.08400 31.95600
H  -1.29700 17.89500 32.22600
H  -1.11600 16.20800 31.72000
H  -2.63000 15.55500 33.34600
H  -3.15100 17.24400 33.79300
H  -3.31900 22.73900 28.39700
H  -3.76000 23.40100 26.83700
H  -2.08000 23.54900 27.57500
H  -2.56600 24.35700 25.15900
H  -1.43500 24.49500 23.74900
H  -0.82700 24.13100 25.39800
H  -0.24600 17.76900 21.92400
H  -1.60500 15.31700 21.99100
H  -3.22400 17.34900 21.30500
H  -1.81100 17.19300 20.17000
H  -2.37300 18.76300 20.99500
H  0.71700 15.60800 21.10800
H  0.39500 14.46500 22.21900
H  2.36300 16.40700 22.43200
H  2.11400 15.02000 23.58000
H  1.33100 16.56900 23.94400
H  -1.42200 11.79900 25.05400
H  -3.05400 11.21000 25.58100
H  -1.61200 11.02200 26.61600
H  -3.84500 14.08500 30.72300
H  -1.63300 13.16400 34.27600
H  -0.47300 14.09600 33.28400
H  -0.64100 12.39100 32.88800
Mg 24.55000 -6.00100 45.83700
C  26.91200 -3.81000 44.58800
C  22.21700 -4.90500 43.78900
C  22.87900 -8.83700 46.54800
C  27.25000 -7.32600 47.90100
N  24.61600 -4.62500 44.31600
C  25.63000 -3.72100 44.02600
C  25.16200 -2.75100 42.93500
C  23.63400 -2.98000 42.94100
C  23.48800 -4.23600 43.75800
C  22.92900 -1.71400 43.58700
C  25.77900 -2.94600 41.57000
C  26.29300 -1.76900 40.75900
H  25.72300 -1.49900 39.37600
N  22.67800 -6.65200 45.29400
C  21.84200 -6.07100 44.37400
C  20.62600 -6.83000 44.28200
C  20.88300 -8.04000 45.01200
C  22.20500 -7.87600 45.69900
C  19.39000 -6.26500 43.52400
C  19.77500 -9.10600 45.18100
O  18.72900 -9.12400 44.59900
C  19.94800 -10.24500 46.03900
N  24.98600 -7.75900 47.05600
C  24.13800 -8.84000 47.16200
C  24.65500 -9.99000 47.99300
C  25.82700 -9.28600 48.72200
C  26.04500 -8.04500 47.81900
C  23.53000 -10.62400 48.90400
C  27.06700 -10.19100 49.07300
C  27.43500 -10.16500 50.58000
N  26.60900 -5.66400 46.28200
C  27.53700 -6.24400 47.13900
C  28.81500 -5.61200 47.01700
C  28.60800 -4.64700 46.02300
C  27.28500 -4.73700 45.54700
C  30.10000 -6.08600 47.67900
C  29.25900 -3.58600 45.34600
O  30.41500 -3.26900 45.45200
C  28.23900 -3.02000 44.36300
C  28.05300 -1.54700 44.52400
O  27.23100 -1.07400 45.28200
O  28.81600 -0.83000 43.64000
C  28.32500 0.49400 43.37500
H  21.48900 -4.36400 43.18100
H  22.53900 -9.86200 46.70800
H  28.03900 -7.57500 48.61400
H  25.31700 -1.75200 43.34200
H  23.17300 -3.08300 41.95900
H  23.56900 -1.46700 44.43400
H  21.89700 -1.82100 43.92100
H  22.94700 -0.98000 42.78200
H  25.05200 -3.43800 40.92400
H  26.54800 -3.71000 41.68200
H  27.35400 -1.96600 40.60200
H  26.26500 -0.82900 41.31000
H  18.44300 -6.52900 43.99500
H  19.47100 -6.62000 42.49700
H  19.54100 -5.18500 43.53000
H  18.97400 -10.73100 46.07500
H  20.19300 -9.86200 47.03000
H  20.79400 -10.86700 45.74700
H  25.05800 -10.73600 47.30800
H  25.43000 -9.00300 49.69700
H  23.93700 -10.69400 49.91300
H  23.22400 -11.59000 48.50200
H  22.65700 -9.97400 48.84300
H  27.88800 -9.87000 48.43200
H  26.86300 -11.23100 48.81900
H  27.50500 -11.18600 50.95500
H  26.73800 -9.56700 51.16700
H  28.48400 -9.87200 50.53200
H  30.92200 -5.39000 47.51500
H  30.37100 -7.07400 47.30500
H  29.84600 -6.11600 48.73900
H  28.69400 -3.14700 43.38100
H  28.60200 1.05000 44.27100
H  27.24400 0.50600 43.23700
H  28.84500 1.02700 42.57900

