158

Mg 1.95000 -1.47200 43.93400
C  5.48300 -1.16000 43.47600
C  1.57000 1.38900 42.02300
C  -1.25300 -2.10100 43.57100
C  2.55700 -4.60300 45.31800
N  3.37600 -0.25800 42.62000
C  4.76400 -0.21700 42.72600
C  5.25500 0.94600 41.85000
C  3.97200 1.84000 41.68900
C  2.86500 0.91200 42.11900
C  4.06900 3.11900 42.43900
C  5.80300 0.37100 40.51300
C  7.00200 1.14900 39.93400
H  6.76800 1.70700 38.53700
N  0.30700 -0.41200 43.11300
C  0.33200 0.76600 42.39800
C  -1.03500 1.35400 42.31100
C  -1.88200 0.31900 42.80300
C  -0.92600 -0.77700 43.16900
C  -1.31000 2.72200 41.73100
C  -3.35400 0.37000 42.75600
O  -4.07300 1.23000 42.21600
C  -4.08300 -0.74100 43.56200
N  0.90600 -3.23600 44.06100
C  -0.43100 -3.16700 43.98600
C  -1.00100 -4.44800 44.59200
C  0.17200 -5.10900 45.26800
C  1.31700 -4.28200 44.86700
C  -2.21400 -4.28500 45.49600
C  0.39800 -6.61300 44.89600
C  0.72500 -7.63100 46.02900
N  3.60100 -2.68600 44.44800
C  3.71400 -3.93000 44.99600
C  5.13700 -4.17800 45.37500
C  5.81900 -3.11100 44.80800
C  4.88500 -2.24300 44.23300
C  5.60000 -5.30000 46.28700
C  7.12600 -2.46100 44.71300
O  8.24400 -2.88500 45.11900
C  6.99900 -1.21300 43.79100
C  7.31200 0.04200 44.59700
O  6.93800 0.12200 45.74300
O  8.07600 0.90700 43.88200
C  8.38600 2.13600 44.56900
H  1.44300 2.37000 41.56100
H  -2.30100 -2.40800 43.55400
H  2.71100 -5.44600 45.99500
H  6.00700 1.50700 42.40400
H  3.77900 2.24500 40.69600
H  3.85100 2.92600 43.48900
H  3.59000 3.92900 41.88900
H  5.13100 3.35100 42.35700
H  5.06900 0.35000 39.70800
H  6.13400 -0.66700 40.51800
H  7.98700 0.70000 40.05800
H  7.04100 2.10000 40.46500
H  -2.39400 2.81500 41.66400
H  -0.83600 2.91400 40.76900
H  -0.95600 3.48100 42.42900
H  -5.09100 -0.40900 43.81100
H  -3.50500 -0.78400 44.48600
H  -4.09500 -1.64100 42.94800
H  -1.45700 -5.08400 43.83400
H  -0.01200 -5.10800 46.34200
H  -2.00200 -4.84600 46.40600
H  -3.16100 -4.61500 45.06900
H  -2.30900 -3.24400 45.80600
H  1.00100 -6.72200 43.99400
H  -0.59000 -7.00200 44.64900
H  -0.13600 -8.23800 46.30800
H  1.09000 -7.04000 46.86800
H  1.64500 -8.16300 45.78500
H  4.87500 -5.26200 47.10100
H  6.59200 -5.04300 46.65800
H  5.70800 -6.22000 45.71300
H  7.63400 -1.29500 42.90900
H  7.49300 2.74300 44.42100
H  9.18600 2.67900 44.06500
H  8.63400 2.05800 45.62800
Mg 30.11600 57.94900 40.98500
C  27.11900 56.05200 40.10700
C  31.86000 55.36900 39.64500
C  32.63700 59.93400 41.08100
C  28.01900 60.36500 42.27600
N  29.49700 55.95300 39.97700
C  28.27600 55.35700 39.75800
C  28.45900 54.07200 38.91500
C  29.93700 53.66400 39.21200
C  30.44800 55.10600 39.59000
C  30.21000 52.66700 40.39500
C  27.84300 54.14400 37.49900
C  28.03000 55.49800 36.69300
H  27.30900 55.54700 35.35300
N  32.05300 57.72600 40.49000
C  32.58000 56.57600 39.98500
C  34.01100 56.74700 40.05900
C  34.32800 58.00000 40.59600
C  33.01500 58.61900 40.67300
C  34.91500 55.61600 39.65800
C  35.67900 58.54300 40.86800
O  36.65600 57.98100 40.54100
C  35.81600 59.94300 41.44100
N  30.20400 60.02700 41.33100
C  31.43300 60.53500 41.48700
C  31.35600 62.01200 41.94300
C  29.89300 62.08700 42.47500
C  29.36500 60.73200 42.04600
C  32.43300 62.52400 42.99200
C  29.21500 63.41200 41.95600
C  28.32300 64.17100 42.84700
N  27.99400 58.26200 41.13500
C  27.30500 59.34800 41.61700
C  25.90300 59.17700 41.49200
C  25.77300 57.93600 40.81000
C  27.08200 57.36200 40.71000
C  24.83700 60.09300 41.99300
C  24.83700 56.95000 40.35300
O  23.62900 57.03700 40.24100
C  25.67400 55.70200 39.85800
C  25.21100 54.47300 40.51500
O  25.05000 54.42000 41.72400
O  25.10100 53.36100 39.63300
C  24.58800 52.09600 40.18400
H  32.47400 54.54400 39.27600
H  33.53300 60.55600 41.12900
H  27.47300 61.11400 42.85300
H  27.89300 53.41700 39.57800
H  30.38200 53.35600 38.26600
H  30.40600 53.14400 41.35600
H  31.04100 51.99800 40.17700
H  29.28700 52.08700 40.41200
H  26.77500 53.96200 37.61900
H  28.40900 53.43700 36.89400
H  29.07700 55.77600 36.57200
H  27.57500 56.28700 37.29200
H  35.56800 56.00900 38.87800
H  34.38600 54.76200 39.23600
H  35.52600 55.19600 40.45700
H  35.60100 60.66300 40.65200
H  36.82900 60.07200 41.82200
H  35.20200 60.07800 42.33100
H  31.41500 62.65700 41.06600
H  29.78400 62.05100 43.55900
H  31.95600 62.96300 43.86900
H  32.99600 63.29700 42.46900
H  33.22300 61.80400 43.20600
H  28.51500 63.25100 41.13600
H  29.98000 64.09400 41.58500
H  27.49800 64.53900 42.23600
H  28.94200 64.98300 43.22900
H  27.95400 63.67300 43.74400
H  24.51000 60.61500 41.09400
H  25.33900 60.69800 42.74800
H  23.99600 59.66400 42.53900
H  25.53700 55.69600 38.77700
H  25.43800 51.51500 40.53900
H  23.92000 51.54600 39.52100
H  23.97900 52.33300 41.05700

