158

Mg 42.79700 42.27300 26.13700
C  41.69300 44.52200 28.64400
C  44.35600 40.46600 28.54100
C  43.99500 40.28700 23.74400
C  41.84300 44.62200 23.76300
N  42.79500 42.39800 28.40900
C  42.27400 43.36800 29.21300
C  42.29700 42.93000 30.67000
C  43.29900 41.63700 30.57300
C  43.57800 41.51900 29.06000
C  44.65500 41.85700 31.40500
C  40.85100 42.64900 31.18500
C  40.69800 41.81100 32.43800
H  40.05900 42.68400 33.54900
N  43.89400 40.55700 26.07200
C  44.40100 39.89900 27.25600
C  45.08000 38.72200 26.81600
C  44.99100 38.64900 25.41400
C  44.30100 39.89100 25.03200
C  45.84900 37.82100 27.77000
C  45.49100 37.53300 24.46700
O  45.36900 37.66300 23.23500
C  46.10500 36.29100 25.10900
N  42.89500 42.50300 24.09900
C  43.38200 41.48800 23.29500
C  43.37900 41.82500 21.81700
C  42.55200 43.11300 21.77600
C  42.48800 43.50400 23.27800
C  44.79100 42.09200 21.12500
C  41.03400 42.99000 21.34600
C  40.40300 41.61500 21.58600
N  41.96900 44.23200 26.15000
C  41.63400 45.06300 25.13600
C  41.18300 46.30700 25.64600
C  41.03500 46.12700 26.98100
C  41.65700 44.86500 27.27800
C  40.90100 47.45900 24.73000
C  40.63800 46.74600 28.29600
O  40.10600 47.81200 28.55000
C  40.99100 45.65500 29.38100
C  41.87900 46.34300 30.38400
O  42.92800 46.82200 30.17500
O  41.33100 46.35200 31.65800
C  42.12000 46.94100 32.75300
H  44.72300 39.83700 29.35400
H  44.28000 39.70800 22.86300
H  41.56000 45.35200 23.00200
H  42.74600 43.74800 31.23400
H  42.81800 40.77200 31.03100
H  44.61500 42.79000 31.96700
H  45.48300 42.00000 30.71100
H  44.83200 41.01000 32.06700
H  40.15800 42.30900 30.41500
H  40.45100 43.64700 31.36300
H  41.71600 41.52800 32.70300
H  40.08200 40.97200 32.11400
H  46.88700 37.76600 27.44100
H  45.44800 36.80800 27.74200
H  45.95400 38.25000 28.76600
H  47.06500 36.60500 25.51800
H  46.26100 35.50800 24.36600
H  45.52000 35.87700 25.93000
H  42.78400 41.12900 21.22500
H  42.99400 43.94000 21.22100
H  44.81400 41.60100 20.15200
H  45.42000 41.48500 21.77600
H  45.08100 43.14100 21.06000
H  40.91700 43.42400 20.35300
H  40.49000 43.73900 21.92100
H  39.32400 41.74900 21.51900
H  40.57400 41.21900 22.58800
H  40.74100 40.97600 20.77000
H  40.27900 47.13900 23.89500
H  41.84200 47.76500 24.27400
H  40.48300 48.26900 25.32800
H  40.07600 45.37300 29.90300
H  41.64200 47.90500 32.92600
H  43.12500 47.26200 32.47900
H  42.03500 46.35700 33.67000
Mg 36.18200 49.92700 25.15700
C  36.29200 48.22100 28.17200
C  34.66000 52.58400 26.77300
C  35.89300 51.39900 22.09900
C  37.33000 46.93400 23.56300
N  35.49700 50.25100 27.14000
C  35.66100 49.40700 28.24700
C  35.25900 50.14400 29.52800
C  34.36100 51.31700 29.04500
C  34.80900 51.43400 27.55800
C  32.84400 51.14500 29.35200
C  36.59900 50.63000 30.32600
C  36.74400 50.23700 31.72100
H  35.49300 49.95000 32.51300
N  35.40000 51.74900 24.52200
C  34.88300 52.74000 25.36200
C  34.81100 53.99400 24.62800
C  35.25700 53.68200 23.30900
C  35.53500 52.22500 23.26500
C  34.60600 55.37000 25.27100
C  35.50200 54.66000 22.14300
O  36.13700 54.32300 21.09300
C  34.95700 56.06400 22.26900
N  36.40200 49.20500 23.04500
C  36.21900 50.03600 22.04500
C  36.60400 49.39500 20.73300
C  37.07400 47.97200 21.21500
C  36.91200 47.99600 22.65900
C  35.55400 49.35800 19.58700
C  38.46500 47.49200 20.74500
C  39.38600 48.40100 20.01600
N  36.76600 47.92000 25.72900
C  37.29400 46.91400 24.95700
C  37.58000 45.78500 25.88900
C  37.25700 46.30300 27.14500
C  36.75200 47.59800 26.96400
C  38.18500 44.50200 25.46800
C  37.11600 45.96600 28.57200
O  37.55700 44.94700 29.06300
C  36.39700 47.19800 29.28700
C  35.21100 46.71800 30.02900
O  34.05300 47.05700 29.69000
O  35.50500 45.87500 31.08700
C  34.37600 45.59700 32.01200
H  34.32200 53.50300 27.25500
H  35.62000 51.94700 21.19500
H  37.81900 45.99600 23.29400
H  34.69000 49.45500 30.15200
H  34.71300 52.23400 29.51700
H  32.32300 50.95200 28.41400
H  32.45900 52.12800 29.62300
H  32.72500 50.39300 30.13100
H  36.77100 51.69300 30.49600
H  37.44500 50.26600 29.74300
H  37.32000 50.96500 32.29300
H  37.35400 49.33400 31.72500
H  35.43000 55.98800 24.91500
H  34.75400 55.26900 26.34600
H  33.57100 55.67100 25.10900
H  33.97800 55.96700 22.73800
H  34.85600 56.57100 21.30900
H  35.58500 56.64900 22.94000
H  37.48000 50.02300 20.56900
H  36.28700 47.29900 20.87600
H  36.19500 49.59300 18.73700
H  34.82300 50.15800 19.70100
H  35.10100 48.38300 19.40700
H  38.26400 46.63300 20.10600
H  38.97900 47.04000 21.59400
H  38.81400 48.70100 19.13700
H  40.26400 47.85700 19.66700
H  39.64800 49.21100 20.69600
H  39.12000 44.65100 24.92700
H  37.43400 44.04000 24.82700
H  38.16600 43.95800 26.41300
H  37.09800 47.60700 30.01500
H  34.53000 44.71100 32.62800
H  33.39500 45.57300 31.53900
H  34.33400 46.41900 32.72600

