158

Mg 24.50200 -4.99800 46.10700
C  26.41900 -2.74900 44.23600
C  21.96100 -4.37000 43.99200
C  23.05500 -7.75100 47.38600
C  27.48900 -5.74200 47.97000
N  24.27200 -3.79900 44.23800
C  25.12400 -2.85400 43.73100
C  24.59900 -2.11900 42.56200
C  23.04400 -2.41600 42.67800
C  23.02200 -3.57400 43.73700
C  22.09900 -1.24400 43.05400
C  25.34200 -2.59000 41.22000
C  25.98800 -1.50700 40.29600
H  25.81200 -1.56600 38.71400
N  22.68000 -5.93600 45.74900
C  21.74300 -5.40900 44.93000
C  20.51500 -6.13900 45.06200
C  20.83500 -7.24900 45.99200
C  22.28300 -7.01100 46.45400
C  19.25500 -5.81900 44.26500
C  19.93400 -8.38700 46.41500
O  18.86800 -8.48400 45.76500
C  20.24000 -9.50100 47.30900
N  25.17900 -6.58100 47.39100
C  24.37500 -7.52800 47.88100
C  25.04000 -8.25700 49.05800
C  26.34100 -7.53000 49.21800
C  26.37200 -6.57400 48.08300
C  24.28800 -8.57200 50.33400
C  27.59200 -8.43100 49.28100
C  27.50300 -9.64700 50.22200
N  26.49400 -4.43700 46.20000
C  27.56100 -4.71500 46.97700
C  28.72300 -3.86900 46.78800
C  28.27800 -3.09900 45.70400
C  26.94700 -3.47300 45.39600
C  29.98300 -3.82100 47.63600
C  28.67500 -2.00700 44.75900
O  29.73800 -1.46700 44.48500
C  27.56900 -1.77700 43.80100
C  27.07100 -0.36700 44.03100
O  26.24600 -0.03900 44.84000
O  27.50900 0.36200 43.01700
C  26.76200 1.67200 42.81400
H  21.13100 -4.11100 43.33200
H  22.59700 -8.58000 47.93000
H  28.41600 -5.89200 48.52700
H  24.77400 -1.09300 42.88500
H  22.73300 -2.76600 41.69400
H  22.61000 -0.28400 43.13000
H  21.79700 -1.45300 44.08100
H  21.35700 -1.19400 42.25800
H  24.58100 -3.08300 40.61500
H  26.18000 -3.22400 41.50900
H  27.07300 -1.57900 40.37000
H  25.78200 -0.53800 40.75100
H  18.47400 -6.57800 44.30500
H  19.40800 -6.02300 43.20600
H  18.91500 -4.78500 44.32100
H  21.13900 -10.03500 47.00100
H  19.43800 -10.23900 47.30800
H  20.37000 -9.08500 48.30800
H  25.35700 -9.20600 48.62600
H  26.39100 -6.88900 50.09800
H  24.66700 -8.27300 51.31100
H  24.13100 -9.62700 50.55400
H  23.31000 -8.11400 50.18800
H  28.42900 -7.81900 49.61700
H  27.79600 -8.76300 48.26300
H  28.05500 -9.52500 51.15400
H  27.89100 -10.46000 49.60800
H  26.50000 -9.94700 50.52500
H  30.64000 -4.65400 47.38300
H  29.66500 -3.97300 48.66700
H  30.42300 -2.84700 47.42600
H  27.90300 -1.88200 42.76900
H  25.70900 1.48200 43.02000
H  26.92300 1.99200 41.78500
H  26.93500 2.47900 43.52600
Mg 16.81600 -1.34600 27.88000
C  15.90000 0.81000 30.28300
C  18.80900 -3.02800 30.05600
C  18.26400 -3.11300 25.25500
C  15.21700 0.72900 25.39000
N  17.46100 -0.96400 29.87100
C  16.82700 -0.12600 30.76600
C  17.27700 -0.43300 32.19100
C  18.58400 -1.37600 32.00300
C  18.27400 -1.83600 30.49800
C  19.99300 -0.75900 32.10800
C  16.09000 -1.08500 32.97700
C  15.86100 -0.55100 34.38600
H  17.00900 0.13100 35.12100
N  18.06200 -3.09800 27.73300
C  18.79600 -3.64800 28.80100
C  19.50300 -4.77100 28.26000
C  19.40400 -4.76300 26.88400
C  18.54300 -3.62800 26.52800
C  20.31500 -5.67700 29.16800
C  20.12800 -5.74000 25.88000
O  19.95900 -5.66300 24.68400
C  21.05000 -6.79600 26.43700
N  16.78500 -1.18000 25.69900
C  17.52100 -1.99900 24.86800
C  17.40500 -1.59200 23.35300
C  16.24800 -0.51900 23.44600
C  16.03800 -0.29900 24.94600
C  18.68700 -1.02300 22.70500
C  14.86800 -0.92600 22.81500
C  14.85400 -0.78000 21.30100
N  15.74200 0.31400 27.83000
C  15.14900 1.12400 26.78900
C  14.33400 2.19300 27.34800
C  14.58800 2.06100 28.70600
C  15.48500 0.95900 28.94600
C  13.36300 3.08200 26.66300
C  14.27900 2.66900 29.97900
O  13.41000 3.52200 30.28200
C  15.11200 1.87000 30.97200
C  16.01200 2.88600 31.54800
O  17.19800 2.99300 31.24300
O  15.38800 3.53100 32.59200
C  16.20500 4.42800 33.42300
H  19.38500 -3.43700 30.88900
H  18.85500 -3.53000 24.43800
H  14.68900 1.34500 24.65900
H  17.65200 0.48400 32.64700
H  18.53900 -2.19900 32.71600
H  20.55900 -1.26100 32.89400
H  19.97400 0.23400 32.55800
H  20.54200 -0.60700 31.17900
H  16.22800 -2.16100 32.86900
H  15.16800 -0.76000 32.49600
H  15.49500 -1.38000 34.99300
H  15.01700 0.13700 34.34400
H  21.38500 -5.48600 29.07900
H  20.16000 -6.73800 28.97300
H  20.14800 -5.43100 30.21700
H  21.45100 -7.45900 25.67100
H  20.38000 -7.45800 26.98600
H  21.83100 -6.29000 27.00500
H  17.13000 -2.44500 22.73400
H  16.55700 0.44100 23.03100
H  19.45500 -0.92600 23.47200
H  18.49200 0.00200 22.39000
H  19.09200 -1.55900 21.84600
H  14.11900 -0.32800 23.33500
H  14.67500 -1.96800 23.07000
H  14.31000 0.14800 21.12400
H  14.49700 -1.70700 20.85200
H  15.79500 -0.58600 20.78700
H  12.68400 2.33000 26.26300
H  13.74100 3.58900 25.77500
H  12.96500 3.81600 27.36400
H  14.54600 1.63900 31.87400
H  15.58400 5.23200 33.82000
H  17.15500 4.60700 32.91900
H  16.37100 3.87800 34.34900

