158

Mg 9.29900 4.17800 28.02600
C  10.52300 2.28200 30.79200
C  7.47100 5.99200 30.16200
C  7.87500 5.48200 25.42900
C  10.57800 1.42800 26.02100
N  8.97300 3.95600 30.25200
C  9.66000 3.30100 31.19900
C  9.29800 3.82000 32.62200
C  8.12500 4.87200 32.34200
C  8.13900 4.95500 30.85200
C  6.81100 4.50000 33.05000
C  10.51900 4.38400 33.45700
C  10.68000 3.82200 34.89200
H  10.96800 4.82700 35.98800
N  7.88900 5.63400 27.79000
C  7.34200 6.34900 28.77700
C  6.56300 7.46200 28.20400
C  6.77300 7.31200 26.77900
C  7.60800 6.17200 26.62900
C  5.86900 8.46500 29.03600
C  6.19200 8.12100 25.72700
O  6.39300 7.89700 24.52800
C  5.24100 9.34700 26.00000
N  9.23100 3.47700 25.96000
C  8.53500 4.29400 25.06300
C  8.74500 3.81900 23.60700
C  9.54400 2.48400 23.80700
C  9.80800 2.41000 25.35500
C  7.40500 3.65400 22.87700
C  10.77000 2.29700 22.93400
C  10.96300 0.98700 22.23200
N  10.44300 2.33900 28.26500
C  10.98600 1.43700 27.37100
C  11.92900 0.53700 28.10200
C  11.77700 0.83600 29.42200
C  10.86000 1.87900 29.49400
C  12.88500 -0.42300 27.43200
C  12.23300 0.44800 30.73700
O  13.09800 -0.38400 31.10100
C  11.47800 1.45100 31.70000
C  10.76400 0.62400 32.72900
O  9.69600 0.07900 32.51500
O  11.48300 0.57000 33.90300
C  10.76100 0.02200 35.07000
H  6.92500 6.68600 30.80500
H  7.48300 5.88000 24.49100
H  11.04300 0.74500 25.30700
H  8.94200 2.90100 33.08700
H  8.38800 5.81900 32.81400
H  6.05000 4.23600 32.31600
H  6.65800 5.48100 33.50000
H  6.87800 3.69600 33.78400
H  10.56200 5.47300 33.46500
H  11.37600 4.12000 32.83800
H  11.38600 2.99100 34.91000
H  9.69900 3.37600 35.05700
H  6.19800 8.47800 30.07500
H  4.84200 8.10300 29.06500
H  6.01600 9.53100 28.86400
H  4.35400 8.88700 26.43600
H  4.77500 9.76900 25.11000
H  5.62300 10.08500 26.70600
H  9.39200 4.60200 23.21100
H  8.86200 1.67700 23.53900
H  6.63500 3.67700 23.64900
H  7.35600 2.69900 22.35400
H  7.07500 4.45200 22.21100
H  11.65400 2.49400 23.54100
H  10.61800 3.00300 22.11700
H  10.03400 0.46300 22.00700
H  11.38200 0.33500 22.99900
H  11.47500 1.07600 21.27400
H  13.21800 0.17500 26.58400
H  12.52800 -1.36200 27.00800
H  13.74800 -0.73000 28.02100
H  12.19500 2.02200 32.28900
H  9.98400 -0.70700 34.84100
H  10.42600 0.77300 35.78600
H  11.56800 -0.57400 35.49700
Mg 24.25800 -6.52100 46.87600
C  26.68600 -4.09000 45.66000
C  22.03000 -5.25600 44.48300
C  22.35200 -9.23900 47.24400
C  26.98300 -8.12600 48.40100
N  24.34300 -4.80100 45.34300
C  25.47400 -4.06400 44.95800
C  25.16000 -3.16900 43.78100
C  23.63900 -3.47200 43.47900
C  23.30000 -4.63400 44.44500
C  22.79700 -2.23200 43.46300
C  26.07900 -3.33700 42.58000
C  26.92700 -2.18100 42.15700
H  27.02100 -1.83600 40.64400
N  22.29800 -7.01600 46.15600
C  21.59200 -6.34400 45.27900
C  20.32900 -7.01600 45.12800
C  20.38000 -8.18800 45.87400
C  21.65400 -8.13900 46.54300
C  19.16200 -6.44800 44.27600
C  19.20600 -9.17200 45.94500
O  18.32100 -9.14800 45.10700
C  19.09100 -10.11700 47.10000
N  24.68700 -8.44900 47.72400
C  23.64600 -9.37700 47.81500
C  24.23300 -10.68400 48.53100
C  25.71700 -10.22600 48.90100
C  25.82500 -8.85600 48.33200
C  23.35500 -11.18800 49.69400
C  26.87400 -11.13500 48.42800
C  27.87300 -11.66400 49.52800
N  26.37400 -6.14000 47.12700
C  27.24600 -6.88300 47.80300
C  28.54400 -6.21600 47.84100
C  28.31800 -5.10100 47.04200
C  27.02600 -5.12400 46.56200
C  29.82700 -6.65100 48.49100
C  28.97200 -3.91600 46.43600
O  30.14400 -3.56200 46.49900
C  27.87600 -3.20400 45.54300
C  27.58800 -1.78700 45.96500
O  26.55000 -1.36900 46.42200
O  28.74400 -1.02100 45.79900
C  28.45500 0.37400 46.00000
H  21.32500 -4.87600 43.74100
H  21.81400 -10.18700 47.30600
H  27.82400 -8.57700 48.93300
H  25.16000 -2.11200 44.04600
H  23.54200 -3.89200 42.47800
H  23.35400 -1.29800 43.53200
H  22.14300 -2.34100 44.32900
H  22.22100 -2.34800 42.54500
H  25.50900 -3.58800 41.68600
H  26.73700 -4.19400 42.72200
H  27.94200 -2.46600 42.43400
H  26.70100 -1.20400 42.58600
H  18.43500 -6.13600 45.02600
H  18.76800 -7.20200 43.59500
H  19.52200 -5.70900 43.56100
H  18.18200 -10.71700 47.12500
H  19.49000 -9.78200 48.05700
H  19.84500 -10.82300 46.75000
H  24.28700 -11.47200 47.77900
H  25.68900 -10.04700 49.97600
H  23.93800 -11.29500 50.60800
H  22.88200 -12.10600 49.34600
H  22.59400 -10.43100 49.88800
H  27.46200 -10.66900 47.63700
H  26.41700 -11.96000 47.88100
H  27.67900 -12.72300 49.69700
H  27.54100 -11.35700 50.52000
H  28.93000 -11.44100 49.38300
H  30.40800 -5.84900 48.94600
H  30.43900 -6.96300 47.64400
H  29.74100 -7.39400 49.28500
H  28.31900 -3.21000 44.54700
H  28.79300 1.10100 45.26100
H  28.98700 0.67800 46.90200
H  27.43100 0.70000 46.18000

