158

Mg 8.84400 3.00600 27.86500
C  9.63500 1.28300 30.75000
C  7.50700 5.52500 29.67400
C  7.15000 4.17000 25.02500
C  9.75700 0.16300 25.89400
N  8.37100 3.23200 30.10800
C  8.99100 2.45900 31.08300
C  8.83100 3.17200 32.42200
C  8.15700 4.52100 32.02700
C  7.92600 4.41400 30.48100
C  6.90900 4.99700 32.80200
C  10.17100 3.39200 33.08000
C  10.41300 4.57800 34.04900
H  10.97400 4.33900 35.41900
N  7.73500 4.71500 27.37900
C  7.39200 5.70800 28.23200
C  6.72600 6.75800 27.53400
C  6.50000 6.35100 26.22400
C  7.18300 5.01000 26.13000
C  6.34600 8.10900 28.26500
C  5.67400 7.11600 25.14200
O  5.45800 6.63200 24.05300
C  5.23200 8.50200 25.46600
N  8.47000 2.29200 25.84700
C  7.71000 2.94300 24.88600
C  7.78300 2.12600 23.52100
C  8.83300 0.98900 23.75600
C  8.99300 1.12700 25.27800
C  6.38800 1.47400 23.10200
C  10.20700 1.40300 23.11700
C  10.64000 0.38100 22.02300
N  9.56600 1.11400 28.24800
C  9.99000 0.13100 27.34600
C  10.84500 -0.83100 28.14800
C  10.69600 -0.44100 29.43600
C  9.85400 0.72700 29.43900
C  11.58700 -1.99000 27.65000
C  11.11200 -0.70500 30.76700
O  11.85600 -1.59400 31.13700
C  10.45400 0.43000 31.73100
C  9.49000 -0.26100 32.68200
O  8.31100 -0.54600 32.45900
O  10.05400 -0.46600 33.87900
C  9.27200 -1.08900 34.95400
H  7.17800 6.38100 30.26700
H  6.78000 4.52500 24.06100
H  10.15800 -0.73500 25.42000
H  8.33800 2.61400 33.21800
H  8.87800 5.32700 32.16100
H  7.13800 6.00800 33.14000
H  6.82300 4.29200 33.62900
H  5.92500 5.01400 32.33300
H  10.92500 3.37700 32.29300
H  10.27900 2.51900 33.72400
H  9.45700 5.04900 34.28200
H  10.87100 5.40400 33.50400
H  7.17100 8.81800 28.19600
H  6.27700 7.90900 29.33400
H  5.46700 8.64500 27.90700
H  4.38900 8.37200 26.14400
H  4.85500 9.07200 24.61800
H  6.06300 9.13400 25.78200
H  8.05300 2.87000 22.77200
H  8.54100 -0.04300 23.55800
H  5.74700 1.77900 23.92900
H  6.49600 0.39000 23.12600
H  6.04100 1.71800 22.09800
H  10.95200 1.40300 23.91200
H  10.18300 2.45300 22.82600
H  9.94000 -0.42700 21.80900
H  11.42800 -0.14200 22.56500
H  11.13300 0.82500 21.15900
H  12.13600 -1.62900 26.78000
H  10.92400 -2.72900 27.20000
H  12.27700 -2.37700 28.40000
H  11.23200 0.96100 32.28000
H  9.93000 -1.68900 35.58100
H  8.54200 -1.72200 34.44800
H  8.71100 -0.38100 35.56400
Mg -11.04000 40.76600 41.71900
C  -10.00100 37.57300 41.07300
C  -8.36900 42.14800 40.22000
C  -12.58400 43.86800 41.96700
C  -14.29300 39.41700 42.72400
N  -9.50400 39.89100 40.49200
C  -9.06600 38.56800 40.57500
C  -7.73300 38.40600 39.93000
C  -7.15200 39.88800 40.07800
C  -8.46100 40.71400 40.24900
C  -6.01300 40.04100 41.11400
C  -7.85700 37.85900 38.43800
C  -7.13900 36.51300 38.12300
H  -6.02400 36.52400 36.97600
N  -10.45400 42.79400 41.23700
C  -9.31900 43.09100 40.65500
C  -9.24200 44.50100 40.57400
C  -10.44200 45.01900 41.04400
C  -11.26700 43.84900 41.36600
C  -8.10100 45.30900 39.96500
C  -10.75200 46.51800 41.13800
O  -9.89600 47.26900 40.78600
C  -12.13600 47.00400 41.54800
N  -13.25200 41.52700 42.04900
C  -13.47900 42.84400 42.18700
C  -14.90700 43.10600 42.66200
C  -15.46200 41.69300 42.72600
C  -14.25800 40.82300 42.50900
C  -14.92900 43.82700 44.13300
C  -16.62800 41.53500 41.75700
C  -17.75600 40.65200 42.32400
N  -11.96400 38.88100 42.01800
C  -13.21200 38.54400 42.41600
C  -13.27400 37.15800 42.54400
C  -12.01800 36.67000 42.00000
C  -11.30900 37.82500 41.66600
C  -14.40900 36.30500 42.97700
C  -11.19700 35.48100 41.65100
O  -11.37600 34.24700 41.71000
C  -9.98900 36.13100 40.79600
C  -8.76600 35.45600 41.26100
O  -8.06300 35.75900 42.26700
O  -8.56800 34.31300 40.50400
C  -7.61000 33.32600 41.06400
H  -7.37000 42.49000 39.94000
H  -13.13700 44.80500 42.05400
H  -15.19600 38.97600 43.15200
H  -7.21300 37.72900 40.60800
H  -6.75500 40.12900 39.09200
H  -5.54900 39.08700 41.36600
H  -6.31400 40.59100 42.00600
H  -5.21900 40.61500 40.63700
H  -7.53400 38.63900 37.75000
H  -8.89900 37.63900 38.20700
H  -7.89600 35.75900 37.90700
H  -6.51200 36.16800 38.94500
H  -7.30300 44.62200 39.68600
H  -7.68100 45.85200 40.81200
H  -8.51700 45.99600 39.22800
H  -12.85100 46.51000 40.89000
H  -12.27700 48.07700 41.41800
H  -12.21600 46.76100 42.60800
H  -15.25900 43.84000 41.93800
H  -15.87400 41.55000 43.72500
H  -15.07800 43.10700 44.93800
H  -15.70200 44.59100 44.05600
H  -13.94600 44.28000 44.26200
H  -16.42100 41.00800 40.82500
H  -17.05800 42.50900 41.52300
H  -18.49400 41.29800 42.80000
H  -17.35800 39.95700 43.06300
H  -18.25000 40.00000 41.60400
H  -14.69400 36.50800 44.00900
H  -14.14900 35.27800 42.71800
H  -15.25100 36.51800 42.31900
H  -10.14200 35.84900 39.75500
H  -6.60600 33.72200 41.21700
H  -7.64400 32.47200 40.38800
H  -8.00400 32.93800 42.00300

