158

Mg 17.11800 -1.96200 27.35500
C  15.97000 -0.09700 30.11600
C  19.39600 -3.59600 29.43700
C  18.67100 -3.23600 24.64200
C  15.28300 0.22000 25.33600
N  17.64100 -1.76500 29.54100
C  16.95500 -0.97700 30.47200
C  17.66500 -1.13500 31.84600
C  18.79100 -2.21200 31.58400
C  18.66900 -2.55900 30.06100
C  20.24700 -1.79200 31.88100
C  16.67100 -1.58800 32.98900
C  16.63000 -0.78700 34.22300
H  17.79800 -0.03200 34.70700
N  18.70500 -3.40100 27.05800
C  19.40600 -4.03300 28.09400
C  20.21300 -5.11300 27.50800
C  19.93500 -5.02300 26.09900
C  19.15500 -3.80600 25.84600
C  21.13800 -6.02200 28.27900
C  20.41900 -5.96100 24.97700
O  20.19600 -5.71900 23.83700
C  21.05800 -7.21900 25.32900
N  17.06900 -1.52600 25.24500
C  17.81100 -2.19000 24.35000
C  17.44300 -1.78500 22.91000
C  16.28400 -0.72500 23.12300
C  16.17700 -0.69900 24.66700
C  18.72500 -1.34800 22.15300
C  14.93900 -0.76900 22.25600
C  14.93600 -0.07600 20.85600
N  15.74600 -0.44600 27.58800
C  15.01300 0.28800 26.68000
C  14.21000 1.21500 27.38700
C  14.53000 1.10300 28.72600
C  15.52700 0.08000 28.82100
C  13.42300 2.28900 26.78100
C  14.24300 1.64700 29.98700
O  13.48700 2.52500 30.44700
C  15.20400 0.95500 31.01100
C  16.05300 1.99200 31.62300
O  16.87700 2.71400 31.07500
O  15.68600 2.18800 32.88600
C  16.32800 3.39700 33.48200
H  20.05300 -4.14500 30.11500
H  19.02600 -3.76600 23.75600
H  14.82100 0.94800 24.66600
H  18.13200 -0.20500 32.17100
H  18.57400 -3.14600 32.10100
H  20.29600 -0.76400 32.24100
H  20.91700 -1.93800 31.03300
H  20.68800 -2.43500 32.64300
H  16.74800 -2.63400 33.28500
H  15.66400 -1.41000 32.61300
H  16.21300 -1.39100 35.02800
H  15.82600 -0.07400 34.04100
H  22.17500 -5.98300 27.94600
H  20.72900 -7.02800 28.18400
H  21.20200 -5.80300 29.34500
H  22.10700 -7.09000 25.59500
H  21.03800 -7.69800 24.35000
H  20.41500 -7.65400 26.09400
H  17.11300 -2.73800 22.49600
H  16.71100 0.25600 22.91500
H  19.59300 -1.18200 22.79100
H  18.48100 -0.39700 21.67900
H  19.01100 -1.99600 21.32400
H  14.10700 -0.40400 22.85900
H  14.73400 -1.81900 22.04600
H  14.21700 0.73400 20.73400
H  14.61100 -0.82300 20.13200
H  15.93500 0.28200 20.60700
H  12.65600 1.89300 26.11500
H  14.12000 2.86300 26.17100
H  12.96700 2.91200 27.55000
H  14.56600 0.54100 31.79100
H  15.81400 4.31500 33.19800
H  17.39300 3.62400 33.42200
H  16.18700 3.38500 34.56300
Mg 27.34600 49.97200 26.34500
C  25.28300 51.06700 29.01300
C  29.56600 48.84600 28.56100
C  29.36700 49.32600 23.62400
C  25.23200 51.79700 24.17200
N  27.41000 50.05400 28.56100
C  26.44300 50.44500 29.41500
C  26.75500 50.01400 30.85800
C  28.30300 49.56300 30.78200
C  28.46500 49.44400 29.21300
C  29.39400 50.50300 31.50000
C  25.71900 48.93000 31.34000
C  25.26500 48.91400 32.83300
H  26.19000 49.66700 33.79400
N  29.11000 49.14900 26.13800
C  29.93700 48.75100 27.20700
C  31.07700 48.09300 26.68400
C  31.05500 48.25200 25.25200
C  29.83900 49.01100 24.95000
C  32.15500 47.44600 27.53600
C  32.23700 47.90100 24.33200
O  32.12000 48.04600 23.10000
C  33.55700 47.44300 24.86400
N  27.33400 50.57500 24.20600
C  28.22100 50.07400 23.30100
C  27.73600 50.27000 21.88700
C  26.23200 50.80500 22.13800
C  26.25000 51.09900 23.59900
C  28.66000 51.18800 21.05300
C  25.20500 49.80400 21.67900
C  24.24800 50.30900 20.55500
N  25.61900 51.23200 26.53000
C  24.87000 51.93200 25.51300
C  23.75200 52.49400 26.08900
C  23.88900 52.21800 27.48700
C  25.01200 51.44800 27.68500
C  22.59000 53.15100 25.33200
C  23.27100 52.44900 28.75600
O  22.22400 53.05500 29.09300
C  24.17500 51.66200 29.90100
C  24.73300 52.72800 30.78400
O  25.80100 53.27200 30.65200
O  23.80400 53.12500 31.71200
C  24.13400 54.33000 32.43900
H  30.28400 48.56800 29.33500
H  30.03600 49.15800 22.77800
H  24.51500 52.27500 23.50000
H  26.69200 50.91300 31.47200
H  28.38800 48.57200 31.22700
H  29.91500 49.90100 32.24500
H  28.82000 51.25600 32.04000
H  30.05800 50.89000 30.72700
H  26.12000 47.94900 31.08400
H  24.83100 49.01200 30.71400
H  25.31700 47.88900 33.20300
H  24.21800 49.21600 32.86300
H  33.05000 48.06200 27.62400
H  32.39100 46.49600 27.05700
H  31.94700 47.31200 28.59800
H  34.20400 47.31100 23.99600
H  33.55000 46.49800 25.40700
H  33.89600 48.31400 25.42400
H  27.76000 49.28200 21.42800
H  26.17500 51.74900 21.59600
H  29.49200 51.61200 21.61500
H  28.09600 52.05900 20.71900
H  29.05000 50.65700 20.18400
H  24.59200 49.52700 22.53600
H  25.59100 48.81100 21.45000
H  24.25500 49.53200 19.79000
H  24.48900 51.23300 20.03000
H  23.25400 50.47600 20.97100
H  21.70700 53.32800 25.94800
H  22.29200 52.34500 24.66300
H  23.01700 53.98200 24.77100
H  23.72200 50.93600 30.57500
H  24.62800 55.07300 31.81300
H  24.76600 54.06800 33.28800
H  23.28100 54.77900 32.94800

