158

Mg 41.54800 41.20100 26.75000
C  40.79400 43.38800 29.47400
C  42.61800 38.90400 29.05000
C  42.65600 39.28800 24.21800
C  40.77300 43.82600 24.55600
N  41.70500 41.13900 29.06700
C  41.16800 42.13900 29.89700
C  41.36900 41.57500 31.37300
C  42.11300 40.15100 31.29700
C  42.17500 40.04100 29.73100
C  43.37900 39.99300 32.03700
C  40.06500 41.59900 32.13000
C  40.20400 41.40400 33.63600
H  39.54600 42.50600 34.52300
N  42.45900 39.31800 26.61400
C  42.81900 38.52900 27.67100
C  43.43400 37.27600 27.14600
C  43.45700 37.34100 25.72400
C  42.80300 38.70900 25.45000
C  43.96100 36.18600 28.07500
C  44.04600 36.32300 24.75000
O  44.04600 36.55300 23.50100
C  44.89100 35.14000 25.17200
N  41.80300 41.58900 24.71700
C  42.14900 40.55900 23.87900
C  41.97400 40.99900 22.46100
C  41.11700 42.31500 22.50000
C  41.23000 42.58300 24.01900
C  43.32000 41.37100 21.61900
C  39.63700 42.27400 22.02000
C  38.81700 41.06400 22.45600
N  40.95000 43.19500 26.93000
C  40.74300 44.21100 25.89000
C  40.44600 45.45800 26.49900
C  40.28500 45.13200 27.91000
C  40.72700 43.76900 28.11600
C  40.13100 46.72900 25.84100
C  39.84100 45.73200 29.22300
O  39.44100 46.86800 29.53000
C  40.14000 44.54600 30.24500
C  41.16200 45.22200 31.13900
O  42.20000 45.65700 30.70200
O  40.80000 45.31700 32.46300
C  41.85400 45.97200 33.38600
H  42.97000 38.19800 29.80600
H  43.08800 38.73900 23.37900
H  40.37700 44.63500 23.93800
H  42.09300 42.27100 31.79600
H  41.43500 39.33200 31.54100
H  43.87500 40.94400 32.23200
H  43.99900 39.36200 31.39900
H  43.28000 39.44900 32.97700
H  39.48500 40.74400 31.78300
H  39.59300 42.58000 32.08400
H  41.27000 41.25000 33.80900
H  39.75000 40.45600 33.92300
H  44.97600 35.90900 27.78900
H  43.35600 35.30400 27.86100
H  43.95300 36.36800 29.14900
H  44.97400 34.39200 24.38400
H  44.33100 34.70400 25.99900
H  45.86700 35.58800 25.35900
H  41.57200 40.18500 21.85600
H  41.56200 43.14600 21.95100
H  44.15400 40.93100 22.16700
H  43.46600 42.44500 21.50400
H  43.35100 41.04500 20.57900
H  39.65300 42.26500 20.93000
H  39.05800 43.15900 22.28300
H  38.63400 40.51200 21.53400
H  37.87600 41.31000 22.94700
H  39.43600 40.40100 23.06200
H  40.31100 46.70600 24.76600
H  40.74200 47.53400 26.24900
H  39.08800 46.96000 26.05700
H  39.22300 44.45000 30.82500
H  42.02100 45.30200 34.22900
H  41.52400 46.94900 33.73900
H  42.81500 46.06300 32.88000
Mg 30.67200 58.54300 40.58300
C  28.06300 56.49100 39.42800
C  32.99800 55.98600 39.81200
C  33.20700 60.80900 40.68700
C  28.37400 61.16500 40.71200
N  30.47400 56.43600 39.81800
C  29.32600 55.83000 39.32000
C  29.65300 54.44600 38.78800
C  31.17200 54.29200 39.36200
C  31.57000 55.68500 39.73900
C  31.32200 53.23400 40.49100
C  29.48200 54.27700 37.22100
C  28.34000 53.39400 36.69100
H  27.46100 54.02800 35.58900
N  32.86400 58.36700 40.35200
C  33.62000 57.20400 40.14100
C  34.96400 57.52500 40.20900
C  35.09900 58.95500 40.38600
C  33.67100 59.46500 40.50600
C  36.03200 56.50700 39.90300
C  36.37500 59.75400 40.34000
O  37.45300 59.20600 40.28100
C  36.31800 61.26000 40.35700
N  30.75200 60.59800 40.82500
C  31.88400 61.29100 40.95300
C  31.64600 62.86000 41.12400
C  30.11200 62.90400 41.15100
C  29.70300 61.45600 40.85900
C  32.22000 63.44600 42.47200
C  29.49800 63.92600 40.20100
C  28.31300 64.76900 40.78900
N  28.62300 58.82300 40.27700
C  27.81500 59.92500 40.36400
C  26.42900 59.54300 40.13000
C  26.51500 58.26200 39.80600
C  27.89300 57.82900 39.75300
C  25.23000 60.56400 40.16200
C  25.68900 57.12800 39.39900
O  24.46100 57.04500 39.37500
C  26.69100 55.94600 39.18100
C  26.20100 54.79600 40.03800
O  26.73800 54.31000 41.01900
O  25.01600 54.35400 39.56000
C  24.45900 53.12400 40.18800
H  33.62500 55.10900 39.63500
H  33.97400 61.58600 40.71900
H  27.73600 62.02500 40.93000
H  28.96100 53.79700 39.32300
H  31.85000 54.06500 38.54000
H  32.04400 52.55000 40.04500
H  30.47200 52.56900 40.64400
H  31.61800 53.64900 41.45500
H  30.36100 53.85400 36.73400
H  29.27000 55.21100 36.70100
H  27.62600 53.19500 37.49000
H  28.79900 52.46700 36.34700
H  35.64500 55.56100 39.52500
H  36.51000 56.24000 40.84600
H  36.81700 56.85700 39.23200
H  35.71100 61.71500 39.57400
H  37.33300 61.62200 40.19100
H  35.97200 61.41600 41.37800
H  31.92500 63.40800 40.22400
H  29.72600 63.15100 42.14000
H  33.16000 62.98200 42.77000
H  31.50300 63.24800 43.26900
H  32.54200 64.46300 42.24900
H  29.16700 63.34300 39.34100
H  30.21900 64.67200 39.86300
H  28.71200 65.70700 41.17500
H  27.81600 64.27000 41.62100
H  27.56900 64.93300 40.01000
H  24.34000 60.06800 39.77500
H  25.44900 61.37300 39.46400
H  25.08800 60.81300 41.21300
H  26.58600 55.72400 38.11900
H  23.91300 53.53700 41.03600
H  25.25900 52.47200 40.54200
H  23.78200 52.55900 39.54800

