158

Mg 9.49300 3.51300 27.96400
C  10.61400 1.99100 31.06800
C  7.83700 5.72700 30.03300
C  7.94500 4.56800 25.25300
C  10.90800 0.82000 26.20700
N  9.18800 3.73100 30.41800
C  9.92700 3.15900 31.43100
C  9.61000 3.80500 32.82700
C  8.61100 4.91900 32.39500
C  8.46300 4.75900 30.83200
C  7.22300 5.03100 33.03500
C  10.91700 4.36300 33.55300
C  11.33500 3.51900 34.77200
H  11.56100 4.48000 35.95400
N  8.15600 4.95600 27.66400
C  7.61500 5.82400 28.58600
C  6.81000 6.81300 27.87100
C  6.79100 6.47200 26.49800
C  7.69400 5.39000 26.41400
C  5.91700 7.74800 28.58300
C  6.11600 7.19100 25.29100
O  6.12000 6.83900 24.15500
C  5.42100 8.47500 25.68700
N  9.41200 2.77400 26.03000
C  8.69100 3.39300 25.07800
C  8.78700 2.57900 23.71400
C  9.78200 1.51700 24.04600
C  10.03000 1.66300 25.56100
C  7.43400 2.14000 23.10300
C  11.05700 1.40100 23.16600
C  10.94700 0.85100 21.73300
N  10.59800 1.81500 28.46700
C  11.17800 0.84500 27.60800
C  11.88500 -0.13200 28.43700
C  11.68500 0.23800 29.81300
C  10.87300 1.40500 29.79800
C  12.59300 -1.42300 27.99700
C  12.01800 -0.04000 31.19800
O  12.72100 -0.89700 31.64600
C  11.33200 1.09500 32.06700
C  10.46400 0.55600 33.13700
O  9.24900 0.40600 33.06500
O  11.23000 0.27100 34.21500
C  10.53000 -0.27400 35.30700
H  7.26300 6.43200 30.63700
H  7.57400 4.92700 24.29000
H  11.40200 0.02400 25.64600
H  8.98900 3.30600 33.57100
H  9.08200 5.90100 32.41900
H  7.12900 4.74200 34.08200
H  6.52000 4.49000 32.40000
H  6.80900 6.02900 32.89300
H  10.87800 5.41500 33.83200
H  11.68100 4.22100 32.78800
H  12.22000 2.92500 34.54700
H  10.54700 2.82200 35.06000
H  4.91200 7.33700 28.48100
H  5.85300 8.76500 28.19400
H  6.02600 7.89100 29.65800
H  4.61500 8.23600 26.38100
H  4.80200 8.76800 24.83900
H  6.09600 9.27600 25.99100
H  9.22200 3.29000 23.01100
H  9.30400 0.53800 24.05300
H  6.78300 1.58300 23.77700
H  7.49900 1.59200 22.16300
H  6.90400 3.07600 22.93200
H  11.77400 0.75700 23.67600
H  11.42800 2.42500 23.13400
H  9.88200 0.84200 21.50200
H  11.31300 -0.17400 21.66800
H  11.58100 1.48300 21.11100
H  12.87600 -1.31200 26.95000
H  12.02500 -2.33100 28.19500
H  13.46700 -1.47400 28.64700
H  12.20300 1.64300 32.42500
H  9.69400 0.39800 35.50000
H  11.22300 -0.14300 36.13700
H  10.26500 -1.31800 35.13500
Mg -1.30900 34.53600 26.71100
C  -3.02000 32.75700 29.31600
C  -0.29400 36.73200 28.95800
C  -0.26800 36.39200 24.24700
C  -2.94900 32.32400 24.45900
N  -1.75300 34.71100 28.91200
C  -2.31100 33.82400 29.80600
C  -2.09400 34.19900 31.31600
C  -1.27300 35.58700 31.05100
C  -1.00400 35.68700 29.56200
C  -1.93600 36.91300 31.54200
C  -1.33300 33.11900 32.12000
C  -2.17200 32.49300 33.28700
H  -1.43700 32.24200 34.63600
N  -0.30500 36.28500 26.58800
C  0.05700 37.05200 27.64400
C  0.88800 38.12800 27.21400
C  0.99000 38.03600 25.78700
C  0.12200 36.88200 25.46100
C  1.53800 39.20800 28.10600
C  1.70300 38.86500 24.81500
O  1.72200 38.73000 23.59600
C  2.62400 39.95700 25.21500
N  -1.61800 34.33400 24.65000
C  -0.98400 35.21000 23.85700
C  -1.12600 34.80200 22.34300
C  -1.80900 33.38100 22.42300
C  -2.15900 33.33100 23.90900
C  -1.89300 35.85400 21.39800
C  -1.01100 32.14900 21.87100
C  0.36600 32.02300 22.50100
N  -2.68100 32.79500 26.84200
C  -3.25600 32.08600 25.85000
C  -4.20600 31.08100 26.42100
C  -4.06100 31.27700 27.82400
C  -3.11900 32.28700 28.02200
C  -5.04600 29.98500 25.77200
C  -4.48600 30.80900 29.09200
O  -5.28100 29.91700 29.46900
C  -3.93200 31.76000 30.14600
C  -4.98000 32.36700 30.95400
O  -5.62400 33.40400 30.62600
O  -5.12900 31.70600 32.17800
C  -5.69100 32.47900 33.24400
H  0.14900 37.45400 29.64600
H  0.12100 36.94300 23.38900
H  -3.19200 31.43700 23.87100
H  -3.05900 34.41700 31.77400
H  -0.29600 35.51400 31.53000
H  -1.35400 37.41500 32.31500
H  -2.87900 36.53700 31.93700
H  -2.15800 37.59200 30.71900
H  -0.47700 33.61700 32.57600
H  -0.83500 32.41800 31.45000
H  -2.55800 31.51600 32.99500
H  -2.99700 33.14600 33.57300
H  1.07000 40.13900 27.78700
H  2.61100 39.24400 27.91900
H  1.37800 39.00200 29.16500
H  3.09700 40.23800 24.27400
H  3.36500 39.52500 25.88800
H  2.14200 40.70200 25.84800
H  -0.11800 34.64700 21.95900
H  -2.74500 33.16300 21.90900
H  -1.18000 36.26500 20.68300
H  -2.26900 36.73600 21.91600
H  -2.79800 35.46700 20.92800
H  -0.99000 32.19200 20.78200
H  -1.50300 31.18300 21.98300
H  1.17000 32.56000 21.99700
H  0.71200 30.99400 22.59000
H  0.21900 32.36000 23.52700
H  -5.98200 30.08400 26.32200
H  -4.67000 28.97600 25.94200
H  -5.15300 30.16200 24.70200
H  -3.29000 31.23600 30.85400
H  -6.21000 31.79300 33.91300
H  -6.46100 33.19100 32.94700
H  -5.01100 33.06800 33.86100

