158

Mg 25.34800 0.51400 29.39600
C  27.42200 0.86000 32.26800
C  22.63100 1.15300 31.61300
C  23.38300 0.73700 26.84000
C  28.20600 0.00600 27.42300
N  25.03700 1.13700 31.68300
C  26.06000 1.06700 32.63300
C  25.48600 1.33000 34.00500
C  23.94900 1.20600 33.78700
C  23.85900 1.11600 32.25400
C  23.16500 0.11900 34.49100
C  26.02700 2.64000 34.63500
C  26.74900 2.41600 36.04100
H  26.36600 3.41000 37.20700
N  23.21200 0.97200 29.20200
C  22.32500 1.19500 30.23100
C  21.08200 1.42400 29.62200
C  21.19200 1.18400 28.18300
C  22.64100 0.96700 28.00300
C  19.73400 1.62600 30.34700
C  20.14200 1.17400 27.11300
O  20.48500 1.03500 25.96700
C  18.71000 1.35600 27.39100
N  25.77200 0.29700 27.30700
C  24.74200 0.39300 26.48400
C  25.20800 0.15800 25.07300
C  26.84700 0.07900 25.22200
C  26.95600 0.14000 26.68100
C  24.47300 -0.93000 24.28400
C  27.58800 1.28800 24.55700
C  28.98400 1.02100 24.02200
N  27.39300 0.28100 29.74600
C  28.43500 0.08700 28.84200
C  29.67000 -0.07000 29.58700
C  29.28600 0.26500 30.93300
C  27.93900 0.46700 30.96800
C  30.98300 -0.23800 28.96300
C  29.79000 0.46100 32.25800
O  30.94600 0.38400 32.64100
C  28.55400 0.80300 33.17400
C  28.48700 -0.24700 34.14900
O  27.67600 -1.18800 34.05800
O  29.43300 -0.01000 35.16500
C  29.15200 -0.83500 36.35400
H  21.75000 1.11000 32.25800
H  22.72300 0.79200 25.97100
H  29.03000 -0.25600 26.75700
H  25.86500 0.50500 34.60900
H  23.40600 2.08400 34.13600
H  22.21900 0.60400 34.73200
H  23.65500 -0.41700 35.30400
H  22.94100 -0.68400 33.79000
H  25.18200 3.32100 34.72400
H  26.73500 3.12000 33.95900
H  27.77100 2.71100 35.80100
H  26.81500 1.38900 36.39900
H  19.86200 1.73600 31.42300
H  19.03500 0.85100 30.03100
H  19.36400 2.53000 29.86400
H  18.35000 0.53500 28.01100
H  18.16000 1.19500 26.46400
H  18.53600 2.28900 27.92800
H  25.03900 1.08200 24.51900
H  27.21700 -0.88900 24.88200
H  23.71800 -1.24100 25.00600
H  25.18600 -1.65400 23.89000
H  23.81900 -0.46600 23.54600
H  27.52300 2.12100 25.25700
H  26.99200 1.46000 23.66100
H  28.88400 1.23900 22.95900
H  29.26400 -0.01700 24.19900
H  29.76900 1.63700 24.45900
H  30.93500 0.15500 27.94800
H  31.19100 -1.30700 28.91600
H  31.63900 0.33700 29.61600
H  28.76100 1.73900 33.69300
H  29.45100 -1.83500 36.04000
H  28.17300 -0.61900 36.78100
H  29.76500 -0.43400 37.16200
Mg 46.67900 16.73900 28.55100
C  44.93200 16.20400 31.40000
C  49.08200 18.31400 30.34100
C  48.17800 17.61500 25.58000
C  44.08000 15.21400 26.61100
N  46.89400 17.37500 30.60600
C  46.04000 16.94600 31.66400
C  46.54900 17.44200 33.01500
C  47.78100 18.34800 32.50400
C  47.95500 18.02400 31.02200
C  47.73000 19.91300 32.59200
C  47.13800 16.31400 33.92200
C  47.65600 16.85600 35.30500
H  47.27700 18.29400 35.70900
N  48.34000 17.91000 28.09500
C  49.25500 18.39500 28.94000
C  50.35000 18.96800 28.17700
C  50.10300 18.80800 26.76300
C  48.81700 18.10000 26.76100
C  51.62100 19.52700 28.96400
C  50.90200 19.24700 25.55400
O  50.38400 19.24000 24.46200
C  52.29900 19.79100 25.71000
N  46.24000 16.48900 26.36500
C  47.01800 16.88400 25.40000
C  46.34700 16.72000 24.06800
C  45.04200 15.91600 24.40300
C  45.14700 15.76000 25.88600
C  46.07400 18.06900 23.27700
C  44.97000 14.49100 23.73800
C  45.71600 13.35900 24.47700
N  44.88200 15.87900 28.86900
C  43.95000 15.28900 28.01300
C  42.88200 14.72800 28.81400
C  43.21900 15.05000 30.13500
C  44.45400 15.76400 30.09500
C  41.74000 13.90500 28.34600
C  42.80100 14.99500 31.53800
O  41.68600 14.74300 32.05800
C  43.96800 15.67800 32.40700
C  43.43200 16.92200 33.18700
O  43.19600 17.99300 32.73800
O  43.15000 16.55500 34.51400
C  42.79600 17.57700 35.44600
H  49.95000 18.73800 30.85000
H  48.68000 17.71800 24.61600
H  43.30900 14.68200 26.05000
H  45.72400 17.98900 33.47200
H  48.75000 18.12100 32.94900
H  46.92100 20.24000 33.24600
H  47.46600 20.29700 31.60700
H  48.74100 20.22000 32.85800
H  48.03100 15.92100 33.43400
H  46.38100 15.55900 34.13400
H  48.72800 16.65900 35.27300
H  47.21800 16.16400 36.02400
H  51.72500 18.92500 29.86600
H  51.56900 20.57700 29.25400
H  52.58300 19.40800 28.46500
H  52.24000 20.69600 26.31400
H  52.75200 20.12700 24.77800
H  52.89800 18.98300 26.13100
H  46.99000 16.08800 23.45500
H  44.21600 16.58500 24.15900
H  45.03200 18.10000 22.96000
H  46.62800 18.03600 22.33800
H  46.39100 18.92300 23.87600
H  45.50400 14.56300 22.79100
H  43.93200 14.22700 23.53800
H  46.33900 12.80000 23.77900
H  44.89200 12.82700 24.95200
H  46.39300 13.78500 25.21800
H  42.21000 13.40600 27.49800
H  40.93200 14.54700 27.99500
H  41.59700 13.11600 29.08400
H  44.33800 14.85200 33.01500
H  41.73300 17.65200 35.67400
H  43.08200 18.55500 35.05800
H  43.35200 17.37900 36.36200

