158

Mg 1.08800 7.90700 26.87100
C  2.14000 9.57900 29.66000
C  0.54200 5.15300 28.94900
C  0.82400 5.98500 24.11200
C  1.60700 10.55900 24.90100
N  1.31900 7.43000 29.14600
C  1.66200 8.30400 30.06800
C  1.42300 7.79900 31.50400
C  1.19900 6.18100 31.11800
C  0.98400 6.23600 29.63300
C  2.54100 5.33300 31.44700
C  0.32500 8.44900 32.41100
C  0.69600 8.91400 33.80800
H  1.90700 8.21500 34.56700
N  0.70800 5.86500 26.59300
C  0.45000 4.95100 27.57300
C  0.01200 3.74000 26.98800
C  0.09900 3.86600 25.55400
C  0.63300 5.22600 25.36300
C  -0.42000 2.55400 27.78000
C  -0.38500 2.98500 24.43700
O  -0.39900 3.43000 23.27500
C  -0.84000 1.60900 24.61200
N  0.93300 8.24700 24.75900
C  0.98900 7.35800 23.73900
C  0.86600 8.01700 22.31700
C  0.78000 9.52600 22.78900
C  1.19900 9.44200 24.22900
C  2.12900 7.57600 21.38800
C  -0.59700 10.16900 22.57200
C  -0.70800 11.61200 21.89400
N  1.72700 9.68700 27.17800
C  1.84000 10.74700 26.29900
C  2.28900 11.90800 27.02900
C  2.38800 11.45600 28.37000
C  2.06300 10.11600 28.42300
C  2.46100 13.31800 26.51800
C  2.77800 12.02600 29.67000
O  3.09400 13.14600 30.05800
C  2.65000 10.73100 30.56800
C  3.94100 10.42400 31.30500
O  4.85600 9.75800 30.93500
O  3.97000 11.06900 32.53800
C  5.01600 11.04700 33.57600
H  0.20400 4.33900 29.59400
H  0.67800 5.40900 23.19600
H  1.78800 11.48200 24.34600
H  2.37600 7.82200 32.03300
H  0.31200 5.62000 31.41200
H  2.48200 4.78000 32.38500
H  3.39200 6.01100 31.39200
H  2.82300 4.73700 30.57900
H  -0.40300 7.65100 32.55900
H  -0.04200 9.33700 31.89700
H  -0.11300 8.80300 34.53000
H  1.06900 9.93100 33.68800
H  -1.50300 2.60600 27.89400
H  -0.09800 2.48000 28.81900
H  -0.26400 1.64700 27.19700
H  -1.45400 1.55400 25.51100
H  0.02500 0.96300 24.76100
H  -1.37800 1.17600 23.76800
H  -0.09600 7.70000 21.91500
H  1.58500 10.06800 22.29300
H  2.94100 8.29200 21.52000
H  1.89400 7.64000 20.32600
H  2.48600 6.59600 21.70600
H  -1.17000 10.25000 23.49500
H  -1.22000 9.48800 21.99200
H  -1.01900 12.33200 22.65100
H  -1.39400 11.70700 21.05200
H  0.21700 12.06400 21.53700
H  2.08500 13.35200 25.49600
H  3.52400 13.48500 26.69300
H  1.91100 14.11000 27.02700
H  1.96200 11.06900 31.34300
H  5.36600 12.06800 33.73200
H  5.76000 10.29600 33.31000
H  4.51500 10.74400 34.49500
Mg 54.66700 23.49200 44.13700
C  52.37800 26.12600 43.43200
C  52.40000 21.39700 42.94100
C  57.15400 21.08400 43.97400
C  57.16900 25.85500 44.87200
N  52.51700 23.80000 43.57400
C  51.85400 24.89300 43.15100
C  50.40200 24.60600 42.80300
C  50.44000 23.03900 42.74600
C  51.86700 22.64800 43.11800
C  49.44100 22.41600 43.74400
C  49.78000 25.42000 41.62800
C  48.60000 24.76000 40.85500
H  48.84000 24.18200 39.48400
N  54.75900 21.48500 43.62100
C  53.69600 20.77200 43.11900
C  54.09100 19.42500 42.75500
C  55.45600 19.33800 42.95800
C  55.85700 20.70400 43.54600
C  53.09200 18.45400 42.12100
C  56.31300 18.10700 42.69400
O  55.84600 17.11500 42.11300
C  57.70700 17.99100 43.14400
N  56.82800 23.49800 44.47600
C  57.61800 22.35500 44.43800
C  59.04400 22.69100 44.91900
C  59.14200 24.22600 44.90500
C  57.63500 24.57300 44.73100
C  59.59300 22.02500 46.24900
C  60.08200 24.81200 43.82200
C  60.74300 26.17700 44.09400
N  54.77000 25.52000 44.28500
C  55.89600 26.34600 44.71700
C  55.43300 27.70700 44.71100
C  54.06800 27.66800 44.24700
C  53.70500 26.33700 44.00200
C  56.20900 28.98700 44.98900
C  52.90400 28.50300 43.95600
O  52.69200 29.65300 44.09200
C  51.85600 27.53500 43.32500
C  51.65500 27.91800 41.97700
O  52.26800 27.51800 40.97800
O  50.55700 28.72900 41.96200
C  50.06600 29.01500 40.64100
H  51.58100 20.76700 42.58900
H  57.99100 20.38800 44.05800
H  57.83900 26.70800 45.00100
H  49.83800 24.96200 43.66500
H  50.19700 22.67500 41.74800
H  49.95400 21.84600 44.51800
H  48.65700 21.80100 43.30300
H  48.89900 23.17800 44.30400
H  50.60400 25.55300 40.92700
H  49.61900 26.41500 42.04300
H  47.84000 25.52100 40.68000
H  48.07800 24.08000 41.52900
H  52.99600 18.87700 41.12200
H  52.16400 18.70000 42.63800
H  53.31800 17.38800 42.08400
H  58.23600 18.85300 42.73600
H  58.20800 17.11100 42.74100
H  57.83000 17.91800 44.22400
H  59.70500 22.32700 44.13300
H  59.50900 24.60900 45.85700
H  60.22600 21.18400 45.96400
H  58.73800 21.60800 46.78000
H  60.23600 22.76500 46.72600
H  59.47500 24.91300 42.92300
H  60.88900 24.08400 43.73300
H  60.09400 27.05100 44.04500
H  61.44000 26.44700 43.30100
H  61.24200 26.14200 45.06300
H  56.06300 29.71100 44.18800
H  57.28500 28.88900 45.13500
H  55.81400 29.56800 45.82300
H  50.89900 27.53700 43.84500
H  50.93900 29.18200 40.01000
H  49.30300 29.78800 40.54400
H  49.58100 28.14600 40.19700

