158

Mg 25.61000 0.73300 29.69400
C  27.44200 0.47100 32.56700
C  22.75200 1.40300 31.68000
C  23.69800 0.80600 26.89100
C  28.43400 -0.24300 27.82400
N  25.14900 0.79200 31.77700
C  26.16700 0.94000 32.74900
C  25.59600 1.28400 34.11200
C  24.03700 1.37700 33.93400
C  23.97700 1.16800 32.37200
C  23.20700 0.25000 34.73000
C  26.35500 2.56300 34.70500
C  27.12100 2.29800 35.95700
H  26.94300 3.35600 37.09200
N  23.56700 1.01300 29.30000
C  22.62500 1.21700 30.30100
C  21.35100 1.38300 29.61200
C  21.53500 1.25000 28.23200
C  23.01400 1.11100 28.05900
C  20.12700 1.77600 30.30500
C  20.48400 1.40000 27.07700
O  20.76100 1.16200 25.89100
C  19.07700 1.71200 27.44000
N  25.98000 0.51200 27.65600
C  25.08900 0.61800 26.65700
C  25.79100 0.37000 25.23400
C  27.26600 0.12700 25.57700
C  27.26000 0.13900 27.12100
C  25.11700 -0.86300 24.50800
C  28.21700 1.21900 24.97600
C  28.15900 1.62900 23.47900
N  27.48000 0.12100 30.08500
C  28.53800 -0.23100 29.23600
C  29.74600 -0.45500 30.02200
C  29.34500 -0.25200 31.30700
C  27.98700 0.10100 31.31400
C  31.09300 -0.95400 29.40300
C  29.80400 -0.29900 32.66800
O  30.86200 -0.57000 33.19400
C  28.58600 0.16100 33.56200
C  28.26600 -0.91300 34.58000
O  27.48500 -1.85700 34.40900
O  28.96400 -0.55900 35.68500
C  28.63900 -1.33200 36.89500
H  21.98500 1.76900 32.36600
H  23.06800 0.85300 26.00100
H  29.25700 -0.56200 27.18100
H  25.71300 0.37000 34.69300
H  23.67200 2.38000 34.15800
H  22.89700 -0.48800 33.99000
H  22.30700 0.69300 35.15800
H  23.88300 -0.09200 35.51400
H  25.62100 3.32100 34.97800
H  27.01600 2.89200 33.90300
H  28.17000 2.36400 35.67000
H  26.94700 1.28400 36.31900
H  19.45700 0.95300 30.55400
H  19.38800 2.46600 29.89800
H  20.33000 2.21600 31.28200
H  18.26800 1.62700 26.71400
H  19.19300 2.75500 27.73700
H  18.79600 1.04200 28.25200
H  25.63100 1.19500 24.53900
H  27.75000 -0.78500 25.22700
H  24.70300 -1.63700 25.15400
H  26.00300 -1.36400 24.11800
H  24.32800 -0.47800 23.86100
H  29.26800 0.96400 25.11300
H  28.10100 2.13500 25.55400
H  29.18200 1.64100 23.10200
H  27.76200 2.64300 23.51600
H  27.60500 0.96200 22.81900
H  31.35800 -0.48900 28.45400
H  30.86400 -1.98500 29.13300
H  31.99900 -0.91100 30.00800
H  28.88800 1.12000 33.98400
H  28.74100 -2.38800 36.64300
H  27.63800 -1.17200 37.29500
H  29.34500 -1.07500 37.68500
Mg 37.21100 49.95300 25.15700
C  37.47600 47.90700 28.02400
C  36.26100 52.63400 27.15400
C  36.40600 51.43400 22.36400
C  37.96600 47.03800 23.25100
N  36.88700 50.20900 27.28400
C  37.07400 49.23500 28.27600
C  36.89500 49.81100 29.69700
C  36.36600 51.26500 29.43500
C  36.48700 51.35800 27.89600
C  34.96700 51.62700 30.08300
C  38.23100 49.82400 30.48600
C  38.25500 49.14900 31.87500
H  37.06000 49.53200 32.76900
N  36.48900 51.75300 24.78600
C  36.16100 52.79200 25.74000
C  35.70300 53.92000 25.03600
C  35.67800 53.54600 23.62500
C  36.26500 52.20600 23.52800
C  35.08600 55.12100 25.67900
C  35.34200 54.42100 22.49600
O  35.38700 54.00900 21.36300
C  35.01400 55.87800 22.65900
N  37.21800 49.33400 23.12300
C  36.92200 50.18500 22.11000
C  37.14900 49.58000 20.70500
C  37.94800 48.27500 21.00600
C  37.69300 48.18400 22.59400
C  35.73700 49.40800 19.93700
C  39.50400 48.30200 20.84100
C  40.10900 47.01600 20.25400
N  37.68300 47.86200 25.54400
C  37.97300 46.87200 24.64900
C  38.12800 45.60300 25.37700
C  37.99000 45.95400 26.73900
C  37.67800 47.33100 26.81300
C  38.24500 44.25700 24.64700
C  38.08500 45.45100 28.10300
O  38.32500 44.36600 28.64700
C  37.58100 46.71700 28.96500
C  36.28400 46.36000 29.49700
O  35.18000 46.43700 28.93600
O  36.43300 46.03600 30.85000
C  35.27800 45.66000 31.59400
H  36.00600 53.57700 27.64200
H  36.11600 52.02900 21.49400
H  38.20900 46.20500 22.58700
H  36.14800 49.22500 30.23200
H  37.02400 51.98100 29.92800
H  35.07300 52.47000 30.76500
H  34.52300 50.77300 30.59500
H  34.21100 51.86000 29.33300
H  38.65400 50.79400 30.74700
H  38.98400 49.25000 29.94600
H  39.20300 49.35600 32.37200
H  38.28900 48.08800 31.62800
H  34.21100 55.50600 25.15500
H  35.82700 55.85400 25.99800
H  34.58900 54.75000 26.57400
H  34.02400 56.02400 23.09100
H  35.08900 56.36700 21.68800
H  35.73900 56.37600 23.30300
H  37.77900 50.29500 20.17600
H  37.50200 47.43100 20.47900
H  35.81900 49.72400 18.89700
H  34.99000 49.97900 20.48800
H  35.42200 48.36800 20.01600
H  39.97800 48.50500 21.80100
H  39.71700 49.15900 20.20300
H  39.48400 46.14200 20.43800
H  41.04300 46.78800 20.76800
H  40.31500 47.30100 19.22200
H  37.93800 43.48200 25.35000
H  39.32500 44.24000 24.50300
H  37.73500 44.10600 23.69500
H  38.31600 46.84800 29.75900
H  35.48800 45.36500 32.62200
H  34.86900 44.87800 30.95300
H  34.63800 46.53900 31.52600

