158

Mg 43.55100 4.12500 46.76900
C  41.80000 6.93500 46.67900
C  40.67500 2.25800 46.51200
C  45.48600 1.36000 46.39700
C  46.56500 6.08500 46.55000
N  41.49900 4.55700 46.47900
C  40.98400 5.80400 46.68500
C  39.47200 5.78600 46.43500
C  39.11300 4.31500 46.77900
C  40.53500 3.66800 46.61900
C  38.42400 3.93900 48.11200
C  39.08700 6.25800 45.00500
C  40.18000 6.26700 43.91900
H  39.68300 6.16700 42.48200
N  43.09200 2.05800 46.40500
C  41.88100 1.49900 46.42900
C  41.95800 0.07700 46.12000
C  43.33800 -0.24600 46.18300
C  44.05600 1.05700 46.36800
C  40.77900 -0.83300 46.10200
C  43.93100 -1.58400 46.08000
O  43.21300 -2.51100 45.68900
C  45.40000 -1.80100 46.32900
N  45.72100 3.79100 46.56700
C  46.26000 2.51500 46.49300
C  47.80300 2.58200 46.36900
C  48.10700 4.09100 46.44200
C  46.68500 4.73000 46.48300
C  48.63100 1.62800 47.37600
C  48.98100 4.71900 45.32000
C  50.11000 5.73700 45.74800
N  44.16700 6.12100 46.66500
C  45.35500 6.79100 46.54400
C  45.14300 8.24600 46.73100
C  43.75100 8.40400 46.71500
C  43.20700 7.02400 46.66000
C  46.23300 9.27200 46.79000
C  42.65100 9.33300 46.78400
O  42.56300 10.53800 46.82000
C  41.37500 8.40000 46.61700
C  40.49600 8.68300 47.75900
O  40.72800 8.37000 48.89900
O  39.30000 9.34200 47.36400
C  38.28800 9.42900 48.44700
H  39.79100 1.62100 46.43700
H  46.20500 0.58900 46.11400
H  47.42500 6.75300 46.47500
H  39.05100 6.48800 47.15500
H  38.39900 3.88000 46.08000
H  38.11300 4.70100 48.82700
H  39.30600 3.44200 48.51600
H  37.58900 3.26100 47.94000
H  38.83100 7.30900 45.13700
H  38.16800 5.70200 44.82100
H  40.87200 5.43200 44.03200
H  40.72100 7.21100 43.97500
H  39.86500 -0.48700 46.58500
H  40.90100 -1.81800 46.55300
H  40.53200 -0.88100 45.04200
H  45.65700 -1.27000 47.24600
H  45.82300 -1.44900 45.38800
H  45.62000 -2.84700 46.54200
H  47.99900 2.24000 45.35300
H  48.62200 4.33900 47.37100
H  49.26800 0.97600 46.77700
H  47.88200 0.99600 47.85100
H  49.23300 2.19000 48.09100
H  48.35000 5.39700 44.74600
H  49.41600 3.98500 44.64100
H  49.56700 6.22200 46.55900
H  50.34300 6.42100 44.93200
H  51.01500 5.18600 46.00600
H  47.01100 8.99800 46.07700
H  46.64000 9.13800 47.79200
H  45.81400 10.27600 46.72200
H  40.79500 8.65500 45.73000
H  37.33800 9.15700 47.98700
H  38.22400 10.45200 48.81700
H  38.17300 8.70400 49.25200
Mg 26.58700 51.01800 26.91100
C  24.23000 52.04000 29.27800
C  28.80200 50.41900 29.53000
C  28.86200 50.45300 24.57900
C  24.35700 52.18300 24.49400
N  26.36600 51.02800 29.11600
C  25.27400 51.37000 29.88100
C  25.41200 50.97400 31.38600
C  27.05400 50.81300 31.48300
C  27.47200 50.64300 29.95000
C  27.82300 51.81900 32.32200
C  24.58400 49.77000 31.75800
C  23.70000 49.92500 33.02600
H  23.63500 48.77400 33.99100
N  28.54900 50.41200 27.00700
C  29.25500 50.17800 28.19900
C  30.54500 49.70100 27.79400
C  30.67000 49.71400 26.35200
C  29.34800 50.17000 25.90500
C  31.63000 49.23000 28.85600
C  31.81000 49.30700 25.44500
O  31.83200 49.57100 24.26100
C  32.97400 48.51300 25.97600
N  26.72300 51.49400 24.81000
C  27.70900 51.02900 24.04100
C  27.41600 51.25800 22.50900
C  25.86800 51.55900 22.61600
C  25.67400 51.85500 24.03300
C  28.22300 52.40100 21.93200
C  24.94700 50.38000 22.19100
C  24.02000 50.58800 20.99700
N  24.69800 51.89600 26.83800
C  23.89100 52.30300 25.78700
C  22.63200 52.84600 26.26900
C  22.71800 52.70400 27.65300
C  23.97900 52.15100 27.93000
C  21.52300 53.59800 25.51100
C  22.01500 52.91400 28.91200
O  20.83000 53.20500 29.16100
C  23.01300 52.54100 30.02200
C  23.24500 53.65000 30.93600
O  23.59900 54.80400 30.68300
O  22.99700 53.16400 32.20900
C  23.48400 54.00500 33.37100
H  29.51200 50.27400 30.34700
H  29.58100 50.30700 23.77100
H  23.66800 52.41100 23.67700
H  25.15400 51.87600 31.94100
H  27.28300 49.86700 31.97400
H  28.63300 51.27400 32.80600
H  27.09400 52.36800 32.91900
H  28.45000 52.48400 31.72700
H  25.28000 48.95400 31.95100
H  23.90200 49.49700 30.95200
H  22.70000 50.09500 32.62600
H  23.92500 50.89700 33.46600
H  31.46600 49.53700 29.88900
H  32.46900 49.87700 28.59900
H  31.94800 48.18900 28.79700
H  32.58000 47.63700 26.49200
H  33.59000 49.16600 26.59400
H  33.58900 48.20200 25.13100
H  27.54000 50.37600 21.88100
H  25.48500 52.46600 22.14700
H  29.17500 52.45100 22.46100
H  27.73900 53.37100 22.04300
H  28.43000 52.17500 20.88600
H  24.21800 50.05800 22.93400
H  25.64000 49.61300 21.84600
H  22.99000 50.50200 21.34300
H  24.16600 49.89700 20.16700
H  24.11100 51.59100 20.57900
H  21.00000 54.36400 26.08300
H  20.74700 52.88000 25.24500
H  21.96600 54.07000 24.63500
H  22.62000 51.66100 30.53300
H  24.34400 53.44500 33.73700
H  22.68800 53.99700 34.11500
H  23.67700 55.07700 33.31900

