158

Mg 0.57200 7.44700 25.69900
C  1.25100 9.67400 28.27500
C  0.88400 4.89500 27.92700
C  0.01300 5.20300 23.09500
C  1.00700 9.96000 23.39300
N  1.18900 7.29600 27.82400
C  1.22000 8.35500 28.69900
C  1.35300 7.89900 30.12100
C  1.53300 6.33000 29.96800
C  1.14100 6.16200 28.49300
C  2.90900 5.69600 30.33400
C  0.01000 8.31500 30.84800
C  0.16700 8.61500 32.36000
H  1.29800 8.01600 33.08300
N  0.47000 5.38800 25.54300
C  0.57900 4.50700 26.59800
C  0.13300 3.22100 26.15900
C  -0.00500 3.17000 24.76600
C  0.21900 4.66800 24.40800
C  -0.03900 2.09800 27.11400
C  -0.31200 2.06400 23.86100
O  -0.54000 2.30900 22.67600
C  -0.34600 0.56900 24.47100
N  0.76300 7.56000 23.51400
C  0.33800 6.51700 22.70400
C  0.06200 7.05300 21.28900
C  0.41800 8.53900 21.43600
C  0.70300 8.71200 22.87800
C  0.76700 6.29700 20.10100
C  -0.46100 9.58400 20.74800
C  -1.80000 9.88600 21.47200
N  0.99100 9.48700 25.74600
C  1.16900 10.37200 24.74600
C  1.60600 11.66400 25.35600
C  1.60900 11.42000 26.75000
C  1.12900 10.11800 26.95900
C  1.84300 12.98100 24.54400
C  1.89900 11.99500 28.01300
O  2.24500 13.12700 28.29800
C  1.69500 10.87600 29.08600
C  2.93100 10.72400 29.89200
O  3.98600 10.17400 29.53600
O  2.67600 11.20400 31.15200
C  3.80700 11.15100 32.12100
H  1.01500 4.04800 28.60300
H  -0.15400 4.60100 22.19900
H  0.98400 10.82100 22.72200
H  2.22800 8.28700 30.64400
H  0.81600 5.81000 30.60200
H  3.54000 6.53800 30.61800
H  3.40400 5.17200 29.51600
H  2.71600 5.06200 31.19900
H  -0.82500 7.67500 30.56300
H  -0.36300 9.24400 30.41700
H  -0.76100 8.36200 32.87200
H  0.21300 9.70400 32.38300
H  -0.30800 2.42500 28.11800
H  0.84400 1.46100 27.14300
H  -0.88200 1.48400 26.79500
H  -1.21500 0.30600 25.07400
H  0.59100 0.41900 25.00600
H  -0.36000 -0.16500 23.66500
H  -1.01900 6.97100 21.18300
H  1.36100 8.74100 20.92800
H  1.36000 5.61800 20.71500
H  1.53700 6.78900 19.50700
H  0.01800 5.74900 19.52900
H  -0.71700 9.50700 19.69100
H  0.10600 10.50900 20.85100
H  -1.84400 10.74600 22.14000
H  -2.08700 9.04300 22.10100
H  -2.55400 10.09900 20.71400
H  1.50100 13.80600 25.17000
H  1.38200 13.14300 23.57000
H  2.92600 13.04700 24.44400
H  0.93300 11.13800 29.82000
H  3.71300 11.69600 33.06000
H  4.79700 11.28300 31.68500
H  4.00300 10.14900 32.50100
Mg 30.12400 59.32200 39.31400
C  27.39800 57.38200 38.36500
C  32.17600 56.83800 38.46900
C  32.71700 61.49700 39.55200
C  27.87800 61.98100 39.38200
N  29.75000 57.40800 38.48200
C  28.61800 56.75300 38.18200
C  28.93500 55.32700 37.55200
C  30.27200 55.09000 38.31100
C  30.79500 56.57100 38.44700
C  29.96300 54.36700 39.67600
C  28.85000 55.33500 35.96000
C  27.78200 54.34700 35.48100
H  26.72400 54.81600 34.49500
N  32.26100 59.15900 39.11600
C  32.87000 58.00500 38.81000
C  34.32100 58.27200 38.89200
C  34.52400 59.65800 39.17200
C  33.13100 60.14800 39.30200
C  35.31200 57.19900 38.68600
C  35.87300 60.28300 39.29700
O  36.92100 59.66500 39.28900
C  35.94600 61.74300 39.38900
N  30.30900 61.46400 39.46800
C  31.45800 62.08800 39.70400
C  31.18700 63.57900 39.78600
C  29.63200 63.70400 39.61900
C  29.23100 62.29600 39.42400
C  31.84300 64.40500 40.95300
C  29.21600 64.60000 38.38300
C  28.14000 65.62400 38.63000
N  28.00300 59.68800 39.05800
C  27.26400 60.81900 39.14100
C  25.88300 60.56500 38.83900
C  25.87400 59.14900 38.59900
C  27.19500 58.70700 38.62100
C  24.71800 61.53900 38.91700
C  25.07100 57.94100 38.34200
O  23.84000 57.81600 38.34200
C  26.00700 56.77800 38.22800
C  25.78300 55.72600 39.25800
O  25.85600 55.95200 40.48600
O  25.60600 54.48300 38.64100
C  25.49400 53.35500 39.52900
H  32.82500 55.98100 38.27900
H  33.56300 62.18500 39.62100
H  27.23800 62.86500 39.33700
H  28.22100 54.64200 38.00800
H  31.00800 54.50600 37.76000
H  30.52400 54.69100 40.55200
H  29.99800 53.28200 39.57700
H  28.98400 54.71900 40.00300
H  29.81200 55.02900 35.55000
H  28.66300 56.35000 35.60800
H  27.27200 54.02500 36.39000
H  28.21400 53.40200 35.15000
H  35.72600 57.25200 37.67900
H  34.79300 56.25900 38.87600
H  36.17000 57.33400 39.34500
H  37.02100 61.91800 39.35700
H  35.55200 61.96800 40.38100
H  35.45600 62.19500 38.52700
H  31.66500 63.94600 38.87800
H  29.30200 63.85700 40.64700
H  31.49900 64.20400 41.96700
H  31.70000 65.46600 40.74700
H  32.91300 64.22500 40.84700
H  28.84300 64.00500 37.54900
H  30.12000 65.15400 38.12900
H  28.41800 66.67400 38.54600
H  27.66100 65.41300 39.58600
H  27.31600 65.30200 37.99300
H  25.04300 62.52300 38.57800
H  24.31000 61.59100 39.92600
H  23.87600 61.21200 38.30600
H  25.76500 56.30400 37.27700
H  24.47600 53.24500 39.90100
H  26.31200 53.37600 40.25000
H  25.53700 52.46500 38.90200

