158

Mg -1.35800 17.78700 27.40700
C  -1.88000 15.59000 29.92100
C  -2.25200 20.39400 29.50200
C  -1.61100 20.00400 24.80700
C  -1.18000 15.14200 25.14600
N  -1.92400 17.89000 29.47400
C  -2.09400 16.88300 30.32500
C  -2.32500 17.36400 31.75700
C  -2.94500 18.84500 31.43800
C  -2.34200 19.05200 30.04800
C  -4.44400 19.01100 31.51100
C  -1.03500 17.32100 32.61800
C  -1.23700 16.67100 33.95300
H  -0.06100 16.41600 34.96300
N  -1.51000 19.94100 27.26100
C  -1.92300 20.83700 28.20400
C  -2.05900 22.17600 27.60900
C  -1.68000 22.06100 26.27000
C  -1.60300 20.62200 26.04900
C  -2.35900 23.47700 28.39400
C  -1.38800 23.12600 25.34000
O  -0.89100 22.94900 24.26900
C  -1.61500 24.61700 25.66800
N  -1.45000 17.60500 25.40500
C  -1.65100 18.65700 24.51200
C  -1.99400 18.08700 23.03000
C  -1.22300 16.68800 23.13800
C  -1.39800 16.44800 24.65800
C  -3.49800 18.00500 22.72800
C  0.27200 16.78600 22.56900
C  1.52100 16.51100 23.47300
N  -1.22900 15.74000 27.53300
C  -1.16100 14.80500 26.51300
C  -1.19300 13.46000 27.11100
C  -1.47800 13.73600 28.45000
C  -1.50600 15.11300 28.61400
C  -1.28600 12.10700 26.42200
C  -1.79900 13.11900 29.73300
O  -1.87100 11.92400 29.99700
C  -1.87300 14.33000 30.75200
C  -0.67300 14.06900 31.61500
O  0.39200 14.54400 31.35300
O  -0.91100 13.27000 32.68000
C  0.21200 12.94600 33.53500
H  -2.67100 21.20200 30.10400
H  -1.76900 20.69000 23.97200
H  -1.08300 14.35500 24.39500
H  -3.07500 16.68500 32.16200
H  -2.54700 19.50400 32.20900
H  -4.75200 19.11500 32.55200
H  -4.90600 18.07700 31.19100
H  -4.80000 19.71800 30.76200
H  -0.78700 18.38100 32.65500
H  -0.29600 16.68100 32.13600
H  -1.70000 15.70500 33.75500
H  -1.94000 17.34600 34.44000
H  -2.74600 23.27800 29.39400
H  -3.20400 24.03000 27.98500
H  -1.48800 24.09800 28.60300
H  -1.02300 24.83800 26.55600
H  -2.68200 24.53200 25.87300
H  -1.35300 25.29900 24.85900
H  -1.60400 18.75300 22.26000
H  -1.74500 15.93600 22.54600
H  -3.76300 18.53800 21.81400
H  -4.07000 18.33200 23.59500
H  -3.82900 16.98300 22.54500
H  0.49000 17.76100 22.13200
H  0.43700 16.09200 21.74500
H  2.19000 17.36400 23.35900
H  2.04900 15.64300 23.07800
H  1.22600 16.36400 24.51200
H  -0.44900 11.53600 26.82400
H  -1.22700 12.22200 25.33900
H  -2.24100 11.61200 26.59600
H  -2.73000 14.32800 31.42500
H  -0.16100 13.28200 34.50200
H  1.03400 13.64900 33.40100
H  0.50200 11.89500 33.54400
Mg 0.65500 43.73600 26.02200
C  2.89200 43.25400 28.53200
C  -1.92800 43.41300 28.29400
C  -1.45700 43.66900 23.39400
C  3.36300 43.69400 23.74100
N  0.49500 43.65000 28.19200
C  1.61000 43.48800 28.94900
C  1.16800 43.51900 30.49000
C  -0.40900 43.31800 30.33600
C  -0.66700 43.57700 28.86500
C  -1.12700 41.95800 30.81400
C  1.71900 44.79900 31.32200
C  1.33600 44.90300 32.82100
H  0.95400 43.61500 33.59400
N  -1.47000 43.45700 25.89100
C  -2.37500 43.38700 26.94000
C  -3.69400 43.41700 26.36800
C  -3.55100 43.48800 24.92300
C  -2.10600 43.60400 24.68000
C  -4.95000 43.56700 27.20300
C  -4.55600 43.34700 23.83000
O  -4.29300 43.31000 22.59900
C  -6.00900 43.10500 24.23000
N  0.90000 43.67000 23.89800
C  -0.12600 43.64400 23.05300
C  0.33900 43.68700 21.60100
C  1.87800 43.83500 21.68500
C  2.09700 43.66800 23.17800
C  -0.29400 42.65200 20.64100
C  2.48000 45.11700 21.07700
C  2.04500 45.47400 19.66000
N  2.71200 43.67400 26.06500
C  3.70500 43.59400 25.06800
C  4.92300 43.48700 25.70900
C  4.67200 43.24400 26.99600
C  3.32500 43.39200 27.20400
C  6.24800 43.74900 25.02500
C  5.37100 43.01700 28.25700
O  6.54100 42.99300 28.57900
C  4.20800 43.05700 29.26600
C  4.30600 41.86100 30.13200
O  3.74500 40.80700 29.94300
O  5.00600 42.18500 31.29800
C  5.14800 41.15600 32.40500
H  -2.75200 43.17900 28.97100
H  -2.13200 43.81800 22.54900
H  4.13700 43.66400 22.97200
H  1.51800 42.61100 30.98000
H  -0.92700 44.13300 30.84100
H  -0.36400 41.25500 31.14600
H  -1.69600 41.44400 30.03900
H  -1.88800 42.21200 31.55100
H  1.32400 45.63200 30.74000
H  2.79900 44.93400 31.26900
H  0.53600 45.61600 33.02000
H  2.11000 45.29800 33.47800
H  -5.74900 44.07700 26.66500
H  -4.74200 44.16100 28.09400
H  -5.39000 42.61700 27.50700
H  -6.48200 44.05400 24.48100
H  -5.85700 42.42400 25.06800
H  -6.50200 42.75200 23.32500
H  0.02800 44.68300 21.28500
H  2.28600 43.01700 21.09100
H  -0.81200 41.80000 21.08200
H  0.40600 42.21800 19.92700
H  -1.07100 43.16200 20.07300
H  3.56900 45.10600 21.13300
H  2.20100 45.92900 21.74800
H  1.42600 44.66000 19.28300
H  2.97200 45.44300 19.08800
H  1.56000 46.43500 19.49000
H  6.41500 44.81300 24.85700
H  6.40100 43.16300 24.11900
H  7.01000 43.26100 25.63300
H  4.47000 43.89700 29.91000
H  4.73300 41.60200 33.30800
H  6.19000 40.97800 32.67000
H  4.70200 40.17300 32.25300

