158

Mg 16.91500 -1.31800 27.47600
C  15.90500 0.79700 30.09900
C  18.93200 -2.93800 29.68200
C  18.12800 -3.13600 24.85600
C  15.13200 0.70400 25.28900
N  17.43200 -1.06300 29.65500
C  16.80200 -0.26500 30.50600
C  17.39300 -0.41700 31.96900
C  18.53900 -1.49400 31.76400
C  18.37900 -1.81300 30.26900
C  19.93900 -1.01200 32.11300
C  16.26100 -0.94100 32.97700
C  16.23200 -0.38500 34.33700
H  17.56400 0.08400 34.97700
N  18.25900 -2.86800 27.26900
C  18.97300 -3.39600 28.32400
C  19.61000 -4.60700 27.87600
C  19.27600 -4.77600 26.49500
C  18.53400 -3.57300 26.17700
C  20.49100 -5.47000 28.82200
C  19.74400 -5.83400 25.49200
O  19.44700 -5.79900 24.31500
C  20.60000 -7.08800 25.96000
N  16.70100 -1.18500 25.36300
C  17.28200 -2.09700 24.50700
C  17.19800 -1.54200 23.04200
C  16.06200 -0.40600 23.23600
C  15.87200 -0.28900 24.71900
C  18.53600 -1.08500 22.37900
C  14.68300 -0.67000 22.50700
C  13.96200 0.55100 21.79500
N  15.72300 0.38600 27.55800
C  15.00700 1.04700 26.63100
C  14.23800 2.16100 27.18100
C  14.52600 2.06300 28.59600
C  15.42500 0.97000 28.76700
C  13.47100 3.14400 26.36400
C  14.35300 2.70300 29.85600
O  13.71400 3.69100 30.23700
C  15.13100 1.84400 30.92900
C  15.92000 2.81000 31.66500
O  16.90300 3.35200 31.20700
O  15.50000 3.00500 32.93000
C  16.22300 3.80400 33.98100
H  19.60400 -3.42300 30.39400
H  18.56200 -3.66200 24.00200
H  14.63000 1.40600 24.62000
H  17.84600 0.53000 32.26300
H  18.34900 -2.34400 32.41900
H  19.98500 0.04200 32.38400
H  20.69200 -1.28000 31.37200
H  20.26900 -1.61400 32.96000
H  16.40900 -2.01300 33.10800
H  15.28700 -0.89900 32.49000
H  15.85800 -1.13600 35.03300
H  15.51100 0.43100 34.29500
H  20.06100 -6.46200 28.96600
H  20.81100 -4.91000 29.70100
H  21.36000 -5.66100 28.19200
H  21.57800 -6.64900 26.15900
H  20.77700 -7.78700 25.14200
H  20.25800 -7.63500 26.83800
H  16.83500 -2.36300 22.42400
H  16.29900 0.57400 22.82100
H  18.46800 -0.09200 21.93300
H  18.82500 -1.77000 21.58200
H  19.26600 -0.95400 23.17800
H  13.94300 -1.14700 23.15000
H  15.08200 -1.38000 21.78300
H  13.40600 0.23700 20.91100
H  14.63100 1.37300 21.54000
H  13.13700 0.91700 22.40500
H  13.69100 3.14100 25.29700
H  13.95500 4.07700 26.65400
H  12.39500 3.16800 26.53500
H  14.24000 1.54800 31.48300
H  17.06500 4.35100 33.55600
H  16.47500 3.16700 34.82900
H  15.55800 4.52000 34.46400
Mg -11.06900 40.63300 42.03600
C  -10.40100 37.21200 40.96200
C  -7.85500 41.47500 41.10300
C  -12.05900 43.83500 41.79300
C  -14.24600 39.58200 42.70100
N  -9.32900 39.45900 40.96900
C  -9.25700 38.06700 40.70600
C  -7.88700 37.70000 40.18400
C  -7.02300 38.99700 40.62600
C  -8.08700 40.10100 40.81500
C  -6.18200 38.69700 41.88900
C  -7.90900 37.50400 38.67400
C  -7.15300 36.22900 38.24100
H  -5.84600 36.49300 37.41700
N  -10.06600 42.38700 41.62000
C  -8.74300 42.50800 41.38500
C  -8.36000 43.90400 41.39400
C  -9.61300 44.60300 41.46500
C  -10.63400 43.60900 41.67200
C  -6.94400 44.28300 41.27600
C  -9.73500 46.14300 41.25500
O  -8.76700 46.83200 40.83800
C  -11.06700 46.77600 41.38000
N  -12.93500 41.55400 42.06300
C  -13.12700 42.89500 41.96000
C  -14.61400 43.26300 42.15600
C  -15.19200 41.87900 42.65700
C  -14.03600 40.94700 42.57100
C  -14.92900 44.51300 42.94500
C  -16.50100 41.46800 41.98100
C  -17.70200 40.89800 42.81000
N  -12.11600 38.81900 42.02200
C  -13.37800 38.51300 42.31000
C  -13.66900 37.00200 42.27600
C  -12.54600 36.55500 41.71300
C  -11.59000 37.64500 41.56400
C  -14.94000 36.28300 42.67900
C  -11.93000 35.28500 41.30000
O  -12.28300 34.13600 41.48400
C  -10.52700 35.69600 40.77000
C  -9.44300 34.96500 41.52800
O  -8.89400 35.33500 42.51400
O  -9.16700 33.81600 40.90900
C  -8.15300 32.92600 41.46000
H  -6.80500 41.68600 40.89000
H  -12.39900 44.87200 41.83800
H  -15.23100 39.28600 43.06700
H  -7.48500 36.82300 40.69100
H  -6.31300 39.23700 39.83400
H  -6.68700 38.23300 42.73600
H  -5.85200 39.67600 42.23500
H  -5.31100 38.06100 41.73400
H  -7.37800 38.32500 38.19400
H  -8.92100 37.57800 38.27700
H  -7.89400 35.58300 37.76800
H  -6.86400 35.65600 39.12100
H  -6.25800 43.62500 41.81000
H  -6.66600 45.32700 41.42600
H  -6.61900 44.26400 40.23600
H  -11.65100 46.26800 40.61300
H  -11.05400 47.86500 41.42900
H  -11.46900 46.63900 42.38400
H  -14.96500 43.31100 41.12500
H  -15.57000 41.91000 43.67900
H  -14.05700 45.14800 43.10200
H  -15.39000 44.27200 43.90300
H  -15.74900 45.07300 42.49500
H  -16.28900 40.70900 41.22700
H  -16.89000 42.32900 41.43700
H  -18.10100 39.93200 42.50200
H  -18.60000 41.50800 42.72000
H  -17.35800 40.82600 43.84200
H  -14.87000 35.74600 43.62500
H  -15.12500 35.48700 41.95800
H  -15.83000 36.91000 42.62000
H  -10.66900 35.37900 39.73700
H  -8.65800 32.02100 41.79700
H  -7.65900 33.35200 42.33300
H  -7.38400 32.72700 40.71400

