158

Mg 8.01800 3.44500 28.46500
C  9.75300 2.21900 31.30100
C  6.31800 5.68400 30.64900
C  6.27500 4.70200 25.84900
C  9.38300 0.92300 26.53800
N  7.93600 3.82500 30.60900
C  8.81000 3.27400 31.53600
C  8.53800 3.80200 32.97800
C  7.38100 4.72600 32.75400
C  7.19500 4.78700 31.17600
C  6.15200 4.50100 33.60300
C  9.89700 4.54600 33.40900
C  9.90300 5.54000 34.58600
H  10.52700 5.09300 35.86500
N  6.64200 5.12400 28.24000
C  6.03200 5.82600 29.26000
C  5.08900 6.78100 28.62900
C  5.19200 6.58500 27.20900
C  6.13300 5.43500 27.02800
C  4.27100 7.71100 29.40000
C  4.38100 7.25800 26.15600
O  4.46900 7.02400 24.97000
C  3.43200 8.38800 26.50300
N  7.74000 2.79700 26.53900
C  7.04000 3.57000 25.61800
C  7.17700 3.02500 24.18400
C  8.21700 1.87100 24.44200
C  8.44400 1.79600 25.91900
C  5.82900 2.44500 23.44500
C  9.58900 1.94900 23.66800
C  10.72500 2.80100 24.39600
N  9.37500 1.88400 28.77500
C  9.81100 0.95900 27.91000
C  10.78200 0.08700 28.51300
C  10.79100 0.53700 29.88000
C  9.89400 1.64700 30.00900
C  11.60300 -0.92500 27.75100
C  11.32300 0.32300 31.21100
O  12.09200 -0.56200 31.47200
C  10.69100 1.35400 32.13100
C  9.95600 0.76700 33.31400
O  8.78700 0.35700 33.33600
O  10.88100 0.62200 34.39900
C  10.40500 -0.33200 35.38000
H  5.83300 6.39200 31.32400
H  5.87100 5.12000 24.92400
H  9.86900 0.17300 25.91100
H  8.28600 2.98100 33.64800
H  7.66200 5.77400 32.85800
H  5.39800 4.14300 32.90200
H  5.65600 5.40400 33.96100
H  6.24300 3.70100 34.33800
H  10.42200 4.99000 32.56300
H  10.62800 3.76100 33.59900
H  8.89600 5.82000 34.89300
H  10.41300 6.45300 34.27700
H  4.36700 8.65700 28.86700
H  4.82900 7.83800 30.32800
H  3.23000 7.48900 29.63300
H  2.87400 8.05400 27.37800
H  2.79500 8.59900 25.64400
H  3.89300 9.34500 26.74900
H  7.50300 3.88000 23.59200
H  7.81300 0.95000 24.02100
H  4.91600 2.96900 23.72800
H  5.73300 1.39000 23.70100
H  6.01200 2.42900 22.37100
H  9.41800 2.20800 22.62300
H  9.93600 0.92700 23.51500
H  10.36600 3.45200 25.19200
H  11.30200 3.42600 23.71500
H  11.54000 2.18300 24.77400
H  11.98000 -0.67200 26.76000
H  11.08200 -1.86500 27.56900
H  12.45700 -1.12800 28.39800
H  11.46000 2.03300 32.50100
H  10.47200 0.15900 36.35100
H  11.01500 -1.23500 35.37000
H  9.34400 -0.56700 35.29300
Mg 27.21900 51.02700 26.26000
C  25.23500 52.00600 29.12400
C  29.60800 50.04800 28.50300
C  29.16500 50.17200 23.50100
C  24.96700 52.56600 24.29000
N  27.36600 51.00800 28.49000
C  26.44800 51.33700 29.45600
C  26.88900 51.09700 30.89400
C  28.40700 50.72300 30.65800
C  28.50600 50.67800 29.09500
C  29.43400 51.65000 31.38100
C  26.00900 50.00900 31.60400
C  25.46700 50.36700 32.99600
H  26.45500 50.71600 34.15300
N  29.14800 50.22900 26.04800
C  29.93100 49.82100 27.18900
C  31.09100 49.10300 26.66900
C  31.04600 49.34500 25.23400
C  29.75400 49.99300 24.83300
C  32.04400 48.29200 27.51800
C  32.06900 48.96400 24.12200
O  31.97900 49.32700 22.94400
C  33.22000 48.19900 24.46600
N  27.16300 51.40200 24.11400
C  27.91900 50.84100 23.19500
C  27.34200 50.95000 21.83600
C  25.95500 51.65900 22.09700
C  26.02600 51.96700 23.59600
C  28.24900 51.61900 20.80400
C  24.77600 50.70800 21.72100
C  23.45700 51.39900 21.30800
N  25.48500 52.03100 26.61200
C  24.70000 52.59500 25.64700
C  23.50600 53.18700 26.24000
C  23.73800 52.96600 27.60000
C  24.93900 52.28900 27.77400
C  22.26600 53.86200 25.63200
C  23.14200 53.20800 28.95600
O  22.18100 53.85300 29.27600
C  24.16400 52.61500 29.96600
C  24.70900 53.67000 30.82300
O  25.73500 54.28600 30.66000
O  23.85400 53.81100 31.88800
C  24.23000 54.89700 32.78500
H  30.31300 49.64000 29.23000
H  29.74900 49.66000 22.73300
H  24.13200 52.83100 23.63800
H  26.84800 52.01600 31.47800
H  28.62100 49.73700 31.06900
H  29.05100 52.59600 31.76400
H  29.96100 52.01200 30.49700
H  30.09300 51.11100 32.06100
H  26.63900 49.12600 31.71500
H  25.23200 49.58500 30.96800
H  24.77700 49.55700 33.23700
H  24.76600 51.18600 32.83400
H  31.96800 47.24800 27.21600
H  31.70100 48.30400 28.55200
H  33.09800 48.55600 27.42700
H  32.88500 47.35900 25.07500
H  33.79900 48.88000 25.08900
H  33.69000 47.82800 23.55500
H  27.27800 49.95100 21.40500
H  25.84700 52.63500 21.62400
H  28.59500 50.88200 20.07900
H  28.99400 52.22200 21.32400
H  27.71200 52.27600 20.12000
H  24.56400 49.92000 22.44400
H  25.17000 50.26100 20.80800
H  23.11700 51.13700 20.30600
H  23.55800 52.48400 21.35700
H  22.78300 51.11400 22.11600
H  22.34400 54.94800 25.59400
H  21.48900 53.68000 26.37500
H  22.06200 53.41500 24.65900
H  23.75900 51.83500 30.61000
H  24.98900 54.48700 33.45100
H  23.39800 55.13900 33.44700
H  24.46500 55.81200 32.24200

