158

Mg 1.57100 7.95000 25.13700
C  2.76100 9.86600 27.89400
C  1.70100 5.16300 27.13500
C  1.13000 6.05100 22.35700
C  1.97600 10.79400 23.11100
N  2.52600 7.58600 27.24800
C  2.54200 8.55500 28.26500
C  2.31400 7.87000 29.70100
C  2.14100 6.34300 29.31300
C  2.13900 6.36800 27.76100
C  3.33100 5.42100 29.88600
C  1.21600 8.48500 30.55200
C  1.60700 8.94600 32.00400
H  2.65300 8.23900 32.80300
N  1.43300 5.95300 24.76000
C  1.51100 4.95000 25.73300
C  1.20300 3.69200 25.16800
C  0.98200 3.94100 23.78000
C  1.23000 5.38000 23.52800
C  1.05100 2.38400 25.95800
C  0.74200 2.89800 22.67800
O  0.90200 3.26200 21.52000
C  0.56300 1.41900 22.93500
N  1.80800 8.31700 22.98900
C  1.36000 7.40600 22.11100
C  1.26000 7.97500 20.72000
C  1.37300 9.48000 20.94100
C  1.73900 9.58000 22.43000
C  2.27800 7.26900 19.76200
C  0.15700 10.34400 20.58900
C  -1.04000 10.10900 21.51400
N  2.18600 9.95500 25.40000
C  2.20600 11.01000 24.47200
C  2.72900 12.21000 25.12300
C  2.84300 11.90100 26.51100
C  2.53000 10.47500 26.59200
C  2.92200 13.52300 24.46900
C  3.10800 12.31000 27.95400
O  3.33400 13.42900 28.38700
C  2.89900 11.05200 28.89400
C  4.04000 10.96200 29.89100
O  5.14100 10.54200 29.70300
O  3.56500 11.53400 31.13000
C  4.53200 11.66400 32.18200
H  1.39600 4.41000 27.86500
H  0.73800 5.55400 21.46700
H  2.06900 11.60900 22.39000
H  3.27500 7.97500 30.20300
H  1.17600 6.02500 29.70700
H  2.82900 4.57200 30.35100
H  3.99800 5.84800 30.63500
H  4.00800 5.06200 29.11100
H  0.34200 7.86900 30.76400
H  0.92100 9.35600 29.96700
H  0.70200 8.90500 32.61000
H  1.87100 10.00200 32.05600
H  0.09700 1.89600 25.75700
H  0.95500 2.69600 26.99800
H  1.87000 1.66900 25.89600
H  1.42700 0.86200 23.29700
H  0.08700 0.97800 22.05900
H  -0.25800 1.41000 23.65100
H  0.29300 7.78400 20.25500
H  2.17700 9.94300 20.36900
H  3.08500 7.97900 19.58000
H  1.84000 7.06500 18.78500
H  2.56900 6.29100 20.14500
H  0.03000 10.09200 19.53600
H  0.47300 11.38700 20.60300
H  -1.82600 9.57400 20.98100
H  -1.42900 11.08500 21.80200
H  -0.65600 9.56200 22.37500
H  3.60200 13.44200 23.62100
H  3.33800 14.25000 25.16600
H  2.02300 13.92400 24.00000
H  1.92900 11.30500 29.32000
H  4.25600 11.00700 33.00600
H  4.45000 12.66400 32.60900
H  5.50300 11.37300 31.78200
Mg 54.67400 22.91600 45.10100
C  52.40500 25.15000 43.73700
C  52.50300 20.31600 44.04900
C  57.10800 20.69200 45.57800
C  56.78800 25.62100 45.83100
N  52.74700 22.85800 44.06700
C  51.98700 23.83600 43.59100
C  50.65000 23.36000 43.00100
C  50.52000 21.87100 43.57500
C  52.04200 21.66900 43.95900
C  49.53700 21.67200 44.78300
C  50.47000 23.47200 41.47800
C  49.08700 23.88400 40.96600
H  48.59000 23.21100 39.66600
N  54.82200 20.75200 44.84200
C  53.84800 19.92000 44.34600
C  54.34600 18.55900 44.41600
C  55.73300 18.63100 44.91800
C  55.97000 20.08700 45.13900
C  53.59500 17.40400 43.82100
C  56.59800 17.45200 45.08900
O  56.23200 16.32300 44.76400
C  58.05900 17.61900 45.42700
N  56.79200 23.15000 45.36800
C  57.51600 22.05300 45.74100
C  58.80400 22.50700 46.46900
C  58.60500 24.08800 46.70100
C  57.36600 24.34200 45.77700
C  59.25400 21.76000 47.78800
C  59.83900 24.99600 46.30300
C  60.48200 25.80800 47.45700
N  54.59800 25.05500 45.01400
C  55.51400 26.05700 45.29300
C  54.85300 27.25200 45.23200
C  53.64500 26.94100 44.60400
C  53.59400 25.59800 44.41500
C  55.25600 28.62800 45.62500
C  52.44000 27.54900 44.10100
O  52.03100 28.72000 43.97500
C  51.63100 26.41800 43.50300
C  51.56400 26.73600 42.08100
O  52.50600 26.68400 41.33900
O  50.34700 27.22100 41.75500
C  50.24500 27.53300 40.29800
H  51.78400 19.49500 44.06700
H  57.97100 20.05900 45.79400
H  57.32900 26.52200 46.12800
H  49.82900 23.92600 43.44100
H  50.22200 21.11000 42.85300
H  49.94800 21.04000 45.57100
H  48.60500 21.17000 44.52200
H  49.35700 22.65100 45.22700
H  50.66800 22.52700 40.97200
H  51.19200 24.21200 41.13500
H  48.90800 24.92300 40.68700
H  48.38300 23.68000 41.77200
H  52.78500 17.70900 43.15800
H  53.26500 16.67600 44.56300
H  54.32400 16.95400 43.14700
H  58.60700 18.19900 44.68400
H  58.52900 16.64100 45.32800
H  58.25100 17.90900 46.46000
H  59.67500 22.38800 45.82500
H  58.33000 24.31500 47.73100
H  59.40700 22.45000 48.61800
H  60.23000 21.29700 47.64900
H  58.54300 20.97100 48.03300
H  59.66100 25.69900 45.48900
H  60.63300 24.35400 45.92200
H  60.37900 26.86500 47.21300
H  61.52600 25.62100 47.71100
H  59.89900 25.65800 48.36500
H  55.36200 28.72000 46.70600
H  54.51100 29.32800 45.24600
H  56.22900 28.87600 45.20200
H  50.63200 26.43500 43.93700
H  51.02600 28.15600 39.86300
H  49.30300 27.89700 39.88700
H  50.33800 26.58400 39.76900

