158

Mg 35.89100 47.97600 26.60400
C  36.07600 46.00900 29.49200
C  34.81400 50.54600 28.58200
C  36.11800 49.86000 23.89400
C  36.46300 45.05500 24.72000
N  35.58400 48.27700 28.84700
C  35.75100 47.32200 29.78000
C  35.58300 47.94600 31.15400
C  34.64800 49.20100 30.83400
C  34.95500 49.34000 29.32600
C  33.10700 49.04400 31.07600
C  36.95300 48.53400 31.74800
C  37.14700 48.38900 33.26700
H  36.72600 49.47900 34.21900
N  35.43500 49.91100 26.22400
C  34.98600 50.89900 27.20600
C  34.90700 52.17700 26.60400
C  35.23600 51.98800 25.25700
C  35.62400 50.57700 25.07200
C  34.39200 53.45900 27.40400
C  35.29700 53.05400 24.05800
O  35.38500 52.74200 22.87700
C  35.08700 54.53300 24.27400
N  36.07700 47.42600 24.49100
C  36.25100 48.47900 23.60700
C  36.65200 47.88500 22.16800
C  36.57000 46.31200 22.41000
C  36.39400 46.20100 23.93100
C  35.76900 48.29500 20.96200
C  37.73300 45.45600 21.90200
C  37.55700 44.80200 20.56000
N  36.14300 45.92800 26.94200
C  36.39400 44.85500 26.04900
C  36.58400 43.60500 26.84300
C  36.57400 44.07300 28.16700
C  36.21100 45.43400 28.18100
C  36.73900 42.17300 26.28000
C  36.72300 43.63500 29.53800
O  37.07400 42.56100 29.94700
C  36.45900 44.91700 30.48400
C  35.37600 44.58700 31.40800
O  34.24400 44.19500 31.13800
O  35.84400 44.80000 32.68400
C  34.85300 44.58800 33.75600
H  34.48400 51.39100 29.19000
H  36.24300 50.54000 23.04800
H  36.65400 44.10300 24.21900
H  35.07700 47.27200 31.84600
H  34.94900 50.08900 31.38900
H  33.04400 48.15800 31.70800
H  32.58400 49.05100 30.12000
H  32.71200 49.88100 31.65300
H  37.04100 49.58000 31.45300
H  37.74800 47.94700 31.28900
H  38.21200 48.27800 33.47300
H  36.69300 47.44200 33.55900
H  34.75600 54.40400 27.00100
H  34.69200 53.31700 28.44200
H  33.30300 53.41400 27.41900
H  34.27000 54.67500 24.98300
H  34.68400 55.06300 23.41100
H  35.93000 55.08100 24.69600
H  37.67000 48.17600 21.91100
H  35.69900 45.88700 21.91100
H  34.96500 48.97200 21.25000
H  35.40400 47.49600 20.31600
H  36.35000 48.92900 20.29200
H  37.89700 44.69200 22.66300
H  38.66800 46.01000 21.81600
H  38.43600 44.99200 19.94300
H  36.67000 45.04200 19.97400
H  37.52300 43.72200 20.70400
H  36.35300 41.42500 26.97300
H  37.77300 41.99800 25.98400
H  36.18300 41.99500 25.36000
H  37.38600 45.15300 31.00700
H  35.33800 44.87100 34.69000
H  34.60200 43.54500 33.94600
H  33.95600 45.13100 33.46100
Mg 16.62200 51.76900 25.35900
C  18.26100 50.65700 28.23300
C  13.94400 52.73600 27.36000
C  15.01400 52.80100 22.55700
C  19.26000 50.32300 23.41300
N  16.13300 51.64300 27.48300
C  17.01400 51.23800 28.50500
C  16.36200 51.35600 29.92200
C  14.86500 51.76700 29.59800
C  14.92600 52.08800 28.05200
C  13.70200 50.84000 30.06900
C  17.04700 52.32300 30.86700
C  17.38900 51.73300 32.26500
H  16.33200 51.91000 33.49200
N  14.75300 52.66200 25.00600
C  13.86300 53.11000 26.00100
C  12.76500 53.83400 25.32600
C  12.96900 53.71000 23.93000
C  14.27500 52.98600 23.75600
C  11.63400 54.55500 26.01000
C  12.11300 54.24700 22.78400
O  12.46800 54.11100 21.63200
C  10.83200 54.89400 23.07800
N  17.12100 51.77200 23.34800
C  16.24900 52.20800 22.33300
C  16.89100 52.02600 20.94000
C  18.33000 51.47000 21.29100
C  18.24400 51.18700 22.79000
C  16.16300 51.06100 20.02000
C  19.58500 52.29600 20.86000
C  20.76900 51.56700 20.22900
N  18.38500 50.53400 25.66100
C  19.30900 50.04100 24.80300
C  20.29500 49.29300 25.55500
C  20.02300 49.63300 26.94000
C  18.79900 50.37100 26.95000
C  21.49500 48.56600 25.02000
C  20.43100 49.44300 28.27800
O  21.42100 48.83300 28.74500
C  19.34500 50.07000 29.20900
C  18.98600 49.03900 30.20500
O  18.36200 48.04700 29.89000
O  19.44600 49.26700 31.47000
C  19.18500 48.27500 32.54900
H  13.10500 53.07200 27.97300
H  14.44600 53.19500 21.71200
H  20.10900 50.08100 22.77000
H  16.30700 50.32800 30.28100
H  14.66200 52.75500 30.01100
H  13.97100 49.85100 30.43800
H  13.18000 50.81700 29.11200
H  13.08000 51.33900 30.81200
H  16.37300 53.16700 31.01700
H  17.89900 52.77500 30.35900
H  18.33400 52.16700 32.59300
H  17.53100 50.65900 32.14600
H  10.66000 54.11000 25.80400
H  11.70500 55.63300 25.86200
H  11.92600 54.30900 27.03000
H  10.17400 54.23400 23.64300
H  10.40700 55.11200 22.09900
H  10.86200 55.85400 23.59500
H  16.90000 53.03500 20.52900
H  18.55500 50.51300 20.81900
H  15.91400 50.14100 20.54900
H  16.90300 50.65900 19.32800
H  15.32400 51.53900 19.51500
H  19.85700 52.67800 21.84400
H  19.42900 53.18100 20.24200
H  20.82800 52.02100 19.24000
H  20.68700 50.48200 20.17400
H  21.67800 51.75600 20.80100
H  21.61800 48.60300 23.93800
H  21.52800 47.49400 25.21500
H  22.39700 49.00900 25.44400
H  19.75100 50.89900 29.78800
H  18.87400 48.78800 33.45900
H  20.14200 47.78600 32.73400
H  18.43100 47.51400 32.35200

