158

Mg 2.77000 -3.49600 45.12900
C  6.07200 -2.53800 44.28800
C  1.47400 -1.22100 43.03000
C  -0.23900 -4.93800 45.73500
C  4.31900 -6.08000 47.29600
N  3.69000 -2.15600 43.73300
C  5.04100 -1.84800 43.55100
C  5.22400 -0.74600 42.56800
C  3.78600 -0.31700 42.14600
C  2.93000 -1.21200 43.10900
C  3.55100 1.23900 42.17200
C  6.17200 -1.12100 41.39500
C  7.34400 -0.10400 41.20300
H  7.74400 0.27600 39.75400
N  0.84800 -3.19000 44.41400
C  0.51300 -2.10400 43.56500
C  -0.96000 -2.12500 43.51800
C  -1.43000 -3.37400 44.10300
C  -0.23800 -3.94900 44.77400
C  -1.75100 -1.09300 42.85700
C  -2.84900 -3.94200 44.08700
O  -3.77500 -3.35200 43.47700
C  -3.13400 -5.31000 44.59300
N  2.15200 -5.29200 46.28200
C  0.84800 -5.56600 46.38500
C  0.65700 -6.77100 47.33600
C  2.09200 -7.31700 47.57200
C  2.90200 -6.16800 47.04600
C  -0.21100 -6.56600 48.61500
C  2.56400 -8.56200 46.71700
C  3.38500 -9.62600 47.56800
N  4.72300 -4.19900 45.71000
C  5.18200 -5.17300 46.57300
C  6.61300 -5.10600 46.66000
C  6.99700 -4.04900 45.84300
C  5.80700 -3.55800 45.21400
C  7.48300 -6.00600 47.50800
C  8.17500 -3.26900 45.36300
O  9.35000 -3.36000 45.63600
C  7.54800 -2.19700 44.39900
C  7.85500 -0.84000 45.03400
O  7.51000 -0.61900 46.13400
O  8.30300 0.05600 44.12000
C  8.34300 1.46900 44.63500
H  1.10400 -0.37300 42.45100
H  -1.26300 -5.18600 46.02300
H  4.72200 -6.90600 47.88500
H  5.73300 -0.01000 43.19000
H  3.52900 -0.67900 41.15100
H  4.40600 1.80700 42.53700
H  2.71400 1.43100 42.84400
H  3.18900 1.52300 41.18300
H  5.59100 -1.16400 40.47400
H  6.50800 -2.14800 41.53700
H  8.21500 -0.52800 41.70300
H  7.14500 0.80500 41.77100
H  -1.61400 -1.19900 41.78100
H  -1.27600 -0.17400 43.20300
H  -2.77500 -0.96500 43.20900
H  -3.41400 -5.45700 45.63600
H  -2.37200 -5.99800 44.22700
H  -4.01100 -5.59800 44.01300
H  0.15900 -7.47600 46.67000
H  2.27900 -7.55000 48.62000
H  -0.22500 -5.58100 49.08100
H  0.18200 -7.32100 49.29500
H  -1.22700 -6.87700 48.37100
H  3.30700 -8.25200 45.98200
H  1.69500 -9.01500 46.23900
H  2.85200 -9.74300 48.51200
H  4.35200 -9.15900 47.75700
H  3.46100 -10.56900 47.02700
H  7.87200 -6.91000 47.03900
H  6.99500 -6.27300 48.44500
H  8.26100 -5.32700 47.85900
H  8.07800 -2.17600 43.44700
H  9.20700 1.54800 45.29500
H  7.36100 1.67000 45.06400
H  8.47100 2.19500 43.83300
Mg 6.68100 53.74700 41.82600
C  6.22600 50.19800 41.58400
C  9.79400 53.13000 40.48800
C  7.21100 57.08200 41.78200
C  3.39600 54.15900 42.50600
N  7.85900 51.81000 41.16400
C  7.49000 50.55800 41.06900
C  8.56800 49.68800 40.47200
C  9.84200 50.60000 40.46700
C  9.09800 51.94100 40.69300
C  10.96200 50.39700 41.52700
C  8.14000 49.03500 39.19100
C  7.52900 49.94700 38.04600
H  6.94700 49.34700 36.75500
N  8.29700 54.94700 41.16800
C  9.44800 54.48400 40.55900
C  10.29700 55.63100 40.17200
C  9.69000 56.79200 40.72300
C  8.34700 56.34800 41.31500
C  11.65000 55.42600 39.36000
C  10.19900 58.17900 40.62400
O  11.28400 58.44400 40.10800
C  9.60400 59.29100 41.33900
N  5.51400 55.37100 42.14400
C  5.93300 56.68400 42.15400
C  4.87100 57.66500 42.65700
C  3.61500 56.70600 42.79800
C  4.20300 55.31700 42.46700
C  5.35700 58.28500 43.98400
C  2.34700 57.20000 41.94700
C  0.92400 56.89300 42.53100
N  5.12200 52.49400 42.27100
C  3.78100 52.75200 42.52300
C  3.09500 51.59300 42.74800
C  4.02600 50.52900 42.52400
C  5.22200 51.11400 42.11400
C  1.68000 51.44200 43.15400
C  4.22700 49.09100 42.48000
O  3.47000 48.23100 42.83700
C  5.57100 48.80300 41.83400
C  5.31200 48.11200 40.50900
O  4.95100 48.68400 39.45100
O  5.48600 46.73000 40.62400
C  5.31800 46.05600 39.37500
H  10.80100 52.96400 40.09700
H  7.46500 58.14400 41.81600
H  2.32600 54.30500 42.66600
H  8.69800 48.93400 41.24800
H  10.19000 50.53600 39.43600
H  10.72700 49.50200 42.10300
H  11.09900 51.23600 42.20800
H  11.94500 50.21400 41.09300
H  7.47100 48.20900 39.43400
H  9.10300 48.62000 38.89300
H  8.37400 50.52500 37.67300
H  6.89200 50.66100 38.56800
H  11.85100 56.28700 38.72200
H  11.66200 54.44800 38.87900
H  12.46800 55.32100 40.07300
H  8.84400 59.48200 40.58000
H  10.30500 60.12400 41.36800
H  9.35500 58.91800 42.33200
H  4.65200 58.48200 41.97000
H  3.39300 56.74600 43.86400
H  4.78100 57.89000 44.82100
H  5.05400 59.33000 44.05900
H  6.38500 58.03900 44.25200
H  2.36800 56.66000 41.00000
H  2.36800 58.26100 41.69500
H  0.42300 57.75900 42.96400
H  1.09000 56.11100 43.27100
H  0.42400 56.41500 41.68900
H  1.36100 52.17400 43.89600
H  1.33400 50.48900 43.55500
H  1.13900 51.74600 42.25800
H  6.24500 48.19800 42.44200
H  6.13900 46.34100 38.71700
H  4.37700 46.12500 38.83000
H  5.39100 44.98900 39.58700

