158

Mg 30.23500 58.75100 39.15400
C  27.29000 56.96800 38.36500
C  32.03000 56.08300 38.13000
C  33.02200 60.69600 39.26800
C  28.19900 61.62300 39.52700
N  29.69100 56.80500 38.18200
C  28.44100 56.23500 38.17800
C  28.57900 54.71500 37.99500
C  30.11000 54.45600 38.26100
C  30.67900 55.86700 38.08000
C  30.50500 53.74800 39.64100
C  28.04400 54.27300 36.58900
C  28.73900 55.03300 35.40700
H  27.76200 55.39000 34.21600
N  32.31600 58.38800 38.77900
C  32.82700 57.19100 38.32000
C  34.31100 57.38500 38.27800
C  34.63800 58.67200 38.65700
C  33.30500 59.35500 38.90000
C  35.11400 56.20200 37.78200
C  36.00400 59.26900 38.74700
O  36.97000 58.60700 38.44400
C  36.25900 60.59800 39.33400
N  30.59200 60.84800 39.28300
C  31.83800 61.33400 39.44300
C  31.74400 62.78100 39.80300
C  30.20900 63.10800 39.87200
C  29.61700 61.76900 39.50300
C  32.39400 63.30600 41.16900
C  29.68900 64.31800 39.01500
C  29.13400 65.54400 39.77800
N  28.11800 59.23100 39.18500
C  27.47900 60.43300 39.28200
C  26.07300 60.23600 39.29900
C  25.93400 58.84700 38.89000
C  27.21200 58.29700 38.79200
C  25.05900 61.41300 39.47500
C  24.91700 57.85300 38.60700
O  23.70700 57.90200 38.60200
C  25.80900 56.53800 38.30500
C  25.37600 55.45200 39.21100
O  25.71600 55.44400 40.41500
O  24.56800 54.53600 38.59600
C  24.22200 53.40200 39.41100
H  32.67900 55.20900 38.03900
H  33.91300 61.30700 39.42200
H  27.65000 62.53600 39.76900
H  27.99100 54.23500 38.77800
H  30.46500 53.80200 37.46500
H  29.59600 53.24900 39.97800
H  30.82200 54.49100 40.37300
H  31.18900 52.95500 39.33800
H  26.97200 54.46100 36.51400
H  28.35500 53.23400 36.48400
H  29.63500 54.45700 35.17800
H  29.27200 55.92900 35.72600
H  34.55400 55.61200 37.05700
H  35.36800 55.60200 38.65600
H  36.09200 56.51200 37.41400
H  35.73100 60.64600 40.28600
H  35.90100 61.37600 38.65900
H  37.34000 60.72300 39.39700
H  32.27800 63.35000 39.04200
H  29.93100 63.43700 40.87300
H  32.48500 64.38700 41.06200
H  33.41200 62.92700 41.08400
H  31.87100 63.06700 42.09400
H  28.80100 64.08100 38.42900
H  30.44500 64.64300 38.30000
H  29.70200 66.45000 39.56300
H  29.24600 65.37400 40.84900
H  28.12600 65.67100 39.38400
H  25.26000 62.20200 38.74900
H  25.14000 61.85400 40.46800
H  24.07700 60.94600 39.54900
H  25.49500 56.20500 37.31600
H  25.15600 52.84700 39.49700
H  23.44100 52.81100 38.93400
H  23.73900 53.76200 40.32000
Mg 9.55400 48.04100 26.74500
C  7.61800 47.92300 29.59800
C  12.17000 49.49500 28.38200
C  11.32500 47.67600 23.88500
C  6.61800 47.20800 25.02800
N  9.72200 48.86800 28.71600
C  8.89000 48.47400 29.75900
C  9.63000 48.68900 31.08800
C  10.89600 49.48400 30.63300
C  10.97600 49.28200 29.13700
C  10.90300 50.93500 31.11800
C  9.93900 47.54600 32.11900
C  9.60400 47.86000 33.58900
H  9.61900 46.63200 34.54200
N  11.51300 48.54900 26.13500
C  12.40300 49.10200 27.01500
C  13.71400 49.13700 26.37000
C  13.45600 48.54900 25.07200
C  12.05800 48.23900 24.95800
C  14.95900 49.73800 26.98400
C  14.43300 48.31100 23.94500
O  14.08500 47.79700 22.87300
C  15.93400 48.53900 24.18500
N  9.02400 47.59600 24.76400
C  9.88800 47.48300 23.79200
C  9.34900 46.77900 22.62400
C  7.83300 46.87400 22.86200
C  7.78300 47.30400 24.34100
C  9.84800 47.30500 21.27000
C  7.06200 45.53600 22.58900
C  5.82600 45.82700 21.68700
N  7.46100 47.65900 27.15300
C  6.45500 47.26900 26.39000
C  5.26400 47.00800 27.13400
C  5.64200 47.32600 28.53000
C  7.01500 47.59100 28.39800
C  3.89100 46.63800 26.58900
C  5.21400 47.49700 29.86500
O  4.13200 47.31600 30.42200
C  6.55500 47.67900 30.68400
C  6.88600 46.37100 31.32000
O  7.47500 45.48400 30.80000
O  6.30400 46.29200 32.49800
C  6.30400 45.04300 33.24300
H  12.95000 50.03200 28.92600
H  11.83900 47.32100 22.99000
H  5.76200 46.97500 24.39200
H  8.93700 49.30400 31.66300
H  11.83600 49.03500 30.95200
H  10.83300 51.49100 30.18300
H  11.84100 51.10700 31.64600
H  10.03500 51.14900 31.74100
H  11.02800 47.53400 32.15000
H  9.72800 46.51800 31.82400
H  8.70300 48.43200 33.81200
H  10.54400 48.29900 33.92400
H  15.64400 48.93000 27.24300
H  14.70300 50.35800 27.84300
H  15.41700 50.37900 26.23000
H  16.18800 48.15100 25.17200
H  16.17500 49.60100 24.15700
H  16.52300 48.08400 23.38900
H  9.60600 45.73900 22.82900
H  7.41200 47.64200 22.21300
H  10.23300 48.30800 21.45600
H  9.05000 47.28300 20.52700
H  10.63900 46.66300 20.88300
H  6.77400 44.99100 23.48700
H  7.73300 44.91700 21.99300
H  5.74600 45.17100 20.82100
H  5.75900 46.84700 21.30800
H  4.89200 45.60500 22.20300
H  3.81500 46.36400 25.53600
H  3.26300 47.51900 26.72400
H  3.51700 45.79500 27.17000
H  6.42700 48.49700 31.39400
H  5.84000 45.03300 34.23000
H  7.35700 44.79200 33.36800
H  5.84700 44.24700 32.65500

