158

Mg 24.37000 -5.09300 46.11900
C  25.89200 -2.18300 44.63800
C  21.71700 -4.36800 44.12600
C  23.25300 -8.04600 46.67500
C  27.48800 -5.87200 47.51800
N  23.83300 -3.25500 44.70500
C  24.63500 -2.40300 44.11200
C  23.96700 -1.52300 43.03500
C  22.48300 -2.15300 43.08300
C  22.61400 -3.31300 44.09500
C  21.53000 -1.03700 43.55200
C  24.70700 -1.65600 41.67700
C  25.39800 -0.37100 41.09500
H  25.51900 -0.34800 39.56100
N  22.59500 -6.04800 45.61000
C  21.66600 -5.64700 44.73700
C  20.59100 -6.60600 44.65900
C  21.08500 -7.79700 45.27500
C  22.35100 -7.35200 45.90900
C  19.29600 -6.38200 43.80300
C  20.54400 -9.15800 45.22100
O  19.50300 -9.43000 44.68000
C  21.14300 -10.38400 45.78400
N  25.26800 -6.72900 46.96800
C  24.53900 -7.85400 47.16100
C  25.33300 -8.82200 47.95000
C  26.65600 -8.12500 48.33000
C  26.43600 -6.83700 47.61700
C  24.59200 -9.46100 49.12500
C  27.97100 -8.89300 47.94500
C  29.12000 -8.92300 49.02600
N  26.36500 -4.16200 46.28400
C  27.44900 -4.59600 46.87200
C  28.49800 -3.66200 46.78700
C  27.95800 -2.72900 45.82500
C  26.62700 -3.07900 45.53700
C  29.86800 -3.80100 47.30500
C  28.26800 -1.59300 45.11500
O  29.33500 -0.97100 45.19500
C  26.99600 -1.19000 44.21100
C  26.70200 0.27200 44.62500
O  25.83700 0.67100 45.40500
O  27.24300 1.10400 43.67200
C  26.67900 2.42000 43.51300
H  20.86700 -4.16000 43.47300
H  22.83700 -9.03200 46.89300
H  28.39400 -6.24100 48.00200
H  23.94700 -0.47000 43.31700
H  22.33400 -2.53900 42.07400
H  21.14700 -0.50600 42.68000
H  22.06500 -0.31400 44.16700
H  20.75300 -1.46400 44.18700
H  23.98800 -1.98600 40.92600
H  25.48100 -2.42200 41.72500
H  26.37700 -0.10600 41.49500
H  24.71200 0.41400 41.41400
H  18.42800 -6.87800 44.23700
H  19.34400 -6.69700 42.76100
H  18.86000 -5.38300 43.78800
H  20.52900 -11.28200 45.70400
H  21.32700 -10.17100 46.83700
H  22.09100 -10.60100 45.29300
H  25.55700 -9.59100 47.21100
H  26.76600 -7.80100 49.36500
H  23.73000 -8.86100 49.41500
H  25.28400 -9.46100 49.96700
H  24.28400 -10.47000 48.85100
H  28.50600 -8.50300 47.07900
H  27.67600 -9.94100 47.90300
H  30.09000 -8.73700 48.56400
H  29.14800 -9.84400 49.60700
H  29.10400 -8.10000 49.74100
H  30.22100 -2.77400 47.39800
H  30.35800 -4.32800 46.48600
H  29.88500 -4.46200 48.17100
H  27.23400 -1.25300 43.14900
H  27.52800 3.09200 43.38700
H  26.16500 2.95300 44.31300
H  26.00700 2.33500 42.65900
Mg -6.12100 24.67300 25.83800
C  -4.65300 26.30600 28.57300
C  -7.99400 22.78200 28.09500
C  -7.18900 22.83600 23.25200
C  -3.84600 26.29300 23.81000
N  -6.27100 24.65500 28.03000
C  -5.63600 25.37700 28.95900
C  -6.06200 24.98900 30.35700
C  -6.85200 23.67500 30.24200
C  -7.10200 23.69300 28.68600
C  -6.09600 22.50900 30.90600
C  -6.87100 26.14900 31.05600
C  -6.64200 26.49900 32.59000
H  -5.80500 25.52600 33.51100
N  -7.54000 23.16700 25.66500
C  -8.20800 22.55000 26.69700
C  -9.17900 21.64100 26.12900
C  -8.93300 21.61300 24.70800
C  -7.82800 22.54200 24.50100
C  -10.28700 21.03100 26.90200
C  -9.74000 20.87000 23.61300
O  -9.43600 20.88000 22.39200
C  -10.89000 20.08900 24.03600
N  -5.62500 24.56600 23.87000
C  -6.12800 23.67400 22.96600
C  -5.70100 23.87500 21.51300
C  -4.61000 24.99200 21.66500
C  -4.68000 25.34400 23.20100
C  -5.27900 22.52400 20.81400
C  -4.92900 26.22400 20.77600
C  -3.72200 26.70600 20.08600
N  -4.55700 26.05300 26.16000
C  -3.76900 26.66200 25.19400
C  -2.82700 27.65800 25.77700
C  -3.16900 27.56200 27.17400
C  -4.23200 26.61100 27.34300
C  -1.91600 28.54700 25.04100
C  -2.78400 28.05900 28.44900
O  -2.01300 28.91100 28.78000
C  -3.78300 27.27300 29.44700
C  -2.91900 26.52300 30.35700
O  -2.51700 25.34600 30.18300
O  -2.51400 27.28300 31.36100
C  -1.62900 26.72400 32.39500
H  -8.62700 22.15400 28.72600
H  -7.58800 22.27100 22.40700
H  -3.23400 26.80400 23.06400
H  -5.10800 24.80200 30.85000
H  -7.85100 23.65600 30.67700
H  -6.50200 22.43800 31.91500
H  -5.01200 22.62100 30.94900
H  -6.44700 21.60600 30.40800
H  -7.93400 25.92900 30.95200
H  -6.64400 27.03900 30.47000
H  -7.62800 26.56200 33.05100
H  -6.30300 27.52900 32.70100
H  -10.27800 21.51000 27.88200
H  -10.14000 19.98700 27.17800
H  -11.31700 21.12300 26.55700
H  -10.60900 19.31000 24.74500
H  -11.11200 19.40100 23.22000
H  -11.75700 20.68300 24.32400
H  -6.58200 24.21100 20.96600
H  -3.64800 24.54300 21.41500
H  -4.22400 22.64300 20.56700
H  -5.94700 22.31200 19.97900
H  -5.29900 21.76500 21.59700
H  -5.36200 27.05000 21.34100
H  -5.72100 26.02400 20.05400
H  -3.80600 27.25900 19.15000
H  -2.90800 26.02400 19.84100
H  -3.30700 27.45800 20.75700
H  -2.41400 29.45200 24.69400
H  -1.48000 27.90800 24.27300
H  -1.12100 28.73700 25.76100
H  -4.47400 27.98400 29.89900
H  -1.30200 27.61000 32.93900
H  -0.74800 26.26300 31.94700
H  -2.20900 25.97900 32.93900

