158

Mg -10.47000 39.00500 40.21800
C  -8.98200 35.81800 40.32600
C  -7.65200 40.28500 38.79700
C  -12.27900 41.94900 39.63400
C  -13.43200 37.57800 41.51600
N  -8.54600 38.12800 39.62300
C  -8.11400 36.81100 39.73000
C  -6.81200 36.56900 38.98000
C  -6.33200 38.08300 38.93600
C  -7.61500 38.87500 39.05200
C  -5.30300 38.38400 40.08400
C  -7.09800 35.88500 37.60800
C  -6.11100 34.88000 37.00900
H  -5.29800 35.40800 35.82200
N  -10.04700 40.89600 39.30000
C  -8.72700 41.24100 38.97400
C  -8.77200 42.65000 38.69300
C  -10.09500 43.16800 38.84700
C  -10.92900 41.98500 39.21300
C  -7.51500 43.37200 38.40900
C  -10.45200 44.66200 38.58200
O  -9.61900 45.41500 38.19100
C  -11.84800 45.11000 38.70200
N  -12.66700 39.55800 40.23200
C  -13.03800 40.87300 40.16400
C  -14.51100 41.07200 40.50100
C  -14.89400 39.65800 41.04600
C  -13.60300 38.87600 40.92500
C  -14.59700 42.17900 41.59700
C  -16.25000 38.92800 40.49100
C  -17.51800 39.73200 40.45800
N  -11.11300 37.11200 40.95800
C  -12.29700 36.63400 41.48500
C  -12.13000 35.28100 41.93400
C  -10.86900 34.87100 41.43000
C  -10.25000 36.02500 40.82400
C  -13.11500 34.43700 42.76200
C  -9.99300 33.69500 41.30200
O  -10.05400 32.53300 41.69800
C  -8.83700 34.28000 40.37200
C  -7.47200 33.84000 40.86800
O  -6.83000 32.96100 40.28100
O  -7.20000 34.37900 42.16000
C  -5.90600 33.92500 42.80300
H  -6.66700 40.74400 38.68400
H  -12.86400 42.85300 39.45300
H  -14.31600 37.10000 41.94300
H  -6.14400 35.98100 39.61000
H  -5.88100 38.13300 37.94400
H  -5.79500 39.25400 40.51900
H  -4.27400 38.60900 39.80700
H  -5.26300 37.62500 40.86600
H  -7.31100 36.72100 36.94200
H  -8.04700 35.35000 37.64800
H  -6.59800 33.93000 36.78700
H  -5.40300 34.68600 37.81500
H  -7.54700 43.83000 37.42100
H  -6.62100 42.75000 38.46800
H  -7.38700 44.21800 39.08400
H  -12.44000 44.93800 39.60100
H  -12.35500 44.63300 37.86300
H  -11.85500 46.16200 38.41700
H  -15.14000 41.26700 39.63200
H  -15.10200 39.68800 42.11600
H  -15.24200 42.93200 41.14600
H  -13.62300 42.62200 41.80200
H  -15.11900 41.85300 42.49700
H  -16.31400 38.00700 41.07100
H  -16.05500 38.63100 39.46100
H  -17.39100 40.74000 40.85500
H  -18.25400 39.22500 41.08100
H  -17.82000 39.79200 39.41300
H  -12.78700 33.39800 42.80600
H  -14.09500 34.39300 42.28800
H  -13.26000 34.90100 43.73800
H  -8.98600 33.78100 39.41500
H  -5.13400 34.32900 42.14800
H  -5.81900 32.84200 42.88300
H  -5.87400 34.27600 43.83500
Mg 1.79100 42.31500 25.44800
C  2.90000 42.71100 28.72600
C  -1.26000 41.18200 26.63500
C  0.82000 41.53800 22.33900
C  4.99800 43.06500 24.38600
N  1.07200 41.90000 27.47500
C  1.58500 42.29000 28.64500
C  0.67900 42.09700 29.84600
C  -0.64700 41.55600 29.16500
C  -0.30500 41.53700 27.59700
C  -1.18900 40.22800 29.76200
C  0.34500 43.34700 30.70300
C  0.89900 43.28800 32.15100
H  -0.08000 43.23100 33.27100
N  0.01400 41.48100 24.62800
C  -1.16100 41.09800 25.25000
C  -2.12800 40.61700 24.31900
C  -1.50200 40.67500 23.03500
C  -0.16500 41.32500 23.28600
C  -3.51600 40.15400 24.83100
C  -2.01900 40.31500 21.66500
O  -1.41000 40.45400 20.60500
C  -3.46800 39.76600 21.55200
N  2.72600 42.40300 23.67800
C  2.16000 42.05500 22.51500
C  3.09500 42.21700 21.30100
C  4.40900 42.84700 21.93700
C  4.04900 42.60100 23.44000
C  3.34400 41.01200 20.35900
C  4.56200 44.31700 21.57000
C  4.86400 44.67800 20.06800
N  3.62100 42.95100 26.33100
C  4.80900 43.19700 25.76600
C  5.72300 43.60800 26.83000
C  5.03900 43.39600 28.03100
C  3.76200 42.98700 27.67200
C  7.15200 44.05600 26.71000
C  5.10400 43.50300 29.44500
O  6.04600 43.84300 30.12200
C  3.68400 43.04500 30.03600
C  4.02100 41.75700 30.81300
O  4.04100 40.61200 30.38700
O  4.38400 42.15500 32.10300
C  4.65300 41.08000 33.07100
H  -2.23100 41.02800 27.11000
H  0.55800 41.39600 21.28800
H  6.03000 43.20900 24.05900
H  1.04300 41.41000 30.61000
H  -1.39900 42.33800 29.27000
H  -1.41400 39.44300 29.04000
H  -2.12100 40.56400 30.21800
H  -0.59200 39.88400 30.60700
H  -0.71100 43.59500 30.81100
H  0.83200 44.20300 30.23500
H  1.44800 44.21200 32.33100
H  1.54900 42.45900 32.42800
H  -3.45300 39.66200 25.80100
H  -3.97100 39.37800 24.21400
H  -4.15500 41.02600 24.97100
H  -3.70800 39.78900 20.48900
H  -4.16500 40.43100 22.06200
H  -3.46900 38.75200 21.95300
H  2.64500 43.01500 20.71000
H  5.37000 42.37800 21.72700
H  3.32200 41.55000 19.41100
H  2.61400 40.20300 20.36200
H  4.33900 40.62300 20.57500
H  5.25800 44.70600 22.31300
H  3.64600 44.88000 21.74700
H  5.26700 43.81200 19.54300
H  5.60800 45.46400 19.93600
H  3.96600 44.89400 19.48900
H  7.10500 44.59600 25.76400
H  7.80500 43.18400 26.75400
H  7.35500 44.77200 27.50600
H  3.34100 43.88700 30.63700
H  4.01600 41.17400 33.95100
H  5.71200 41.09900 33.32900
H  4.53200 40.08300 32.64600

