158

Mg 1.03900 8.23500 26.77300
C  1.84600 10.26800 29.48300
C  0.81400 5.54500 29.05900
C  0.69600 6.12200 24.06200
C  1.77600 10.86200 24.71100
N  1.47000 7.84700 28.91100
C  1.62300 8.90200 29.79200
C  1.38400 8.39800 31.31600
C  1.60100 6.86500 31.18100
C  1.28700 6.68600 29.63100
C  2.98300 6.34900 31.75700
C  0.01600 8.78300 31.80300
C  -0.23400 8.86300 33.31600
H  0.80400 8.42300 34.38300
N  0.75600 6.13000 26.64900
C  0.69400 5.18200 27.71100
C  0.40400 3.85300 27.15300
C  0.27600 3.99100 25.70600
C  0.66600 5.46700 25.38900
C  0.40600 2.55800 27.91700
C  0.00600 2.89800 24.62100
O  0.02700 3.24700 23.48700
C  -0.41000 1.48000 24.94100
N  1.29700 8.41900 24.71000
C  0.96900 7.43900 23.82300
C  1.05200 8.03100 22.38700
C  1.03200 9.56600 22.60800
C  1.45700 9.61100 24.13400
C  2.28100 7.56100 21.56100
C  -0.41500 10.19800 22.53600
C  -0.81600 10.86200 21.16300
N  1.59700 10.20400 26.99200
C  1.86600 11.16100 26.08200
C  2.20400 12.37500 26.72300
C  2.18700 12.07400 28.04900
C  1.84400 10.76000 28.16000
C  2.67300 13.66600 26.10700
C  2.40600 12.63700 29.42300
O  2.82700 13.75300 29.74200
C  2.09600 11.40700 30.46200
C  3.23100 11.15300 31.28300
O  4.22400 10.47800 30.98800
O  2.98900 11.76700 32.47600
C  3.95100 11.48600 33.51700
H  0.70500 4.69500 29.73600
H  0.36500 5.52500 23.20900
H  1.83100 11.73400 24.05700
H  2.18500 8.73600 31.97300
H  0.86500 6.37200 31.81600
H  2.79200 5.56600 32.49000
H  3.62000 7.14400 32.14400
H  3.52700 5.82300 30.97200
H  -0.73100 8.05900 31.47700
H  -0.27300 9.71800 31.32200
H  -1.09700 8.28100 33.64100
H  -0.48200 9.91200 33.48100
H  0.69100 2.70800 28.95800
H  1.18100 1.98200 27.41200
H  -0.50500 1.96400 27.84200
H  -0.68100 0.89500 24.06200
H  -1.27300 1.49200 25.60700
H  0.45500 1.10000 25.48400
H  0.14600 7.88000 21.79900
H  1.73100 10.12100 21.98200
H  2.48400 8.31800 20.80300
H  1.97300 6.56700 21.23700
H  3.08600 7.37200 22.27100
H  -0.60500 11.03000 23.21500
H  -1.15900 9.44500 22.79400
H  -1.76100 10.51300 20.74700
H  -0.01900 10.96500 20.42700
H  -0.96900 11.87200 21.54300
H  2.76300 14.45300 26.85600
H  1.90100 13.95500 25.39300
H  3.59900 13.48400 25.56200
H  1.19600 11.58300 31.05200
H  3.76300 10.46400 33.84500
H  4.03200 12.18400 34.35000
H  4.95500 11.67400 33.13600
Mg 6.61900 54.46500 41.61500
C  5.80600 50.96000 41.57500
C  9.61600 53.50000 40.07700
C  7.05400 57.67400 40.76900
C  3.32800 55.12800 42.63200
N  7.53200 52.40000 40.87100
C  7.06100 51.13700 41.04900
C  8.00600 50.14600 40.39400
C  9.33700 50.98200 40.34200
C  8.83000 52.43300 40.40200
C  10.30900 50.72900 41.54600
C  7.61400 49.62500 38.94600
C  6.71200 50.58600 38.06800
H  7.46700 51.23300 36.87500
N  8.14000 55.43400 40.61700
C  9.28600 54.87500 40.13500
C  10.18000 55.92900 39.84600
C  9.50800 57.17800 39.95800
C  8.18100 56.81800 40.47600
C  11.60800 55.61400 39.37000
C  10.01600 58.50500 39.52700
O  11.15300 58.70300 39.06400
C  9.17100 59.77300 39.68000
N  5.20200 56.20700 41.47000
C  5.79300 57.43600 41.30500
C  4.73100 58.54400 41.67300
C  3.51600 57.69000 42.25500
C  4.07100 56.25300 42.10300
C  5.32500 59.54800 42.64900
C  2.20600 57.80000 41.44900
C  0.86800 57.87000 42.23500
N  4.91400 53.32100 42.08800
C  3.61300 53.70500 42.48600
C  2.89600 52.49900 42.95100
C  3.73500 51.44800 42.62000
C  4.92100 51.99100 41.98600
C  1.61500 52.42900 43.70800
C  3.89300 49.94300 42.62700
O  3.28500 49.11400 43.26000
C  5.24500 49.59300 41.92100
C  4.88100 48.75900 40.74000
O  4.31000 49.21500 39.75300
O  5.09300 47.41700 41.03300
C  4.62600 46.47100 40.02100
H  10.61500 53.18300 39.77100
H  7.13100 58.76300 40.75800
H  2.38000 55.22000 43.16700
H  8.25000 49.27400 41.00200
H  9.76200 50.79000 39.35700
H  11.27400 51.01000 41.12600
H  10.40700 49.67900 41.82200
H  10.07700 51.38100 42.38900
H  7.13700 48.64700 39.01900
H  8.53200 49.53100 38.36700
H  6.47300 51.51100 38.59300
H  5.78900 50.19400 37.64200
H  11.55100 54.93500 38.51900
H  12.02300 55.10200 40.23800
H  12.34300 56.37900 39.12000
H  8.23500 59.52000 39.18100
H  9.56900 60.62400 39.12800
H  9.14300 60.00800 40.74400
H  4.34100 59.05100 40.79000
H  3.29000 57.89800 43.30100
H  4.77700 60.49000 42.66600
H  6.35800 59.83200 42.45000
H  5.37500 59.08300 43.63400
H  2.10800 56.89300 40.85300
H  2.24800 58.65400 40.77300
H  1.06900 57.53300 43.25100
H  0.15200 57.25100 41.69400
H  0.55500 58.91400 42.24300
H  0.77500 52.98600 43.29400
H  1.83000 52.86900 44.68100
H  1.26300 51.39800 43.74500
H  5.87800 49.11200 42.66600
H  5.17100 46.54300 39.07900
H  3.54200 46.42200 39.91600
H  4.87200 45.53100 40.51300

