158

Mg 1.76500 -1.76400 44.43800
C  5.14200 -1.15300 43.85800
C  0.97900 0.83800 42.40100
C  -1.38700 -2.92200 44.22000
C  2.75300 -4.64600 46.27600
N  2.86800 -0.48500 43.25800
C  4.24000 -0.48600 43.05700
C  4.68500 0.56900 42.04100
C  3.38600 1.39500 41.85800
C  2.33200 0.53900 42.53200
C  3.41600 2.76500 42.64700
C  5.12600 -0.14800 40.71200
C  6.45700 0.32600 40.15700
H  6.52400 1.14700 38.82700
N  -0.03800 -0.94200 43.59600
C  -0.14600 0.14200 42.79700
C  -1.53900 0.33500 42.44100
C  -2.30700 -0.69800 42.89400
C  -1.25300 -1.62800 43.59600
C  -1.92200 1.59700 41.73500
C  -3.80000 -0.90600 42.79300
O  -4.40400 -0.20900 41.99600
C  -4.50600 -2.00000 43.62000
N  0.82900 -3.62900 45.08700
C  -0.50500 -3.80300 44.94900
C  -0.90100 -5.24100 45.48800
C  0.42300 -5.62700 46.31800
C  1.39000 -4.57000 45.91400
C  -2.17200 -5.39900 46.41500
C  0.97400 -7.03800 46.10600
C  0.95900 -7.86100 47.38300
N  3.55300 -2.77700 45.04800
C  3.84700 -3.88100 45.80400
C  5.22000 -4.01100 45.99300
C  5.83200 -2.99400 45.20400
C  4.76700 -2.23700 44.67400
C  5.97700 -5.09800 46.70900
C  7.08000 -2.47400 44.61600
O  8.23800 -2.87900 44.78300
C  6.70200 -1.09000 43.79800
C  7.24700 0.15400 44.44000
O  6.93000 0.61300 45.51800
O  8.05500 0.80100 43.53900
C  8.54500 2.09300 43.99600
H  0.77200 1.69700 41.76000
H  -2.42200 -3.23800 44.07600
H  3.12300 -5.44000 46.92700
H  5.48300 1.19500 42.44000
H  3.18000 1.51800 40.79500
H  3.37400 3.60500 41.95400
H  4.33400 2.82700 43.23200
H  2.61400 2.81600 43.38200
H  4.29200 -0.10900 40.01100
H  5.28100 -1.17800 41.03300
H  7.30200 -0.35800 40.23200
H  6.85500 1.03500 40.88200
H  -2.85500 1.68800 41.17900
H  -1.15900 1.80900 40.98600
H  -1.70000 2.39700 42.44100
H  -4.42800 -2.99700 43.18600
H  -5.55300 -1.70200 43.68100
H  -4.08800 -1.98600 44.62600
H  -0.98800 -5.87200 44.60300
H  0.17600 -5.36500 47.34700
H  -2.77900 -4.49800 46.33200
H  -1.88400 -5.53200 47.45800
H  -2.68300 -6.25900 45.98200
H  2.00800 -7.07700 45.76400
H  0.36000 -7.66300 45.45700
H  1.66500 -8.66400 47.16700
H  -0.04100 -8.29300 47.39500
H  1.23500 -7.18900 48.19600
H  5.54400 -5.35100 47.67600
H  7.03900 -4.85700 46.75700
H  5.89300 -6.01200 46.12100
H  6.88900 -1.18900 42.72900
H  7.67100 2.74300 44.04200
H  9.22300 2.40700 43.20200
H  8.84300 1.93100 45.03200
Mg 54.20100 24.02700 45.35600
C  51.84100 26.33100 44.30500
C  52.33700 21.41700 44.33900
C  56.86800 22.15100 45.77500
C  56.24000 26.92300 46.23800
N  52.36200 23.86900 44.25500
C  51.49900 24.99200 43.96800
C  50.15600 24.40200 43.42700
C  50.20600 22.90000 43.88100
C  51.73400 22.73400 44.19300
C  49.37900 22.62900 45.12500
C  50.12800 24.53400 41.87800
C  48.78100 24.68700 41.24100
H  48.40400 23.73400 40.09800
N  54.59600 22.08300 44.90400
C  53.66700 21.11900 44.58100
C  54.31700 19.86600 44.63800
C  55.69400 20.06700 45.02300
C  55.81200 21.48800 45.25200
C  53.61300 18.54500 44.43200
C  56.62700 18.94800 45.37800
O  56.31600 17.77800 45.15600
C  57.97200 19.11700 46.05900
N  56.32000 24.45900 45.78600
C  57.21200 23.47000 46.01600
C  58.48400 23.95200 46.63900
C  58.34900 25.52600 46.62300
C  56.89400 25.69600 46.10400
C  58.68200 23.39700 48.10300
C  59.30600 26.28900 45.71000
C  60.63700 26.70500 46.35300
N  53.98300 26.19100 45.48200
C  54.88000 27.20400 45.89500
C  54.20800 28.47500 45.93600
C  52.93700 28.14800 45.29200
C  52.99000 26.79500 44.92400
C  54.59800 29.74400 46.57300
C  51.62700 28.68700 44.82000
O  51.08900 29.81300 44.80700
C  50.90900 27.46000 44.17700
C  50.62700 27.73600 42.78500
O  51.34000 28.18100 41.90500
O  49.28200 27.87400 42.67800
C  48.77800 28.59800 41.46900
H  51.64000 20.57800 44.30000
H  57.74800 21.53900 45.98300
H  56.70100 27.81500 46.66700
H  49.34000 24.99200 43.84400
H  49.84500 22.24700 43.08700
H  48.90200 23.48100 45.60800
H  50.08400 22.20100 45.83800
H  48.57000 21.91500 44.97600
H  50.50300 23.60000 41.45900
H  50.79900 25.30200 41.49400
H  48.65000 25.73400 40.97100
H  48.12100 24.34400 42.03700
H  54.20800 18.06700 43.65400
H  52.54400 18.46000 44.23700
H  53.78000 17.97400 45.34500
H  58.50300 18.19300 46.28700
H  57.82000 19.66100 46.99200
H  58.74100 19.61300 45.46600
H  59.32500 23.66700 46.00800
H  58.61000 25.91100 47.60900
H  59.66100 23.59700 48.53900
H  58.71500 22.30800 48.13200
H  57.86500 23.65200 48.77700
H  58.64200 27.13100 45.51300
H  59.39500 25.69700 44.79900
H  61.44100 26.67600 45.61800
H  60.91100 26.33500 47.34100
H  60.48900 27.75600 46.60100
H  55.64200 30.04500 46.48500
H  54.40800 29.50400 47.61900
H  53.87600 30.52600 46.34000
H  50.10100 27.15800 44.84400
H  47.81300 28.17900 41.18400
H  49.41500 28.62100 40.58500
H  48.64300 29.64600 41.73500

