158

Mg 44.60900 3.61900 47.07800
C  42.58500 6.23500 46.51700
C  41.69500 1.47700 47.11900
C  46.53800 0.87200 47.05100
C  47.34400 5.70100 46.62900
N  42.36100 3.77600 46.76700
C  41.81600 5.05900 46.55100
C  40.30900 4.95400 46.56100
C  40.02100 3.42300 46.95000
C  41.40000 2.86600 47.05500
C  39.06500 3.15900 48.17100
C  39.60000 5.39700 45.21700
C  40.32000 5.56400 43.88400
H  39.93400 6.65200 42.93100
N  44.18300 1.47300 47.10200
C  42.94500 0.82600 47.17900
C  43.16200 -0.62200 47.07100
C  44.57300 -0.84700 47.02300
C  45.18000 0.53900 47.05600
C  42.07200 -1.62200 46.94300
C  45.19600 -2.24500 46.88200
O  44.53500 -3.26800 46.71400
C  46.71400 -2.40700 46.89000
N  46.58900 3.25500 46.68500
C  47.19300 2.09200 46.84100
C  48.74300 2.08900 46.93000
C  48.95600 3.60700 46.75000
C  47.55300 4.24800 46.68100
C  49.38100 1.54500 48.18400
C  49.74800 4.00500 45.55300
C  51.03700 4.79700 45.65200
N  44.90900 5.64700 46.75000
C  46.10200 6.33800 46.65900
C  45.78200 7.70400 46.47800
C  44.39600 7.77900 46.52800
C  43.93100 6.47200 46.52300
C  46.77800 8.83300 46.40200
C  43.22200 8.63000 46.42500
O  43.10700 9.84200 46.38100
C  41.98900 7.68900 46.51900
C  41.03800 7.98100 47.60000
O  41.29900 7.97600 48.79500
O  39.86500 8.24400 46.98500
C  38.92500 8.90300 47.92600
H  40.84000 0.82300 46.93000
H  47.34700 0.13900 47.08400
H  48.20200 6.35400 46.80200
H  39.93600 5.57300 47.37700
H  39.58400 2.84600 46.13500
H  38.55500 2.24500 47.86600
H  38.25300 3.88600 48.19200
H  39.54900 3.07900 49.14400
H  38.89400 6.21700 45.34600
H  38.90100 4.60500 44.94800
H  40.14000 4.66700 43.29100
H  41.39000 5.35400 43.90000
H  41.11600 -1.15200 47.17200
H  42.18100 -2.50200 47.57700
H  41.96900 -1.90600 45.89600
H  46.93000 -3.46100 47.06800
H  47.14000 -1.90500 47.75900
H  47.05800 -2.03400 45.92500
H  49.09900 1.50200 46.08300
H  49.47500 3.97900 47.63300
H  50.06300 2.23600 48.67800
H  49.90800 0.63500 47.89700
H  48.68700 1.33700 48.99900
H  49.02100 4.67300 45.09100
H  49.85900 3.17800 44.85100
H  51.85100 4.32300 45.10400
H  51.38900 4.97700 46.66800
H  50.81900 5.78600 45.24700
H  47.52900 8.70200 45.62300
H  47.35400 8.77500 47.32500
H  46.32100 9.79600 46.17400
H  41.44400 7.84900 45.58900
H  37.98000 9.12500 47.43000
H  39.30400 9.88400 48.21200
H  38.84600 8.35700 48.86700
Mg 48.46800 35.59600 27.46800
C  46.58000 34.11200 30.08200
C  48.92200 38.30900 29.60300
C  50.12700 37.24100 25.03700
C  47.67200 33.05400 25.31600
N  47.72200 36.11600 29.63000
C  47.27100 35.23700 30.55100
C  47.43200 35.72500 31.95400
C  47.69700 37.27100 31.59700
C  48.20500 37.26600 30.17600
C  46.42200 38.13400 31.71000
C  48.65100 35.02200 32.58600
C  48.70500 34.98600 34.09900
H  47.62600 35.69500 34.83100
N  49.47000 37.47600 27.36900
C  49.52600 38.43900 28.28800
C  50.26700 39.50100 27.83700
C  50.84000 39.10300 26.59000
C  50.10500 37.94700 26.24100
C  50.47500 40.81100 28.60700
C  51.79400 39.81300 25.68900
O  52.22300 39.36400 24.65900
C  52.58400 40.98200 26.28900
N  49.06700 35.08500 25.48500
C  49.64100 35.95600 24.70500
C  49.59900 35.48600 23.23400
C  48.98400 34.09100 23.32100
C  48.54500 34.04400 24.81900
C  48.93200 36.48900 22.24200
C  50.01800 32.92700 23.15400
C  50.04000 32.11400 21.86600
N  47.35400 33.86800 27.61300
C  47.07800 32.95200 26.64500
C  46.19200 31.96000 27.22600
C  45.91500 32.37600 28.53100
C  46.70100 33.52800 28.74100
C  45.62400 30.86200 26.39900
C  45.24500 32.05300 29.75400
O  44.54800 31.08200 30.08900
C  45.55200 33.24400 30.77700
C  45.91200 32.68000 32.13200
O  46.89700 31.91200 32.38900
O  44.95300 33.06200 33.06000
C  45.08200 32.52900 34.45600
H  49.13400 39.18500 30.21900
H  50.50600 37.82300 24.19400
H  47.36900 32.28300 24.60500
H  46.52400 35.50200 32.51400
H  48.45900 37.61800 32.29500
H  45.53700 37.58600 32.03300
H  46.32300 38.66100 30.76000
H  46.71900 38.86000 32.46700
H  49.57200 35.34800 32.10200
H  48.56200 34.00900 32.19300
H  49.51800 35.60500 34.48100
H  48.84200 33.95700 34.43300
H  50.46500 41.60800 27.86400
H  51.43200 40.84900 29.12700
H  49.63600 40.93600 29.29300
H  51.90300 41.83000 26.36500
H  53.32200 41.48300 25.66200
H  53.01100 40.73900 27.26200
H  50.63800 35.43600 22.90700
H  48.04000 33.86500 22.82400
H  48.14800 36.02100 21.64700
H  49.67300 36.80600 21.50700
H  48.57400 37.34700 22.80900
H  49.96800 32.27500 24.02600
H  50.99300 33.40900 23.23000
H  49.30100 32.53200 21.18300
H  49.77600 31.06600 22.00900
H  51.02700 32.24300 21.42200
H  46.33400 30.32300 25.77200
H  44.85500 31.26600 25.74100
H  45.05000 30.18200 27.02900
H  44.64600 33.84500 30.86000
H  44.43900 31.66900 34.64400
H  44.69200 33.30900 35.10900
H  46.11300 32.35100 34.76200

